MODEL 1
REMARK minimizedAffinity 9.65369892
REMARK minimizedRMSD -1
REMARK  0 active torsions:
REMARK  status: ('A' for Active; 'I' for Inactive)
ROOT
ATOM      1  O1  BZF d   1      -3.571  -1.499  -1.987  0.00  0.00    -0.204 OA
ATOM      2  C2  BZF d   1      -3.018  -0.318  -1.531  0.00  0.00     0.174 A 
ATOM      3  C3  BZF d   1      -3.468   0.730  -2.251  0.00  0.00    -0.012 A 
ATOM      4  C3A BZF d   1      -4.428   0.179  -3.158  0.00  0.00    -0.107 A 
ATOM      5  C4  BZF d   1      -5.229   0.723  -4.121  0.00  0.00     0.055 A 
ATOM      6  C5  BZF d   1      -6.000  -0.099  -4.880  0.00  0.00    -0.016 A 
ATOM      7  C6  BZF d   1      -5.989  -1.468  -4.709  0.00  0.00     0.022 A 
ATOM      8  C7  BZF d   1      -5.214  -2.053  -3.763  0.00  0.00     0.029 A 
ATOM      9  C7A BZF d   1      -4.459  -1.222  -2.972  0.00  0.00     0.058 A 
ENDROOT
TORSDOF 0
ENDMDL
