MODEL 1
REMARK minimizedAffinity 9.3535881
REMARK minimizedRMSD -1
REMARK  0 active torsions:
REMARK  status: ('A' for Active; 'I' for Inactive)
ROOT
ATOM      1  O1  BZF d   1      -0.716  -0.401   0.479  0.00  0.00    -0.204 OA
ATOM      2  C2  BZF d   1      -0.721  -1.341   1.492  0.00  0.00     0.174 A 
ATOM      3  C3  BZF d   1      -1.889  -2.016   1.512  0.00  0.00    -0.012 A 
ATOM      4  C3A BZF d   1      -2.626  -1.527   0.387  0.00  0.00    -0.107 A 
ATOM      5  C4  BZF d   1      -3.854  -1.824  -0.131  0.00  0.00     0.055 A 
ATOM      6  C5  BZF d   1      -4.310  -1.113  -1.196  0.00  0.00    -0.016 A 
ATOM      7  C6  BZF d   1      -3.568  -0.097  -1.763  0.00  0.00     0.022 A 
ATOM      8  C7  BZF d   1      -2.342   0.230  -1.286  0.00  0.00     0.029 A 
ATOM      9  C7A BZF d   1      -1.864  -0.509  -0.231  0.00  0.00     0.058 A 
ENDROOT
TORSDOF 0
ENDMDL
