MODEL 1
REMARK minimizedAffinity 11.5609512
REMARK minimizedRMSD -1
REMARK  0 active torsions:
REMARK  status: ('A' for Active; 'I' for Inactive)
ROOT
ATOM      1  O1  BZF d   1       1.269  -4.488   0.540  0.00  0.00    -0.204 OA
ATOM      2  C2  BZF d   1       2.622  -4.395   0.278  0.00  0.00     0.174 A 
ATOM      3  C3  BZF d   1       3.057  -3.130   0.448  0.00  0.00    -0.012 A 
ATOM      4  C3A BZF d   1       1.922  -2.404   0.930  0.00  0.00    -0.107 A 
ATOM      5  C4  BZF d   1       1.727  -1.103   1.299  0.00  0.00     0.055 A 
ATOM      6  C5  BZF d   1       0.480  -0.698   1.654  0.00  0.00    -0.016 A 
ATOM      7  C6  BZF d   1      -0.594  -1.563   1.647  0.00  0.00     0.022 A 
ATOM      8  C7  BZF d   1      -0.449  -2.863   1.294  0.00  0.00     0.029 A 
ATOM      9  C7A BZF d   1       0.816  -3.284   0.966  0.00  0.00     0.058 A 
ENDROOT
TORSDOF 0
ENDMDL
