MODEL 1
REMARK minimizedAffinity 10.150897
REMARK minimizedRMSD -1
REMARK  0 active torsions:
REMARK  status: ('A' for Active; 'I' for Inactive)
ROOT
ATOM      1  O1  BZF d   1       0.495  -4.864   0.443  0.00  0.00    -0.204 OA
ATOM      2  C2  BZF d   1       1.691  -5.196  -0.164  0.00  0.00     0.174 A 
ATOM      3  C3  BZF d   1       2.553  -4.159  -0.119  0.00  0.00    -0.012 A 
ATOM      4  C3A BZF d   1       1.885  -3.146   0.639  0.00  0.00    -0.107 A 
ATOM      5  C4  BZF d   1       2.236  -1.889   1.039  0.00  0.00     0.055 A 
ATOM      6  C5  BZF d   1       1.327  -1.130   1.706  0.00  0.00    -0.016 A 
ATOM      7  C6  BZF d   1       0.058  -1.595   1.984  0.00  0.00     0.022 A 
ATOM      8  C7  BZF d   1      -0.335  -2.837   1.611  0.00  0.00     0.029 A 
ATOM      9  C7A BZF d   1       0.593  -3.619   0.966  0.00  0.00     0.058 A 
ENDROOT
TORSDOF 0
ENDMDL
