MODEL 1
REMARK minimizedAffinity 8.63090706
REMARK minimizedRMSD -1
REMARK  0 active torsions:
REMARK  status: ('A' for Active; 'I' for Inactive)
ROOT
ATOM      1  O1  BZF d   1       1.047  -5.173   0.103  0.00  0.00    -0.204 OA
ATOM      2  C2  BZF d   1       2.224  -4.678  -0.425  0.00  0.00     0.174 A 
ATOM      3  C3  BZF d   1       2.303  -3.343  -0.249  0.00  0.00    -0.012 A 
ATOM      4  C3A BZF d   1       1.143  -2.994   0.513  0.00  0.00    -0.107 A 
ATOM      5  C4  BZF d   1       0.669  -1.816   1.015  0.00  0.00     0.055 A 
ATOM      6  C5  BZF d   1      -0.532  -1.805   1.651  0.00  0.00    -0.016 A 
ATOM      7  C6  BZF d   1      -1.286  -2.951   1.798  0.00  0.00     0.022 A 
ATOM      8  C7  BZF d   1      -0.855  -4.144   1.321  0.00  0.00     0.029 A 
ATOM      9  C7A BZF d   1       0.373  -4.165   0.706  0.00  0.00     0.058 A 
ENDROOT
TORSDOF 0
ENDMDL
