MODEL 1
REMARK minimizedAffinity 9.78315926
REMARK minimizedRMSD -1
REMARK  0 active torsions:
REMARK  status: ('A' for Active; 'I' for Inactive)
ROOT
ATOM      1  O1  BZF d   1       0.951  -5.255  -0.135  0.00  0.00    -0.204 OA
ATOM      2  C2  BZF d   1       2.168  -5.886  -0.307  0.00  0.00     0.174 A 
ATOM      3  C3  BZF d   1       3.186  -5.019  -0.127  0.00  0.00    -0.012 A 
ATOM      4  C3A BZF d   1       2.568  -3.791   0.268  0.00  0.00    -0.107 A 
ATOM      5  C4  BZF d   1       3.056  -2.560   0.604  0.00  0.00     0.055 A 
ATOM      6  C5  BZF d   1       2.183  -1.553   0.870  0.00  0.00    -0.016 A 
ATOM      7  C6  BZF d   1       0.818  -1.740   0.803  0.00  0.00     0.022 A 
ATOM      8  C7  BZF d   1       0.286  -2.944   0.479  0.00  0.00     0.029 A 
ATOM      9  C7A BZF d   1       1.166  -3.972   0.243  0.00  0.00     0.058 A 
ENDROOT
TORSDOF 0
ENDMDL
