MODEL 1
REMARK minimizedAffinity -0.945140302
REMARK minimizedRMSD -1
REMARK  1 active torsions:
REMARK  status: ('A' for Active; 'I' for Inactive)
REMARK    1  A    between atoms: N_2  and  C1_3 
ROOT
ATOM      1  C1  UNL d   1       0.504  -0.664  -0.268  0.00  0.00     0.143 A 
ATOM      2  C2  UNL d   1       1.527  -0.860  -1.203  0.00  0.00    -0.057 A 
ATOM      3  C3  UNL d   1       2.865  -0.606  -0.879  0.00  0.00     0.033 A 
ATOM      4  C4  UNL d   1       3.202  -0.121   0.381  0.00  0.00    -0.042 A 
ATOM      5  C5  UNL d   1       2.199   0.105   1.317  0.00  0.00     0.033 A 
ATOM      6  C6  UNL d   1       0.865  -0.157   0.990  0.00  0.00    -0.057 A 
ENDROOT
BRANCH   1   7
ATOM      7  N   UNL d   1      -0.855  -0.805  -0.561  0.00  0.00    -0.732 N 
ATOM      8  C   UNL d   1      -1.284  -1.523  -1.742  0.00  0.00     0.284 C 
ATOM      9  H3  UNL d   1      -1.413  -0.998   0.268  0.00  0.00     0.395 HD
ENDBRANCH   1   7
TORSDOF 1
ENDMDL
