MODEL 1
REMARK minimizedAffinity 0.373614132
REMARK minimizedRMSD -1
REMARK  1 active torsions:
REMARK  status: ('A' for Active; 'I' for Inactive)
REMARK    1  A    between atoms: N_2  and  C1_3 
ROOT
ATOM      1  C1  UNL d   1      -0.319  -4.070  -4.480  0.00  0.00     0.143 A 
ATOM      2  C2  UNL d   1       0.028  -3.685  -3.180  0.00  0.00    -0.057 A 
ATOM      3  C3  UNL d   1      -0.677  -4.164  -2.069  0.00  0.00     0.033 A 
ATOM      4  C4  UNL d   1      -1.762  -5.017  -2.241  0.00  0.00    -0.042 A 
ATOM      5  C5  UNL d   1      -2.140  -5.393  -3.525  0.00  0.00     0.033 A 
ATOM      6  C6  UNL d   1      -1.429  -4.916  -4.630  0.00  0.00    -0.057 A 
ENDROOT
BRANCH   1   7
ATOM      7  N   UNL d   1       0.280  -3.551  -5.630  0.00  0.00    -0.732 N 
ATOM      8  C   UNL d   1       0.100  -2.162  -5.993  0.00  0.00     0.284 C 
ATOM      9  H3  UNL d   1       1.228  -3.896  -5.764  0.00  0.00     0.395 HD
ENDBRANCH   1   7
TORSDOF 1
ENDMDL
