MODEL 1
REMARK minimizedAffinity 1.60477889
REMARK minimizedRMSD -1
REMARK  1 active torsions:
REMARK  status: ('A' for Active; 'I' for Inactive)
REMARK    1  A    between atoms: N_2  and  C1_3 
ROOT
ATOM      1  C1  UNL d   1      -1.635  -3.307  -3.116  0.00  0.00     0.143 A 
ATOM      2  C2  UNL d   1      -2.551  -4.047  -3.872  0.00  0.00    -0.057 A 
ATOM      3  C3  UNL d   1      -2.121  -4.955  -4.846  0.00  0.00     0.033 A 
ATOM      4  C4  UNL d   1      -0.763  -5.119  -5.103  0.00  0.00    -0.042 A 
ATOM      5  C5  UNL d   1       0.164  -4.375  -4.381  0.00  0.00     0.033 A 
ATOM      6  C6  UNL d   1      -0.272  -3.474  -3.405  0.00  0.00    -0.057 A 
ENDROOT
BRANCH   1   7
ATOM      7  N   UNL d   1      -2.003  -2.316  -2.202  0.00  0.00    -0.732 N 
ATOM      8  C   UNL d   1      -2.097  -2.615  -0.789  0.00  0.00     0.284 C 
ATOM      9  H3  UNL d   1      -1.572  -1.418  -2.409  0.00  0.00     0.395 HD
ENDBRANCH   1   7
TORSDOF 1
ENDMDL
