MODEL 1
REMARK minimizedAffinity -3.41093302
REMARK minimizedRMSD -1
REMARK  1 active torsions:
REMARK  status: ('A' for Active; 'I' for Inactive)
REMARK    1  A    between atoms: N_2  and  C1_3 
ROOT
ATOM      1  C1  UNL d   1      -1.405   0.294   1.765  0.00  0.00     0.143 A 
ATOM      2  C2  UNL d   1      -1.369  -0.708   0.789  0.00  0.00    -0.057 A 
ATOM      3  C3  UNL d   1      -2.232  -0.679  -0.313  0.00  0.00     0.033 A 
ATOM      4  C4  UNL d   1      -3.170   0.340  -0.443  0.00  0.00    -0.042 A 
ATOM      5  C5  UNL d   1      -3.241   1.332   0.528  0.00  0.00     0.033 A 
ATOM      6  C6  UNL d   1      -2.372   1.302   1.622  0.00  0.00    -0.057 A 
ENDROOT
BRANCH   1   7
ATOM      7  N   UNL d   1      -0.641   0.269   2.934  0.00  0.00    -0.732 N 
ATOM      8  C   UNL d   1       0.637  -0.411   2.965  0.00  0.00     0.284 C 
ATOM      9  H3  UNL d   1      -0.649   1.161   3.423  0.00  0.00     0.395 HD
ENDBRANCH   1   7
TORSDOF 1
ENDMDL
