MODEL 1
REMARK minimizedAffinity -3.55744839
REMARK minimizedRMSD -1
REMARK  0 active torsions:
REMARK  status: ('A' for Active; 'I' for Inactive)
ROOT
ATOM      1  C   UNL d   1      -0.035   0.151   1.963  0.00  0.00     0.023 A 
ATOM      2  C1  UNL d   1      -1.029  -0.571   1.302  0.00  0.00     0.003 A 
ATOM      3  C2  UNL d   1      -0.867  -0.916  -0.041  0.00  0.00     0.048 A 
ATOM      4  C3  UNL d   1       0.293  -0.538  -0.717  0.00  0.00     0.023 A 
ATOM      5  C4  UNL d   1       1.291   0.184  -0.059  0.00  0.00     0.048 A 
ATOM      6  C5  UNL d   1       1.123   0.528   1.283  0.00  0.00     0.003 A 
ATOM      7  I   UNL d   1       0.537  -1.051  -2.716  0.00  0.00    -0.146 I 
ENDROOT
TORSDOF 0
ENDMDL
