MODEL 1
REMARK minimizedAffinity -3.41893339
REMARK minimizedRMSD -1
REMARK  0 active torsions:
REMARK  status: ('A' for Active; 'I' for Inactive)
ROOT
ATOM      1  C   UNL d   1      -0.501  -0.341   3.070  0.00  0.00     0.023 A 
ATOM      2  C1  UNL d   1      -1.511  -0.788   2.217  0.00  0.00     0.003 A 
ATOM      3  C2  UNL d   1      -1.299  -0.819   0.837  0.00  0.00     0.048 A 
ATOM      4  C3  UNL d   1      -0.074  -0.403   0.317  0.00  0.00     0.023 A 
ATOM      5  C4  UNL d   1       0.940   0.044   1.166  0.00  0.00     0.048 A 
ATOM      6  C5  UNL d   1       0.722   0.074   2.545  0.00  0.00     0.003 A 
ATOM      7  I   UNL d   1       0.244  -0.449  -1.737  0.00  0.00    -0.146 I 
ENDROOT
TORSDOF 0
ENDMDL
