MODEL 1
REMARK minimizedAffinity -3.89960313
REMARK minimizedRMSD -1
REMARK  0 active torsions:
REMARK  status: ('A' for Active; 'I' for Inactive)
ROOT
ATOM      1  C   UNL d   1       1.601  -0.894  -3.902  0.00  0.00     0.023 A 
ATOM      2  C1  UNL d   1       1.491   0.388  -3.365  0.00  0.00     0.003 A 
ATOM      3  C2  UNL d   1       0.853   0.580  -2.138  0.00  0.00     0.048 A 
ATOM      4  C3  UNL d   1       0.329  -0.515  -1.452  0.00  0.00     0.023 A 
ATOM      5  C4  UNL d   1       0.438  -1.800  -1.985  0.00  0.00     0.048 A 
ATOM      6  C5  UNL d   1       1.075  -1.987  -3.213  0.00  0.00     0.003 A 
ATOM      7  I   UNL d   1      -0.620  -0.232   0.375  0.00  0.00    -0.146 I 
ENDROOT
TORSDOF 0
ENDMDL
