MODEL 1
REMARK minimizedAffinity -2.35328555
REMARK minimizedRMSD -1
REMARK  0 active torsions:
REMARK  status: ('A' for Active; 'I' for Inactive)
ROOT
ATOM      1  C   UNL d   1       0.671  -1.012  -2.475  0.00  0.00     0.023 A 
ATOM      2  C1  UNL d   1       0.309   0.270  -2.060  0.00  0.00     0.003 A 
ATOM      3  C2  UNL d   1       0.103   0.534  -0.705  0.00  0.00     0.048 A 
ATOM      4  C3  UNL d   1       0.260  -0.487   0.231  0.00  0.00     0.023 A 
ATOM      5  C4  UNL d   1       0.622  -1.772  -0.179  0.00  0.00     0.048 A 
ATOM      6  C5  UNL d   1       0.826  -2.032  -1.535  0.00  0.00     0.003 A 
ATOM      7  I   UNL d   1      -0.048  -0.096   2.249  0.00  0.00    -0.146 I 
ENDROOT
TORSDOF 0
ENDMDL
