MODEL 1
REMARK minimizedAffinity -2.23439145
REMARK minimizedRMSD -1
REMARK  0 active torsions:
REMARK  status: ('A' for Active; 'I' for Inactive)
ROOT
ATOM      1  C   UNL d   1      -0.116   0.007   1.478  0.00  0.00     0.023 A 
ATOM      2  C1  UNL d   1      -1.025   0.389   0.491  0.00  0.00     0.003 A 
ATOM      3  C2  UNL d   1      -0.737   0.150  -0.855  0.00  0.00     0.048 A 
ATOM      4  C3  UNL d   1       0.460  -0.473  -1.206  0.00  0.00     0.023 A 
ATOM      5  C4  UNL d   1       1.371  -0.857  -0.221  0.00  0.00     0.048 A 
ATOM      6  C5  UNL d   1       1.080  -0.615   1.122  0.00  0.00     0.003 A 
ATOM      7  I   UNL d   1       0.890  -0.830  -3.208  0.00  0.00    -0.146 I 
ENDROOT
TORSDOF 0
ENDMDL
