MODEL 1
REMARK minimizedAffinity -2.55460262
REMARK minimizedRMSD -1
REMARK  0 active torsions:
REMARK  status: ('A' for Active; 'I' for Inactive)
ROOT
ATOM      1  C   UNL d   1      -1.129   0.269   3.244  0.00  0.00     0.023 A 
ATOM      2  C1  UNL d   1       0.222   0.045   2.979  0.00  0.00     0.003 A 
ATOM      3  C2  UNL d   1       0.654  -0.158   1.667  0.00  0.00     0.048 A 
ATOM      4  C3  UNL d   1      -0.271  -0.135   0.624  0.00  0.00     0.023 A 
ATOM      5  C4  UNL d   1      -1.624   0.090   0.883  0.00  0.00     0.048 A 
ATOM      6  C5  UNL d   1      -2.051   0.291   2.197  0.00  0.00     0.003 A 
ATOM      7  I   UNL d   1       0.370  -0.437  -1.330  0.00  0.00    -0.146 I 
ENDROOT
TORSDOF 0
ENDMDL
