MODEL 1
REMARK minimizedAffinity -2.0897727
REMARK minimizedRMSD -1
REMARK  0 active torsions:
REMARK  status: ('A' for Active; 'I' for Inactive)
ROOT
ATOM      1  C   UNL d   1      -0.244  -0.452   2.680  0.00  0.00     0.023 A 
ATOM      2  C1  UNL d   1       0.779   0.360   2.191  0.00  0.00     0.003 A 
ATOM      3  C2  UNL d   1       1.006   0.447   0.816  0.00  0.00     0.048 A 
ATOM      4  C3  UNL d   1       0.206  -0.280  -0.065  0.00  0.00     0.023 A 
ATOM      5  C4  UNL d   1      -0.820  -1.093   0.420  0.00  0.00     0.048 A 
ATOM      6  C5  UNL d   1      -1.043  -1.177   1.796  0.00  0.00     0.003 A 
ATOM      7  I   UNL d   1       0.541  -0.153  -2.112  0.00  0.00    -0.146 I 
ENDROOT
TORSDOF 0
ENDMDL
