MODEL 1
REMARK minimizedAffinity -3.51529717
REMARK minimizedRMSD -1
REMARK  0 active torsions:
REMARK  status: ('A' for Active; 'I' for Inactive)
ROOT
ATOM      1  C   UNL d   1      -0.468  -0.246   3.021  0.00  0.00     0.023 A 
ATOM      2  C1  UNL d   1      -1.172  -1.102   2.174  0.00  0.00     0.003 A 
ATOM      3  C2  UNL d   1      -0.942  -1.067   0.797  0.00  0.00     0.048 A 
ATOM      4  C3  UNL d   1      -0.006  -0.175   0.274  0.00  0.00     0.023 A 
ATOM      5  C4  UNL d   1       0.701   0.683   1.118  0.00  0.00     0.048 A 
ATOM      6  C5  UNL d   1       0.467   0.645   2.494  0.00  0.00     0.003 A 
ATOM      7  I   UNL d   1       0.338  -0.122  -1.775  0.00  0.00    -0.146 I 
ENDROOT
TORSDOF 0
ENDMDL
