MODEL 1
REMARK minimizedAffinity -4.71332073
REMARK minimizedRMSD -1
REMARK  0 active torsions:
REMARK  status: ('A' for Active; 'I' for Inactive)
ROOT
ATOM      1  C   UNL d   1       0.997  -0.522  -2.598  0.00  0.00     0.023 A 
ATOM      2  C1  UNL d   1       0.675   0.712  -2.032  0.00  0.00     0.003 A 
ATOM      3  C2  UNL d   1       0.319   0.792  -0.684  0.00  0.00     0.048 A 
ATOM      4  C3  UNL d   1       0.288  -0.366   0.092  0.00  0.00     0.023 A 
ATOM      5  C4  UNL d   1       0.609  -1.603  -0.470  0.00  0.00     0.048 A 
ATOM      6  C5  UNL d   1       0.964  -1.678  -1.818  0.00  0.00     0.003 A 
ATOM      7  I   UNL d   1      -0.241  -0.250   2.099  0.00  0.00    -0.146 I 
ENDROOT
TORSDOF 0
ENDMDL
