MODEL 1
REMARK minimizedAffinity -2.57846618
REMARK minimizedRMSD -1
REMARK  0 active torsions:
REMARK  status: ('A' for Active; 'I' for Inactive)
ROOT
ATOM      1  C   UNL d   1       0.353  -0.478   2.394  0.00  0.00     0.023 A 
ATOM      2  C1  UNL d   1       0.896   0.676   1.827  0.00  0.00     0.003 A 
ATOM      3  C2  UNL d   1       0.934   0.822   0.439  0.00  0.00     0.048 A 
ATOM      4  C3  UNL d   1       0.427  -0.189  -0.377  0.00  0.00     0.023 A 
ATOM      5  C4  UNL d   1      -0.118  -1.345   0.186  0.00  0.00     0.048 A 
ATOM      6  C5  UNL d   1      -0.153  -1.487   1.574  0.00  0.00     0.003 A 
ATOM      7  I   UNL d   1       0.482   0.026  -2.443  0.00  0.00    -0.146 I 
ENDROOT
TORSDOF 0
ENDMDL
