MODEL 1
REMARK minimizedAffinity -4.24879169
REMARK minimizedRMSD -1
REMARK  0 active torsions:
REMARK  status: ('A' for Active; 'I' for Inactive)
ROOT
ATOM      1  C   UNL d   1       0.165  -0.042   2.038  0.00  0.00     0.023 A 
ATOM      2  C1  UNL d   1      -0.647   0.660   1.147  0.00  0.00     0.003 A 
ATOM      3  C2  UNL d   1      -0.464   0.514  -0.229  0.00  0.00     0.048 A 
ATOM      4  C3  UNL d   1       0.532  -0.336  -0.708  0.00  0.00     0.023 A 
ATOM      5  C4  UNL d   1       1.347  -1.041   0.180  0.00  0.00     0.048 A 
ATOM      6  C5  UNL d   1       1.161  -0.891   1.555  0.00  0.00     0.003 A 
ATOM      7  I   UNL d   1       0.806  -0.556  -2.757  0.00  0.00    -0.146 I 
ENDROOT
TORSDOF 0
ENDMDL
