MODEL 1
REMARK minimizedAffinity -3.79597163
REMARK minimizedRMSD -1
REMARK  0 active torsions:
REMARK  status: ('A' for Active; 'I' for Inactive)
ROOT
ATOM      1  C   UNL d   1       0.629  -0.937  -2.604  0.00  0.00     0.023 A 
ATOM      2  C1  UNL d   1       0.401   0.361  -2.146  0.00  0.00     0.003 A 
ATOM      3  C2  UNL d   1       0.155   0.592  -0.791  0.00  0.00     0.048 A 
ATOM      4  C3  UNL d   1       0.139  -0.480   0.101  0.00  0.00     0.023 A 
ATOM      5  C4  UNL d   1       0.367  -1.780  -0.352  0.00  0.00     0.048 A 
ATOM      6  C5  UNL d   1       0.612  -2.006  -1.708  0.00  0.00     0.003 A 
ATOM      7  I   UNL d   1      -0.226  -0.140   2.119  0.00  0.00    -0.146 I 
ENDROOT
TORSDOF 0
ENDMDL
