MODEL 1
REMARK minimizedAffinity -0.426998705
REMARK minimizedRMSD -1
REMARK  0 active torsions:
REMARK  status: ('A' for Active; 'I' for Inactive)
ROOT
ATOM      1  C   UNL d   1       0.219  -0.165   2.803  0.00  0.00     0.023 A 
ATOM      2  C1  UNL d   1       0.168  -1.324   2.028  0.00  0.00     0.003 A 
ATOM      3  C2  UNL d   1       0.310  -1.246   0.641  0.00  0.00     0.048 A 
ATOM      4  C3  UNL d   1       0.505  -0.005   0.035  0.00  0.00     0.023 A 
ATOM      5  C4  UNL d   1       0.557   1.158   0.806  0.00  0.00     0.048 A 
ATOM      6  C5  UNL d   1       0.414   1.075   2.192  0.00  0.00     0.003 A 
ATOM      7  I   UNL d   1       0.717   0.114  -2.029  0.00  0.00    -0.146 I 
ENDROOT
TORSDOF 0
ENDMDL
