MODEL 1
REMARK minimizedAffinity -2.18844962
REMARK minimizedRMSD -1
REMARK  0 active torsions:
REMARK  status: ('A' for Active; 'I' for Inactive)
ROOT
ATOM      1  C   UNL d   1      -1.075   0.018   2.803  0.00  0.00     0.023 A 
ATOM      2  C1  UNL d   1      -1.993   0.060   1.753  0.00  0.00     0.003 A 
ATOM      3  C2  UNL d   1      -1.543   0.072   0.431  0.00  0.00     0.048 A 
ATOM      4  C3  UNL d   1      -0.175   0.041   0.166  0.00  0.00     0.023 A 
ATOM      5  C4  UNL d   1       0.747  -0.001   1.213  0.00  0.00     0.048 A 
ATOM      6  C5  UNL d   1       0.293  -0.012   2.533  0.00  0.00     0.003 A 
ATOM      7  I   UNL d   1       0.497   0.059  -1.801  0.00  0.00    -0.146 I 
ENDROOT
TORSDOF 0
ENDMDL
