MODEL 1
REMARK minimizedAffinity 8.22790051
REMARK minimizedRMSD -1
REMARK  0 active torsions:
REMARK  status: ('A' for Active; 'I' for Inactive)
ROOT
ATOM      1  C1  DEN d   1      -5.918  -1.171   3.964  0.00  0.00     0.130 A 
ATOM      2  C2  DEN d   1      -5.958  -2.558   4.417  0.00  0.00    -0.031 A 
ATOM      3  C3  DEN d   1      -5.999  -3.427   3.224  0.00  0.00     0.027 A 
ATOM      4  C4  DEN d   1      -5.999  -2.763   0.732  0.00  0.00     0.027 A 
ATOM      5  C5  DEN d   1      -5.985  -1.702  -0.147  0.00  0.00    -0.003 A 
ATOM      6  C6  DEN d   1      -5.982  -0.400   0.279  0.00  0.00     0.001 A 
ATOM      7  C7  DEN d   1      -5.948  -0.126   1.621  0.00  0.00     0.017 A 
ATOM      8  C8  DEN d   1      -5.969  -1.190   2.513  0.00  0.00    -0.094 A 
ATOM      9  C9  DEN d   1      -5.960  -2.499   2.062  0.00  0.00    -0.072 A 
ENDROOT
TORSDOF 0
ENDMDL
