MODEL 1
REMARK minimizedAffinity 7.30632782
REMARK minimizedRMSD -1
REMARK  0 active torsions:
REMARK  status: ('A' for Active; 'I' for Inactive)
ROOT
ATOM      1  C1  DEN d   1       1.174  -0.977   1.729  0.00  0.00     0.130 A 
ATOM      2  C2  DEN d   1       0.167  -0.199   2.443  0.00  0.00    -0.031 A 
ATOM      3  C3  DEN d   1      -0.506   0.682   1.468  0.00  0.00     0.027 A 
ATOM      4  C4  DEN d   1      -0.090   0.911  -1.068  0.00  0.00     0.027 A 
ATOM      5  C5  DEN d   1       0.672   0.466  -2.125  0.00  0.00    -0.003 A 
ATOM      6  C6  DEN d   1       1.670  -0.459  -1.967  0.00  0.00     0.001 A 
ATOM      7  C7  DEN d   1       1.902  -1.003  -0.731  0.00  0.00     0.017 A 
ATOM      8  C8  DEN d   1       1.143  -0.553   0.341  0.00  0.00    -0.094 A 
ATOM      9  C9  DEN d   1       0.130   0.373   0.159  0.00  0.00    -0.072 A 
ENDROOT
TORSDOF 0
ENDMDL
