MODEL 1
REMARK minimizedAffinity 12.9929485
REMARK minimizedRMSD -1
REMARK  0 active torsions:
REMARK  status: ('A' for Active; 'I' for Inactive)
ROOT
ATOM      1  C1  DEN d   1       1.011  -4.462  -0.159  0.00  0.00     0.130 A 
ATOM      2  C2  DEN d   1       1.895  -4.634  -1.309  0.00  0.00    -0.031 A 
ATOM      3  C3  DEN d   1       2.286  -3.293  -1.788  0.00  0.00     0.027 A 
ATOM      4  C4  DEN d   1       1.617  -0.980  -0.863  0.00  0.00     0.027 A 
ATOM      5  C5  DEN d   1       0.874  -0.326   0.095  0.00  0.00    -0.003 A 
ATOM      6  C6  DEN d   1       0.105  -0.999   1.007  0.00  0.00     0.001 A 
ATOM      7  C7  DEN d   1       0.095  -2.369   1.009  0.00  0.00     0.017 A 
ATOM      8  C8  DEN d   1       0.836  -3.035   0.041  0.00  0.00    -0.094 A 
ATOM      9  C9  DEN d   1       1.617  -2.337  -0.865  0.00  0.00    -0.072 A 
ENDROOT
TORSDOF 0
ENDMDL
