MODEL 1
REMARK minimizedAffinity 8.61983204
REMARK minimizedRMSD -1
REMARK  0 active torsions:
REMARK  status: ('A' for Active; 'I' for Inactive)
ROOT
ATOM      1  C1  DEN d   1       0.052   3.082   1.934  0.00  0.00     0.130 A 
ATOM      2  C2  DEN d   1       0.325   1.683   2.252  0.00  0.00    -0.031 A 
ATOM      3  C3  DEN d   1       0.254   0.908   0.997  0.00  0.00     0.027 A 
ATOM      4  C4  DEN d   1      -0.244   1.734  -1.395  0.00  0.00     0.027 A 
ATOM      5  C5  DEN d   1      -0.551   2.837  -2.160  0.00  0.00    -0.003 A 
ATOM      6  C6  DEN d   1      -0.710   4.083  -1.615  0.00  0.00     0.001 A 
ATOM      7  C7  DEN d   1      -0.519   4.265  -0.270  0.00  0.00     0.017 A 
ATOM      8  C8  DEN d   1      -0.217   3.156   0.509  0.00  0.00    -0.094 A 
ATOM      9  C9  DEN d   1      -0.048   1.907  -0.063  0.00  0.00    -0.072 A 
ENDROOT
TORSDOF 0
ENDMDL
