MODEL 1
REMARK minimizedAffinity 6.44860935
REMARK minimizedRMSD -1
REMARK  0 active torsions:
REMARK  status: ('A' for Active; 'I' for Inactive)
ROOT
ATOM      1  C1  DEN d   1       2.374  -2.964  -0.548  0.00  0.00     0.130 A 
ATOM      2  C2  DEN d   1       2.179  -1.564  -0.914  0.00  0.00    -0.031 A 
ATOM      3  C3  DEN d   1       2.012  -1.494  -2.379  0.00  0.00     0.027 A 
ATOM      4  C4  DEN d   1       2.030  -3.409  -4.108  0.00  0.00     0.027 A 
ATOM      5  C5  DEN d   1       2.172  -4.768  -4.275  0.00  0.00    -0.003 A 
ATOM      6  C6  DEN d   1       2.424  -5.611  -3.225  0.00  0.00     0.001 A 
ATOM      7  C7  DEN d   1       2.496  -5.108  -1.953  0.00  0.00     0.017 A 
ATOM      8  C8  DEN d   1       2.360  -3.737  -1.777  0.00  0.00    -0.094 A 
ATOM      9  C9  DEN d   1       2.094  -2.903  -2.850  0.00  0.00    -0.072 A 
ENDROOT
TORSDOF 0
ENDMDL
