MODEL 1
REMARK minimizedAffinity 9.73029327
REMARK minimizedRMSD -1
REMARK  0 active torsions:
REMARK  status: ('A' for Active; 'I' for Inactive)
ROOT
ATOM      1  C1  DEN d   1       1.783  -3.161  -0.894  0.00  0.00     0.130 A 
ATOM      2  C2  DEN d   1       3.132  -2.601  -0.882  0.00  0.00    -0.031 A 
ATOM      3  C3  DEN d   1       3.049  -1.199  -1.339  0.00  0.00     0.027 A 
ATOM      4  C4  DEN d   1       0.973   0.153  -2.057  0.00  0.00     0.027 A 
ATOM      5  C5  DEN d   1      -0.390   0.102  -2.245  0.00  0.00    -0.003 A 
ATOM      6  C6  DEN d   1      -1.114  -1.041  -2.030  0.00  0.00     0.001 A 
ATOM      7  C7  DEN d   1      -0.484  -2.167  -1.571  0.00  0.00     0.017 A 
ATOM      8  C8  DEN d   1       0.892  -2.125  -1.386  0.00  0.00    -0.094 A 
ATOM      9  C9  DEN d   1       1.604  -0.957  -1.597  0.00  0.00    -0.072 A 
ENDROOT
TORSDOF 0
ENDMDL
