MODEL 1
REMARK minimizedAffinity 4.09882307
REMARK minimizedRMSD -1
REMARK  0 active torsions:
REMARK  status: ('A' for Active; 'I' for Inactive)
ROOT
ATOM      1  C1  DEN d   1      -0.199   2.214   1.455  0.00  0.00     0.130 A 
ATOM      2  C2  DEN d   1       0.394   1.578   2.629  0.00  0.00    -0.031 A 
ATOM      3  C3  DEN d   1       1.344   0.550   2.160  0.00  0.00     0.027 A 
ATOM      4  C4  DEN d   1       1.956  -0.112  -0.257  0.00  0.00     0.027 A 
ATOM      5  C5  DEN d   1       1.705   0.140  -1.588  0.00  0.00    -0.003 A 
ATOM      6  C6  DEN d   1       0.784   1.069  -1.994  0.00  0.00     0.001 A 
ATOM      7  C7  DEN d   1       0.113   1.813  -1.059  0.00  0.00     0.017 A 
ATOM      8  C8  DEN d   1       0.356   1.560   0.284  0.00  0.00    -0.094 A 
ATOM      9  C9  DEN d   1       1.300   0.625   0.674  0.00  0.00    -0.072 A 
ENDROOT
TORSDOF 0
ENDMDL
