MODEL 1
REMARK minimizedAffinity 3.85441756
REMARK minimizedRMSD -1
REMARK  0 active torsions:
REMARK  status: ('A' for Active; 'I' for Inactive)
ROOT
ATOM      1  C1  DEN d   1       0.386   0.996  -1.583  0.00  0.00     0.130 A 
ATOM      2  C2  DEN d   1      -0.532   1.308  -2.676  0.00  0.00    -0.031 A 
ATOM      3  C3  DEN d   1      -1.612   2.157  -2.136  0.00  0.00     0.027 A 
ATOM      4  C4  DEN d   1      -1.950   3.019   0.272  0.00  0.00     0.027 A 
ATOM      5  C5  DEN d   1      -1.438   3.007   1.550  0.00  0.00    -0.003 A 
ATOM      6  C6  DEN d   1      -0.310   2.302   1.879  0.00  0.00     0.001 A 
ATOM      7  C7  DEN d   1       0.368   1.616   0.907  0.00  0.00     0.017 A 
ATOM      8  C8  DEN d   1      -0.146   1.617  -0.383  0.00  0.00    -0.094 A 
ATOM      9  C9  DEN d   1      -1.281   2.345  -0.698  0.00  0.00    -0.072 A 
ENDROOT
TORSDOF 0
ENDMDL
