MODEL 1
REMARK minimizedAffinity 10.3008366
REMARK minimizedRMSD -1
REMARK  0 active torsions:
REMARK  status: ('A' for Active; 'I' for Inactive)
ROOT
ATOM      1  C1  DEN d   1      -2.619  -1.564  -1.107  0.00  0.00     0.130 A 
ATOM      2  C2  DEN d   1      -3.960  -1.013  -1.281  0.00  0.00    -0.031 A 
ATOM      3  C3  DEN d   1      -3.824   0.417  -1.625  0.00  0.00     0.027 A 
ATOM      4  C4  DEN d   1      -1.680   1.822  -1.909  0.00  0.00     0.027 A 
ATOM      5  C5  DEN d   1      -0.304   1.794  -1.851  0.00  0.00    -0.003 A 
ATOM      6  C6  DEN d   1       0.390   0.663  -1.510  0.00  0.00     0.001 A 
ATOM      7  C7  DEN d   1      -0.289  -0.500  -1.259  0.00  0.00     0.017 A 
ATOM      8  C8  DEN d   1      -1.677  -0.478  -1.308  0.00  0.00    -0.094 A 
ATOM      9  C9  DEN d   1      -2.359   0.672  -1.666  0.00  0.00    -0.072 A 
ENDROOT
TORSDOF 0
ENDMDL
