MODEL 1
REMARK minimizedAffinity 15.0883017
REMARK minimizedRMSD -1
REMARK  0 active torsions:
REMARK  status: ('A' for Active; 'I' for Inactive)
ROOT
ATOM      1  C1  DEN d   1       1.023   2.210   2.149  0.00  0.00     0.130 A 
ATOM      2  C2  DEN d   1       2.192   1.464   1.692  0.00  0.00    -0.031 A 
ATOM      3  C3  DEN d   1       1.903   0.947   0.339  0.00  0.00     0.027 A 
ATOM      4  C4  DEN d   1      -0.228   1.231  -1.086  0.00  0.00     0.027 A 
ATOM      5  C5  DEN d   1      -1.493   1.774  -1.117  0.00  0.00    -0.003 A 
ATOM      6  C6  DEN d   1      -2.018   2.465  -0.056  0.00  0.00     0.001 A 
ATOM      7  C7  DEN d   1      -1.255   2.671   1.063  0.00  0.00     0.017 A 
ATOM      8  C8  DEN d   1       0.019   2.120   1.104  0.00  0.00    -0.094 A 
ATOM      9  C9  DEN d   1       0.535   1.436   0.018  0.00  0.00    -0.072 A 
ENDROOT
TORSDOF 0
ENDMDL
