MODEL 1
REMARK minimizedAffinity 5.05420971
REMARK minimizedRMSD -1
REMARK  0 active torsions:
REMARK  status: ('A' for Active; 'I' for Inactive)
ROOT
ATOM      1  O1  BZF d   1       2.999   3.517  -1.539  0.00  0.00    -0.204 OA
ATOM      2  C2  BZF d   1       3.206   4.453  -2.533  0.00  0.00     0.174 A 
ATOM      3  C3  BZF d   1       2.720   4.014  -3.712  0.00  0.00    -0.012 A 
ATOM      4  C3A BZF d   1       2.093   2.762  -3.418  0.00  0.00    -0.107 A 
ATOM      5  C4  BZF d   1       1.417   1.850  -4.176  0.00  0.00     0.055 A 
ATOM      6  C5  BZF d   1       0.994   0.695  -3.599  0.00  0.00    -0.016 A 
ATOM      7  C6  BZF d   1       1.234   0.417  -2.269  0.00  0.00     0.022 A 
ATOM      8  C7  BZF d   1       1.896   1.294  -1.475  0.00  0.00     0.029 A 
ATOM      9  C7A BZF d   1       2.296   2.477  -2.048  0.00  0.00     0.058 A 
ENDROOT
TORSDOF 0
ENDMDL
