MODEL 1
REMARK minimizedAffinity 17.5140514
REMARK minimizedRMSD -1
REMARK  0 active torsions:
REMARK  status: ('A' for Active; 'I' for Inactive)
ROOT
ATOM      1  O1  BZF d   1       0.003   0.891  -5.989  0.00  0.00    -0.204 OA
ATOM      2  C2  BZF d   1       0.231   2.254  -6.000  0.00  0.00     0.174 A 
ATOM      3  C3  BZF d   1       0.396   2.722  -4.746  0.00  0.00    -0.012 A 
ATOM      4  C3A BZF d   1       0.354   1.565  -3.904  0.00  0.00    -0.107 A 
ATOM      5  C4  BZF d   1       0.475   1.380  -2.557  0.00  0.00     0.055 A 
ATOM      6  C5  BZF d   1       0.313   0.132  -2.044  0.00  0.00    -0.016 A 
ATOM      7  C6  BZF d   1       0.025  -0.951  -2.849  0.00  0.00     0.022 A 
ATOM      8  C7  BZF d   1      -0.099  -0.818  -4.192  0.00  0.00     0.029 A 
ATOM      9  C7A BZF d   1       0.096   0.437  -4.716  0.00  0.00     0.058 A 
ENDROOT
TORSDOF 0
ENDMDL
