MODEL 1
REMARK minimizedAffinity 11.0672636
REMARK minimizedRMSD -1
REMARK  0 active torsions:
REMARK  status: ('A' for Active; 'I' for Inactive)
ROOT
ATOM      1  O1  BZF d   1      -1.570  -4.292   2.367  0.00  0.00    -0.204 OA
ATOM      2  C2  BZF d   1      -0.518  -5.130   2.050  0.00  0.00     0.174 A 
ATOM      3  C3  BZF d   1      -0.374  -5.232   0.713  0.00  0.00    -0.012 A 
ATOM      4  C3A BZF d   1      -1.341  -4.334   0.161  0.00  0.00    -0.107 A 
ATOM      5  C4  BZF d   1      -1.672  -3.980  -1.116  0.00  0.00     0.055 A 
ATOM      6  C5  BZF d   1      -2.713  -3.130  -1.317  0.00  0.00    -0.016 A 
ATOM      7  C6  BZF d   1      -3.446  -2.619  -0.266  0.00  0.00     0.022 A 
ATOM      8  C7  BZF d   1      -3.151  -2.936   1.018  0.00  0.00     0.029 A 
ATOM      9  C7A BZF d   1      -2.079  -3.769   1.226  0.00  0.00     0.058 A 
ENDROOT
TORSDOF 0
ENDMDL
