MODEL 1
REMARK minimizedAffinity 5.00826025
REMARK minimizedRMSD -1
REMARK  0 active torsions:
REMARK  status: ('A' for Active; 'I' for Inactive)
ROOT
ATOM      1  O1  BZF d   1       0.153   0.512  -4.649  0.00  0.00    -0.204 OA
ATOM      2  C2  BZF d   1       0.950   1.585  -4.999  0.00  0.00     0.174 A 
ATOM      3  C3  BZF d   1       1.951   1.748  -4.109  0.00  0.00    -0.012 A 
ATOM      4  C3A BZF d   1       1.822   0.656  -3.194  0.00  0.00    -0.107 A 
ATOM      5  C4  BZF d   1       2.533   0.261  -2.097  0.00  0.00     0.055 A 
ATOM      6  C5  BZF d   1       2.102  -0.810  -1.381  0.00  0.00    -0.016 A 
ATOM      7  C6  BZF d   1       0.962  -1.505  -1.729  0.00  0.00     0.022 A 
ATOM      8  C7  BZF d   1       0.227  -1.155  -2.812  0.00  0.00     0.029 A 
ATOM      9  C7A BZF d   1       0.679  -0.093  -3.557  0.00  0.00     0.058 A 
ENDROOT
TORSDOF 0
ENDMDL
