MODEL 1
REMARK minimizedAffinity 9.52090168
REMARK minimizedRMSD -1
REMARK  0 active torsions:
REMARK  status: ('A' for Active; 'I' for Inactive)
ROOT
ATOM      1  O1  BZF d   1       1.987  -5.940   3.727  0.00  0.00    -0.204 OA
ATOM      2  C2  BZF d   1       1.929  -5.933   2.347  0.00  0.00     0.174 A 
ATOM      3  C3  BZF d   1       3.168  -5.896   1.816  0.00  0.00    -0.012 A 
ATOM      4  C3A BZF d   1       4.058  -5.971   2.934  0.00  0.00    -0.107 A 
ATOM      5  C4  BZF d   1       5.419  -5.992   3.051  0.00  0.00     0.055 A 
ATOM      6  C5  BZF d   1       5.975  -5.997   4.291  0.00  0.00    -0.016 A 
ATOM      7  C6  BZF d   1       5.202  -5.975   5.433  0.00  0.00     0.022 A 
ATOM      8  C7  BZF d   1       3.849  -5.958   5.368  0.00  0.00     0.029 A 
ATOM      9  C7A BZF d   1       3.283  -5.987   4.117  0.00  0.00     0.058 A 
ENDROOT
TORSDOF 0
ENDMDL
