MODEL 1
REMARK minimizedAffinity 13.3867769
REMARK minimizedRMSD -1
REMARK  0 active torsions:
REMARK  status: ('A' for Active; 'I' for Inactive)
ROOT
ATOM      1  O1  BZF d   1      -1.902   3.841   4.606  0.00  0.00    -0.204 OA
ATOM      2  C2  BZF d   1      -2.928   4.696   4.961  0.00  0.00     0.174 A 
ATOM      3  C3  BZF d   1      -4.115   4.227   4.524  0.00  0.00    -0.012 A 
ATOM      4  C3A BZF d   1      -3.823   2.957   3.933  0.00  0.00    -0.107 A 
ATOM      5  C4  BZF d   1      -4.593   2.000   3.337  0.00  0.00     0.055 A 
ATOM      6  C5  BZF d   1      -3.989   0.908   2.799  0.00  0.00    -0.016 A 
ATOM      7  C6  BZF d   1      -2.620   0.743   2.835  0.00  0.00     0.022 A 
ATOM      8  C7  BZF d   1      -1.815   1.663   3.420  0.00  0.00     0.029 A 
ATOM      9  C7A BZF d   1      -2.425   2.752   3.993  0.00  0.00     0.058 A 
ENDROOT
TORSDOF 0
ENDMDL
