MODEL 1
REMARK minimizedAffinity 13.8939972
REMARK minimizedRMSD -1
REMARK  0 active torsions:
REMARK  status: ('A' for Active; 'I' for Inactive)
ROOT
ATOM      1  O1  BZF d   1      -2.262   4.408   4.891  0.00  0.00    -0.204 OA
ATOM      2  C2  BZF d   1      -2.488   5.274   5.943  0.00  0.00     0.174 A 
ATOM      3  C3  BZF d   1      -3.750   5.748   5.909  0.00  0.00    -0.012 A 
ATOM      4  C3A BZF d   1      -4.378   5.070   4.817  0.00  0.00    -0.107 A 
ATOM      5  C4  BZF d   1      -5.637   5.104   4.290  0.00  0.00     0.055 A 
ATOM      6  C5  BZF d   1      -5.907   4.373   3.176  0.00  0.00    -0.016 A 
ATOM      7  C6  BZF d   1      -4.942   3.602   2.562  0.00  0.00     0.022 A 
ATOM      8  C7  BZF d   1      -3.679   3.533   3.051  0.00  0.00     0.029 A 
ATOM      9  C7A BZF d   1      -3.412   4.245   4.195  0.00  0.00     0.058 A 
ENDROOT
TORSDOF 0
ENDMDL
