MODEL 1
REMARK minimizedAffinity 14.1496267
REMARK minimizedRMSD -1
REMARK  0 active torsions:
REMARK  status: ('A' for Active; 'I' for Inactive)
ROOT
ATOM      1  O1  BZF d   1       2.907  -3.329  -1.225  0.00  0.00    -0.204 OA
ATOM      2  C2  BZF d   1       2.159  -2.612  -2.139  0.00  0.00     0.174 A 
ATOM      3  C3  BZF d   1       0.851  -2.924  -2.037  0.00  0.00    -0.012 A 
ATOM      4  C3A BZF d   1       0.765  -3.829  -0.932  0.00  0.00    -0.107 A 
ATOM      5  C4  BZF d   1      -0.274  -4.478  -0.329  0.00  0.00     0.055 A 
ATOM      6  C5  BZF d   1      -0.012  -5.347   0.682  0.00  0.00    -0.016 A 
ATOM      7  C6  BZF d   1       1.276  -5.596   1.110  0.00  0.00     0.022 A 
ATOM      8  C7  BZF d   1       2.338  -4.972   0.546  0.00  0.00     0.029 A 
ATOM      9  C7A BZF d   1       2.074  -4.068  -0.453  0.00  0.00     0.058 A 
ENDROOT
TORSDOF 0
ENDMDL
