MODEL 1
REMARK minimizedAffinity 14.2420578
REMARK minimizedRMSD -1
REMARK  0 active torsions:
REMARK  status: ('A' for Active; 'I' for Inactive)
ROOT
ATOM      1  O1  BZF d   1      -0.008   0.371  -4.546  0.00  0.00    -0.204 OA
ATOM      2  C2  BZF d   1       0.554   1.614  -4.330  0.00  0.00     0.174 A 
ATOM      3  C3  BZF d   1       1.244   1.632  -3.171  0.00  0.00    -0.012 A 
ATOM      4  C3A BZF d   1       1.182   0.292  -2.675  0.00  0.00    -0.107 A 
ATOM      5  C4  BZF d   1       1.691  -0.324  -1.567  0.00  0.00     0.055 A 
ATOM      6  C5  BZF d   1       1.386  -1.628  -1.337  0.00  0.00    -0.016 A 
ATOM      7  C6  BZF d   1       0.572  -2.344  -2.190  0.00  0.00     0.022 A 
ATOM      8  C7  BZF d   1       0.047  -1.778  -3.304  0.00  0.00     0.029 A 
ATOM      9  C7A BZF d   1       0.381  -0.470  -3.556  0.00  0.00     0.058 A 
ENDROOT
TORSDOF 0
ENDMDL
