MODEL 1
REMARK minimizedAffinity 6.74308825
REMARK minimizedRMSD -1
REMARK  0 active torsions:
REMARK  status: ('A' for Active; 'I' for Inactive)
ROOT
ATOM      1  O1  BZF d   1       0.389   1.114  -4.926  0.00  0.00    -0.204 OA
ATOM      2  C2  BZF d   1       1.301   1.189  -5.961  0.00  0.00     0.174 A 
ATOM      3  C3  BZF d   1       2.561   1.052  -5.499  0.00  0.00    -0.012 A 
ATOM      4  C3A BZF d   1       2.422   0.789  -4.100  0.00  0.00    -0.107 A 
ATOM      5  C4  BZF d   1       3.317   0.548  -3.097  0.00  0.00     0.055 A 
ATOM      6  C5  BZF d   1       2.861   0.403  -1.825  0.00  0.00    -0.016 A 
ATOM      7  C6  BZF d   1       1.519   0.498  -1.520  0.00  0.00     0.022 A 
ATOM      8  C7  BZF d   1       0.593   0.732  -2.482  0.00  0.00     0.029 A 
ATOM      9  C7A BZF d   1       1.048   0.846  -3.773  0.00  0.00     0.058 A 
ENDROOT
TORSDOF 0
ENDMDL
