MODEL 1
REMARK minimizedAffinity 1.51247656
REMARK minimizedRMSD -1
REMARK  0 active torsions:
REMARK  status: ('A' for Active; 'I' for Inactive)
ROOT
ATOM      1  O1  BZF d   1       2.034   2.159  -1.390  0.00  0.00    -0.204 OA
ATOM      2  C2  BZF d   1       1.290   1.112  -0.881  0.00  0.00     0.174 A 
ATOM      3  C3  BZF d   1       0.776   0.362  -1.878  0.00  0.00    -0.012 A 
ATOM      4  C3A BZF d   1       1.303   0.926  -3.083  0.00  0.00    -0.107 A 
ATOM      5  C4  BZF d   1       1.168   0.609  -4.404  0.00  0.00     0.055 A 
ATOM      6  C5  BZF d   1       1.755   1.404  -5.337  0.00  0.00    -0.016 A 
ATOM      7  C6  BZF d   1       2.478   2.524  -4.984  0.00  0.00     0.022 A 
ATOM      8  C7  BZF d   1       2.643   2.876  -3.686  0.00  0.00     0.029 A 
ATOM      9  C7A BZF d   1       2.079   2.057  -2.740  0.00  0.00     0.058 A 
ENDROOT
TORSDOF 0
ENDMDL
