MODEL 1
REMARK minimizedAffinity 12.2851
REMARK minimizedRMSD -1
REMARK  0 active torsions:
REMARK  status: ('A' for Active; 'I' for Inactive)
ROOT
ATOM      1  O1  BZF d   1       0.311  -0.062  -4.947  0.00  0.00    -0.204 OA
ATOM      2  C2  BZF d   1       0.821   0.885  -5.814  0.00  0.00     0.174 A 
ATOM      3  C3  BZF d   1       1.626   1.748  -5.161  0.00  0.00    -0.012 A 
ATOM      4  C3A BZF d   1       1.693   1.258  -3.819  0.00  0.00    -0.107 A 
ATOM      5  C4  BZF d   1       2.349   1.679  -2.697  0.00  0.00     0.055 A 
ATOM      6  C5  BZF d   1       2.144   1.021  -1.526  0.00  0.00    -0.016 A 
ATOM      7  C6  BZF d   1       1.288  -0.057  -1.439  0.00  0.00     0.022 A 
ATOM      8  C7  BZF d   1       0.618  -0.514  -2.526  0.00  0.00     0.029 A 
ATOM      9  C7A BZF d   1       0.848   0.129  -3.718  0.00  0.00     0.058 A 
ENDROOT
TORSDOF 0
ENDMDL
