MODEL 1
REMARK minimizedAffinity 8.47616386
REMARK minimizedRMSD -1
REMARK  0 active torsions:
REMARK  status: ('A' for Active; 'I' for Inactive)
ROOT
ATOM      1  O1  BZF d   1      -0.027   3.230  -4.733  0.00  0.00    -0.204 OA
ATOM      2  C2  BZF d   1      -0.133   2.677  -5.995  0.00  0.00     0.174 A 
ATOM      3  C3  BZF d   1       0.129   1.355  -5.961  0.00  0.00    -0.012 A 
ATOM      4  C3A BZF d   1       0.327   1.046  -4.578  0.00  0.00    -0.107 A 
ATOM      5  C4  BZF d   1       0.606  -0.109  -3.904  0.00  0.00     0.055 A 
ATOM      6  C5  BZF d   1       0.810  -0.058  -2.561  0.00  0.00    -0.016 A 
ATOM      7  C6  BZF d   1       0.750   1.130  -1.863  0.00  0.00     0.022 A 
ATOM      8  C7  BZF d   1       0.472   2.301  -2.487  0.00  0.00     0.029 A 
ATOM      9  C7A BZF d   1       0.232   2.247  -3.838  0.00  0.00     0.058 A 
ENDROOT
TORSDOF 0
ENDMDL
