MODEL 1
REMARK minimizedAffinity 9.19440651
REMARK minimizedRMSD -1
REMARK  0 active torsions:
REMARK  status: ('A' for Active; 'I' for Inactive)
ROOT
ATOM      1  O1  BZF d   1       1.975  -3.143  -1.068  0.00  0.00    -0.204 OA
ATOM      2  C2  BZF d   1       1.185  -3.479  -2.150  0.00  0.00     0.174 A 
ATOM      3  C3  BZF d   1       1.182  -2.489  -3.066  0.00  0.00    -0.012 A 
ATOM      4  C3A BZF d   1       2.096  -1.509  -2.564  0.00  0.00    -0.107 A 
ATOM      5  C4  BZF d   1       2.532  -0.304  -3.035  0.00  0.00     0.055 A 
ATOM      6  C5  BZF d   1       3.372   0.440  -2.268  0.00  0.00    -0.016 A 
ATOM      7  C6  BZF d   1       3.791   0.013  -1.026  0.00  0.00     0.022 A 
ATOM      8  C7  BZF d   1       3.390  -1.178  -0.519  0.00  0.00     0.029 A 
ATOM      9  C7A BZF d   1       2.567  -1.947  -1.305  0.00  0.00     0.058 A 
ENDROOT
TORSDOF 0
ENDMDL
