MODEL 1
REMARK minimizedAffinity 8.9089222
REMARK minimizedRMSD -1
REMARK  0 active torsions:
REMARK  status: ('A' for Active; 'I' for Inactive)
ROOT
ATOM      1  O1  BZF d   1      -2.490   5.222   4.902  0.00  0.00    -0.204 OA
ATOM      2  C2  BZF d   1      -2.943   5.933   5.995  0.00  0.00     0.174 A 
ATOM      3  C3  BZF d   1      -4.290   5.998   6.000  0.00  0.00    -0.012 A 
ATOM      4  C3A BZF d   1      -4.709   5.203   4.886  0.00  0.00    -0.107 A 
ATOM      5  C4  BZF d   1      -5.931   4.870   4.377  0.00  0.00     0.055 A 
ATOM      6  C5  BZF d   1      -5.993   4.136   3.234  0.00  0.00    -0.016 A 
ATOM      7  C6  BZF d   1      -4.855   3.725   2.573  0.00  0.00     0.022 A 
ATOM      8  C7  BZF d   1      -3.620   4.028   3.042  0.00  0.00     0.029 A 
ATOM      9  C7A BZF d   1      -3.553   4.741   4.214  0.00  0.00     0.058 A 
ENDROOT
TORSDOF 0
ENDMDL
