MODEL 1
REMARK minimizedAffinity 11.5415945
REMARK minimizedRMSD -1
REMARK  0 active torsions:
REMARK  status: ('A' for Active; 'I' for Inactive)
ROOT
ATOM      1  O1  BZF d   1      -0.710   0.421  -5.086  0.00  0.00    -0.204 OA
ATOM      2  C2  BZF d   1      -0.096   1.258  -5.998  0.00  0.00     0.174 A 
ATOM      3  C3  BZF d   1       0.876   1.980  -5.405  0.00  0.00    -0.012 A 
ATOM      4  C3A BZF d   1       0.932   1.502  -4.058  0.00  0.00    -0.107 A 
ATOM      5  C4  BZF d   1       1.708   1.820  -2.980  0.00  0.00     0.055 A 
ATOM      6  C5  BZF d   1       1.460   1.219  -1.787  0.00  0.00    -0.016 A 
ATOM      7  C6  BZF d   1       0.440   0.302  -1.634  0.00  0.00     0.022 A 
ATOM      8  C7  BZF d   1      -0.354  -0.048  -2.675  0.00  0.00     0.029 A 
ATOM      9  C7A BZF d   1      -0.083   0.532  -3.890  0.00  0.00     0.058 A 
ENDROOT
TORSDOF 0
ENDMDL
