MODEL 1
REMARK minimizedAffinity 10.8028011
REMARK minimizedRMSD -1
REMARK  0 active torsions:
REMARK  status: ('A' for Active; 'I' for Inactive)
ROOT
ATOM      1  O1  BZF d   1       1.695   2.793  -1.952  0.00  0.00    -0.204 OA
ATOM      2  C2  BZF d   1       2.238   2.603  -0.696  0.00  0.00     0.174 A 
ATOM      3  C3  BZF d   1       1.742   1.487  -0.124  0.00  0.00    -0.012 A 
ATOM      4  C3A BZF d   1       0.901   0.895  -1.120  0.00  0.00    -0.107 A 
ATOM      5  C4  BZF d   1       0.142  -0.239  -1.154  0.00  0.00     0.055 A 
ATOM      6  C5  BZF d   1      -0.618  -0.492  -2.252  0.00  0.00    -0.016 A 
ATOM      7  C6  BZF d   1      -0.647   0.369  -3.329  0.00  0.00     0.022 A 
ATOM      8  C7  BZF d   1       0.093   1.505  -3.343  0.00  0.00     0.029 A 
ATOM      9  C7A BZF d   1       0.887   1.746  -2.249  0.00  0.00     0.058 A 
ENDROOT
TORSDOF 0
ENDMDL
