MODEL 1
REMARK minimizedAffinity 12.814435
REMARK minimizedRMSD -1
REMARK  0 active torsions:
REMARK  status: ('A' for Active; 'I' for Inactive)
ROOT
ATOM      1  C   UNL d   1      -3.263  -1.586   5.999  0.00  0.00     0.172 C 
ATOM      2  N   UNL d   1      -4.214  -2.212   5.111  0.00  0.00    -0.070 N 
ATOM      3  C1  UNL d   1      -4.806  -3.431   5.307  0.00  0.00    -0.004 A 
ATOM      4  C2  UNL d   1      -5.645  -3.669   4.240  0.00  0.00    -0.047 A 
ATOM      5  C3  UNL d   1      -5.553  -2.555   3.372  0.00  0.00    -0.047 A 
ATOM      6  C4  UNL d   1      -4.660  -1.669   3.936  0.00  0.00    -0.004 A 
ENDROOT
TORSDOF 0
ENDMDL
