MODEL 1
REMARK minimizedAffinity 6.71759796
REMARK minimizedRMSD -1
REMARK  0 active torsions:
REMARK  status: ('A' for Active; 'I' for Inactive)
ROOT
ATOM      1  C   UNL d   1      -3.495   2.720   1.886  0.00  0.00     0.172 C 
ATOM      2  N   UNL d   1      -2.635   1.563   1.801  0.00  0.00    -0.070 N 
ATOM      3  C1  UNL d   1      -1.268   1.587   1.744  0.00  0.00    -0.004 A 
ATOM      4  C2  UNL d   1      -0.825   0.284   1.671  0.00  0.00    -0.047 A 
ATOM      5  C3  UNL d   1      -1.966  -0.552   1.682  0.00  0.00    -0.047 A 
ATOM      6  C4  UNL d   1      -3.074   0.265   1.763  0.00  0.00    -0.004 A 
ENDROOT
TORSDOF 0
ENDMDL
