MODEL 1
REMARK minimizedAffinity 3.92075157
REMARK minimizedRMSD -1
REMARK  0 active torsions:
REMARK  status: ('A' for Active; 'I' for Inactive)
ROOT
ATOM      1  C   UNL d   1      -5.998  -2.775   1.366  0.00  0.00     0.172 C 
ATOM      2  N   UNL d   1      -5.520  -4.084   1.747  0.00  0.00    -0.070 N 
ATOM      3  C1  UNL d   1      -4.527  -4.786   1.117  0.00  0.00    -0.004 A 
ATOM      4  C2  UNL d   1      -4.369  -5.982   1.783  0.00  0.00    -0.047 A 
ATOM      5  C3  UNL d   1      -5.299  -6.000   2.849  0.00  0.00    -0.047 A 
ATOM      6  C4  UNL d   1      -5.999  -4.812   2.804  0.00  0.00    -0.004 A 
ENDROOT
TORSDOF 0
ENDMDL
