MODEL 1
REMARK minimizedAffinity 5.00002003
REMARK minimizedRMSD -1
REMARK  0 active torsions:
REMARK  status: ('A' for Active; 'I' for Inactive)
ROOT
ATOM      1  C   UNL d   1      -2.581  -4.470  -6.000  0.00  0.00     0.172 C 
ATOM      2  N   UNL d   1      -3.824  -3.885  -5.556  0.00  0.00    -0.070 N 
ATOM      3  C1  UNL d   1      -3.950  -2.875  -4.640  0.00  0.00    -0.004 A 
ATOM      4  C2  UNL d   1      -5.293  -2.604  -4.492  0.00  0.00    -0.047 A 
ATOM      5  C3  UNL d   1      -5.999  -3.482  -5.348  0.00  0.00    -0.047 A 
ATOM      6  C4  UNL d   1      -5.066  -4.264  -5.995  0.00  0.00    -0.004 A 
ENDROOT
TORSDOF 0
ENDMDL
