MODEL 1
REMARK minimizedAffinity 0.741117597
REMARK minimizedRMSD -1
REMARK  0 active torsions:
REMARK  status: ('A' for Active; 'I' for Inactive)
ROOT
ATOM      1  C   UNL d   1      -2.408  -2.998  -5.998  0.00  0.00     0.172 C 
ATOM      2  N   UNL d   1      -3.772  -3.470  -5.976  0.00  0.00    -0.070 N 
ATOM      3  C1  UNL d   1      -4.163  -4.782  -5.996  0.00  0.00    -0.004 A 
ATOM      4  C2  UNL d   1      -5.541  -4.813  -5.964  0.00  0.00    -0.047 A 
ATOM      5  C3  UNL d   1      -5.993  -3.472  -5.924  0.00  0.00    -0.047 A 
ATOM      6  C4  UNL d   1      -4.877  -2.662  -5.933  0.00  0.00    -0.004 A 
ENDROOT
TORSDOF 0
ENDMDL
