MODEL 1
REMARK minimizedAffinity 7.85391092
REMARK minimizedRMSD -1
REMARK  0 active torsions:
REMARK  status: ('A' for Active; 'I' for Inactive)
ROOT
ATOM      1  C   UNL d   1       1.718   5.744  -5.254  0.00  0.00     0.172 C 
ATOM      2  N   UNL d   1       2.888   4.930  -5.025  0.00  0.00    -0.070 N 
ATOM      3  C1  UNL d   1       3.189   3.764  -5.676  0.00  0.00    -0.004 A 
ATOM      4  C2  UNL d   1       4.384   3.296  -5.174  0.00  0.00    -0.047 A 
ATOM      5  C3  UNL d   1       4.816   4.212  -4.186  0.00  0.00    -0.047 A 
ATOM      6  C4  UNL d   1       3.871   5.214  -4.114  0.00  0.00    -0.004 A 
ENDROOT
TORSDOF 0
ENDMDL
