MODEL 1
REMARK minimizedAffinity 7.66177368
REMARK minimizedRMSD -1
REMARK  0 active torsions:
REMARK  status: ('A' for Active; 'I' for Inactive)
ROOT
ATOM      1  C   UNL d   1      -3.244  -1.636   0.351  0.00  0.00     0.172 C 
ATOM      2  N   UNL d   1      -2.484  -0.612   1.030  0.00  0.00    -0.070 N 
ATOM      3  C1  UNL d   1      -1.349  -0.818   1.767  0.00  0.00    -0.004 A 
ATOM      4  C2  UNL d   1      -0.929   0.405   2.245  0.00  0.00    -0.047 A 
ATOM      5  C3  UNL d   1      -1.845   1.378   1.780  0.00  0.00    -0.047 A 
ATOM      6  C4  UNL d   1      -2.798   0.721   1.031  0.00  0.00    -0.004 A 
ENDROOT
TORSDOF 0
ENDMDL
