MODEL 1
REMARK minimizedAffinity 9.55262566
REMARK minimizedRMSD -1
REMARK  0 active torsions:
REMARK  status: ('A' for Active; 'I' for Inactive)
ROOT
ATOM      1  C   UNL d   1      -1.745  -1.240   4.111  0.00  0.00     0.172 C 
ATOM      2  N   UNL d   1      -1.832  -0.216   3.096  0.00  0.00    -0.070 N 
ATOM      3  C1  UNL d   1      -0.938  -0.023   2.077  0.00  0.00    -0.004 A 
ATOM      4  C2  UNL d   1      -1.375   1.048   1.329  0.00  0.00    -0.047 A 
ATOM      5  C3  UNL d   1      -2.572   1.517   1.919  0.00  0.00    -0.047 A 
ATOM      6  C4  UNL d   1      -2.832   0.716   3.012  0.00  0.00    -0.004 A 
ENDROOT
TORSDOF 0
ENDMDL
