MODEL 1
REMARK minimizedAffinity 3.85730505
REMARK minimizedRMSD -1
REMARK  0 active torsions:
REMARK  status: ('A' for Active; 'I' for Inactive)
ROOT
ATOM      1  C   UNL d   1       0.704   0.041   3.091  0.00  0.00     0.172 C 
ATOM      2  N   UNL d   1      -0.570   0.397   2.512  0.00  0.00    -0.070 N 
ATOM      3  C1  UNL d   1      -1.795   0.194   3.091  0.00  0.00    -0.004 A 
ATOM      4  C2  UNL d   1      -2.755   0.670   2.224  0.00  0.00    -0.047 A 
ATOM      5  C3  UNL d   1      -2.085   1.175   1.085  0.00  0.00    -0.047 A 
ATOM      6  C4  UNL d   1      -0.733   0.993   1.290  0.00  0.00    -0.004 A 
ENDROOT
TORSDOF 0
ENDMDL
