MODEL 1
REMARK minimizedAffinity 3.87093663
REMARK minimizedRMSD -1
REMARK  0 active torsions:
REMARK  status: ('A' for Active; 'I' for Inactive)
ROOT
ATOM      1  C   UNL d   1      -3.780   2.637   1.745  0.00  0.00     0.172 C 
ATOM      2  N   UNL d   1      -2.869   1.520   1.662  0.00  0.00    -0.070 N 
ATOM      3  C1  UNL d   1      -1.710   1.488   0.933  0.00  0.00    -0.004 A 
ATOM      4  C2  UNL d   1      -1.130   0.251   1.117  0.00  0.00    -0.047 A 
ATOM      5  C3  UNL d   1      -1.970  -0.485   1.986  0.00  0.00    -0.047 A 
ATOM      6  C4  UNL d   1      -3.039   0.324   2.308  0.00  0.00    -0.004 A 
ENDROOT
TORSDOF 0
ENDMDL
