MODEL 1
REMARK minimizedAffinity 4.40827751
REMARK minimizedRMSD -1
REMARK  0 active torsions:
REMARK  status: ('A' for Active; 'I' for Inactive)
ROOT
ATOM      1  C   UNL d   1       3.873   1.923  -5.998  0.00  0.00     0.172 C 
ATOM      2  N   UNL d   1       3.400   0.799  -5.225  0.00  0.00    -0.070 N 
ATOM      3  C1  UNL d   1       2.488   0.859  -4.205  0.00  0.00    -0.004 A 
ATOM      4  C2  UNL d   1       2.304  -0.421  -3.727  0.00  0.00    -0.047 A 
ATOM      5  C3  UNL d   1       3.135  -1.279  -4.485  0.00  0.00    -0.047 A 
ATOM      6  C4  UNL d   1       3.802  -0.498  -5.405  0.00  0.00    -0.004 A 
ENDROOT
TORSDOF 0
ENDMDL
