MODEL 1
REMARK minimizedAffinity 6.41312838
REMARK minimizedRMSD -1
REMARK  0 active torsions:
REMARK  status: ('A' for Active; 'I' for Inactive)
ROOT
ATOM      1  C   UNL d   1       0.238  -0.571   2.621  0.00  0.00     0.172 C 
ATOM      2  N   UNL d   1      -0.807   0.153   1.935  0.00  0.00    -0.070 N 
ATOM      3  C1  UNL d   1      -0.911   0.310   0.578  0.00  0.00    -0.004 A 
ATOM      4  C2  UNL d   1      -2.040   1.059   0.325  0.00  0.00    -0.047 A 
ATOM      5  C3  UNL d   1      -2.634   1.364   1.573  0.00  0.00    -0.047 A 
ATOM      6  C4  UNL d   1      -1.850   0.791   2.552  0.00  0.00    -0.004 A 
ENDROOT
TORSDOF 0
ENDMDL
