MODEL 1
REMARK minimizedAffinity 0.0225890018
REMARK minimizedRMSD -1
REMARK  0 active torsions:
REMARK  status: ('A' for Active; 'I' for Inactive)
ROOT
ATOM      1  C   UNL d   1      -5.502  -3.765  -5.684  0.00  0.00     0.172 C 
ATOM      2  N   UNL d   1      -5.655  -2.926  -4.519  0.00  0.00    -0.070 N 
ATOM      3  C1  UNL d   1      -5.551  -1.560  -4.500  0.00  0.00    -0.004 A 
ATOM      4  C2  UNL d   1      -5.762  -1.139  -3.205  0.00  0.00    -0.047 A 
ATOM      5  C3  UNL d   1      -6.000  -2.292  -2.418  0.00  0.00    -0.047 A 
ATOM      6  C4  UNL d   1      -5.927  -3.384  -3.257  0.00  0.00    -0.004 A 
ENDROOT
TORSDOF 0
ENDMDL
