MODEL 1
REMARK minimizedAffinity 4.58322191
REMARK minimizedRMSD -1
REMARK  0 active torsions:
REMARK  status: ('A' for Active; 'I' for Inactive)
ROOT
ATOM      1  C   UNL d   1       3.750   3.390  -5.563  0.00  0.00     0.172 C 
ATOM      2  N   UNL d   1       3.554   1.963  -5.661  0.00  0.00    -0.070 N 
ATOM      3  C1  UNL d   1       4.514   1.046  -6.000  0.00  0.00    -0.004 A 
ATOM      4  C2  UNL d   1       3.931  -0.202  -5.981  0.00  0.00    -0.047 A 
ATOM      5  C3  UNL d   1       2.573  -0.030  -5.619  0.00  0.00    -0.047 A 
ATOM      6  C4  UNL d   1       2.367   1.320  -5.427  0.00  0.00    -0.004 A 
ENDROOT
TORSDOF 0
ENDMDL
