MODEL 1
REMARK minimizedAffinity 1.80532372
REMARK minimizedRMSD -1
REMARK  0 active torsions:
REMARK  status: ('A' for Active; 'I' for Inactive)
ROOT
ATOM      1  C   UNL d   1       3.768   2.843  -5.630  0.00  0.00     0.172 C 
ATOM      2  N   UNL d   1       3.716   1.424  -5.366  0.00  0.00    -0.070 N 
ATOM      3  C1  UNL d   1       2.902   0.812  -4.451  0.00  0.00    -0.004 A 
ATOM      4  C2  UNL d   1       3.152  -0.542  -4.503  0.00  0.00    -0.047 A 
ATOM      5  C3  UNL d   1       4.153  -0.751  -5.482  0.00  0.00    -0.047 A 
ATOM      6  C4  UNL d   1       4.484   0.483  -6.000  0.00  0.00    -0.004 A 
ENDROOT
TORSDOF 0
ENDMDL
