MODEL 1
REMARK minimizedAffinity -0.340102822
REMARK minimizedRMSD -1
REMARK  0 active torsions:
REMARK  status: ('A' for Active; 'I' for Inactive)
ROOT
ATOM      1  C   UNL d   1      -0.693   3.423   2.904  0.00  0.00     0.172 C 
ATOM      2  N   UNL d   1      -1.444   2.251   2.518  0.00  0.00    -0.070 N 
ATOM      3  C1  UNL d   1      -2.769   2.229   2.173  0.00  0.00    -0.004 A 
ATOM      4  C2  UNL d   1      -3.105   0.927   1.872  0.00  0.00    -0.047 A 
ATOM      5  C3  UNL d   1      -1.943   0.139   2.044  0.00  0.00    -0.047 A 
ATOM      6  C4  UNL d   1      -0.929   0.983   2.444  0.00  0.00    -0.004 A 
ENDROOT
TORSDOF 0
ENDMDL
