MODEL 1
REMARK minimizedAffinity 10.4298553
REMARK minimizedRMSD -1
REMARK  3 active torsions:
REMARK  status: ('A' for Active; 'I' for Inactive)
REMARK    1  A    between atoms: C3'_2  and  C2'_3 
REMARK    2  A    between atoms: C2'_3  and  C1'_4 
REMARK    3  A    between atoms: C1'_4  and  C1_5 
ROOT
ATOM      1  C1  N4B d   1      -3.733   2.430   1.045  0.00  0.00    -0.075 A 
ATOM      2  C2  N4B d   1      -3.586   1.064   1.374  0.00  0.00     0.002 A 
ATOM      3  C3  N4B d   1      -2.583   0.324   0.799  0.00  0.00     0.002 A 
ATOM      4  C4  N4B d   1      -1.729   0.920  -0.117  0.00  0.00    -0.004 A 
ATOM      5  C5  N4B d   1      -1.861   2.246  -0.410  0.00  0.00     0.002 A 
ATOM      6  C6  N4B d   1      -2.863   3.003   0.163  0.00  0.00     0.002 A 
ENDROOT
BRANCH   1   7
ATOM      7  C1' N4B d   1      -4.868   3.259   1.582  0.00  0.00     0.057 C 
BRANCH   7   8
ATOM      8  C2' N4B d   1      -6.000   3.280   0.559  0.00  0.00     0.009 C 
BRANCH   8   9
ATOM      9  C3' N4B d   1      -5.639   4.097  -0.670  0.00  0.00     0.004 C 
ATOM     10  C4' N4B d   1      -5.683   5.575  -0.419  0.00  0.00     0.003 C 
ENDBRANCH   8   9
ENDBRANCH   7   8
ENDBRANCH   1   7
TORSDOF 3
ENDMDL
