MODEL 1
REMARK minimizedAffinity 5.70572519
REMARK minimizedRMSD -1
REMARK  3 active torsions:
REMARK  status: ('A' for Active; 'I' for Inactive)
REMARK    1  A    between atoms: C3'_2  and  C2'_3 
REMARK    2  A    between atoms: C2'_3  and  C1'_4 
REMARK    3  A    between atoms: C1'_4  and  C1_5 
ROOT
ATOM      1  C1  N4B d   1       1.991  -2.850   3.544  0.00  0.00    -0.075 A 
ATOM      2  C2  N4B d   1       1.886  -1.772   4.450  0.00  0.00     0.002 A 
ATOM      3  C3  N4B d   1       2.200  -0.499   4.043  0.00  0.00     0.002 A 
ATOM      4  C4  N4B d   1       2.638  -0.283   2.745  0.00  0.00    -0.004 A 
ATOM      5  C5  N4B d   1       2.712  -1.325   1.868  0.00  0.00     0.002 A 
ATOM      6  C6  N4B d   1       2.395  -2.609   2.263  0.00  0.00     0.002 A 
ENDROOT
BRANCH   1   7
ATOM      7  C1' N4B d   1       1.740  -4.271   3.967  0.00  0.00     0.057 C 
BRANCH   7   8
ATOM      8  C2' N4B d   1       1.859  -4.370   5.485  0.00  0.00     0.009 C 
BRANCH   8   9
ATOM      9  C3' N4B d   1       1.443  -5.737   6.000  0.00  0.00     0.004 C 
ATOM     10  C4' N4B d   1      -0.044  -5.930   6.000  0.00  0.00     0.003 C 
ENDBRANCH   8   9
ENDBRANCH   7   8
ENDBRANCH   1   7
TORSDOF 3
ENDMDL
