MODEL 1
REMARK minimizedAffinity -1.81419337
REMARK minimizedRMSD -1
REMARK  0 active torsions:
REMARK  status: ('A' for Active; 'I' for Inactive)
ROOT
ATOM      1  C   UNL d   1       6.000  -5.999  -3.925  0.00  0.00     0.172 C 
ATOM      2  N   UNL d   1       4.843  -5.420  -4.567  0.00  0.00    -0.070 N 
ATOM      3  C1  UNL d   1       3.545  -5.565  -4.154  0.00  0.00    -0.004 A 
ATOM      4  C2  UNL d   1       2.744  -4.862  -5.028  0.00  0.00    -0.047 A 
ATOM      5  C3  UNL d   1       3.589  -4.277  -6.000  0.00  0.00    -0.047 A 
ATOM      6  C4  UNL d   1       4.883  -4.638  -5.691  0.00  0.00    -0.004 A 
ENDROOT
TORSDOF 0
ENDMDL
