MODEL 1
REMARK minimizedAffinity 0.911873519
REMARK minimizedRMSD -1
REMARK  0 active torsions:
REMARK  status: ('A' for Active; 'I' for Inactive)
ROOT
ATOM      1  C   UNL d   1      -1.710   1.027  -2.059  0.00  0.00     0.172 C 
ATOM      2  N   UNL d   1      -0.711   0.768  -1.050  0.00  0.00    -0.070 N 
ATOM      3  C1  UNL d   1       0.452   0.070  -1.238  0.00  0.00    -0.004 A 
ATOM      4  C2  UNL d   1       1.129   0.045  -0.038  0.00  0.00    -0.047 A 
ATOM      5  C3  UNL d   1       0.344   0.752   0.905  0.00  0.00    -0.047 A 
ATOM      6  C4  UNL d   1      -0.789   1.188   0.252  0.00  0.00    -0.004 A 
ENDROOT
TORSDOF 0
ENDMDL
