MODEL 1
REMARK minimizedAffinity -2.23464012
REMARK minimizedRMSD -1
REMARK  0 active torsions:
REMARK  status: ('A' for Active; 'I' for Inactive)
ROOT
ATOM      1  C   UNL d   1      -3.010   3.517  -5.993  0.00  0.00     0.172 C 
ATOM      2  N   UNL d   1      -1.605   3.851  -5.994  0.00  0.00    -0.070 N 
ATOM      3  C1  UNL d   1      -0.571   2.954  -5.999  0.00  0.00    -0.004 A 
ATOM      4  C2  UNL d   1       0.608   3.668  -5.999  0.00  0.00    -0.047 A 
ATOM      5  C3  UNL d   1       0.270   5.043  -5.993  0.00  0.00    -0.047 A 
ATOM      6  C4  UNL d   1      -1.106   5.127  -5.990  0.00  0.00    -0.004 A 
ENDROOT
TORSDOF 0
ENDMDL
