MODEL 1
REMARK minimizedAffinity -1.38556886
REMARK minimizedRMSD -1
REMARK  0 active torsions:
REMARK  status: ('A' for Active; 'I' for Inactive)
ROOT
ATOM      1  C   UNL d   1      -0.081   6.000  -5.995  0.00  0.00     0.172 C 
ATOM      2  N   UNL d   1      -0.265   4.567  -5.995  0.00  0.00    -0.070 N 
ATOM      3  C1  UNL d   1      -1.470   3.917  -5.992  0.00  0.00    -0.004 A 
ATOM      4  C2  UNL d   1      -1.218   2.562  -5.995  0.00  0.00    -0.047 A 
ATOM      5  C3  UNL d   1       0.187   2.392  -5.999  0.00  0.00    -0.047 A 
ATOM      6  C4  UNL d   1       0.752   3.650  -5.999  0.00  0.00    -0.004 A 
ENDROOT
TORSDOF 0
ENDMDL
