MODEL 1
REMARK minimizedAffinity -0.761380076
REMARK minimizedRMSD -1
REMARK  0 active torsions:
REMARK  status: ('A' for Active; 'I' for Inactive)
ROOT
ATOM      1  C   UNL d   1      -3.504   3.367  -5.993  0.00  0.00     0.172 C 
ATOM      2  N   UNL d   1      -2.225   4.037  -5.994  0.00  0.00    -0.070 N 
ATOM      3  C1  UNL d   1      -2.035   5.393  -5.999  0.00  0.00    -0.004 A 
ATOM      4  C2  UNL d   1      -0.677   5.629  -5.997  0.00  0.00    -0.047 A 
ATOM      5  C3  UNL d   1      -0.029   4.371  -5.992  0.00  0.00    -0.047 A 
ATOM      6  C4  UNL d   1      -1.011   3.403  -5.990  0.00  0.00    -0.004 A 
ENDROOT
TORSDOF 0
ENDMDL
