MODEL 1
REMARK minimizedAffinity -1.03404558
REMARK minimizedRMSD -1
REMARK  0 active torsions:
REMARK  status: ('A' for Active; 'I' for Inactive)
ROOT
ATOM      1  C   UNL d   1       4.934   5.121  -5.993  0.00  0.00     0.172 C 
ATOM      2  N   UNL d   1       3.549   4.712  -5.993  0.00  0.00    -0.070 N 
ATOM      3  C1  UNL d   1       2.468   5.553  -5.991  0.00  0.00    -0.004 A 
ATOM      4  C2  UNL d   1       1.330   4.777  -5.992  0.00  0.00    -0.047 A 
ATOM      5  C3  UNL d   1       1.740   3.423  -5.995  0.00  0.00    -0.047 A 
ATOM      6  C4  UNL d   1       3.119   3.412  -5.995  0.00  0.00    -0.004 A 
ENDROOT
TORSDOF 0
ENDMDL
