MODEL 1
REMARK minimizedAffinity -1.39085782
REMARK minimizedRMSD -1
REMARK  0 active torsions:
REMARK  status: ('A' for Active; 'I' for Inactive)
ROOT
ATOM      1  C   UNL d   1       2.211   5.704  -5.995  0.00  0.00     0.172 C 
ATOM      2  N   UNL d   1       0.939   5.021  -5.996  0.00  0.00    -0.070 N 
ATOM      3  C1  UNL d   1      -0.291   5.623  -5.992  0.00  0.00    -0.004 A 
ATOM      4  C2  UNL d   1      -1.247   4.630  -5.995  0.00  0.00    -0.047 A 
ATOM      5  C3  UNL d   1      -0.568   3.388  -6.000  0.00  0.00    -0.047 A 
ATOM      6  C4  UNL d   1       0.784   3.660  -6.000  0.00  0.00    -0.004 A 
ENDROOT
TORSDOF 0
ENDMDL
