MODEL 1
REMARK minimizedAffinity -1.03814292
REMARK minimizedRMSD -1
REMARK  0 active torsions:
REMARK  status: ('A' for Active; 'I' for Inactive)
ROOT
ATOM      1  C   UNL d   1      -2.972   3.817  -5.998  0.00  0.00     0.172 C 
ATOM      2  N   UNL d   1      -1.529   3.750  -5.991  0.00  0.00    -0.070 N 
ATOM      3  C1  UNL d   1      -0.783   2.602  -5.998  0.00  0.00    -0.004 A 
ATOM      4  C2  UNL d   1       0.547   2.962  -5.988  0.00  0.00    -0.047 A 
ATOM      5  C3  UNL d   1       0.602   4.376  -5.974  0.00  0.00    -0.047 A 
ATOM      6  C4  UNL d   1      -0.697   4.838  -5.976  0.00  0.00    -0.004 A 
ENDROOT
TORSDOF 0
ENDMDL
