MODEL 1
REMARK minimizedAffinity -1.55926228
REMARK minimizedRMSD -1
REMARK  0 active torsions:
REMARK  status: ('A' for Active; 'I' for Inactive)
ROOT
ATOM      1  C   UNL d   1      -0.103   4.514  -6.000  0.00  0.00     0.172 C 
ATOM      2  N   UNL d   1      -1.542   4.639  -5.985  0.00  0.00    -0.070 N 
ATOM      3  C1  UNL d   1      -2.434   3.601  -5.999  0.00  0.00    -0.004 A 
ATOM      4  C2  UNL d   1      -3.704   4.135  -5.976  0.00  0.00    -0.047 A 
ATOM      5  C3  UNL d   1      -3.571   5.544  -5.948  0.00  0.00    -0.047 A 
ATOM      6  C4  UNL d   1      -2.221   5.829  -5.954  0.00  0.00    -0.004 A 
ENDROOT
TORSDOF 0
ENDMDL
