MODEL 1
REMARK minimizedAffinity 2.16174507
REMARK minimizedRMSD -1
REMARK  0 active torsions:
REMARK  status: ('A' for Active; 'I' for Inactive)
ROOT
ATOM      1  C   UNL d   1      -0.007   0.568  -5.972  0.00  0.00     0.172 C 
ATOM      2  N   UNL d   1       0.421   1.948  -5.983  0.00  0.00    -0.070 N 
ATOM      3  C1  UNL d   1       1.720   2.381  -5.990  0.00  0.00    -0.004 A 
ATOM      4  C2  UNL d   1       1.705   3.759  -6.000  0.00  0.00    -0.047 A 
ATOM      5  C3  UNL d   1       0.350   4.168  -5.999  0.00  0.00    -0.047 A 
ATOM      6  C4  UNL d   1      -0.423   3.027  -5.988  0.00  0.00    -0.004 A 
ENDROOT
TORSDOF 0
ENDMDL
