MODEL 1
REMARK minimizedAffinity 4.61269903
REMARK minimizedRMSD -1
REMARK  0 active torsions:
REMARK  status: ('A' for Active; 'I' for Inactive)
ROOT
ATOM      1  C   UNL d   1       4.980   5.999  -0.276  0.00  0.00     0.172 C 
ATOM      2  N   UNL d   1       5.251   5.451   1.031  0.00  0.00    -0.070 N 
ATOM      3  C1  UNL d   1       5.966   4.311   1.286  0.00  0.00    -0.004 A 
ATOM      4  C2  UNL d   1       5.999   4.130   2.652  0.00  0.00    -0.047 A 
ATOM      5  C3  UNL d   1       5.278   5.197   3.238  0.00  0.00    -0.047 A 
ATOM      6  C4  UNL d   1       4.826   6.000   2.212  0.00  0.00    -0.004 A 
ENDROOT
TORSDOF 0
ENDMDL
