MODEL 1
REMARK minimizedAffinity -2.06746221
REMARK minimizedRMSD -1
REMARK  0 active torsions:
REMARK  status: ('A' for Active; 'I' for Inactive)
ROOT
ATOM      1  C   UNL d   1       1.464   4.126  -5.983  0.00  0.00     0.172 C 
ATOM      2  N   UNL d   1       0.262   4.622  -5.355  0.00  0.00    -0.070 N 
ATOM      3  C1  UNL d   1      -0.068   4.474  -4.034  0.00  0.00    -0.004 A 
ATOM      4  C2  UNL d   1      -1.287   5.085  -3.832  0.00  0.00    -0.047 A 
ATOM      5  C3  UNL d   1      -1.704   5.618  -5.075  0.00  0.00    -0.047 A 
ATOM      6  C4  UNL d   1      -0.727   5.317  -6.000  0.00  0.00    -0.004 A 
ENDROOT
TORSDOF 0
ENDMDL
