MODEL 1
REMARK minimizedAffinity -1.26547515
REMARK minimizedRMSD -1
REMARK  0 active torsions:
REMARK  status: ('A' for Active; 'I' for Inactive)
ROOT
ATOM      1  C   UNL d   1      -3.212  -4.943   0.006  0.00  0.00     0.172 C 
ATOM      2  N   UNL d   1      -3.531  -4.974  -1.402  0.00  0.00    -0.070 N 
ATOM      3  C1  UNL d   1      -3.241  -5.999  -2.264  0.00  0.00    -0.004 A 
ATOM      4  C2  UNL d   1      -3.708  -5.645  -3.511  0.00  0.00    -0.047 A 
ATOM      5  C3  UNL d   1      -4.297  -4.364  -3.396  0.00  0.00    -0.047 A 
ATOM      6  C4  UNL d   1      -4.173  -3.972  -2.079  0.00  0.00    -0.004 A 
ENDROOT
TORSDOF 0
ENDMDL
