MODEL 1
REMARK minimizedAffinity 2.22280288
REMARK minimizedRMSD -1
REMARK  0 active torsions:
REMARK  status: ('A' for Active; 'I' for Inactive)
ROOT
ATOM      1  C   UNL d   1       1.996  -0.864  -5.028  0.00  0.00     0.172 C 
ATOM      2  N   UNL d   1       2.184  -1.190  -3.634  0.00  0.00    -0.070 N 
ATOM      3  C1  UNL d   1       2.848  -2.287  -3.153  0.00  0.00    -0.004 A 
ATOM      4  C2  UNL d   1       2.807  -2.235  -1.776  0.00  0.00    -0.047 A 
ATOM      5  C3  UNL d   1       2.093  -1.067  -1.417  0.00  0.00    -0.047 A 
ATOM      6  C4  UNL d   1       1.719  -0.439  -2.586  0.00  0.00    -0.004 A 
ENDROOT
TORSDOF 0
ENDMDL
