MODEL 1
REMARK minimizedAffinity -1.31983542
REMARK minimizedRMSD -1
REMARK  0 active torsions:
REMARK  status: ('A' for Active; 'I' for Inactive)
ROOT
ATOM      1  C   UNL d   1      -0.537   5.205  -5.984  0.00  0.00     0.172 C 
ATOM      2  N   UNL d   1      -1.966   4.998  -5.983  0.00  0.00    -0.070 N 
ATOM      3  C1  UNL d   1      -2.596   3.782  -5.974  0.00  0.00    -0.004 A 
ATOM      4  C2  UNL d   1      -3.955   4.012  -5.976  0.00  0.00    -0.047 A 
ATOM      5  C3  UNL d   1      -4.148   5.414  -5.987  0.00  0.00    -0.047 A 
ATOM      6  C4  UNL d   1      -2.900   6.000  -5.991  0.00  0.00    -0.004 A 
ENDROOT
TORSDOF 0
ENDMDL
