MODEL 1
REMARK minimizedAffinity 0.460762084
REMARK minimizedRMSD -1
REMARK  0 active torsions:
REMARK  status: ('A' for Active; 'I' for Inactive)
ROOT
ATOM      1  C   UNL d   1      -0.947   1.109   1.270  0.00  0.00     0.172 C 
ATOM      2  N   UNL d   1      -0.152   1.509   0.133  0.00  0.00    -0.070 N 
ATOM      3  C1  UNL d   1       0.110   2.799  -0.243  0.00  0.00    -0.004 A 
ATOM      4  C2  UNL d   1       0.900   2.758  -1.372  0.00  0.00    -0.047 A 
ATOM      5  C3  UNL d   1       1.119   1.395  -1.686  0.00  0.00    -0.047 A 
ATOM      6  C4  UNL d   1       0.456   0.644  -0.738  0.00  0.00    -0.004 A 
ENDROOT
TORSDOF 0
ENDMDL
