MODEL 1
REMARK minimizedAffinity -4.71047306
REMARK minimizedRMSD -1
REMARK  0 active torsions:
REMARK  status: ('A' for Active; 'I' for Inactive)
ROOT
ATOM      1  C4' PXY d   1      -1.343   0.801  -0.005  0.00  0.00     0.077 C 
ATOM      2  C1' PXY d   1       3.874  -1.688  -0.065  0.00  0.00     0.077 C 
ATOM      3  C1  PXY d   1       2.500  -1.046  -0.054  0.00  0.00    -0.082 A 
ATOM      4  C2  PXY d   1       2.393   0.271  -0.121  0.00  0.00     0.003 A 
ATOM      5  C3  PXY d   1       1.160   0.869  -0.080  0.00  0.00     0.003 A 
ATOM      6  C4  PXY d   1       0.023   0.109  -0.023  0.00  0.00    -0.082 A 
ATOM      7  C5  PXY d   1       0.123  -1.236   0.035  0.00  0.00     0.003 A 
ATOM      8  C6  PXY d   1       1.386  -1.822   0.033  0.00  0.00     0.003 A 
ENDROOT
TORSDOF 0
ENDMDL
