MODEL 1
REMARK minimizedAffinity -4.67741585
REMARK minimizedRMSD -1
REMARK  0 active torsions:
REMARK  status: ('A' for Active; 'I' for Inactive)
ROOT
ATOM      1  C4' PXY d   1      -3.175   1.137   1.010  0.00  0.00     0.077 C 
ATOM      2  C1' PXY d   1       1.819  -1.530  -0.158  0.00  0.00     0.077 C 
ATOM      3  C1  PXY d   1       0.516  -0.819   0.147  0.00  0.00    -0.082 A 
ATOM      4  C2  PXY d   1      -0.417  -1.437   0.853  0.00  0.00     0.003 A 
ATOM      5  C3  PXY d   1      -1.614  -0.821   1.111  0.00  0.00     0.003 A 
ATOM      6  C4  PXY d   1      -1.839   0.461   0.686  0.00  0.00    -0.082 A 
ATOM      7  C5  PXY d   1      -0.889   1.102  -0.026  0.00  0.00     0.003 A 
ATOM      8  C6  PXY d   1       0.304   0.444  -0.312  0.00  0.00     0.003 A 
ENDROOT
TORSDOF 0
ENDMDL
