MODEL 1
REMARK minimizedAffinity -2.60427976
REMARK minimizedRMSD -1
REMARK  0 active torsions:
REMARK  status: ('A' for Active; 'I' for Inactive)
ROOT
ATOM      1  C4' PXY d   1       2.441  -1.491  -0.168  0.00  0.00     0.077 C 
ATOM      2  C1' PXY d   1      -2.771   0.986  -0.494  0.00  0.00     0.077 C 
ATOM      3  C1  PXY d   1      -1.399   0.346  -0.415  0.00  0.00    -0.082 A 
ATOM      4  C2  PXY d   1      -1.296  -0.965  -0.271  0.00  0.00     0.003 A 
ATOM      5  C3  PXY d   1      -0.063  -1.556  -0.166  0.00  0.00     0.003 A 
ATOM      6  C4  PXY d   1       1.077  -0.803  -0.262  0.00  0.00    -0.082 A 
ATOM      7  C5  PXY d   1       0.980   0.534  -0.420  0.00  0.00     0.003 A 
ATOM      8  C6  PXY d   1      -0.281   1.119  -0.483  0.00  0.00     0.003 A 
ENDROOT
TORSDOF 0
ENDMDL
