MODEL 1
REMARK minimizedAffinity -4.75210762
REMARK minimizedRMSD -1
REMARK  0 active torsions:
REMARK  status: ('A' for Active; 'I' for Inactive)
ROOT
ATOM      1  C4' PXY d   1       3.741  -0.739   0.013  0.00  0.00     0.077 C 
ATOM      2  C1' PXY d   1      -1.627   1.402  -0.095  0.00  0.00     0.077 C 
ATOM      3  C1  PXY d   1      -0.224   0.829  -0.063  0.00  0.00    -0.082 A 
ATOM      4  C2  PXY d   1       0.812   1.643   0.057  0.00  0.00     0.003 A 
ATOM      5  C3  PXY d   1       2.090   1.144   0.055  0.00  0.00     0.003 A 
ATOM      6  C4  PXY d   1       2.306  -0.206  -0.015  0.00  0.00    -0.082 A 
ATOM      7  C5  PXY d   1       1.253  -1.044  -0.126  0.00  0.00     0.003 A 
ATOM      8  C6  PXY d   1      -0.033  -0.514  -0.165  0.00  0.00     0.003 A 
ENDROOT
TORSDOF 0
ENDMDL
