MODEL 1
REMARK minimizedAffinity -1.0445987
REMARK minimizedRMSD -1
REMARK  0 active torsions:
REMARK  status: ('A' for Active; 'I' for Inactive)
ROOT
ATOM      1  C4' PXY d   1       2.598  -1.882  -2.067  0.00  0.00     0.077 C 
ATOM      2  C1' PXY d   1      -1.541   0.562   1.143  0.00  0.00     0.077 C 
ATOM      3  C1  PXY d   1      -0.447  -0.072   0.308  0.00  0.00    -0.082 A 
ATOM      4  C2  PXY d   1      -0.740  -0.577  -0.879  0.00  0.00     0.003 A 
ATOM      5  C3  PXY d   1       0.231  -1.183  -1.634  0.00  0.00     0.003 A 
ATOM      6  C4  PXY d   1       1.527  -1.224  -1.193  0.00  0.00    -0.082 A 
ATOM      7  C5  PXY d   1       1.836  -0.701   0.013  0.00  0.00     0.003 A 
ATOM      8  C6  PXY d   1       0.827  -0.128   0.782  0.00  0.00     0.003 A 
ENDROOT
TORSDOF 0
ENDMDL
