MODEL 1
REMARK minimizedAffinity -2.03971505
REMARK minimizedRMSD -1
REMARK  0 active torsions:
REMARK  status: ('A' for Active; 'I' for Inactive)
ROOT
ATOM      1  C4' PXY d   1       4.042  -0.223  -0.515  0.00  0.00     0.077 C 
ATOM      2  C1' PXY d   1      -1.666   0.676  -0.345  0.00  0.00     0.077 C 
ATOM      3  C1  PXY d   1      -0.167   0.453  -0.393  0.00  0.00    -0.082 A 
ATOM      4  C2  PXY d   1       0.306  -0.768  -0.585  0.00  0.00     0.003 A 
ATOM      5  C3  PXY d   1       1.659  -0.993  -0.599  0.00  0.00     0.003 A 
ATOM      6  C4  PXY d   1       2.536   0.051  -0.469  0.00  0.00    -0.082 A 
ATOM      7  C5  PXY d   1       2.061   1.300  -0.283  0.00  0.00     0.003 A 
ATOM      8  C6  PXY d   1       0.684   1.501  -0.231  0.00  0.00     0.003 A 
ENDROOT
TORSDOF 0
ENDMDL
