MODEL 1
REMARK minimizedAffinity -5.59046221
REMARK minimizedRMSD -1
REMARK  0 active torsions:
REMARK  status: ('A' for Active; 'I' for Inactive)
ROOT
ATOM      1  C4' PXY d   1       3.769  -0.500   0.597  0.00  0.00     0.077 C 
ATOM      2  C1' PXY d   1      -1.760   0.875  -0.381  0.00  0.00     0.077 C 
ATOM      3  C1  PXY d   1      -0.306   0.526  -0.129  0.00  0.00    -0.082 A 
ATOM      4  C2  PXY d   1       0.066  -0.743  -0.101  0.00  0.00     0.003 A 
ATOM      5  C3  PXY d   1       1.371  -1.077   0.158  0.00  0.00     0.003 A 
ATOM      6  C4  PXY d   1       2.314  -0.101   0.336  0.00  0.00    -0.082 A 
ATOM      7  C5  PXY d   1       1.944   1.197   0.299  0.00  0.00     0.003 A 
ATOM      8  C6  PXY d   1       0.607   1.514   0.076  0.00  0.00     0.003 A 
ENDROOT
TORSDOF 0
ENDMDL
