MODEL 1
REMARK minimizedAffinity -1.91155851
REMARK minimizedRMSD -1
REMARK  0 active torsions:
REMARK  status: ('A' for Active; 'I' for Inactive)
ROOT
ATOM      1  C4' PXY d   1      -2.455   0.507  -0.355  0.00  0.00     0.077 C 
ATOM      2  C1' PXY d   1       3.237   1.374   0.157  0.00  0.00     0.077 C 
ATOM      3  C1  PXY d   1       1.746   1.134   0.025  0.00  0.00    -0.082 A 
ATOM      4  C2  PXY d   1       1.003   1.993  -0.654  0.00  0.00     0.003 A 
ATOM      5  C3  PXY d   1      -0.352   1.808  -0.757  0.00  0.00     0.003 A 
ATOM      6  C4  PXY d   1      -0.944   0.704  -0.203  0.00  0.00    -0.082 A 
ATOM      7  C5  PXY d   1      -0.191  -0.182   0.482  0.00  0.00     0.003 A 
ATOM      8  C6  PXY d   1       1.176   0.045   0.609  0.00  0.00     0.003 A 
ENDROOT
TORSDOF 0
ENDMDL
