MODEL 1
REMARK minimizedAffinity -0.670698225
REMARK minimizedRMSD -1
REMARK  0 active torsions:
REMARK  status: ('A' for Active; 'I' for Inactive)
ROOT
ATOM      1  C4' PXY d   1      -2.603   1.252   0.511  0.00  0.00     0.077 C 
ATOM      2  C1' PXY d   1       2.123  -1.858  -0.677  0.00  0.00     0.077 C 
ATOM      3  C1  PXY d   1       0.886  -1.035  -0.376  0.00  0.00    -0.082 A 
ATOM      4  C2  PXY d   1       0.420  -0.983   0.861  0.00  0.00     0.003 A 
ATOM      5  C3  PXY d   1      -0.716  -0.269   1.145  0.00  0.00     0.003 A 
ATOM      6  C4  PXY d   1      -1.351   0.442   0.163  0.00  0.00    -0.082 A 
ATOM      7  C5  PXY d   1      -0.876   0.402  -1.100  0.00  0.00     0.003 A 
ATOM      8  C6  PXY d   1       0.255  -0.361  -1.376  0.00  0.00     0.003 A 
ENDROOT
TORSDOF 0
ENDMDL
