MODEL 1
REMARK minimizedAffinity -2.29650307
REMARK minimizedRMSD -1
REMARK  0 active torsions:
REMARK  status: ('A' for Active; 'I' for Inactive)
ROOT
ATOM      1  C4' PXY d   1      -2.672   1.313   0.515  0.00  0.00     0.077 C 
ATOM      2  C1' PXY d   1       2.121  -1.893   0.108  0.00  0.00     0.077 C 
ATOM      3  C1  PXY d   1       0.867  -1.047   0.203  0.00  0.00    -0.082 A 
ATOM      4  C2  PXY d   1       0.341  -0.789   1.389  0.00  0.00     0.003 A 
ATOM      5  C3  PXY d   1      -0.811  -0.052   1.492  0.00  0.00     0.003 A 
ATOM      6  C4  PXY d   1      -1.401   0.471   0.372  0.00  0.00    -0.082 A 
ATOM      7  C5  PXY d   1      -0.864   0.221  -0.841  0.00  0.00     0.003 A 
ATOM      8  C6  PXY d   1       0.282  -0.564  -0.926  0.00  0.00     0.003 A 
ENDROOT
TORSDOF 0
ENDMDL
