MODEL 1
REMARK minimizedAffinity -1.93038845
REMARK minimizedRMSD -1
REMARK  0 active torsions:
REMARK  status: ('A' for Active; 'I' for Inactive)
ROOT
ATOM      1  C   UNL d   1       1.071  -0.802   2.285  0.00  0.00    -0.002 A 
ATOM      2  C1  UNL d   1       0.255   0.214   2.761  0.00  0.00     0.010 A 
ATOM      3  C2  UNL d   1      -0.156   1.248   1.917  0.00  0.00     0.041 A 
ATOM      4  C3  UNL d   1       0.270   1.242   0.574  0.00  0.00    -0.075 A 
ATOM      5  S   UNL d   1      -0.109   2.404  -0.642  0.00  0.00     0.015 SA
ATOM      6  C4  UNL d   1       0.804   1.579  -1.821  0.00  0.00     0.022 A 
ATOM      7  C5  UNL d   1       1.390   0.442  -1.316  0.00  0.00     0.026 A 
ATOM      8  C6  UNL d   1       1.092   0.229   0.072  0.00  0.00    -0.082 A 
ATOM      9  C7  UNL d   1       1.492  -0.804   0.953  0.00  0.00     0.045 A 
ENDROOT
TORSDOF 0
ENDMDL
