MODEL 1
REMARK minimizedAffinity 6.78770113
REMARK minimizedRMSD -1
REMARK  0 active torsions:
REMARK  status: ('A' for Active; 'I' for Inactive)
ROOT
ATOM      1  C   UNL d   1       0.664   0.250   1.872  0.00  0.00    -0.002 A 
ATOM      2  C1  UNL d   1       0.785  -1.126   1.736  0.00  0.00     0.010 A 
ATOM      3  C2  UNL d   1       0.240  -1.781   0.630  0.00  0.00     0.041 A 
ATOM      4  C3  UNL d   1      -0.433  -1.022  -0.348  0.00  0.00    -0.075 A 
ATOM      5  S   UNL d   1      -1.179  -1.609  -1.787  0.00  0.00     0.015 SA
ATOM      6  C4  UNL d   1      -1.674  -0.047  -2.256  0.00  0.00     0.022 A 
ATOM      7  C5  UNL d   1      -1.289   0.911  -1.348  0.00  0.00     0.026 A 
ATOM      8  C6  UNL d   1      -0.567   0.364  -0.234  0.00  0.00    -0.082 A 
ATOM      9  C7  UNL d   1      -0.004   0.999   0.900  0.00  0.00     0.045 A 
ENDROOT
TORSDOF 0
ENDMDL
