MODEL 1
REMARK minimizedAffinity 1.29050779
REMARK minimizedRMSD -1
REMARK  0 active torsions:
REMARK  status: ('A' for Active; 'I' for Inactive)
ROOT
ATOM      1  C   UNL d   1       3.554  -1.239   3.044  0.00  0.00    -0.002 A 
ATOM      2  C1  UNL d   1       2.585  -1.247   4.037  0.00  0.00     0.010 A 
ATOM      3  C2  UNL d   1       1.299  -0.767   3.779  0.00  0.00     0.041 A 
ATOM      4  C3  UNL d   1       1.000  -0.276   2.492  0.00  0.00    -0.075 A 
ATOM      5  S   UNL d   1      -0.506   0.360   1.946  0.00  0.00     0.015 SA
ATOM      6  C4  UNL d   1       0.101   0.657   0.382  0.00  0.00     0.022 A 
ATOM      7  C5  UNL d   1       1.419   0.285   0.261  0.00  0.00     0.026 A 
ATOM      8  C6  UNL d   1       1.959  -0.259   1.476  0.00  0.00    -0.082 A 
ATOM      9  C7  UNL d   1       3.254  -0.751   1.769  0.00  0.00     0.045 A 
ENDROOT
TORSDOF 0
ENDMDL
