MODEL 1
REMARK minimizedAffinity 1.90617812
REMARK minimizedRMSD -1
REMARK  0 active torsions:
REMARK  status: ('A' for Active; 'I' for Inactive)
ROOT
ATOM      1  C   UNL d   1       1.039   0.905   2.783  0.00  0.00    -0.002 A 
ATOM      2  C1  UNL d   1       0.128   1.897   2.453  0.00  0.00     0.010 A 
ATOM      3  C2  UNL d   1      -0.475   1.917   1.194  0.00  0.00     0.041 A 
ATOM      4  C3  UNL d   1      -0.145   0.912   0.264  0.00  0.00    -0.075 A 
ATOM      5  S   UNL d   1      -0.759   0.735  -1.338  0.00  0.00     0.015 SA
ATOM      6  C4  UNL d   1       0.174  -0.664  -1.620  0.00  0.00     0.022 A 
ATOM      7  C5  UNL d   1       0.941  -1.001  -0.530  0.00  0.00     0.026 A 
ATOM      8  C6  UNL d   1       0.770  -0.099   0.574  0.00  0.00    -0.082 A 
ATOM      9  C7  UNL d   1       1.364  -0.091   1.858  0.00  0.00     0.045 A 
ENDROOT
TORSDOF 0
ENDMDL
