MODEL 1
REMARK minimizedAffinity -0.784561276
REMARK minimizedRMSD -1
REMARK  0 active torsions:
REMARK  status: ('A' for Active; 'I' for Inactive)
ROOT
ATOM      1  C   UNL d   1       0.144   4.067   0.240  0.00  0.00    -0.002 A 
ATOM      2  C1  UNL d   1      -0.069   3.957   1.607  0.00  0.00     0.010 A 
ATOM      3  C2  UNL d   1       0.048   2.721   2.246  0.00  0.00     0.041 A 
ATOM      4  C3  UNL d   1       0.389   1.588   1.482  0.00  0.00    -0.075 A 
ATOM      5  S   UNL d   1       0.589  -0.027   2.051  0.00  0.00     0.015 SA
ATOM      6  C4  UNL d   1       0.963  -0.609   0.493  0.00  0.00     0.022 A 
ATOM      7  C5  UNL d   1       0.940   0.391  -0.450  0.00  0.00     0.026 A 
ATOM      8  C6  UNL d   1       0.609   1.674   0.105  0.00  0.00    -0.082 A 
ATOM      9  C7  UNL d   1       0.481   2.940  -0.515  0.00  0.00     0.045 A 
ENDROOT
TORSDOF 0
ENDMDL
