MODEL 1
REMARK minimizedAffinity 4.97208214
REMARK minimizedRMSD -1
REMARK  0 active torsions:
REMARK  status: ('A' for Active; 'I' for Inactive)
ROOT
ATOM      1  C   UNL d   1      -3.620   0.251  -0.170  0.00  0.00    -0.002 A 
ATOM      2  C1  UNL d   1      -2.886   0.049  -1.330  0.00  0.00     0.010 A 
ATOM      3  C2  UNL d   1      -1.498   0.196  -1.327  0.00  0.00     0.041 A 
ATOM      4  C3  UNL d   1      -0.853   0.551  -0.126  0.00  0.00    -0.075 A 
ATOM      5  S   UNL d   1       0.838   0.786   0.117  0.00  0.00     0.015 SA
ATOM      6  C4  UNL d   1       0.625   1.159   1.766  0.00  0.00     0.022 A 
ATOM      7  C5  UNL d   1      -0.697   1.111   2.139  0.00  0.00     0.026 A 
ATOM      8  C6  UNL d   1      -1.571   0.759   1.056  0.00  0.00    -0.082 A 
ATOM      9  C7  UNL d   1      -2.977   0.603   1.019  0.00  0.00     0.045 A 
ENDROOT
TORSDOF 0
ENDMDL
