MODEL 1
REMARK minimizedAffinity -1.02775419
REMARK minimizedRMSD -1
REMARK  0 active torsions:
REMARK  status: ('A' for Active; 'I' for Inactive)
ROOT
ATOM      1  C   UNL d   1       2.317   3.770  -3.377  0.00  0.00     0.078 C 
ATOM      2  C1  UNL d   1       3.472   4.242  -4.208  0.00  0.00    -0.077 A 
ATOM      3  C2  UNL d   1       4.562   3.403  -4.472  0.00  0.00    -0.001 A 
ATOM      4  C3  UNL d   1       5.635   3.860  -5.239  0.00  0.00     0.003 A 
ATOM      5  C4  UNL d   1       5.629   5.157  -5.748  0.00  0.00    -0.005 A 
ATOM      6  C5  UNL d   1       4.550   6.000  -5.489  0.00  0.00     0.003 A 
ATOM      7  C6  UNL d   1       3.476   5.545  -4.722  0.00  0.00    -0.001 A 
ENDROOT
TORSDOF 0
ENDMDL
