MODEL 1
REMARK minimizedAffinity 5.21094561
REMARK minimizedRMSD -1
REMARK  0 active torsions:
REMARK  status: ('A' for Active; 'I' for Inactive)
ROOT
ATOM      1  C   UNL d   1      -5.998  -4.835  -3.759  0.00  0.00     0.078 C 
ATOM      2  C1  UNL d   1      -4.651  -4.882  -3.101  0.00  0.00    -0.077 A 
ATOM      3  C2  UNL d   1      -3.787  -5.965  -3.304  0.00  0.00    -0.001 A 
ATOM      4  C3  UNL d   1      -2.540  -6.000  -2.678  0.00  0.00     0.003 A 
ATOM      5  C4  UNL d   1      -2.147  -4.955  -1.843  0.00  0.00    -0.005 A 
ATOM      6  C5  UNL d   1      -3.001  -3.875  -1.634  0.00  0.00     0.003 A 
ATOM      7  C6  UNL d   1      -4.248  -3.838  -2.259  0.00  0.00    -0.001 A 
ENDROOT
TORSDOF 0
ENDMDL
