MODEL 1
REMARK minimizedAffinity 3.50828028
REMARK minimizedRMSD -1
REMARK  0 active torsions:
REMARK  status: ('A' for Active; 'I' for Inactive)
ROOT
ATOM      1  C   UNL d   1       3.197   1.207   0.238  0.00  0.00     0.078 C 
ATOM      2  C1  UNL d   1       1.998   0.880  -0.602  0.00  0.00    -0.077 A 
ATOM      3  C2  UNL d   1       1.382  -0.374  -0.521  0.00  0.00    -0.001 A 
ATOM      4  C3  UNL d   1       0.273  -0.668  -1.317  0.00  0.00     0.003 A 
ATOM      5  C4  UNL d   1      -0.228   0.286  -2.199  0.00  0.00    -0.005 A 
ATOM      6  C5  UNL d   1       0.380   1.537  -2.288  0.00  0.00     0.003 A 
ATOM      7  C6  UNL d   1       1.489   1.833  -1.493  0.00  0.00    -0.001 A 
ENDROOT
TORSDOF 0
ENDMDL
