MODEL 1
REMARK minimizedAffinity -2.63961697
REMARK minimizedRMSD -1
REMARK  0 active torsions:
REMARK  status: ('A' for Active; 'I' for Inactive)
ROOT
ATOM      1  C   UNL d   1      -6.000  -0.750   5.934  0.00  0.00     0.078 C 
ATOM      2  C1  UNL d   1      -5.328   0.387   5.224  0.00  0.00    -0.077 A 
ATOM      3  C2  UNL d   1      -4.857   1.501   5.930  0.00  0.00    -0.001 A 
ATOM      4  C3  UNL d   1      -4.242   2.556   5.255  0.00  0.00     0.003 A 
ATOM      5  C4  UNL d   1      -4.093   2.509   3.871  0.00  0.00    -0.005 A 
ATOM      6  C5  UNL d   1      -4.561   1.406   3.159  0.00  0.00     0.003 A 
ATOM      7  C6  UNL d   1      -5.176   0.350   3.832  0.00  0.00    -0.001 A 
ENDROOT
TORSDOF 0
ENDMDL
