MODEL 1
REMARK minimizedAffinity 8.34230328
REMARK minimizedRMSD -1
REMARK  0 active torsions:
REMARK  status: ('A' for Active; 'I' for Inactive)
ROOT
ATOM      1  C   UNL d   1      -2.360   2.134   3.205  0.00  0.00     0.078 C 
ATOM      2  C1  UNL d   1      -1.011   2.143   2.549  0.00  0.00    -0.077 A 
ATOM      3  C2  UNL d   1      -0.628   3.191   1.703  0.00  0.00    -0.001 A 
ATOM      4  C3  UNL d   1       0.627   3.181   1.092  0.00  0.00     0.003 A 
ATOM      5  C4  UNL d   1       1.508   2.126   1.320  0.00  0.00    -0.005 A 
ATOM      6  C5  UNL d   1       1.135   1.078   2.158  0.00  0.00     0.003 A 
ATOM      7  C6  UNL d   1      -0.120   1.086   2.770  0.00  0.00    -0.001 A 
ENDROOT
TORSDOF 0
ENDMDL
