MODEL 1
REMARK minimizedAffinity 8.34636307
REMARK minimizedRMSD -1
REMARK  0 active torsions:
REMARK  status: ('A' for Active; 'I' for Inactive)
ROOT
ATOM      1  C   UNL d   1      -1.839  -5.626  -3.783  0.00  0.00     0.078 C 
ATOM      2  C1  UNL d   1      -3.227  -5.243  -3.362  0.00  0.00    -0.077 A 
ATOM      3  C2  UNL d   1      -4.336  -5.998  -3.763  0.00  0.00    -0.001 A 
ATOM      4  C3  UNL d   1      -5.623  -5.624  -3.372  0.00  0.00     0.003 A 
ATOM      5  C4  UNL d   1      -5.813  -4.494  -2.580  0.00  0.00    -0.005 A 
ATOM      6  C5  UNL d   1      -4.715  -3.735  -2.178  0.00  0.00     0.003 A 
ATOM      7  C6  UNL d   1      -3.428  -4.107  -2.568  0.00  0.00    -0.001 A 
ENDROOT
TORSDOF 0
ENDMDL
