MODEL 1
REMARK minimizedAffinity 3.88816023
REMARK minimizedRMSD -1
REMARK  0 active torsions:
REMARK  status: ('A' for Active; 'I' for Inactive)
ROOT
ATOM      1  C   UNL d   1       2.556  -0.095  -1.013  0.00  0.00     0.078 C 
ATOM      2  C1  UNL d   1       2.142   1.151  -0.289  0.00  0.00    -0.077 A 
ATOM      3  C2  UNL d   1       1.846   1.126   1.080  0.00  0.00    -0.001 A 
ATOM      4  C3  UNL d   1       1.453   2.291   1.739  0.00  0.00     0.003 A 
ATOM      5  C4  UNL d   1       1.351   3.491   1.037  0.00  0.00    -0.005 A 
ATOM      6  C5  UNL d   1       1.642   3.526  -0.325  0.00  0.00     0.003 A 
ATOM      7  C6  UNL d   1       2.035   2.361  -0.986  0.00  0.00    -0.001 A 
ENDROOT
TORSDOF 0
ENDMDL
