MODEL 1
REMARK minimizedAffinity 2.33634949
REMARK minimizedRMSD -1
REMARK  0 active torsions:
REMARK  status: ('A' for Active; 'I' for Inactive)
ROOT
ATOM      1  C   UNL d   1      -0.059  -1.084  -0.026  0.00  0.00     0.078 C 
ATOM      2  C1  UNL d   1       0.867   0.071   0.212  0.00  0.00    -0.077 A 
ATOM      3  C2  UNL d   1       0.902   0.725   1.449  0.00  0.00    -0.001 A 
ATOM      4  C3  UNL d   1       1.763   1.805   1.653  0.00  0.00     0.003 A 
ATOM      5  C4  UNL d   1       2.594   2.241   0.623  0.00  0.00    -0.005 A 
ATOM      6  C5  UNL d   1       2.565   1.597  -0.612  0.00  0.00     0.003 A 
ATOM      7  C6  UNL d   1       1.705   0.518  -0.818  0.00  0.00    -0.001 A 
ENDROOT
TORSDOF 0
ENDMDL
