MODEL 1
REMARK minimizedAffinity -1.15513098
REMARK minimizedRMSD -1
REMARK  0 active torsions:
REMARK  status: ('A' for Active; 'I' for Inactive)
ROOT
ATOM      1  C   UNL d   1       1.231   2.403   1.906  0.00  0.00     0.078 C 
ATOM      2  C1  UNL d   1       1.081   0.970   1.488  0.00  0.00    -0.077 A 
ATOM      3  C2  UNL d   1       1.786   0.462   0.389  0.00  0.00    -0.001 A 
ATOM      4  C3  UNL d   1       1.629  -0.871   0.006  0.00  0.00     0.003 A 
ATOM      5  C4  UNL d   1       0.767  -1.706   0.714  0.00  0.00    -0.005 A 
ATOM      6  C5  UNL d   1       0.060  -1.209   1.806  0.00  0.00     0.003 A 
ATOM      7  C6  UNL d   1       0.215   0.124   2.192  0.00  0.00    -0.001 A 
ENDROOT
TORSDOF 0
ENDMDL
