MODEL 1
REMARK minimizedAffinity 5.9933157
REMARK minimizedRMSD -1
REMARK  0 active torsions:
REMARK  status: ('A' for Active; 'I' for Inactive)
ROOT
ATOM      1  C   UNL d   1       2.222   2.556   0.690  0.00  0.00     0.078 C 
ATOM      2  C1  UNL d   1       1.719   1.496  -0.244  0.00  0.00    -0.077 A 
ATOM      3  C2  UNL d   1       0.998   1.833  -1.396  0.00  0.00    -0.001 A 
ATOM      4  C3  UNL d   1       0.527   0.836  -2.251  0.00  0.00     0.003 A 
ATOM      5  C4  UNL d   1       0.772  -0.506  -1.964  0.00  0.00    -0.005 A 
ATOM      6  C5  UNL d   1       1.487  -0.851  -0.819  0.00  0.00     0.003 A 
ATOM      7  C6  UNL d   1       1.958   0.145   0.038  0.00  0.00    -0.001 A 
ENDROOT
TORSDOF 0
ENDMDL
