MODEL 1
REMARK minimizedAffinity 1.15242147
REMARK minimizedRMSD -1
REMARK  0 active torsions:
REMARK  status: ('A' for Active; 'I' for Inactive)
ROOT
ATOM      1  C   UNL d   1       3.167   1.847   0.020  0.00  0.00     0.078 C 
ATOM      2  C1  UNL d   1       2.209   1.200  -0.935  0.00  0.00    -0.077 A 
ATOM      3  C2  UNL d   1       1.503   1.960  -1.875  0.00  0.00    -0.001 A 
ATOM      4  C3  UNL d   1       0.607   1.345  -2.751  0.00  0.00     0.003 A 
ATOM      5  C4  UNL d   1       0.408  -0.033  -2.695  0.00  0.00    -0.005 A 
ATOM      6  C5  UNL d   1       1.105  -0.798  -1.761  0.00  0.00     0.003 A 
ATOM      7  C6  UNL d   1       2.001  -0.184  -0.884  0.00  0.00    -0.001 A 
ENDROOT
TORSDOF 0
ENDMDL
