MODEL 1
REMARK minimizedAffinity 4.82192039
REMARK minimizedRMSD -1
REMARK  0 active torsions:
REMARK  status: ('A' for Active; 'I' for Inactive)
ROOT
ATOM      1  C   UNL d   1       2.248  -0.562  -0.924  0.00  0.00     0.078 C 
ATOM      2  C1  UNL d   1       2.116   0.624  -0.016  0.00  0.00    -0.077 A 
ATOM      3  C2  UNL d   1       1.465   0.518   1.219  0.00  0.00    -0.001 A 
ATOM      4  C3  UNL d   1       1.340   1.632   2.050  0.00  0.00     0.003 A 
ATOM      5  C4  UNL d   1       1.864   2.862   1.655  0.00  0.00    -0.005 A 
ATOM      6  C5  UNL d   1       2.512   2.978   0.426  0.00  0.00     0.003 A 
ATOM      7  C6  UNL d   1       2.637   1.864  -0.406  0.00  0.00    -0.001 A 
ENDROOT
TORSDOF 0
ENDMDL
