MODEL 1
REMARK minimizedAffinity 5.15460777
REMARK minimizedRMSD -1
REMARK  0 active torsions:
REMARK  status: ('A' for Active; 'I' for Inactive)
ROOT
ATOM      1  C   UNL d   1       2.860  -0.027  -0.861  0.00  0.00     0.078 C 
ATOM      2  C1  UNL d   1       1.859   0.489  -1.852  0.00  0.00    -0.077 A 
ATOM      3  C2  UNL d   1       0.871  -0.349  -2.382  0.00  0.00    -0.001 A 
ATOM      4  C3  UNL d   1      -0.048   0.143  -3.311  0.00  0.00     0.003 A 
ATOM      5  C4  UNL d   1       0.014   1.475  -3.718  0.00  0.00    -0.005 A 
ATOM      6  C5  UNL d   1       0.995   2.315  -3.197  0.00  0.00     0.003 A 
ATOM      7  C6  UNL d   1       1.915   1.825  -2.268  0.00  0.00    -0.001 A 
ENDROOT
TORSDOF 0
ENDMDL
