MODEL 1
REMARK minimizedAffinity 0.953416407
REMARK minimizedRMSD -1
REMARK  0 active torsions:
REMARK  status: ('A' for Active; 'I' for Inactive)
ROOT
ATOM      1  C   UNL d   1       1.980  -0.322  -0.107  0.00  0.00     0.078 C 
ATOM      2  C1  UNL d   1       1.313   0.596   0.873  0.00  0.00    -0.077 A 
ATOM      3  C2  UNL d   1      -0.065   0.520   1.109  0.00  0.00    -0.001 A 
ATOM      4  C3  UNL d   1      -0.675   1.388   2.017  0.00  0.00     0.003 A 
ATOM      5  C4  UNL d   1       0.086   2.337   2.696  0.00  0.00    -0.005 A 
ATOM      6  C5  UNL d   1       1.458   2.421   2.466  0.00  0.00     0.003 A 
ATOM      7  C6  UNL d   1       2.069   1.555   1.559  0.00  0.00    -0.001 A 
ENDROOT
TORSDOF 0
ENDMDL
