MODEL 1
REMARK minimizedAffinity 4.94489527
REMARK minimizedRMSD -1
REMARK  0 active torsions:
REMARK  status: ('A' for Active; 'I' for Inactive)
ROOT
ATOM      1  C   UNL d   1       2.226   0.052  -0.209  0.00  0.00     0.078 C 
ATOM      2  C1  UNL d   1       1.394   0.356  -1.419  0.00  0.00    -0.077 A 
ATOM      3  C2  UNL d   1       1.305   1.659  -1.924  0.00  0.00    -0.001 A 
ATOM      4  C3  UNL d   1       0.519   1.929  -3.045  0.00  0.00     0.003 A 
ATOM      5  C4  UNL d   1      -0.184   0.902  -3.671  0.00  0.00    -0.005 A 
ATOM      6  C5  UNL d   1      -0.103  -0.398  -3.174  0.00  0.00     0.003 A 
ATOM      7  C6  UNL d   1       0.682  -0.670  -2.053  0.00  0.00    -0.001 A 
ENDROOT
TORSDOF 0
ENDMDL
