MODEL 1
REMARK minimizedAffinity 1.57622826
REMARK minimizedRMSD -1
REMARK  0 active torsions:
REMARK  status: ('A' for Active; 'I' for Inactive)
ROOT
ATOM      1  C   UNL d   1      -0.717   2.538  -2.809  0.00  0.00     0.078 C 
ATOM      2  C1  UNL d   1       0.039   1.307  -2.408  0.00  0.00    -0.077 A 
ATOM      3  C2  UNL d   1       0.276   1.014  -1.059  0.00  0.00    -0.001 A 
ATOM      4  C3  UNL d   1       0.990  -0.130  -0.700  0.00  0.00     0.003 A 
ATOM      5  C4  UNL d   1       1.473  -0.991  -1.684  0.00  0.00    -0.005 A 
ATOM      6  C5  UNL d   1       1.244  -0.707  -3.028  0.00  0.00     0.003 A 
ATOM      7  C6  UNL d   1       0.530   0.437  -3.389  0.00  0.00    -0.001 A 
ENDROOT
TORSDOF 0
ENDMDL
