MODEL 1
REMARK minimizedAffinity -0.488247067
REMARK minimizedRMSD -1
REMARK  0 active torsions:
REMARK  status: ('A' for Active; 'I' for Inactive)
ROOT
ATOM      1  C   UNL d   1      -0.763  -5.419   1.308  0.00  0.00     0.078 C 
ATOM      2  C1  UNL d   1      -1.458  -5.280  -0.014  0.00  0.00    -0.077 A 
ATOM      3  C2  UNL d   1      -0.920  -5.849  -1.174  0.00  0.00    -0.001 A 
ATOM      4  C3  UNL d   1      -1.573  -5.704  -2.400  0.00  0.00     0.003 A 
ATOM      5  C4  UNL d   1      -2.766  -4.987  -2.476  0.00  0.00    -0.005 A 
ATOM      6  C5  UNL d   1      -3.307  -4.415  -1.327  0.00  0.00     0.003 A 
ATOM      7  C6  UNL d   1      -2.656  -4.560  -0.101  0.00  0.00    -0.001 A 
ENDROOT
TORSDOF 0
ENDMDL
