MODEL 1
REMARK minimizedAffinity 1.53297913
REMARK minimizedRMSD -1
REMARK  0 active torsions:
REMARK  status: ('A' for Active; 'I' for Inactive)
ROOT
ATOM      1  C   UNL d   1      -1.487   1.515   2.272  0.00  0.00     0.078 C 
ATOM      2  C1  UNL d   1       0.006   1.465   2.144  0.00  0.00    -0.077 A 
ATOM      3  C2  UNL d   1       0.833   1.918   3.179  0.00  0.00    -0.001 A 
ATOM      4  C3  UNL d   1       2.222   1.874   3.043  0.00  0.00     0.003 A 
ATOM      5  C4  UNL d   1       2.795   1.381   1.873  0.00  0.00    -0.005 A 
ATOM      6  C5  UNL d   1       1.980   0.930   0.837  0.00  0.00     0.003 A 
ATOM      7  C6  UNL d   1       0.591   0.973   0.971  0.00  0.00    -0.001 A 
ENDROOT
TORSDOF 0
ENDMDL
