MODEL 1
REMARK minimizedAffinity -6.08804655
REMARK minimizedRMSD -1
REMARK  2 active torsions:
REMARK  status: ('A' for Active; 'I' for Inactive)
REMARK    1  A    between atoms: C1_2  and  C2_3 
REMARK    2  A    between atoms: C2_3  and  C3_4 
ROOT
ATOM      1  C3  UNL d   1       0.084  -0.119   0.501  0.00  0.00    -0.075 A 
ATOM      2  C4  UNL d   1       0.824  -0.185   1.691  0.00  0.00     0.002 A 
ATOM      3  C5  UNL d   1       0.301   0.323   2.880  0.00  0.00     0.002 A 
ATOM      4  C6  UNL d   1      -0.963   0.910   2.894  0.00  0.00    -0.004 A 
ATOM      5  C7  UNL d   1      -1.700   0.996   1.715  0.00  0.00     0.002 A 
ATOM      6  C8  UNL d   1      -1.180   0.485   0.524  0.00  0.00     0.002 A 
ENDROOT
BRANCH   1   7
ATOM      7  C2  UNL d   1       0.633  -0.693  -0.783  0.00  0.00     0.056 C 
BRANCH   7   8
ATOM      8  C1  UNL d   1       0.158   0.035  -2.045  0.00  0.00     0.007 C 
ATOM      9  C   UNL d   1       1.158  -0.035  -3.191  0.00  0.00     0.009 C 
ENDBRANCH   7   8
ENDBRANCH   1   7
TORSDOF 2
ENDMDL
