MODEL 1
REMARK minimizedAffinity -2.35861635
REMARK minimizedRMSD -1
REMARK  2 active torsions:
REMARK  status: ('A' for Active; 'I' for Inactive)
REMARK    1  A    between atoms: C1_2  and  C2_3 
REMARK    2  A    between atoms: C2_3  and  C3_4 
ROOT
ATOM      1  C3  UNL d   1       0.169  -0.405  -0.517  0.00  0.00    -0.075 A 
ATOM      2  C4  UNL d   1       0.756   0.102   0.652  0.00  0.00     0.002 A 
ATOM      3  C5  UNL d   1      -0.039   0.564   1.701  0.00  0.00     0.002 A 
ATOM      4  C6  UNL d   1      -1.428   0.536   1.591  0.00  0.00    -0.004 A 
ATOM      5  C7  UNL d   1      -2.021   0.050   0.428  0.00  0.00     0.002 A 
ATOM      6  C8  UNL d   1      -1.228  -0.417  -0.621  0.00  0.00     0.002 A 
ENDROOT
BRANCH   1   7
ATOM      7  C2  UNL d   1       1.024  -0.934  -1.644  0.00  0.00     0.056 C 
BRANCH   7   8
ATOM      8  C1  UNL d   1       0.669  -0.358  -3.019  0.00  0.00     0.007 C 
ATOM      9  C   UNL d   1       1.794   0.464  -3.634  0.00  0.00     0.009 C 
ENDBRANCH   7   8
ENDBRANCH   1   7
TORSDOF 2
ENDMDL
