MODEL 1
REMARK minimizedAffinity -5.1854291
REMARK minimizedRMSD -1
REMARK  2 active torsions:
REMARK  status: ('A' for Active; 'I' for Inactive)
REMARK    1  A    between atoms: C1_2  and  C2_3 
REMARK    2  A    between atoms: C2_3  and  C3_4 
ROOT
ATOM      1  C3  UNL d   1       0.357   0.146   0.861  0.00  0.00    -0.075 A 
ATOM      2  C4  UNL d   1       1.002   0.844   1.892  0.00  0.00     0.002 A 
ATOM      3  C5  UNL d   1       0.261   1.514   2.866  0.00  0.00     0.002 A 
ATOM      4  C6  UNL d   1      -1.132   1.502   2.816  0.00  0.00    -0.004 A 
ATOM      5  C7  UNL d   1      -1.783   0.825   1.787  0.00  0.00     0.002 A 
ATOM      6  C8  UNL d   1      -1.043   0.151   0.813  0.00  0.00     0.002 A 
ENDROOT
BRANCH   1   7
ATOM      7  C2  UNL d   1       1.154  -0.605  -0.179  0.00  0.00     0.056 C 
BRANCH   7   8
ATOM      8  C1  UNL d   1       0.505  -0.624  -1.568  0.00  0.00     0.007 C 
ATOM      9  C   UNL d   1       1.236   0.245  -2.583  0.00  0.00     0.009 C 
ENDBRANCH   7   8
ENDBRANCH   1   7
TORSDOF 2
ENDMDL
