MODEL 1
REMARK minimizedAffinity -5.43545818
REMARK minimizedRMSD -1
REMARK  2 active torsions:
REMARK  status: ('A' for Active; 'I' for Inactive)
REMARK    1  A    between atoms: C1_2  and  C2_3 
REMARK    2  A    between atoms: C2_3  and  C3_4 
ROOT
ATOM      1  C3  UNL d   1      -0.007   0.198   0.058  0.00  0.00    -0.075 A 
ATOM      2  C4  UNL d   1      -1.393   0.094   0.250  0.00  0.00     0.002 A 
ATOM      3  C5  UNL d   1      -1.987   0.595   1.408  0.00  0.00     0.002 A 
ATOM      4  C6  UNL d   1      -1.204   1.196   2.393  0.00  0.00    -0.004 A 
ATOM      5  C7  UNL d   1       0.175   1.289   2.220  0.00  0.00     0.002 A 
ATOM      6  C8  UNL d   1       0.772   0.792   1.060  0.00  0.00     0.002 A 
ENDROOT
BRANCH   1   7
ATOM      7  C2  UNL d   1       0.638  -0.316  -1.207  0.00  0.00     0.056 C 
BRANCH   7   8
ATOM      8  C1  UNL d   1       1.596   0.681  -1.868  0.00  0.00     0.007 C 
ATOM      9  C   UNL d   1       1.355   0.844  -3.363  0.00  0.00     0.009 C 
ENDBRANCH   7   8
ENDBRANCH   1   7
TORSDOF 2
ENDMDL
