MODEL 1
REMARK minimizedAffinity -3.93000484
REMARK minimizedRMSD -1
REMARK  2 active torsions:
REMARK  status: ('A' for Active; 'I' for Inactive)
REMARK    1  A    between atoms: C1_2  and  C2_3 
REMARK    2  A    between atoms: C2_3  and  C3_4 
ROOT
ATOM      1  C3  UNL d   1       0.005  -0.718   0.346  0.00  0.00    -0.075 A 
ATOM      2  C4  UNL d   1      -0.330  -0.033   1.523  0.00  0.00     0.002 A 
ATOM      3  C5  UNL d   1      -1.665   0.220   1.841  0.00  0.00     0.002 A 
ATOM      4  C6  UNL d   1      -2.679  -0.200   0.983  0.00  0.00    -0.004 A 
ATOM      5  C7  UNL d   1      -2.358  -0.866  -0.197  0.00  0.00     0.002 A 
ATOM      6  C8  UNL d   1      -1.023  -1.124  -0.516  0.00  0.00     0.002 A 
ENDROOT
BRANCH   1   7
ATOM      7  C2  UNL d   1       1.446  -1.020   0.011  0.00  0.00     0.056 C 
BRANCH   7   8
ATOM      8  C1  UNL d   1       2.233  -1.656   1.161  0.00  0.00     0.007 C 
ATOM      9  C   UNL d   1       3.059  -0.649   1.951  0.00  0.00     0.009 C 
ENDBRANCH   7   8
ENDBRANCH   1   7
TORSDOF 2
ENDMDL
