MODEL 1
REMARK minimizedAffinity -4.0022006
REMARK minimizedRMSD -1
REMARK  2 active torsions:
REMARK  status: ('A' for Active; 'I' for Inactive)
REMARK    1  A    between atoms: C1_2  and  C2_3 
REMARK    2  A    between atoms: C2_3  and  C3_4 
ROOT
ATOM      1  C3  UNL d   1       0.200   0.557   1.396  0.00  0.00    -0.075 A 
ATOM      2  C4  UNL d   1      -0.554   0.328   0.236  0.00  0.00     0.002 A 
ATOM      3  C5  UNL d   1      -0.157  -0.640  -0.687  0.00  0.00     0.002 A 
ATOM      4  C6  UNL d   1       1.001  -1.383  -0.467  0.00  0.00    -0.004 A 
ATOM      5  C7  UNL d   1       1.766  -1.153   0.674  0.00  0.00     0.002 A 
ATOM      6  C8  UNL d   1       1.369  -0.187   1.601  0.00  0.00     0.002 A 
ENDROOT
BRANCH   1   7
ATOM      7  C2  UNL d   1      -0.240   1.583   2.413  0.00  0.00     0.056 C 
BRANCH   7   8
ATOM      8  C1  UNL d   1      -0.995   0.993   3.609  0.00  0.00     0.007 C 
ATOM      9  C   UNL d   1      -2.032  -0.049   3.210  0.00  0.00     0.009 C 
ENDBRANCH   7   8
ENDBRANCH   1   7
TORSDOF 2
ENDMDL
