MODEL 1
REMARK minimizedAffinity 15.6730013
REMARK minimizedRMSD -1
REMARK  3 active torsions:
REMARK  status: ('A' for Active; 'I' for Inactive)
REMARK    1  A    between atoms: C3'_2  and  C2'_3 
REMARK    2  A    between atoms: C2'_3  and  C1'_4 
REMARK    3  A    between atoms: C1'_4  and  C1_5 
ROOT
ATOM      1  C1  N4B d   1       2.978  -3.957  -3.801  0.00  0.00    -0.075 A 
ATOM      2  C2  N4B d   1       1.705  -4.556  -3.679  0.00  0.00     0.002 A 
ATOM      3  C3  N4B d   1       1.505  -5.564  -2.768  0.00  0.00     0.002 A 
ATOM      4  C4  N4B d   1       2.563  -6.000  -1.984  0.00  0.00    -0.004 A 
ATOM      5  C5  N4B d   1       3.783  -5.399  -2.090  0.00  0.00     0.002 A 
ATOM      6  C6  N4B d   1       3.997  -4.382  -2.999  0.00  0.00     0.002 A 
ENDROOT
BRANCH   1   7
ATOM      7  C1' N4B d   1       3.266  -2.911  -4.843  0.00  0.00     0.057 C 
BRANCH   7   8
ATOM      8  C2' N4B d   1       2.277  -3.065  -5.995  0.00  0.00     0.009 C 
BRANCH   8   9
ATOM      9  C3' N4B d   1       1.195  -2.000  -5.961  0.00  0.00     0.004 C 
ATOM     10  C4' N4B d   1       1.750  -0.607  -5.958  0.00  0.00     0.003 C 
ENDBRANCH   8   9
ENDBRANCH   7   8
ENDBRANCH   1   7
TORSDOF 3
ENDMDL
