MODEL 1
REMARK minimizedAffinity 15.9904499
REMARK minimizedRMSD -1
REMARK  3 active torsions:
REMARK  status: ('A' for Active; 'I' for Inactive)
REMARK    1  A    between atoms: C3'_2  and  C2'_3 
REMARK    2  A    between atoms: C2'_3  and  C1'_4 
REMARK    3  A    between atoms: C1'_4  and  C1_5 
ROOT
ATOM      1  C1  N4B d   1       2.166  -3.362  -4.528  0.00  0.00    -0.075 A 
ATOM      2  C2  N4B d   1       1.220  -2.616  -5.264  0.00  0.00     0.002 A 
ATOM      3  C3  N4B d   1       1.624  -1.530  -6.000  0.00  0.00     0.002 A 
ATOM      4  C4  N4B d   1       2.961  -1.161  -6.000  0.00  0.00    -0.004 A 
ATOM      5  C5  N4B d   1       3.873  -1.902  -5.307  0.00  0.00     0.002 A 
ATOM      6  C6  N4B d   1       3.481  -2.999  -4.566  0.00  0.00     0.002 A 
ENDROOT
BRANCH   1   7
ATOM      7  C1' N4B d   1       1.758  -4.506  -3.640  0.00  0.00     0.057 C 
BRANCH   7   8
ATOM      8  C2' N4B d   1       2.432  -4.350  -2.280  0.00  0.00     0.009 C 
BRANCH   8   9
ATOM      9  C3' N4B d   1       1.437  -3.994  -1.190  0.00  0.00     0.004 C 
ATOM     10  C4' N4B d   1       1.952  -2.941  -0.254  0.00  0.00     0.003 C 
ENDBRANCH   8   9
ENDBRANCH   7   8
ENDBRANCH   1   7
TORSDOF 3
ENDMDL
