MODEL 1
REMARK minimizedAffinity 17.4830551
REMARK minimizedRMSD -1
REMARK  3 active torsions:
REMARK  status: ('A' for Active; 'I' for Inactive)
REMARK    1  A    between atoms: C3'_2  and  C2'_3 
REMARK    2  A    between atoms: C2'_3  and  C1'_4 
REMARK    3  A    between atoms: C1'_4  and  C1_5 
ROOT
ATOM      1  C1  N4B d   1       0.414   3.085   1.148  0.00  0.00    -0.075 A 
ATOM      2  C2  N4B d   1       0.760   3.004   2.515  0.00  0.00     0.002 A 
ATOM      3  C3  N4B d   1       0.065   2.165   3.351  0.00  0.00     0.002 A 
ATOM      4  C4  N4B d   1      -0.988   1.415   2.849  0.00  0.00    -0.004 A 
ATOM      5  C5  N4B d   1      -1.300   1.480   1.523  0.00  0.00     0.002 A 
ATOM      6  C6  N4B d   1      -0.607   2.315   0.670  0.00  0.00     0.002 A 
ENDROOT
BRANCH   1   7
ATOM      7  C1' N4B d   1       1.089   4.051   0.214  0.00  0.00     0.057 C 
BRANCH   7   8
ATOM      8  C2' N4B d   1       0.937   5.467   0.762  0.00  0.00     0.009 C 
BRANCH   8   9
ATOM      9  C3' N4B d   1       2.236   5.991   1.349  0.00  0.00     0.004 C 
ATOM     10  C4' N4B d   1       2.234   6.000   2.849  0.00  0.00     0.003 C 
ENDBRANCH   8   9
ENDBRANCH   7   8
ENDBRANCH   1   7
TORSDOF 3
ENDMDL
