MODEL 1
REMARK minimizedAffinity 18.6249962
REMARK minimizedRMSD -1
REMARK  3 active torsions:
REMARK  status: ('A' for Active; 'I' for Inactive)
REMARK    1  A    between atoms: C3'_2  and  C2'_3 
REMARK    2  A    between atoms: C2'_3  and  C1'_4 
REMARK    3  A    between atoms: C1'_4  and  C1_5 
ROOT
ATOM      1  C1  N4B d   1      -0.147   4.245  -2.755  0.00  0.00    -0.075 A 
ATOM      2  C2  N4B d   1       1.035   5.017  -2.738  0.00  0.00     0.002 A 
ATOM      3  C3  N4B d   1       1.297   5.893  -3.763  0.00  0.00     0.002 A 
ATOM      4  C4  N4B d   1       0.405   6.000  -4.819  0.00  0.00    -0.004 A 
ATOM      5  C5  N4B d   1      -0.747   5.269  -4.815  0.00  0.00     0.002 A 
ATOM      6  C6  N4B d   1      -1.025   4.388  -3.790  0.00  0.00     0.002 A 
ENDROOT
BRANCH   1   7
ATOM      7  C1' N4B d   1      -0.435   3.211  -1.700  0.00  0.00     0.057 C 
BRANCH   7   8
ATOM      8  C2' N4B d   1       0.747   3.134  -0.738  0.00  0.00     0.009 C 
BRANCH   8   9
ATOM      9  C3' N4B d   1       0.519   2.112   0.362  0.00  0.00     0.004 C 
ATOM     10  C4' N4B d   1      -0.872   1.552   0.354  0.00  0.00     0.003 C 
ENDBRANCH   8   9
ENDBRANCH   7   8
ENDBRANCH   1   7
TORSDOF 3
ENDMDL
