MODEL 1
REMARK minimizedAffinity 22.5753918
REMARK minimizedRMSD -1
REMARK  3 active torsions:
REMARK  status: ('A' for Active; 'I' for Inactive)
REMARK    1  A    between atoms: C3'_2  and  C2'_3 
REMARK    2  A    between atoms: C2'_3  and  C1'_4 
REMARK    3  A    between atoms: C1'_4  and  C1_5 
ROOT
ATOM      1  C1  N4B d   1      -0.922   3.002  -2.434  0.00  0.00    -0.075 A 
ATOM      2  C2  N4B d   1       0.384   3.329  -2.007  0.00  0.00     0.002 A 
ATOM      3  C3  N4B d   1       0.829   2.911  -0.777  0.00  0.00     0.002 A 
ATOM      4  C4  N4B d   1      -0.017   2.184   0.048  0.00  0.00    -0.004 A 
ATOM      5  C5  N4B d   1      -1.268   1.851  -0.382  0.00  0.00     0.002 A 
ATOM      6  C6  N4B d   1      -1.727   2.261  -1.618  0.00  0.00     0.002 A 
ENDROOT
BRANCH   1   7
ATOM      7  C1' N4B d   1      -1.482   3.510  -3.734  0.00  0.00     0.057 C 
BRANCH   7   8
ATOM      8  C2' N4B d   1      -1.723   5.013  -3.623  0.00  0.00     0.009 C 
BRANCH   8   9
ATOM      9  C3' N4B d   1      -1.237   5.758  -4.854  0.00  0.00     0.004 C 
ATOM     10  C4' N4B d   1       0.243   5.996  -4.842  0.00  0.00     0.003 C 
ENDBRANCH   8   9
ENDBRANCH   7   8
ENDBRANCH   1   7
TORSDOF 3
ENDMDL
