MODEL 1
REMARK minimizedAffinity 9.13281918
REMARK minimizedRMSD -1
REMARK  3 active torsions:
REMARK  status: ('A' for Active; 'I' for Inactive)
REMARK    1  A    between atoms: C3'_2  and  C2'_3 
REMARK    2  A    between atoms: C2'_3  and  C1'_4 
REMARK    3  A    between atoms: C1'_4  and  C1_5 
ROOT
ATOM      1  C1  N4B d   1       1.574  -2.686  -1.501  0.00  0.00    -0.075 A 
ATOM      2  C2  N4B d   1       1.593  -1.418  -0.880  0.00  0.00     0.002 A 
ATOM      3  C3  N4B d   1       1.885  -1.313   0.458  0.00  0.00     0.002 A 
ATOM      4  C4  N4B d   1       2.143  -2.459   1.195  0.00  0.00    -0.004 A 
ATOM      5  C5  N4B d   1       2.147  -3.677   0.582  0.00  0.00     0.002 A 
ATOM      6  C6  N4B d   1       1.859  -3.797  -0.762  0.00  0.00     0.002 A 
ENDROOT
BRANCH   1   7
ATOM      7  C1' N4B d   1       1.176  -2.858  -2.942  0.00  0.00     0.057 C 
BRANCH   7   8
ATOM      8  C2' N4B d   1       2.251  -2.248  -3.835  0.00  0.00     0.009 C 
BRANCH   8   9
ATOM      9  C3' N4B d   1       1.846  -2.259  -5.299  0.00  0.00     0.004 C 
ATOM     10  C4' N4B d   1       2.167  -0.972  -6.000  0.00  0.00     0.003 C 
ENDBRANCH   8   9
ENDBRANCH   7   8
ENDBRANCH   1   7
TORSDOF 3
ENDMDL
