MODEL 1
REMARK minimizedAffinity 5.76641035
REMARK minimizedRMSD -1
REMARK  3 active torsions:
REMARK  status: ('A' for Active; 'I' for Inactive)
REMARK    1  A    between atoms: C3'_2  and  C2'_3 
REMARK    2  A    between atoms: C2'_3  and  C1'_4 
REMARK    3  A    between atoms: C1'_4  and  C1_5 
ROOT
ATOM      1  C1  N4B d   1      -0.390   2.932   0.561  0.00  0.00    -0.075 A 
ATOM      2  C2  N4B d   1      -1.072   4.087   1.004  0.00  0.00     0.002 A 
ATOM      3  C3  N4B d   1      -0.989   5.252   0.282  0.00  0.00     0.002 A 
ATOM      4  C4  N4B d   1      -0.219   5.291  -0.871  0.00  0.00    -0.004 A 
ATOM      5  C5  N4B d   1       0.416   4.164  -1.306  0.00  0.00     0.002 A 
ATOM      6  C6  N4B d   1       0.338   2.985  -0.592  0.00  0.00     0.002 A 
ENDROOT
BRANCH   1   7
ATOM      7  C1' N4B d   1      -0.381   1.659   1.363  0.00  0.00     0.057 C 
BRANCH   7   8
ATOM      8  C2' N4B d   1      -1.809   1.320   1.780  0.00  0.00     0.009 C 
BRANCH   8   9
ATOM      9  C3' N4B d   1      -1.936   1.145   3.283  0.00  0.00     0.004 C 
ATOM     10  C4' N4B d   1      -2.563  -0.163   3.665  0.00  0.00     0.003 C 
ENDBRANCH   8   9
ENDBRANCH   7   8
ENDBRANCH   1   7
TORSDOF 3
ENDMDL
