MODEL 1
REMARK minimizedAffinity -3.3098042
REMARK minimizedRMSD -1
REMARK  0 active torsions:
REMARK  status: ('A' for Active; 'I' for Inactive)
ROOT
ATOM      1  C   UNL d   1      -1.035   2.788   0.622  0.00  0.00     0.124 A 
ATOM      2  C1  UNL d   1      -0.741   1.740   1.483  0.00  0.00     0.062 A 
ATOM      3  C2  UNL d   1      -0.273   0.530   0.978  0.00  0.00     0.162 A 
ATOM      4  C3  UNL d   1      -0.093   0.362  -0.395  0.00  0.00    -0.034 A 
ATOM      5  C4  UNL d   1      -0.392   1.421  -1.255  0.00  0.00     0.162 A 
ATOM      6  C5  UNL d   1      -0.860   2.628  -0.746  0.00  0.00     0.062 A 
ATOM      7  F   UNL d   1      -1.143   3.639  -1.579  0.00  0.00    -0.097 F 
ATOM      8  F1  UNL d   1      -0.231   1.293  -2.580  0.00  0.00    -0.096 F 
ATOM      9  I   UNL d   1       0.607  -1.445  -1.153  0.00  0.00    -0.060 I 
ATOM     10  F2  UNL d   1       0.003  -0.466   1.834  0.00  0.00    -0.096 F 
ATOM     11  F3  UNL d   1      -0.910   1.892   2.804  0.00  0.00    -0.097 F 
ATOM     12  F4  UNL d   1      -1.487   3.950   1.109  0.00  0.00    -0.092 F 
ENDROOT
TORSDOF 0
ENDMDL
