MODEL 1
REMARK minimizedAffinity -0.126377046
REMARK minimizedRMSD -1
REMARK  0 active torsions:
REMARK  status: ('A' for Active; 'I' for Inactive)
ROOT
ATOM      1  C   UNL d   1       0.246   1.183   1.024  0.00  0.00     0.124 A 
ATOM      2  C1  UNL d   1       0.243   0.988  -0.350  0.00  0.00     0.062 A 
ATOM      3  C2  UNL d   1      -0.076  -0.259  -0.880  0.00  0.00     0.162 A 
ATOM      4  C3  UNL d   1      -0.395  -1.322  -0.035  0.00  0.00    -0.034 A 
ATOM      5  C4  UNL d   1      -0.389  -1.119   1.346  0.00  0.00     0.162 A 
ATOM      6  C5  UNL d   1      -0.070   0.130   1.871  0.00  0.00     0.062 A 
ATOM      7  F   UNL d   1      -0.067   0.316   3.199  0.00  0.00    -0.097 F 
ATOM      8  F1  UNL d   1      -0.691  -2.119   2.187  0.00  0.00    -0.096 F 
ATOM      9  I   UNL d   1      -0.872  -3.188  -0.823  0.00  0.00    -0.060 I 
ATOM     10  F2  UNL d   1      -0.071  -0.419  -2.212  0.00  0.00    -0.096 F 
ATOM     11  F3  UNL d   1       0.549   2.004  -1.171  0.00  0.00    -0.097 F 
ATOM     12  F4  UNL d   1       0.554   2.383   1.531  0.00  0.00    -0.092 F 
ENDROOT
TORSDOF 0
ENDMDL
