MODEL 1
REMARK minimizedAffinity 12.8157711
REMARK minimizedRMSD -1
REMARK  0 active torsions:
REMARK  status: ('A' for Active; 'I' for Inactive)
ROOT
ATOM      1  C   UNL d   1       0.402   1.453   0.754  0.00  0.00     0.124 A 
ATOM      2  C1  UNL d   1       0.077   1.359  -0.592  0.00  0.00     0.062 A 
ATOM      3  C2  UNL d   1      -0.330   0.141  -1.130  0.00  0.00     0.162 A 
ATOM      4  C3  UNL d   1      -0.415  -0.992  -0.321  0.00  0.00    -0.034 A 
ATOM      5  C4  UNL d   1      -0.085  -0.890   1.031  0.00  0.00     0.162 A 
ATOM      6  C5  UNL d   1       0.321   0.329   1.564  0.00  0.00     0.062 A 
ATOM      7  F   UNL d   1       0.635   0.418   2.865  0.00  0.00    -0.097 F 
ATOM      8  F1  UNL d   1      -0.155  -1.960   1.837  0.00  0.00    -0.096 F 
ATOM      9  I   UNL d   1      -1.023  -2.815  -1.122  0.00  0.00    -0.060 I 
ATOM     10  F2  UNL d   1      -0.639   0.079  -2.434  0.00  0.00    -0.096 F 
ATOM     11  F3  UNL d   1       0.155   2.443  -1.376  0.00  0.00    -0.097 F 
ATOM     12  F4  UNL d   1       0.794   2.626   1.269  0.00  0.00    -0.092 F 
ENDROOT
TORSDOF 0
ENDMDL
