MODEL 1
REMARK minimizedAffinity 1.31479704
REMARK minimizedRMSD -1
REMARK  0 active torsions:
REMARK  status: ('A' for Active; 'I' for Inactive)
ROOT
ATOM      1  C   UNL d   1      -0.826  -3.514  -1.769  0.00  0.00     0.124 A 
ATOM      2  C1  UNL d   1       0.220  -3.646  -0.865  0.00  0.00     0.062 A 
ATOM      3  C2  UNL d   1       0.704  -2.531  -0.188  0.00  0.00     0.162 A 
ATOM      4  C3  UNL d   1       0.144  -1.273  -0.411  0.00  0.00    -0.034 A 
ATOM      5  C4  UNL d   1      -0.907  -1.149  -1.322  0.00  0.00     0.162 A 
ATOM      6  C5  UNL d   1      -1.388  -2.266  -1.996  0.00  0.00     0.062 A 
ATOM      7  F   UNL d   1      -2.398  -2.137  -2.869  0.00  0.00    -0.097 F 
ATOM      8  F1  UNL d   1      -1.469   0.046  -1.560  0.00  0.00    -0.096 F 
ATOM      9  I   UNL d   1       0.865   0.397   0.600  0.00  0.00    -0.060 I 
ATOM     10  F2  UNL d   1       1.715  -2.688   0.680  0.00  0.00    -0.096 F 
ATOM     11  F3  UNL d   1       0.765  -4.851  -0.644  0.00  0.00    -0.097 F 
ATOM     12  F4  UNL d   1      -1.289  -4.589  -2.419  0.00  0.00    -0.092 F 
ENDROOT
TORSDOF 0
ENDMDL
