MODEL 1
REMARK minimizedAffinity -0.299751699
REMARK minimizedRMSD -1
REMARK  0 active torsions:
REMARK  status: ('A' for Active; 'I' for Inactive)
ROOT
ATOM      1  C   UNL d   1       0.126   2.228   0.490  0.00  0.00     0.124 A 
ATOM      2  C1  UNL d   1       0.297   1.240   1.450  0.00  0.00     0.062 A 
ATOM      3  C2  UNL d   1       0.397  -0.095   1.071  0.00  0.00     0.162 A 
ATOM      4  C3  UNL d   1       0.327  -0.452  -0.276  0.00  0.00    -0.034 A 
ATOM      5  C4  UNL d   1       0.154   0.547  -1.236  0.00  0.00     0.162 A 
ATOM      6  C5  UNL d   1       0.054   1.880  -0.852  0.00  0.00     0.062 A 
ATOM      7  F   UNL d   1      -0.111   2.833  -1.781  0.00  0.00    -0.097 F 
ATOM      8  F1  UNL d   1       0.083   0.239  -2.539  0.00  0.00    -0.096 F 
ATOM      9  I   UNL d   1       0.477  -2.447  -0.847  0.00  0.00    -0.060 I 
ATOM     10  F2  UNL d   1       0.562  -1.028   2.020  0.00  0.00    -0.096 F 
ATOM     11  F3  UNL d   1       0.365   1.573   2.747  0.00  0.00    -0.097 F 
ATOM     12  F4  UNL d   1       0.028   3.512   0.858  0.00  0.00    -0.092 F 
ENDROOT
TORSDOF 0
ENDMDL
