MODEL 1
REMARK minimizedAffinity -1.6690079
REMARK minimizedRMSD -1
REMARK  0 active torsions:
REMARK  status: ('A' for Active; 'I' for Inactive)
ROOT
ATOM      1  C   UNL d   1      -0.713   2.748   1.428  0.00  0.00     0.124 A 
ATOM      2  C1  UNL d   1      -0.050   1.740   2.114  0.00  0.00     0.062 A 
ATOM      3  C2  UNL d   1       0.035   0.462   1.569  0.00  0.00     0.162 A 
ATOM      4  C3  UNL d   1      -0.543   0.185   0.330  0.00  0.00    -0.034 A 
ATOM      5  C4  UNL d   1      -1.208   1.204  -0.354  0.00  0.00     0.162 A 
ATOM      6  C5  UNL d   1      -1.291   2.479   0.195  0.00  0.00     0.062 A 
ATOM      7  F   UNL d   1      -1.932   3.452  -0.469  0.00  0.00    -0.097 F 
ATOM      8  F1  UNL d   1      -1.775   0.972  -1.547  0.00  0.00    -0.096 F 
ATOM      9  I   UNL d   1      -0.417  -1.725  -0.488  0.00  0.00    -0.060 I 
ATOM     10  F2  UNL d   1       0.682  -0.493   2.254  0.00  0.00    -0.096 F 
ATOM     11  F3  UNL d   1       0.508   1.997   3.305  0.00  0.00    -0.097 F 
ATOM     12  F4  UNL d   1      -0.795   3.977   1.955  0.00  0.00    -0.092 F 
ENDROOT
TORSDOF 0
ENDMDL
