MODEL 1
REMARK minimizedAffinity -3.97442985
REMARK minimizedRMSD -1
REMARK  0 active torsions:
REMARK  status: ('A' for Active; 'I' for Inactive)
ROOT
ATOM      1  C   UNL d   1      -1.052   2.758   0.380  0.00  0.00     0.124 A 
ATOM      2  C1  UNL d   1      -0.405   2.574  -0.834  0.00  0.00     0.062 A 
ATOM      3  C2  UNL d   1       0.035   1.307  -1.208  0.00  0.00     0.162 A 
ATOM      4  C3  UNL d   1      -0.171   0.214  -0.366  0.00  0.00    -0.034 A 
ATOM      5  C4  UNL d   1      -0.822   0.407   0.853  0.00  0.00     0.162 A 
ATOM      6  C5  UNL d   1      -1.260   1.675   1.222  0.00  0.00     0.062 A 
ATOM      7  F   UNL d   1      -1.885   1.851   2.395  0.00  0.00    -0.097 F 
ATOM      8  F1  UNL d   1      -1.036  -0.622   1.686  0.00  0.00    -0.096 F 
ATOM      9  I   UNL d   1       0.486  -1.681  -0.921  0.00  0.00    -0.060 I 
ATOM     10  F2  UNL d   1       0.657   1.159  -2.387  0.00  0.00    -0.096 F 
ATOM     11  F3  UNL d   1      -0.203   3.619  -1.650  0.00  0.00    -0.097 F 
ATOM     12  F4  UNL d   1      -1.474   3.978   0.737  0.00  0.00    -0.092 F 
ENDROOT
TORSDOF 0
ENDMDL
