MODEL 1
REMARK minimizedAffinity 4.29107046
REMARK minimizedRMSD -1
REMARK  0 active torsions:
REMARK  status: ('A' for Active; 'I' for Inactive)
ROOT
ATOM      1  C   UNL d   1      -0.241  -3.251  -0.785  0.00  0.00     0.172 C 
ATOM      2  N   UNL d   1       0.932  -2.454  -0.513  0.00  0.00    -0.070 N 
ATOM      3  C1  UNL d   1       1.435  -1.472  -1.323  0.00  0.00    -0.004 A 
ATOM      4  C2  UNL d   1       2.556  -0.953  -0.712  0.00  0.00    -0.047 A 
ATOM      5  C3  UNL d   1       2.733  -1.648   0.508  0.00  0.00    -0.047 A 
ATOM      6  C4  UNL d   1       1.714  -2.572   0.606  0.00  0.00    -0.004 A 
ENDROOT
TORSDOF 0
ENDMDL
