MODEL 1
REMARK minimizedAffinity 4.6788311
REMARK minimizedRMSD -1
REMARK  0 active torsions:
REMARK  status: ('A' for Active; 'I' for Inactive)
ROOT
ATOM      1  C   UNL d   1       2.044   1.194   1.056  0.00  0.00     0.172 C 
ATOM      2  N   UNL d   1       2.531  -0.152   0.868  0.00  0.00    -0.070 N 
ATOM      3  C1  UNL d   1       2.170  -0.998  -0.147  0.00  0.00    -0.004 A 
ATOM      4  C2  UNL d   1       2.852  -2.183   0.028  0.00  0.00    -0.047 A 
ATOM      5  C3  UNL d   1       3.649  -2.045   1.190  0.00  0.00    -0.047 A 
ATOM      6  C4  UNL d   1       3.431  -0.779   1.690  0.00  0.00    -0.004 A 
ENDROOT
TORSDOF 0
ENDMDL
