MODEL 1
REMARK minimizedAffinity 2.54809761
REMARK minimizedRMSD -1
REMARK  0 active torsions:
REMARK  status: ('A' for Active; 'I' for Inactive)
ROOT
ATOM      1  C   UNL d   1       1.837   1.280   0.127  0.00  0.00     0.172 C 
ATOM      2  N   UNL d   1       2.453  -0.005   0.357  0.00  0.00    -0.070 N 
ATOM      3  C1  UNL d   1       2.975  -0.438   1.547  0.00  0.00    -0.004 A 
ATOM      4  C2  UNL d   1       3.465  -1.712   1.354  0.00  0.00    -0.047 A 
ATOM      5  C3  UNL d   1       3.231  -2.055   0.001  0.00  0.00    -0.047 A 
ATOM      6  C4  UNL d   1       2.604  -0.981  -0.593  0.00  0.00    -0.004 A 
ENDROOT
TORSDOF 0
ENDMDL
