MODEL 1
REMARK minimizedAffinity 2.37651896
REMARK minimizedRMSD -1
REMARK  0 active torsions:
REMARK  status: ('A' for Active; 'I' for Inactive)
ROOT
ATOM      1  C   UNL d   1       1.188   1.352   0.110  0.00  0.00     0.172 C 
ATOM      2  N   UNL d   1       0.367   1.653   1.259  0.00  0.00    -0.070 N 
ATOM      3  C1  UNL d   1       0.273   0.893   2.394  0.00  0.00    -0.004 A 
ATOM      4  C2  UNL d   1      -0.609   1.517   3.249  0.00  0.00    -0.047 A 
ATOM      5  C3  UNL d   1      -1.061   2.694   2.605  0.00  0.00    -0.047 A 
ATOM      6  C4  UNL d   1      -0.441   2.753   1.375  0.00  0.00    -0.004 A 
ENDROOT
TORSDOF 0
ENDMDL
