MODEL 1
REMARK minimizedAffinity -0.15749526
REMARK minimizedRMSD -1
REMARK  0 active torsions:
REMARK  status: ('A' for Active; 'I' for Inactive)
ROOT
ATOM      1  C   UNL d   1       0.328   2.373   0.816  0.00  0.00     0.172 C 
ATOM      2  N   UNL d   1       1.717   1.981   0.774  0.00  0.00    -0.070 N 
ATOM      3  C1  UNL d   1       2.781   2.774   1.113  0.00  0.00    -0.004 A 
ATOM      4  C2  UNL d   1       3.931   2.035   0.938  0.00  0.00    -0.047 A 
ATOM      5  C3  UNL d   1       3.545   0.754   0.477  0.00  0.00    -0.047 A 
ATOM      6  C4  UNL d   1       2.169   0.748   0.384  0.00  0.00    -0.004 A 
ENDROOT
TORSDOF 0
ENDMDL
