MODEL 1
REMARK minimizedAffinity 2.94250655
REMARK minimizedRMSD -1
REMARK  0 active torsions:
REMARK  status: ('A' for Active; 'I' for Inactive)
ROOT
ATOM      1  C   UNL d   1       2.373   1.066   0.457  0.00  0.00     0.172 C 
ATOM      2  N   UNL d   1       2.152  -0.251  -0.091  0.00  0.00    -0.070 N 
ATOM      3  C1  UNL d   1       2.322  -1.433   0.578  0.00  0.00    -0.004 A 
ATOM      4  C2  UNL d   1       2.010  -2.458  -0.289  0.00  0.00    -0.047 A 
ATOM      5  C3  UNL d   1       1.640  -1.871  -1.522  0.00  0.00    -0.047 A 
ATOM      6  C4  UNL d   1       1.737  -0.504  -1.372  0.00  0.00    -0.004 A 
ENDROOT
TORSDOF 0
ENDMDL
