MODEL 1
REMARK minimizedAffinity -4.88536119
REMARK minimizedRMSD -1
REMARK  0 active torsions:
REMARK  status: ('A' for Active; 'I' for Inactive)
ROOT
ATOM      1  C   UNL d   1      -3.873   1.585   2.067  0.00  0.00     0.023 A 
ATOM      2  C1  UNL d   1      -2.505   1.800   2.234  0.00  0.00     0.003 A 
ATOM      3  C2  UNL d   1      -1.584   0.937   1.638  0.00  0.00     0.048 A 
ATOM      4  C3  UNL d   1      -2.037  -0.139   0.875  0.00  0.00     0.023 A 
ATOM      5  C4  UNL d   1      -3.405  -0.358   0.705  0.00  0.00     0.048 A 
ATOM      6  C5  UNL d   1      -4.323   0.507   1.304  0.00  0.00     0.003 A 
ATOM      7  I   UNL d   1      -0.667  -1.425  -0.013  0.00  0.00    -0.146 I 
ENDROOT
TORSDOF 0
ENDMDL
