MODEL 1
REMARK minimizedAffinity -2.72693205
REMARK minimizedRMSD -1
REMARK  0 active torsions:
REMARK  status: ('A' for Active; 'I' for Inactive)
ROOT
ATOM      1  C   UNL d   1      -4.297   0.734   1.756  0.00  0.00     0.023 A 
ATOM      2  C1  UNL d   1      -4.018  -0.324   0.889  0.00  0.00     0.003 A 
ATOM      3  C2  UNL d   1      -2.729  -0.858   0.830  0.00  0.00     0.048 A 
ATOM      4  C3  UNL d   1      -1.724  -0.332   1.641  0.00  0.00     0.023 A 
ATOM      5  C4  UNL d   1      -1.999   0.726   2.510  0.00  0.00     0.048 A 
ATOM      6  C5  UNL d   1      -3.289   1.258   2.565  0.00  0.00     0.003 A 
ATOM      7  I   UNL d   1       0.195  -1.126   1.555  0.00  0.00    -0.146 I 
ENDROOT
TORSDOF 0
ENDMDL
