MODEL 1
REMARK minimizedAffinity -3.5577352
REMARK minimizedRMSD -1
REMARK  0 active torsions:
REMARK  status: ('A' for Active; 'I' for Inactive)
ROOT
ATOM      1  C   UNL d   1      -2.133   0.898   3.233  0.00  0.00     0.023 A 
ATOM      2  C1  UNL d   1      -1.033   0.045   3.327  0.00  0.00     0.003 A 
ATOM      3  C2  UNL d   1      -0.597  -0.660   2.203  0.00  0.00     0.048 A 
ATOM      4  C3  UNL d   1      -1.265  -0.508   0.989  0.00  0.00     0.023 A 
ATOM      5  C4  UNL d   1      -2.365   0.345   0.890  0.00  0.00     0.048 A 
ATOM      6  C5  UNL d   1      -2.798   1.048   2.016  0.00  0.00     0.003 A 
ATOM      7  I   UNL d   1      -0.617  -1.556  -0.685  0.00  0.00    -0.146 I 
ENDROOT
TORSDOF 0
ENDMDL
