MODEL 1
REMARK minimizedAffinity -3.50096083
REMARK minimizedRMSD -1
REMARK  0 active torsions:
REMARK  status: ('A' for Active; 'I' for Inactive)
ROOT
ATOM      1  C   UNL d   1       1.914  -2.109  -0.804  0.00  0.00     0.023 A 
ATOM      2  C1  UNL d   1       0.759  -2.516  -1.473  0.00  0.00     0.003 A 
ATOM      3  C2  UNL d   1      -0.494  -2.087  -1.030  0.00  0.00     0.048 A 
ATOM      4  C3  UNL d   1      -0.585  -1.250   0.082  0.00  0.00     0.023 A 
ATOM      5  C4  UNL d   1       0.568  -0.840   0.754  0.00  0.00     0.048 A 
ATOM      6  C5  UNL d   1       1.818  -1.272   0.308  0.00  0.00     0.003 A 
ATOM      7  I   UNL d   1      -2.448  -0.610   0.743  0.00  0.00    -0.146 I 
ENDROOT
TORSDOF 0
ENDMDL
