MODEL 1
REMARK minimizedAffinity -4.81700754
REMARK minimizedRMSD -1
REMARK  0 active torsions:
REMARK  status: ('A' for Active; 'I' for Inactive)
ROOT
ATOM      1  C   UNL d   1      -2.141   0.656   2.213  0.00  0.00     0.023 A 
ATOM      2  C1  UNL d   1      -0.819   0.306   2.487  0.00  0.00     0.003 A 
ATOM      3  C2  UNL d   1      -0.059  -0.363   1.525  0.00  0.00     0.048 A 
ATOM      4  C3  UNL d   1      -0.627  -0.677   0.291  0.00  0.00     0.023 A 
ATOM      5  C4  UNL d   1      -1.949  -0.328   0.012  0.00  0.00     0.048 A 
ATOM      6  C5  UNL d   1      -2.706   0.340   0.977  0.00  0.00     0.003 A 
ATOM      7  I   UNL d   1       0.502  -1.673  -1.142  0.00  0.00    -0.146 I 
ENDROOT
TORSDOF 0
ENDMDL
