MODEL 1
REMARK minimizedAffinity -5.31370115
REMARK minimizedRMSD -1
REMARK  0 active torsions:
REMARK  status: ('A' for Active; 'I' for Inactive)
ROOT
ATOM      1  C   UNL d   1      -2.102   0.332   2.276  0.00  0.00     0.023 A 
ATOM      2  C1  UNL d   1      -0.750   0.012   2.154  0.00  0.00     0.003 A 
ATOM      3  C2  UNL d   1      -0.256  -0.492   0.949  0.00  0.00     0.048 A 
ATOM      4  C3  UNL d   1      -1.120  -0.673  -0.131  0.00  0.00     0.023 A 
ATOM      5  C4  UNL d   1      -2.474  -0.353  -0.013  0.00  0.00     0.048 A 
ATOM      6  C5  UNL d   1      -2.963   0.150   1.194  0.00  0.00     0.003 A 
ATOM      7  I   UNL d   1      -0.388  -1.422  -1.925  0.00  0.00    -0.146 I 
ENDROOT
TORSDOF 0
ENDMDL
