MODEL 1
REMARK minimizedAffinity -4.35968924
REMARK minimizedRMSD -1
REMARK  0 active torsions:
REMARK  status: ('A' for Active; 'I' for Inactive)
ROOT
ATOM      1  C   UNL d   1       1.624  -1.807   0.772  0.00  0.00     0.023 A 
ATOM      2  C1  UNL d   1       1.187  -1.215   1.957  0.00  0.00     0.003 A 
ATOM      3  C2  UNL d   1      -0.088  -0.648   2.027  0.00  0.00     0.048 A 
ATOM      4  C3  UNL d   1      -0.920  -0.679   0.908  0.00  0.00     0.023 A 
ATOM      5  C4  UNL d   1      -0.487  -1.271  -0.279  0.00  0.00     0.048 A 
ATOM      6  C5  UNL d   1       0.789  -1.835  -0.345  0.00  0.00     0.003 A 
ATOM      7  I   UNL d   1      -2.817   0.163   1.010  0.00  0.00    -0.146 I 
ENDROOT
TORSDOF 0
ENDMDL
