MODEL 1
REMARK minimizedAffinity -3.50701618
REMARK minimizedRMSD -1
REMARK  0 active torsions:
REMARK  status: ('A' for Active; 'I' for Inactive)
ROOT
ATOM      1  C   UNL d   1      -3.022   0.293   1.516  0.00  0.00     0.023 A 
ATOM      2  C1  UNL d   1      -3.616  -0.504   0.537  0.00  0.00     0.003 A 
ATOM      3  C2  UNL d   1      -2.851  -1.437  -0.165  0.00  0.00     0.048 A 
ATOM      4  C3  UNL d   1      -1.492  -1.569   0.117  0.00  0.00     0.023 A 
ATOM      5  C4  UNL d   1      -0.893  -0.775   1.096  0.00  0.00     0.048 A 
ATOM      6  C5  UNL d   1      -1.662   0.158   1.795  0.00  0.00     0.003 A 
ATOM      7  I   UNL d   1      -0.350  -2.958  -0.926  0.00  0.00    -0.146 I 
ENDROOT
TORSDOF 0
ENDMDL
