MODEL 1
REMARK minimizedAffinity -2.48465419
REMARK minimizedRMSD -1
REMARK  0 active torsions:
REMARK  status: ('A' for Active; 'I' for Inactive)
ROOT
ATOM      1  C   UNL d   1      -2.643  -0.062   2.185  0.00  0.00     0.023 A 
ATOM      2  C1  UNL d   1      -1.300  -0.409   2.333  0.00  0.00     0.003 A 
ATOM      3  C2  UNL d   1      -0.586  -0.921   1.248  0.00  0.00     0.048 A 
ATOM      4  C3  UNL d   1      -1.221  -1.083   0.017  0.00  0.00     0.023 A 
ATOM      5  C4  UNL d   1      -2.564  -0.736  -0.136  0.00  0.00     0.048 A 
ATOM      6  C5  UNL d   1      -3.274  -0.225   0.952  0.00  0.00     0.003 A 
ATOM      7  I   UNL d   1      -0.161  -1.845  -1.600  0.00  0.00    -0.146 I 
ENDROOT
TORSDOF 0
ENDMDL
