MODEL 1
REMARK minimizedAffinity -4.90544176
REMARK minimizedRMSD -1
REMARK  0 active torsions:
REMARK  status: ('A' for Active; 'I' for Inactive)
ROOT
ATOM      1  C   UNL d   1       1.310  -1.422   1.850  0.00  0.00     0.023 A 
ATOM      2  C1  UNL d   1       0.499  -1.008   2.907  0.00  0.00     0.003 A 
ATOM      3  C2  UNL d   1      -0.803  -0.569   2.660  0.00  0.00     0.048 A 
ATOM      4  C3  UNL d   1      -1.289  -0.548   1.353  0.00  0.00     0.023 A 
ATOM      5  C4  UNL d   1      -0.481  -0.961   0.292  0.00  0.00     0.048 A 
ATOM      6  C5  UNL d   1       0.820  -1.398   0.544  0.00  0.00     0.003 A 
ATOM      7  I   UNL d   1      -3.227   0.105   0.982  0.00  0.00    -0.146 I 
ENDROOT
TORSDOF 0
ENDMDL
