MODEL 1
REMARK minimizedAffinity 1.12102997
REMARK minimizedRMSD -1
REMARK  0 active torsions:
REMARK  status: ('A' for Active; 'I' for Inactive)
ROOT
ATOM      1  C   UNL d   1      -2.711   0.331   2.435  0.00  0.00     0.023 A 
ATOM      2  C1  UNL d   1      -1.347   0.049   2.507  0.00  0.00     0.003 A 
ATOM      3  C2  UNL d   1      -0.676  -0.449   1.389  0.00  0.00     0.048 A 
ATOM      4  C3  UNL d   1      -1.375  -0.662   0.201  0.00  0.00     0.023 A 
ATOM      5  C4  UNL d   1      -2.740  -0.380   0.124  0.00  0.00     0.048 A 
ATOM      6  C5  UNL d   1      -3.407   0.117   1.245  0.00  0.00     0.003 A 
ATOM      7  I   UNL d   1      -0.378  -1.403  -1.465  0.00  0.00    -0.146 I 
ENDROOT
TORSDOF 0
ENDMDL
