MODEL 1
REMARK minimizedAffinity 10.5748091
REMARK minimizedRMSD -1
REMARK  0 active torsions:
REMARK  status: ('A' for Active; 'I' for Inactive)
ROOT
ATOM      1  C   UNL d   1      -4.790   6.000   4.031  0.00  0.00     0.020 A 
ATOM      2  C1  UNL d   1      -5.997   5.943   3.336  0.00  0.00     0.020 A 
ATOM      3  C2  UNL d   1      -5.997   5.830   1.944  0.00  0.00     0.034 A 
ATOM      4  C3  UNL d   1      -4.787   5.774   1.243  0.00  0.00     0.017 A 
ATOM      5  C4  UNL d   1      -3.576   5.831   1.942  0.00  0.00     0.017 A 
ATOM      6  C5  UNL d   1      -3.582   5.944   3.336  0.00  0.00     0.034 A 
ATOM      7 Cl   UNL d   1      -2.042   5.768   1.146  0.00  0.00    -0.070 Cl
ATOM      8 Cl1  UNL d   1      -4.861   5.634  -0.478  0.00  0.00    -0.070 Cl
ENDROOT
TORSDOF 0
ENDMDL
