MODEL 1
REMARK minimizedAffinity 3.59551549
REMARK minimizedRMSD -1
REMARK  0 active torsions:
REMARK  status: ('A' for Active; 'I' for Inactive)
ROOT
ATOM      1  C   UNL d   1       1.129  -2.415  -0.241  0.00  0.00     0.020 A 
ATOM      2  C1  UNL d   1       2.477  -2.716  -0.433  0.00  0.00     0.020 A 
ATOM      3  C2  UNL d   1       3.431  -1.697  -0.400  0.00  0.00     0.034 A 
ATOM      4  C3  UNL d   1       3.039  -0.373  -0.176  0.00  0.00     0.017 A 
ATOM      5  C4  UNL d   1       1.686  -0.071   0.016  0.00  0.00     0.017 A 
ATOM      6  C5  UNL d   1       0.734  -1.096  -0.017  0.00  0.00     0.034 A 
ATOM      7 Cl   UNL d   1       1.125   1.539   0.298  0.00  0.00    -0.070 Cl
ATOM      8 Cl1  UNL d   1       4.273   0.837  -0.148  0.00  0.00    -0.070 Cl
ENDROOT
TORSDOF 0
ENDMDL
