MODEL 1
REMARK minimizedAffinity 4.23959351
REMARK minimizedRMSD -1
REMARK  0 active torsions:
REMARK  status: ('A' for Active; 'I' for Inactive)
ROOT
ATOM      1  C   UNL d   1       1.293  -2.458  -0.839  0.00  0.00     0.020 A 
ATOM      2  C1  UNL d   1      -0.068  -2.159  -0.867  0.00  0.00     0.020 A 
ATOM      3  C2  UNL d   1      -0.490  -0.833  -0.982  0.00  0.00     0.034 A 
ATOM      4  C3  UNL d   1       0.452   0.200  -1.071  0.00  0.00     0.017 A 
ATOM      5  C4  UNL d   1       1.818  -0.102  -1.043  0.00  0.00     0.017 A 
ATOM      6  C5  UNL d   1       2.234  -1.432  -0.927  0.00  0.00     0.034 A 
ATOM      7 Cl   UNL d   1       3.038   1.118  -1.148  0.00  0.00    -0.070 Cl
ATOM      8 Cl1  UNL d   1      -0.140   1.817  -1.212  0.00  0.00    -0.070 Cl
ENDROOT
TORSDOF 0
ENDMDL
