MODEL 1
REMARK minimizedAffinity -0.948349416
REMARK minimizedRMSD -1
REMARK  0 active torsions:
REMARK  status: ('A' for Active; 'I' for Inactive)
ROOT
ATOM      1  C   UNL d   1      -4.984   5.996   5.627  0.00  0.00     0.020 A 
ATOM      2  C1  UNL d   1      -6.000   6.000   4.672  0.00  0.00     0.020 A 
ATOM      3  C2  UNL d   1      -5.681   5.985   3.313  0.00  0.00     0.034 A 
ATOM      4  C3  UNL d   1      -4.342   5.967   2.904  0.00  0.00     0.017 A 
ATOM      5  C4  UNL d   1      -3.323   5.963   3.863  0.00  0.00     0.017 A 
ATOM      6  C5  UNL d   1      -3.648   5.978   5.223  0.00  0.00     0.034 A 
ATOM      7 Cl   UNL d   1      -1.648   5.941   3.436  0.00  0.00    -0.070 Cl
ATOM      8 Cl1  UNL d   1      -4.021   5.949   1.206  0.00  0.00    -0.070 Cl
ENDROOT
TORSDOF 0
ENDMDL
