MODEL 1
REMARK minimizedAffinity 0.571321547
REMARK minimizedRMSD -1
REMARK  0 active torsions:
REMARK  status: ('A' for Active; 'I' for Inactive)
ROOT
ATOM      1  C   UNL d   1       1.721  -1.442  -0.946  0.00  0.00     0.020 A 
ATOM      2  C1  UNL d   1       2.622  -2.435  -0.563  0.00  0.00     0.020 A 
ATOM      3  C2  UNL d   1       2.269  -3.781  -0.681  0.00  0.00     0.034 A 
ATOM      4  C3  UNL d   1       1.012  -4.138  -1.183  0.00  0.00     0.017 A 
ATOM      5  C4  UNL d   1       0.108  -3.140  -1.567  0.00  0.00     0.017 A 
ATOM      6  C5  UNL d   1       0.467  -1.794  -1.447  0.00  0.00     0.034 A 
ATOM      7 Cl   UNL d   1      -1.461  -3.503  -2.195  0.00  0.00    -0.070 Cl
ATOM      8 Cl1  UNL d   1       0.643  -5.822  -1.302  0.00  0.00    -0.070 Cl
ENDROOT
TORSDOF 0
ENDMDL
