MODEL 1
REMARK minimizedAffinity -3.70220399
REMARK minimizedRMSD -1
REMARK  1 active torsions:
REMARK  status: ('A' for Active; 'I' for Inactive)
REMARK    1  A    between atoms: C3_4  and  O_7 
ROOT
ATOM      1  C   UNL d   1       0.664   0.010   0.562  0.00  0.00    -0.033 A 
ATOM      2  C1  UNL d   1       0.870   0.499   1.853  0.00  0.00     0.039 A 
ATOM      3  C2  UNL d   1      -0.011   1.438   2.395  0.00  0.00    -0.080 A 
ATOM      4  C3  UNL d   1      -1.092   1.878   1.635  0.00  0.00     0.150 A 
ATOM      5  C4  UNL d   1      -1.304   1.392   0.350  0.00  0.00    -0.007 A 
ATOM      6  C5  UNL d   1      -0.424   0.455  -0.190  0.00  0.00     0.039 A 
ENDROOT
BRANCH   4   7
ATOM      7  O   UNL d   1      -1.975   2.797   2.119  0.00  0.00    -0.526 OA
ATOM      8  H5  UNL d   1      -1.686   3.064   3.008  0.00  0.00     0.418 HD
ENDBRANCH   4   7
TORSDOF 1
ENDMDL
