MODEL 1
REMARK minimizedAffinity -5.03062916
REMARK minimizedRMSD -1
REMARK  1 active torsions:
REMARK  status: ('A' for Active; 'I' for Inactive)
REMARK    1  A    between atoms: C3_4  and  O_7 
ROOT
ATOM      1  C   UNL d   1      -0.756   1.869   2.255  0.00  0.00    -0.033 A 
ATOM      2  C1  UNL d   1      -0.874   2.613   1.079  0.00  0.00     0.039 A 
ATOM      3  C2  UNL d   1      -0.550   2.035  -0.150  0.00  0.00    -0.080 A 
ATOM      4  C3  UNL d   1      -0.111   0.714  -0.189  0.00  0.00     0.150 A 
ATOM      5  C4  UNL d   1       0.005  -0.033   0.978  0.00  0.00    -0.007 A 
ATOM      6  C5  UNL d   1      -0.318   0.546   2.204  0.00  0.00     0.039 A 
ENDROOT
BRANCH   4   7
ATOM      7  O   UNL d   1       0.222   0.109  -1.365  0.00  0.00    -0.526 OA
ATOM      8  H5  UNL d   1       0.120   0.755  -2.083  0.00  0.00     0.418 HD
ENDBRANCH   4   7
TORSDOF 1
ENDMDL
