MODEL 1
REMARK minimizedAffinity -4.95415688
REMARK minimizedRMSD -1
REMARK  1 active torsions:
REMARK  status: ('A' for Active; 'I' for Inactive)
REMARK    1  A    between atoms: C3_4  and  O_7 
ROOT
ATOM      1  C   UNL d   1      -0.707   2.434   1.905  0.00  0.00    -0.033 A 
ATOM      2  C1  UNL d   1      -0.094   1.327   2.494  0.00  0.00     0.039 A 
ATOM      3  C2  UNL d   1       0.225   0.209   1.720  0.00  0.00    -0.080 A 
ATOM      4  C3  UNL d   1      -0.074   0.212   0.360  0.00  0.00     0.150 A 
ATOM      5  C4  UNL d   1      -0.682   1.313  -0.234  0.00  0.00    -0.007 A 
ATOM      6  C5  UNL d   1      -1.000   2.427   0.541  0.00  0.00     0.039 A 
ENDROOT
BRANCH   4   7
ATOM      7  O   UNL d   1       0.213  -0.858  -0.434  0.00  0.00    -0.526 OA
ATOM      8  H5  UNL d   1       0.605  -1.555   0.118  0.00  0.00     0.418 HD
ENDBRANCH   4   7
TORSDOF 1
ENDMDL
