MODEL 1
REMARK minimizedAffinity -2.5511868
REMARK minimizedRMSD -1
REMARK  1 active torsions:
REMARK  status: ('A' for Active; 'I' for Inactive)
REMARK    1  A    between atoms: C3_4  and  O_7 
ROOT
ATOM      1  C   UNL d   1      -0.171  -1.185  -0.679  0.00  0.00    -0.033 A 
ATOM      2  C1  UNL d   1      -0.456  -1.519   0.646  0.00  0.00     0.039 A 
ATOM      3  C2  UNL d   1      -0.360  -0.552   1.648  0.00  0.00    -0.080 A 
ATOM      4  C3  UNL d   1       0.020   0.745   1.312  0.00  0.00     0.150 A 
ATOM      5  C4  UNL d   1       0.300   1.086  -0.007  0.00  0.00    -0.007 A 
ATOM      6  C5  UNL d   1       0.205   0.118  -1.006  0.00  0.00     0.039 A 
ENDROOT
BRANCH   4   7
ATOM      7  O   UNL d   1       0.131   1.722   2.256  0.00  0.00    -0.526 OA
ATOM      8  H5  UNL d   1      -0.065   1.334   3.125  0.00  0.00     0.418 HD
ENDBRANCH   4   7
TORSDOF 1
ENDMDL
