MODEL 1
REMARK minimizedAffinity -3.06488705
REMARK minimizedRMSD -1
REMARK  1 active torsions:
REMARK  status: ('A' for Active; 'I' for Inactive)
REMARK    1  A    between atoms: C3_4  and  O_7 
ROOT
ATOM      1  C   UNL d   1      -0.053   2.459   1.679  0.00  0.00    -0.033 A 
ATOM      2  C1  UNL d   1       0.239   1.227   2.267  0.00  0.00     0.039 A 
ATOM      3  C2  UNL d   1       0.288   0.072   1.484  0.00  0.00    -0.080 A 
ATOM      4  C3  UNL d   1       0.044   0.163   0.116  0.00  0.00     0.150 A 
ATOM      5  C4  UNL d   1      -0.244   1.388  -0.477  0.00  0.00    -0.007 A 
ATOM      6  C5  UNL d   1      -0.293   2.540   0.307  0.00  0.00     0.039 A 
ENDROOT
BRANCH   4   7
ATOM      7  O   UNL d   1       0.075  -0.937  -0.688  0.00  0.00    -0.526 OA
ATOM      8  H5  UNL d   1       0.258  -1.716  -0.137  0.00  0.00     0.418 HD
ENDBRANCH   4   7
TORSDOF 1
ENDMDL
