MODEL 1
REMARK minimizedAffinity -4.68710089
REMARK minimizedRMSD -1
REMARK  1 active torsions:
REMARK  status: ('A' for Active; 'I' for Inactive)
REMARK    1  A    between atoms: C3_4  and  O_7 
ROOT
ATOM      1  C   UNL d   1      -0.005   4.040   1.169  0.00  0.00    -0.033 A 
ATOM      2  C1  UNL d   1       0.614   3.321   2.194  0.00  0.00     0.039 A 
ATOM      3  C2  UNL d   1       0.436   1.940   2.286  0.00  0.00    -0.080 A 
ATOM      4  C3  UNL d   1      -0.361   1.289   1.348  0.00  0.00     0.150 A 
ATOM      5  C4  UNL d   1      -0.977   1.998   0.322  0.00  0.00    -0.007 A 
ATOM      6  C5  UNL d   1      -0.800   3.378   0.232  0.00  0.00     0.039 A 
ENDROOT
BRANCH   4   7
ATOM      7  O   UNL d   1      -0.568  -0.057   1.400  0.00  0.00    -0.526 OA
ATOM      8  H5  UNL d   1      -0.103  -0.410   2.177  0.00  0.00     0.418 HD
ENDBRANCH   4   7
TORSDOF 1
ENDMDL
