MODEL 1
REMARK minimizedAffinity -4.56484604
REMARK minimizedRMSD -1
REMARK  1 active torsions:
REMARK  status: ('A' for Active; 'I' for Inactive)
REMARK    1  A    between atoms: C3_4  and  O_7 
ROOT
ATOM      1  C   UNL d   1      -0.357   2.876   1.359  0.00  0.00    -0.033 A 
ATOM      2  C1  UNL d   1      -0.807   2.652   0.056  0.00  0.00     0.039 A 
ATOM      3  C2  UNL d   1      -0.741   1.371  -0.496  0.00  0.00    -0.080 A 
ATOM      4  C3  UNL d   1      -0.225   0.325   0.264  0.00  0.00     0.150 A 
ATOM      5  C4  UNL d   1       0.222   0.541   1.563  0.00  0.00    -0.007 A 
ATOM      6  C5  UNL d   1       0.156   1.820   2.113  0.00  0.00     0.039 A 
ENDROOT
BRANCH   4   7
ATOM      7  O   UNL d   1      -0.136  -0.941  -0.234  0.00  0.00    -0.526 OA
ATOM      8  H5  UNL d   1      -0.455  -0.934  -1.152  0.00  0.00     0.418 HD
ENDBRANCH   4   7
TORSDOF 1
ENDMDL
