MODEL 1
REMARK minimizedAffinity -3.92675328
REMARK minimizedRMSD -1
REMARK  1 active torsions:
REMARK  status: ('A' for Active; 'I' for Inactive)
REMARK    1  A    between atoms: C3_4  and  O_7 
ROOT
ATOM      1  C   UNL d   1      -0.805   2.906   1.375  0.00  0.00    -0.033 A 
ATOM      2  C1  UNL d   1      -0.490   1.831   2.210  0.00  0.00     0.039 A 
ATOM      3  C2  UNL d   1       0.790   1.723   2.758  0.00  0.00    -0.080 A 
ATOM      4  C3  UNL d   1       1.743   2.694   2.467  0.00  0.00     0.150 A 
ATOM      5  C4  UNL d   1       1.435   3.770   1.640  0.00  0.00    -0.007 A 
ATOM      6  C5  UNL d   1       0.157   3.876   1.092  0.00  0.00     0.039 A 
ENDROOT
BRANCH   4   7
ATOM      7  O   UNL d   1       3.006   2.629   2.975  0.00  0.00    -0.526 OA
ATOM      8  H5  UNL d   1       3.083   1.818   3.505  0.00  0.00     0.418 HD
ENDBRANCH   4   7
TORSDOF 1
ENDMDL
