MODEL 1
REMARK minimizedAffinity -3.42271614
REMARK minimizedRMSD -1
REMARK  1 active torsions:
REMARK  status: ('A' for Active; 'I' for Inactive)
REMARK    1  A    between atoms: C3_4  and  O_7 
ROOT
ATOM      1  C   UNL d   1      -0.037   0.785   2.750  0.00  0.00    -0.033 A 
ATOM      2  C1  UNL d   1       0.664  -0.422   2.760  0.00  0.00     0.039 A 
ATOM      3  C2  UNL d   1       1.044  -1.020   1.557  0.00  0.00    -0.080 A 
ATOM      4  C3  UNL d   1       0.717  -0.401   0.353  0.00  0.00     0.150 A 
ATOM      5  C4  UNL d   1       0.022   0.803   0.336  0.00  0.00    -0.007 A 
ATOM      6  C5  UNL d   1      -0.357   1.399   1.539  0.00  0.00     0.039 A 
ENDROOT
BRANCH   4   7
ATOM      7  O   UNL d   1       1.062  -0.950  -0.847  0.00  0.00    -0.526 OA
ATOM      8  H5  UNL d   1       1.512  -1.795  -0.681  0.00  0.00     0.418 HD
ENDBRANCH   4   7
TORSDOF 1
ENDMDL
