MODEL 1
REMARK minimizedAffinity -4.99344301
REMARK minimizedRMSD -1
REMARK  1 active torsions:
REMARK  status: ('A' for Active; 'I' for Inactive)
REMARK    1  A    between atoms: C3_4  and  O_7 
ROOT
ATOM      1  C   UNL d   1      -0.742   1.306  -0.016  0.00  0.00    -0.033 A 
ATOM      2  C1  UNL d   1       0.067   0.359   0.616  0.00  0.00     0.039 A 
ATOM      3  C2  UNL d   1       0.760   0.696   1.780  0.00  0.00    -0.080 A 
ATOM      4  C3  UNL d   1       0.635   1.981   2.302  0.00  0.00     0.150 A 
ATOM      5  C4  UNL d   1      -0.172   2.928   1.679  0.00  0.00    -0.007 A 
ATOM      6  C5  UNL d   1      -0.863   2.589   0.516  0.00  0.00     0.039 A 
ENDROOT
BRANCH   4   7
ATOM      7  O   UNL d   1       1.295   2.358   3.433  0.00  0.00    -0.526 OA
ATOM      8  H5  UNL d   1       1.836   1.610   3.737  0.00  0.00     0.418 HD
ENDBRANCH   4   7
TORSDOF 1
ENDMDL
