MODEL 1
REMARK minimizedAffinity -3.37961674
REMARK minimizedRMSD -1
REMARK  1 active torsions:
REMARK  status: ('A' for Active; 'I' for Inactive)
REMARK    1  A    between atoms: C3_4  and  O_7 
ROOT
ATOM      1  C   UNL d   1      -2.124   1.849  -0.147  0.00  0.00    -0.033 A 
ATOM      2  C1  UNL d   1      -2.362   2.693   0.940  0.00  0.00     0.039 A 
ATOM      3  C2  UNL d   1      -1.381   2.869   1.918  0.00  0.00    -0.080 A 
ATOM      4  C3  UNL d   1      -0.168   2.197   1.797  0.00  0.00     0.150 A 
ATOM      5  C4  UNL d   1       0.078   1.358   0.715  0.00  0.00    -0.007 A 
ATOM      6  C5  UNL d   1      -0.903   1.183  -0.260  0.00  0.00     0.039 A 
ENDROOT
BRANCH   4   7
ATOM      7  O   UNL d   1       0.818   2.334   2.728  0.00  0.00    -0.526 OA
ATOM      8  H5  UNL d   1       0.497   2.921   3.433  0.00  0.00     0.418 HD
ENDBRANCH   4   7
TORSDOF 1
ENDMDL
