MODEL 1
REMARK minimizedAffinity -3.27254653
REMARK minimizedRMSD -1
REMARK  1 active torsions:
REMARK  status: ('A' for Active; 'I' for Inactive)
REMARK    1  A    between atoms: C3_4  and  O_7 
ROOT
ATOM      1  C   UNL d   1       0.550  -0.649   0.742  0.00  0.00    -0.033 A 
ATOM      2  C1  UNL d   1       0.876  -0.060   1.965  0.00  0.00     0.039 A 
ATOM      3  C2  UNL d   1       0.219   1.100   2.381  0.00  0.00    -0.080 A 
ATOM      4  C3  UNL d   1      -0.761   1.660   1.565  0.00  0.00     0.150 A 
ATOM      5  C4  UNL d   1      -1.093   1.076   0.347  0.00  0.00    -0.007 A 
ATOM      6  C5  UNL d   1      -0.436  -0.082  -0.066  0.00  0.00     0.039 A 
ENDROOT
BRANCH   4   7
ATOM      7  O   UNL d   1      -1.425   2.794   1.926  0.00  0.00    -0.526 OA
ATOM      8  H5  UNL d   1      -1.071   3.101   2.777  0.00  0.00     0.418 HD
ENDBRANCH   4   7
TORSDOF 1
ENDMDL
