MODEL 1
REMARK minimizedAffinity -4.96408653
REMARK minimizedRMSD -1
REMARK  1 active torsions:
REMARK  status: ('A' for Active; 'I' for Inactive)
REMARK    1  A    between atoms: C3_4  and  O_7 
ROOT
ATOM      1  C   UNL d   1      -0.951   2.514   1.612  0.00  0.00    -0.033 A 
ATOM      2  C1  UNL d   1       0.166   1.845   2.114  0.00  0.00     0.039 A 
ATOM      3  C2  UNL d   1       0.847   0.923   1.317  0.00  0.00    -0.080 A 
ATOM      4  C3  UNL d   1       0.401   0.681   0.020  0.00  0.00     0.150 A 
ATOM      5  C4  UNL d   1      -0.709   1.347  -0.488  0.00  0.00    -0.007 A 
ATOM      6  C5  UNL d   1      -1.388   2.266   0.310  0.00  0.00     0.039 A 
ENDROOT
BRANCH   4   7
ATOM      7  O   UNL d   1       1.030  -0.214  -0.794  0.00  0.00    -0.526 OA
ATOM      8  H5  UNL d   1       1.762  -0.618  -0.299  0.00  0.00     0.418 HD
ENDBRANCH   4   7
TORSDOF 1
ENDMDL
