MODEL 1
REMARK minimizedAffinity -4.4396224
REMARK minimizedRMSD -1
REMARK  1 active torsions:
REMARK  status: ('A' for Active; 'I' for Inactive)
REMARK    1  A    between atoms: C3_4  and  O_7 
ROOT
ATOM      1  C   UNL d   1      -0.893  -0.166  -0.114  0.00  0.00    -0.033 A 
ATOM      2  C1  UNL d   1      -1.459  -0.576   1.095  0.00  0.00     0.039 A 
ATOM      3  C2  UNL d   1      -0.676  -0.637   2.249  0.00  0.00    -0.080 A 
ATOM      4  C3  UNL d   1       0.669  -0.284   2.182  0.00  0.00     0.150 A 
ATOM      5  C4  UNL d   1       1.239   0.129   0.981  0.00  0.00    -0.007 A 
ATOM      6  C5  UNL d   1       0.455   0.188  -0.170  0.00  0.00     0.039 A 
ENDROOT
BRANCH   4   7
ATOM      7  O   UNL d   1       1.475  -0.332   3.281  0.00  0.00    -0.526 OA
ATOM      8  H5  UNL d   1       0.953  -0.662   4.031  0.00  0.00     0.418 HD
ENDBRANCH   4   7
TORSDOF 1
ENDMDL
