MODEL 1
REMARK minimizedAffinity -4.51600552
REMARK minimizedRMSD -1
REMARK  1 active torsions:
REMARK  status: ('A' for Active; 'I' for Inactive)
REMARK    1  A    between atoms: C3_4  and  O_7 
ROOT
ATOM      1  C   UNL d   1       0.748  -0.375  -0.457  0.00  0.00    -0.033 A 
ATOM      2  C1  UNL d   1      -0.277  -0.116   0.455  0.00  0.00     0.039 A 
ATOM      3  C2  UNL d   1      -0.041  -0.236   1.826  0.00  0.00    -0.080 A 
ATOM      4  C3  UNL d   1       1.223  -0.614   2.271  0.00  0.00     0.150 A 
ATOM      5  C4  UNL d   1       2.250  -0.870   1.369  0.00  0.00    -0.007 A 
ATOM      6  C5  UNL d   1       2.012  -0.750   0.000  0.00  0.00     0.039 A 
ENDROOT
BRANCH   4   7
ATOM      7  O   UNL d   1       1.500  -0.749   3.599  0.00  0.00    -0.526 OA
ATOM      8  H5  UNL d   1       0.688  -0.569   4.103  0.00  0.00     0.418 HD
ENDBRANCH   4   7
TORSDOF 1
ENDMDL
