MODEL 1
REMARK minimizedAffinity 0.0741899014
REMARK minimizedRMSD -1
REMARK  1 active torsions:
REMARK  status: ('A' for Active; 'I' for Inactive)
REMARK    1  A    between atoms: C3_4  and  O_7 
ROOT
ATOM      1  C   UNL d   1       1.771  -0.830   0.811  0.00  0.00    -0.033 A 
ATOM      2  C1  UNL d   1       1.201  -1.032  -0.448  0.00  0.00     0.039 A 
ATOM      3  C2  UNL d   1       0.504   0.003  -1.075  0.00  0.00    -0.080 A 
ATOM      4  C3  UNL d   1       0.387   1.233  -0.436  0.00  0.00     0.150 A 
ATOM      5  C4  UNL d   1       0.956   1.443   0.816  0.00  0.00    -0.007 A 
ATOM      6  C5  UNL d   1       1.650   0.409   1.442  0.00  0.00     0.039 A 
ENDROOT
BRANCH   4   7
ATOM      7  O   UNL d   1      -0.287   2.272  -1.007  0.00  0.00    -0.526 OA
ATOM      8  H5  UNL d   1      -0.651   1.972  -1.857  0.00  0.00     0.418 HD
ENDBRANCH   4   7
TORSDOF 1
ENDMDL
