MODEL 1
REMARK minimizedAffinity -2.18306732
REMARK minimizedRMSD -1
REMARK  1 active torsions:
REMARK  status: ('A' for Active; 'I' for Inactive)
REMARK    1  A    between atoms: C3_4  and  O_7 
ROOT
ATOM      1  C   UNL d   1      -0.013   0.377  -0.735  0.00  0.00    -0.033 A 
ATOM      2  C1  UNL d   1      -1.076   0.243   0.160  0.00  0.00     0.039 A 
ATOM      3  C2  UNL d   1      -0.838  -0.178   1.470  0.00  0.00    -0.080 A 
ATOM      4  C3  UNL d   1       0.464  -0.460   1.871  0.00  0.00     0.150 A 
ATOM      5  C4  UNL d   1       1.528  -0.325   0.986  0.00  0.00    -0.007 A 
ATOM      6  C5  UNL d   1       1.289   0.094  -0.322  0.00  0.00     0.039 A 
ENDROOT
BRANCH   4   7
ATOM      7  O   UNL d   1       0.745  -0.879   3.138  0.00  0.00    -0.526 OA
ATOM      8  H5  UNL d   1      -0.090  -0.954   3.630  0.00  0.00     0.418 HD
ENDBRANCH   4   7
TORSDOF 1
ENDMDL
