MODEL 1
REMARK minimizedAffinity -5.17637777
REMARK minimizedRMSD -1
REMARK  1 active torsions:
REMARK  status: ('A' for Active; 'I' for Inactive)
REMARK    1  A    between atoms: C3_4  and  O_7 
ROOT
ATOM      1  C   UNL d   1      -0.855  -0.572   0.236  0.00  0.00    -0.033 A 
ATOM      2  C1  UNL d   1       0.504  -0.416  -0.044  0.00  0.00     0.039 A 
ATOM      3  C2  UNL d   1       1.442  -0.473   0.989  0.00  0.00    -0.080 A 
ATOM      4  C3  UNL d   1       1.008  -0.687   2.295  0.00  0.00     0.150 A 
ATOM      5  C4  UNL d   1      -0.344  -0.846   2.580  0.00  0.00    -0.007 A 
ATOM      6  C5  UNL d   1      -1.279  -0.788   1.547  0.00  0.00     0.039 A 
ENDROOT
BRANCH   4   7
ATOM      7  O   UNL d   1       1.886  -0.745   3.336  0.00  0.00    -0.526 OA
ATOM      8  H5  UNL d   1       2.781  -0.589   2.993  0.00  0.00     0.418 HD
ENDBRANCH   4   7
TORSDOF 1
ENDMDL
