MODEL 1
REMARK minimizedAffinity -3.18036819
REMARK minimizedRMSD -1
REMARK  1 active torsions:
REMARK  status: ('A' for Active; 'I' for Inactive)
REMARK    1  A    between atoms: C3_4  and  O_7 
ROOT
ATOM      1  C   UNL d   1       2.615  -1.140   0.144  0.00  0.00    -0.033 A 
ATOM      2  C1  UNL d   1       1.886  -1.207  -1.045  0.00  0.00     0.039 A 
ATOM      3  C2  UNL d   1       0.646  -0.573  -1.143  0.00  0.00    -0.080 A 
ATOM      4  C3  UNL d   1       0.147   0.125  -0.046  0.00  0.00     0.150 A 
ATOM      5  C4  UNL d   1       0.869   0.198   1.140  0.00  0.00    -0.007 A 
ATOM      6  C5  UNL d   1       2.107  -0.436   1.236  0.00  0.00     0.039 A 
ENDROOT
BRANCH   4   7
ATOM      7  O   UNL d   1      -1.060   0.756  -0.093  0.00  0.00    -0.526 OA
ATOM      8  H5  UNL d   1      -1.458   0.595  -0.964  0.00  0.00     0.418 HD
ENDBRANCH   4   7
TORSDOF 1
ENDMDL
