MODEL 1
REMARK minimizedAffinity -2.66546416
REMARK minimizedRMSD -1
REMARK  1 active torsions:
REMARK  status: ('A' for Active; 'I' for Inactive)
REMARK    1  A    between atoms: C3_4  and  O_7 
ROOT
ATOM      1  C   UNL d   1      -0.102  -0.418  -1.803  0.00  0.00    -0.033 A 
ATOM      2  C1  UNL d   1       1.200  -0.921  -1.775  0.00  0.00     0.039 A 
ATOM      3  C2  UNL d   1       1.952  -0.853  -0.601  0.00  0.00    -0.080 A 
ATOM      4  C3  UNL d   1       1.390  -0.281   0.537  0.00  0.00     0.150 A 
ATOM      5  C4  UNL d   1       0.092   0.219   0.518  0.00  0.00    -0.007 A 
ATOM      6  C5  UNL d   1      -0.657   0.150  -0.656  0.00  0.00     0.039 A 
ENDROOT
BRANCH   4   7
ATOM      7  O   UNL d   1       2.087  -0.187   1.706  0.00  0.00    -0.526 OA
ATOM      8  H5  UNL d   1       2.978  -0.547   1.562  0.00  0.00     0.418 HD
ENDBRANCH   4   7
TORSDOF 1
ENDMDL
