MODEL 1
REMARK minimizedAffinity -0.391582817
REMARK minimizedRMSD -1
REMARK  0 active torsions:
REMARK  status: ('A' for Active; 'I' for Inactive)
ROOT
ATOM      1  C   UNL d   1      -0.124   0.477   0.999  0.00  0.00     0.077 C 
ATOM      2  C1  UNL d   1       0.385  -0.932   0.931  0.00  0.00    -0.074 A 
ATOM      3  C2  UNL d   1      -0.229  -1.953   1.663  0.00  0.00    -0.005 A 
ATOM      4  C3  UNL d   1       0.249  -3.261   1.583  0.00  0.00     0.006 A 
ATOM      5  C4  UNL d   1       1.344  -3.560   0.772  0.00  0.00    -0.005 A 
ATOM      6  C5  UNL d   1       1.971  -2.552   0.032  0.00  0.00    -0.074 A 
ATOM      7  C6  UNL d   1       3.143  -2.858  -0.852  0.00  0.00     0.077 C 
ATOM      8  C7  UNL d   1       1.480  -1.242   0.113  0.00  0.00    -0.001 A 
ENDROOT
TORSDOF 0
ENDMDL
