MODEL 1
REMARK minimizedAffinity 0.898702443
REMARK minimizedRMSD -1
REMARK  0 active torsions:
REMARK  status: ('A' for Active; 'I' for Inactive)
ROOT
ATOM      1  C   UNL d   1       3.281  -4.688  -0.173  0.00  0.00     0.077 C 
ATOM      2  C1  UNL d   1       2.293  -3.604   0.142  0.00  0.00    -0.074 A 
ATOM      3  C2  UNL d   1       0.922  -3.876   0.199  0.00  0.00    -0.005 A 
ATOM      4  C3  UNL d   1       0.016  -2.860   0.503  0.00  0.00     0.006 A 
ATOM      5  C4  UNL d   1       0.470  -1.564   0.751  0.00  0.00    -0.005 A 
ATOM      6  C5  UNL d   1       1.837  -1.274   0.699  0.00  0.00    -0.074 A 
ATOM      7  C6  UNL d   1       2.343   0.111   0.973  0.00  0.00     0.077 C 
ATOM      8  C7  UNL d   1       2.742  -2.302   0.400  0.00  0.00    -0.001 A 
ENDROOT
TORSDOF 0
ENDMDL
