MODEL 1
REMARK minimizedAffinity -3.73147607
REMARK minimizedRMSD -1
REMARK  0 active torsions:
REMARK  status: ('A' for Active; 'I' for Inactive)
ROOT
ATOM      1  C   UNL d   1       3.299  -4.168   0.143  0.00  0.00     0.077 C 
ATOM      2  C1  UNL d   1       2.691  -2.812   0.348  0.00  0.00    -0.074 A 
ATOM      3  C2  UNL d   1       3.481  -1.658   0.319  0.00  0.00    -0.005 A 
ATOM      4  C3  UNL d   1       2.900  -0.403   0.501  0.00  0.00     0.006 A 
ATOM      5  C4  UNL d   1       1.525  -0.290   0.713  0.00  0.00    -0.005 A 
ATOM      6  C5  UNL d   1       0.719  -1.432   0.744  0.00  0.00    -0.074 A 
ATOM      7  C6  UNL d   1      -0.761  -1.327   0.961  0.00  0.00     0.077 C 
ATOM      8  C7  UNL d   1       1.310  -2.689   0.553  0.00  0.00    -0.001 A 
ENDROOT
TORSDOF 0
ENDMDL
