MODEL 1
REMARK minimizedAffinity -4.02047396
REMARK minimizedRMSD -1
REMARK  0 active torsions:
REMARK  status: ('A' for Active; 'I' for Inactive)
ROOT
ATOM      1  C   UNL d   1       0.904  -3.833   0.202  0.00  0.00     0.077 C 
ATOM      2  C1  UNL d   1       0.736  -2.379   0.529  0.00  0.00    -0.074 A 
ATOM      3  C2  UNL d   1       1.845  -1.568   0.790  0.00  0.00    -0.005 A 
ATOM      4  C3  UNL d   1       1.674  -0.215   1.083  0.00  0.00     0.006 A 
ATOM      5  C4  UNL d   1       0.394   0.340   1.118  0.00  0.00    -0.005 A 
ATOM      6  C5  UNL d   1      -0.727  -0.455   0.858  0.00  0.00    -0.074 A 
ATOM      7  C6  UNL d   1      -2.108   0.127   0.882  0.00  0.00     0.077 C 
ATOM      8  C7  UNL d   1      -0.546  -1.812   0.558  0.00  0.00    -0.001 A 
ENDROOT
TORSDOF 0
ENDMDL
