MODEL 1
REMARK minimizedAffinity -4.09375811
REMARK minimizedRMSD -1
REMARK  0 active torsions:
REMARK  status: ('A' for Active; 'I' for Inactive)
ROOT
ATOM      1  C   UNL d   1       2.365  -4.337   0.010  0.00  0.00     0.077 C 
ATOM      2  C1  UNL d   1       1.946  -2.923   0.287  0.00  0.00    -0.074 A 
ATOM      3  C2  UNL d   1       2.889  -1.892   0.341  0.00  0.00    -0.005 A 
ATOM      4  C3  UNL d   1       2.483  -0.581   0.591  0.00  0.00     0.006 A 
ATOM      5  C4  UNL d   1       1.133  -0.289   0.789  0.00  0.00    -0.005 A 
ATOM      6  C5  UNL d   1       0.176  -1.307   0.738  0.00  0.00    -0.074 A 
ATOM      7  C6  UNL d   1      -1.280  -1.008   0.938  0.00  0.00     0.077 C 
ATOM      8  C7  UNL d   1       0.591  -2.621   0.479  0.00  0.00    -0.001 A 
ENDROOT
TORSDOF 0
ENDMDL
