MODEL 1
REMARK minimizedAffinity -3.02795744
REMARK minimizedRMSD -1
REMARK  0 active torsions:
REMARK  status: ('A' for Active; 'I' for Inactive)
ROOT
ATOM      1  C   UNL d   1       3.822  -4.233   0.006  0.00  0.00     0.077 C 
ATOM      2  C1  UNL d   1       2.583  -3.400   0.151  0.00  0.00    -0.074 A 
ATOM      3  C2  UNL d   1       1.325  -3.923  -0.162  0.00  0.00    -0.005 A 
ATOM      4  C3  UNL d   1       0.180  -3.140  -0.013  0.00  0.00     0.006 A 
ATOM      5  C4  UNL d   1       0.283  -1.827   0.450  0.00  0.00    -0.005 A 
ATOM      6  C5  UNL d   1       1.533  -1.287   0.768  0.00  0.00    -0.074 A 
ATOM      7  C6  UNL d   1       1.660   0.119   1.276  0.00  0.00     0.077 C 
ATOM      8  C7  UNL d   1       2.677  -2.083   0.623  0.00  0.00    -0.001 A 
ENDROOT
TORSDOF 0
ENDMDL
