MODEL 1
REMARK minimizedAffinity -2.62880993
REMARK minimizedRMSD -1
REMARK  0 active torsions:
REMARK  status: ('A' for Active; 'I' for Inactive)
ROOT
ATOM      1  C   UNL d   1      -5.985  -2.285   5.987  0.00  0.00     0.077 C 
ATOM      2  C1  UNL d   1      -5.904  -3.578   5.232  0.00  0.00    -0.074 A 
ATOM      3  C2  UNL d   1      -6.000  -4.805   5.896  0.00  0.00    -0.005 A 
ATOM      4  C3  UNL d   1      -5.933  -6.000   5.179  0.00  0.00     0.006 A 
ATOM      5  C4  UNL d   1      -5.769  -5.979   3.793  0.00  0.00    -0.005 A 
ATOM      6  C5  UNL d   1      -5.672  -4.762   3.112  0.00  0.00    -0.074 A 
ATOM      7  C6  UNL d   1      -5.506  -4.722   1.622  0.00  0.00     0.077 C 
ATOM      8  C7  UNL d   1      -5.748  -3.566   3.839  0.00  0.00    -0.001 A 
ENDROOT
TORSDOF 0
ENDMDL
