MODEL 1
REMARK minimizedAffinity -0.536140025
REMARK minimizedRMSD -1
REMARK  0 active torsions:
REMARK  status: ('A' for Active; 'I' for Inactive)
ROOT
ATOM      1  C   UNL d   1       1.704  -4.487  -0.148  0.00  0.00     0.077 C 
ATOM      2  C1  UNL d   1       1.636  -3.017   0.142  0.00  0.00    -0.074 A 
ATOM      3  C2  UNL d   1       2.781  -2.218   0.079  0.00  0.00    -0.005 A 
ATOM      4  C3  UNL d   1       2.701  -0.850   0.342  0.00  0.00     0.006 A 
ATOM      5  C4  UNL d   1       1.475  -0.270   0.672  0.00  0.00    -0.005 A 
ATOM      6  C5  UNL d   1       0.319  -1.053   0.739  0.00  0.00    -0.074 A 
ATOM      7  C6  UNL d   1      -1.008  -0.443   1.082  0.00  0.00     0.077 C 
ATOM      8  C7  UNL d   1       0.407  -2.425   0.466  0.00  0.00    -0.001 A 
ENDROOT
TORSDOF 0
ENDMDL
