MODEL 1
REMARK minimizedAffinity -1.14538455
REMARK minimizedRMSD -1
REMARK  0 active torsions:
REMARK  status: ('A' for Active; 'I' for Inactive)
ROOT
ATOM      1  C   UNL d   1       4.598  -2.272   0.396  0.00  0.00     0.077 C 
ATOM      2  C1  UNL d   1       3.140  -2.621   0.400  0.00  0.00    -0.074 A 
ATOM      3  C2  UNL d   1       2.710  -3.918   0.103  0.00  0.00    -0.005 A 
ATOM      4  C3  UNL d   1       1.351  -4.230   0.120  0.00  0.00     0.006 A 
ATOM      5  C4  UNL d   1       0.409  -3.250   0.434  0.00  0.00    -0.005 A 
ATOM      6  C5  UNL d   1       0.820  -1.948   0.736  0.00  0.00    -0.074 A 
ATOM      7  C6  UNL d   1      -0.179  -0.884   1.085  0.00  0.00     0.077 C 
ATOM      8  C7  UNL d   1       2.188  -1.644   0.723  0.00  0.00    -0.001 A 
ENDROOT
TORSDOF 0
ENDMDL
