MODEL 1
REMARK minimizedAffinity 1.02148783
REMARK minimizedRMSD -1
REMARK  0 active torsions:
REMARK  status: ('A' for Active; 'I' for Inactive)
ROOT
ATOM      1  C   UNL d   1       2.209   0.187   1.515  0.00  0.00     0.077 C 
ATOM      2  C1  UNL d   1       1.514  -1.051   1.033  0.00  0.00    -0.074 A 
ATOM      3  C2  UNL d   1       0.122  -1.090   0.905  0.00  0.00    -0.005 A 
ATOM      4  C3  UNL d   1      -0.510  -2.246   0.446  0.00  0.00     0.006 A 
ATOM      5  C4  UNL d   1       0.242  -3.372   0.112  0.00  0.00    -0.005 A 
ATOM      6  C5  UNL d   1       1.635  -3.352   0.233  0.00  0.00    -0.074 A 
ATOM      7  C6  UNL d   1       2.459  -4.551  -0.131  0.00  0.00     0.077 C 
ATOM      8  C7  UNL d   1       2.263  -2.185   0.688  0.00  0.00    -0.001 A 
ENDROOT
TORSDOF 0
ENDMDL
