MODEL 1
REMARK minimizedAffinity 1.70578504
REMARK minimizedRMSD -1
REMARK  0 active torsions:
REMARK  status: ('A' for Active; 'I' for Inactive)
ROOT
ATOM      1  C   UNL d   1       2.708   0.398   1.530  0.00  0.00     0.077 C 
ATOM      2  C1  UNL d   1       1.511  -0.422   1.155  0.00  0.00    -0.074 A 
ATOM      3  C2  UNL d   1       0.223   0.122   1.199  0.00  0.00    -0.005 A 
ATOM      4  C3  UNL d   1      -0.880  -0.650   0.837  0.00  0.00     0.006 A 
ATOM      5  C4  UNL d   1      -0.708  -1.974   0.429  0.00  0.00    -0.005 A 
ATOM      6  C5  UNL d   1       0.572  -2.535   0.378  0.00  0.00    -0.074 A 
ATOM      7  C6  UNL d   1       0.775  -3.953  -0.068  0.00  0.00     0.077 C 
ATOM      8  C7  UNL d   1       1.676  -1.750   0.736  0.00  0.00    -0.001 A 
ENDROOT
TORSDOF 0
ENDMDL
