MODEL 1
REMARK minimizedAffinity -0.300927162
REMARK minimizedRMSD -1
REMARK  0 active torsions:
REMARK  status: ('A' for Active; 'I' for Inactive)
ROOT
ATOM      1  C   UNL d   1       4.096  -1.518   0.216  0.00  0.00     0.077 C 
ATOM      2  C1  UNL d   1       2.717  -2.098   0.323  0.00  0.00    -0.074 A 
ATOM      3  C2  UNL d   1       2.478  -3.444   0.028  0.00  0.00    -0.005 A 
ATOM      4  C3  UNL d   1       1.192  -3.971   0.141  0.00  0.00     0.006 A 
ATOM      5  C4  UNL d   1       0.133  -3.159   0.548  0.00  0.00    -0.005 A 
ATOM      6  C5  UNL d   1       0.352  -1.811   0.848  0.00  0.00    -0.074 A 
ATOM      7  C6  UNL d   1      -0.773  -0.927   1.296  0.00  0.00     0.077 C 
ATOM      8  C7  UNL d   1       1.649  -1.290   0.739  0.00  0.00    -0.001 A 
ENDROOT
TORSDOF 0
ENDMDL
