MODEL 1
REMARK minimizedAffinity 0.663753629
REMARK minimizedRMSD -1
REMARK  0 active torsions:
REMARK  status: ('A' for Active; 'I' for Inactive)
ROOT
ATOM      1  C   UNL d   1      -0.048  -2.525  -3.312  0.00  0.00     0.077 C 
ATOM      2  C1  UNL d   1      -0.000  -2.805  -1.839  0.00  0.00    -0.074 A 
ATOM      3  C2  UNL d   1       0.242  -4.096  -1.360  0.00  0.00    -0.005 A 
ATOM      4  C3  UNL d   1       0.292  -4.339   0.013  0.00  0.00     0.006 A 
ATOM      5  C4  UNL d   1       0.102  -3.295   0.919  0.00  0.00    -0.005 A 
ATOM      6  C5  UNL d   1      -0.141  -1.997   0.458  0.00  0.00    -0.074 A 
ATOM      7  C6  UNL d   1      -0.338  -0.861   1.418  0.00  0.00     0.077 C 
ATOM      8  C7  UNL d   1      -0.183  -1.759  -0.923  0.00  0.00    -0.001 A 
ENDROOT
TORSDOF 0
ENDMDL
