MODEL 1
REMARK minimizedAffinity -0.78829664
REMARK minimizedRMSD -1
REMARK  0 active torsions:
REMARK  status: ('A' for Active; 'I' for Inactive)
ROOT
ATOM      1  C   UNL d   1       0.228  -0.414   0.782  0.00  0.00     0.077 C 
ATOM      2  C1  UNL d   1       1.030  -1.641   0.461  0.00  0.00    -0.074 A 
ATOM      3  C2  UNL d   1       0.403  -2.871   0.239  0.00  0.00    -0.005 A 
ATOM      4  C3  UNL d   1       1.160  -4.001  -0.068  0.00  0.00     0.006 A 
ATOM      5  C4  UNL d   1       2.550  -3.913  -0.157  0.00  0.00    -0.005 A 
ATOM      6  C5  UNL d   1       3.194  -2.691   0.060  0.00  0.00    -0.074 A 
ATOM      7  C6  UNL d   1       4.686  -2.576  -0.041  0.00  0.00     0.077 C 
ATOM      8  C7  UNL d   1       2.426  -1.558   0.362  0.00  0.00    -0.001 A 
ENDROOT
TORSDOF 0
ENDMDL
