MODEL 1
REMARK minimizedAffinity 3.18938422
REMARK minimizedRMSD -1
REMARK  0 active torsions:
REMARK  status: ('A' for Active; 'I' for Inactive)
ROOT
ATOM      1  C   UNL d   1       0.531  -0.549   3.426  0.00  0.00     0.077 C 
ATOM      2  C1  UNL d   1       0.366  -1.244   2.107  0.00  0.00    -0.074 A 
ATOM      3  C2  UNL d   1      -0.581  -0.804   1.177  0.00  0.00    -0.005 A 
ATOM      4  C3  UNL d   1      -0.717  -1.455  -0.050  0.00  0.00     0.006 A 
ATOM      5  C4  UNL d   1       0.092  -2.549  -0.358  0.00  0.00    -0.005 A 
ATOM      6  C5  UNL d   1       1.045  -3.003   0.560  0.00  0.00    -0.074 A 
ATOM      7  C6  UNL d   1       1.929  -4.172   0.241  0.00  0.00     0.077 C 
ATOM      8  C7  UNL d   1       1.180  -2.339   1.787  0.00  0.00    -0.001 A 
ENDROOT
TORSDOF 0
ENDMDL
