MODEL 1
REMARK minimizedAffinity 5.41810703
REMARK minimizedRMSD -1
REMARK  1 active torsions:
REMARK  status: ('A' for Active; 'I' for Inactive)
REMARK    1  A    between atoms: C1_2  and  C2_3 
ROOT
ATOM      1  C2  UNL d   1      -3.522   5.267  -5.247  0.00  0.00    -0.073 A 
ATOM      2  C3  UNL d   1      -3.557   5.466  -3.862  0.00  0.00    -0.002 A 
ATOM      3  C4  UNL d   1      -2.399   5.827  -3.173  0.00  0.00     0.004 A 
ATOM      4  C5  UNL d   1      -1.197   5.999  -3.860  0.00  0.00    -0.004 A 
ATOM      5  C6  UNL d   1      -1.145   5.816  -5.246  0.00  0.00    -0.075 A 
ATOM      6  C7  UNL d   1       0.140   5.995  -6.000  0.00  0.00     0.076 C 
ATOM      7  C8  UNL d   1      -2.312   5.451  -5.931  0.00  0.00     0.001 A 
ENDROOT
BRANCH   1   8
ATOM      8  C1  UNL d   1      -4.772   4.883  -5.997  0.00  0.00     0.053 C 
ATOM      9  C   UNL d   1      -5.803   6.000  -5.995  0.00  0.00     0.018 C 
ENDBRANCH   1   8
TORSDOF 1
ENDMDL
