MODEL 1
REMARK minimizedAffinity 5.01800489
REMARK minimizedRMSD -1
REMARK  1 active torsions:
REMARK  status: ('A' for Active; 'I' for Inactive)
REMARK    1  A    between atoms: C1_2  and  C2_3 
ROOT
ATOM      1  C2  UNL d   1      -3.543   0.438   4.225  0.00  0.00    -0.073 A 
ATOM      2  C3  UNL d   1      -4.930   0.321   4.081  0.00  0.00    -0.002 A 
ATOM      3  C4  UNL d   1      -5.471  -0.399   3.015  0.00  0.00     0.004 A 
ATOM      4  C5  UNL d   1      -4.632  -1.015   2.087  0.00  0.00    -0.004 A 
ATOM      5  C6  UNL d   1      -3.243  -0.920   2.220  0.00  0.00    -0.075 A 
ATOM      6  C7  UNL d   1      -2.326  -1.575   1.229  0.00  0.00     0.076 C 
ATOM      7  C8  UNL d   1      -2.708  -0.193   3.291  0.00  0.00     0.001 A 
ENDROOT
BRANCH   1   8
ATOM      8  C1  UNL d   1      -2.955   1.209   5.377  0.00  0.00     0.053 C 
ATOM      9  C   UNL d   1      -1.763   0.494   5.993  0.00  0.00     0.018 C 
ENDBRANCH   1   8
TORSDOF 1
ENDMDL
