MODEL 1
REMARK minimizedAffinity 3.35951352
REMARK minimizedRMSD -1
REMARK  1 active torsions:
REMARK  status: ('A' for Active; 'I' for Inactive)
REMARK    1  A    between atoms: C1_2  and  C2_3 
ROOT
ATOM      1  C2  UNL d   1      -5.110   5.276  -3.043  0.00  0.00    -0.073 A 
ATOM      2  C3  UNL d   1      -5.473   6.000  -1.902  0.00  0.00    -0.002 A 
ATOM      3  C4  UNL d   1      -5.919   5.336  -0.758  0.00  0.00     0.004 A 
ATOM      4  C5  UNL d   1      -6.000   3.944  -0.741  0.00  0.00    -0.004 A 
ATOM      5  C6  UNL d   1      -5.631   3.202  -1.867  0.00  0.00    -0.075 A 
ATOM      6  C7  UNL d   1      -5.714   1.704  -1.866  0.00  0.00     0.076 C 
ATOM      7  C8  UNL d   1      -5.187   3.876  -3.013  0.00  0.00     0.001 A 
ENDROOT
BRANCH   1   8
ATOM      8  C1  UNL d   1      -4.622   5.987  -4.278  0.00  0.00     0.053 C 
ATOM      9  C   UNL d   1      -3.186   5.621  -4.617  0.00  0.00     0.018 C 
ENDBRANCH   1   8
TORSDOF 1
ENDMDL
