MODEL 1
REMARK minimizedAffinity 25.371212
REMARK minimizedRMSD -1
REMARK  1 active torsions:
REMARK  status: ('A' for Active; 'I' for Inactive)
REMARK    1  A    between atoms: C1_2  and  C2_3 
ROOT
ATOM      1  C2  UNL d   1       2.286  -0.088   1.664  0.00  0.00    -0.073 A 
ATOM      2  C3  UNL d   1       2.936  -0.876   2.620  0.00  0.00    -0.002 A 
ATOM      3  C4  UNL d   1       2.202  -1.724   3.451  0.00  0.00     0.004 A 
ATOM      4  C5  UNL d   1       0.814  -1.797   3.330  0.00  0.00    -0.004 A 
ATOM      5  C6  UNL d   1       0.148  -1.026   2.372  0.00  0.00    -0.075 A 
ATOM      6  C7  UNL d   1      -1.344  -1.091   2.230  0.00  0.00     0.076 C 
ATOM      7  C8  UNL d   1       0.892  -0.175   1.543  0.00  0.00     0.001 A 
ENDROOT
BRANCH   1   8
ATOM      8  C1  UNL d   1       3.075   0.824   0.760  0.00  0.00     0.053 C 
ATOM      9  C   UNL d   1       3.951   1.787   1.546  0.00  0.00     0.018 C 
ENDBRANCH   1   8
TORSDOF 1
ENDMDL
