MODEL 1
REMARK minimizedAffinity 15.0933514
REMARK minimizedRMSD -1
REMARK  1 active torsions:
REMARK  status: ('A' for Active; 'I' for Inactive)
REMARK    1  A    between atoms: C1_2  and  C2_3 
ROOT
ATOM      1  C2  UNL d   1      -4.288  -0.985  -0.149  0.00  0.00    -0.073 A 
ATOM      2  C3  UNL d   1      -3.401  -1.047  -1.229  0.00  0.00    -0.002 A 
ATOM      3  C4  UNL d   1      -2.523  -2.124  -1.360  0.00  0.00     0.004 A 
ATOM      4  C5  UNL d   1      -2.529  -3.152  -0.417  0.00  0.00    -0.004 A 
ATOM      5  C6  UNL d   1      -3.416  -3.114   0.663  0.00  0.00    -0.075 A 
ATOM      6  C7  UNL d   1      -3.432  -4.211   1.687  0.00  0.00     0.076 C 
ATOM      7  C8  UNL d   1      -4.292  -2.028   0.789  0.00  0.00     0.001 A 
ENDROOT
BRANCH   1   8
ATOM      8  C1  UNL d   1      -5.241   0.173  -0.007  0.00  0.00     0.053 C 
ATOM      9  C   UNL d   1      -5.658   0.737  -1.356  0.00  0.00     0.018 C 
ENDBRANCH   1   8
TORSDOF 1
ENDMDL
