MODEL 1
REMARK minimizedAffinity 14.5025263
REMARK minimizedRMSD -1
REMARK  1 active torsions:
REMARK  status: ('A' for Active; 'I' for Inactive)
REMARK    1  A    between atoms: C1_2  and  C2_3 
ROOT
ATOM      1  C2  UNL d   1      -1.678   0.416   3.070  0.00  0.00    -0.073 A 
ATOM      2  C3  UNL d   1      -2.585  -0.306   2.286  0.00  0.00    -0.002 A 
ATOM      3  C4  UNL d   1      -2.125  -1.205   1.323  0.00  0.00     0.004 A 
ATOM      4  C5  UNL d   1      -0.756  -1.397   1.139  0.00  0.00    -0.004 A 
ATOM      5  C6  UNL d   1       0.166  -0.694   1.921  0.00  0.00    -0.075 A 
ATOM      6  C7  UNL d   1       1.643  -0.887   1.734  0.00  0.00     0.076 C 
ATOM      7  C8  UNL d   1      -0.303   0.210   2.884  0.00  0.00     0.001 A 
ENDROOT
BRANCH   1   8
ATOM      8  C1  UNL d   1      -2.170   1.383   4.115  0.00  0.00     0.053 C 
ATOM      9  C   UNL d   1      -1.664   1.027   5.504  0.00  0.00     0.018 C 
ENDBRANCH   1   8
TORSDOF 1
ENDMDL
