MODEL 1
REMARK minimizedAffinity 11.5949917
REMARK minimizedRMSD -1
REMARK  1 active torsions:
REMARK  status: ('A' for Active; 'I' for Inactive)
REMARK    1  A    between atoms: C1_2  and  C2_3 
ROOT
ATOM      1  C2  UNL d   1       3.326   1.789  -1.314  0.00  0.00    -0.073 A 
ATOM      2  C3  UNL d   1       2.540   1.599  -2.456  0.00  0.00    -0.002 A 
ATOM      3  C4  UNL d   1       2.802   2.322  -3.621  0.00  0.00     0.004 A 
ATOM      4  C5  UNL d   1       3.854   3.236  -3.657  0.00  0.00    -0.004 A 
ATOM      5  C6  UNL d   1       4.658   3.432  -2.530  0.00  0.00    -0.075 A 
ATOM      6  C7  UNL d   1       5.793   4.414  -2.552  0.00  0.00     0.076 C 
ATOM      7  C8  UNL d   1       4.387   2.704  -1.363  0.00  0.00     0.001 A 
ENDROOT
BRANCH   1   8
ATOM      8  C1  UNL d   1       3.051   1.006  -0.056  0.00  0.00     0.053 C 
ATOM      9  C   UNL d   1       3.834   1.541   1.131  0.00  0.00     0.018 C 
ENDBRANCH   1   8
TORSDOF 1
ENDMDL
