MODEL 1
REMARK minimizedAffinity 10.406517
REMARK minimizedRMSD -1
REMARK  1 active torsions:
REMARK  status: ('A' for Active; 'I' for Inactive)
REMARK    1  A    between atoms: C1_2  and  C2_3 
ROOT
ATOM      1  C2  UNL d   1      -1.543  -0.256   2.896  0.00  0.00    -0.073 A 
ATOM      2  C3  UNL d   1      -2.318  -0.874   1.908  0.00  0.00    -0.002 A 
ATOM      3  C4  UNL d   1      -1.886  -2.060   1.312  0.00  0.00     0.004 A 
ATOM      4  C5  UNL d   1      -0.680  -2.642   1.701  0.00  0.00    -0.004 A 
ATOM      5  C6  UNL d   1       0.103  -2.046   2.695  0.00  0.00    -0.075 A 
ATOM      6  C7  UNL d   1       1.404  -2.659   3.123  0.00  0.00     0.076 C 
ATOM      7  C8  UNL d   1      -0.337  -0.854   3.287  0.00  0.00     0.001 A 
ENDROOT
BRANCH   1   8
ATOM      8  C1  UNL d   1      -2.009   1.020   3.547  0.00  0.00     0.053 C 
ATOM      9  C   UNL d   1      -1.875   0.970   5.060  0.00  0.00     0.018 C 
ENDBRANCH   1   8
TORSDOF 1
ENDMDL
