MODEL 1
REMARK minimizedAffinity 13.7747316
REMARK minimizedRMSD -1
REMARK  1 active torsions:
REMARK  status: ('A' for Active; 'I' for Inactive)
REMARK    1  A    between atoms: C1_2  and  C2_3 
ROOT
ATOM      1  C2  UNL d   1       3.775   3.630  -3.664  0.00  0.00    -0.073 A 
ATOM      2  C3  UNL d   1       4.486   3.747  -4.864  0.00  0.00    -0.002 A 
ATOM      3  C4  UNL d   1       5.591   4.596  -4.949  0.00  0.00     0.004 A 
ATOM      4  C5  UNL d   1       6.000   5.329  -3.835  0.00  0.00    -0.004 A 
ATOM      5  C6  UNL d   1       5.310   5.216  -2.624  0.00  0.00    -0.075 A 
ATOM      6  C7  UNL d   1       5.736   6.000  -1.417  0.00  0.00     0.076 C 
ATOM      7  C8  UNL d   1       4.200   4.364  -2.547  0.00  0.00     0.001 A 
ENDROOT
BRANCH   1   8
ATOM      8  C1  UNL d   1       2.586   2.710  -3.566  0.00  0.00     0.053 C 
ATOM      9  C   UNL d   1       2.533   1.988  -2.229  0.00  0.00     0.018 C 
ENDBRANCH   1   8
TORSDOF 1
ENDMDL
