MODEL 1
REMARK minimizedAffinity 0.833674252
REMARK minimizedRMSD -1
REMARK  0 active torsions:
REMARK  status: ('A' for Active; 'I' for Inactive)
ROOT
ATOM      1  C1  BNZ d   1       3.944   0.133  -4.557  0.00  0.00     0.000 A 
ATOM      2  C2  BNZ d   1       3.721   1.474  -4.726  0.00  0.00     0.000 A 
ATOM      3  C3  BNZ d   1       2.455   1.986  -4.665  0.00  0.00     0.000 A 
ATOM      4  C4  BNZ d   1       1.411   1.153  -4.476  0.00  0.00     0.000 A 
ATOM      5  C5  BNZ d   1       1.619  -0.202  -4.313  0.00  0.00     0.000 A 
ATOM      6  C6  BNZ d   1       2.898  -0.709  -4.336  0.00  0.00     0.000 A 
ENDROOT
TORSDOF 0
ENDMDL
