MODEL 1
REMARK minimizedAffinity 3.35750914
REMARK minimizedRMSD -1
REMARK  0 active torsions:
REMARK  status: ('A' for Active; 'I' for Inactive)
ROOT
ATOM      1  C1  BNZ d   1      -0.945  -6.000  -2.553  0.00  0.00     0.000 A 
ATOM      2  C2  BNZ d   1      -0.626  -4.852  -1.878  0.00  0.00     0.000 A 
ATOM      3  C3  BNZ d   1      -1.253  -3.672  -2.168  0.00  0.00     0.000 A 
ATOM      4  C4  BNZ d   1      -2.167  -3.633  -3.159  0.00  0.00     0.000 A 
ATOM      5  C5  BNZ d   1      -2.493  -4.780  -3.855  0.00  0.00     0.000 A 
ATOM      6  C6  BNZ d   1      -1.888  -5.974  -3.534  0.00  0.00     0.000 A 
ENDROOT
TORSDOF 0
ENDMDL
