MODEL 1
REMARK minimizedAffinity 0.713136077
REMARK minimizedRMSD -1
REMARK  0 active torsions:
REMARK  status: ('A' for Active; 'I' for Inactive)
ROOT
ATOM      1  C1  BNZ d   1      -2.162  -3.205  -3.006  0.00  0.00     0.000 A 
ATOM      2  C2  BNZ d   1      -1.854  -4.423  -3.551  0.00  0.00     0.000 A 
ATOM      3  C3  BNZ d   1      -0.786  -5.144  -3.095  0.00  0.00     0.000 A 
ATOM      4  C4  BNZ d   1      -0.004  -4.629  -2.125  0.00  0.00     0.000 A 
ATOM      5  C5  BNZ d   1      -0.295  -3.398  -1.572  0.00  0.00     0.000 A 
ATOM      6  C6  BNZ d   1      -1.394  -2.693  -2.006  0.00  0.00     0.000 A 
ENDROOT
TORSDOF 0
ENDMDL
