MODEL 1
REMARK minimizedAffinity 1.30423832
REMARK minimizedRMSD -1
REMARK  0 active torsions:
REMARK  status: ('A' for Active; 'I' for Inactive)
ROOT
ATOM      1  C1  BNZ d   1       2.311  -0.770   0.015  0.00  0.00     0.000 A 
ATOM      2  C2  BNZ d   1       1.526  -1.530  -0.811  0.00  0.00     0.000 A 
ATOM      3  C3  BNZ d   1       0.163  -1.485  -0.718  0.00  0.00     0.000 A 
ATOM      4  C4  BNZ d   1      -0.411  -0.711   0.225  0.00  0.00     0.000 A 
ATOM      5  C5  BNZ d   1       0.366   0.054   1.071  0.00  0.00     0.000 A 
ATOM      6  C6  BNZ d   1       1.737   0.035   0.949  0.00  0.00     0.000 A 
ENDROOT
TORSDOF 0
ENDMDL
