MODEL 1
REMARK minimizedAffinity 1.96694744
REMARK minimizedRMSD -1
REMARK  0 active torsions:
REMARK  status: ('A' for Active; 'I' for Inactive)
ROOT
ATOM      1  C1  BNZ d   1      -0.031  -5.930  -3.562  0.00  0.00     0.000 A 
ATOM      2  C2  BNZ d   1      -1.282  -5.375  -3.605  0.00  0.00     0.000 A 
ATOM      3  C3  BNZ d   1      -1.576  -4.380  -4.494  0.00  0.00     0.000 A 
ATOM      4  C4  BNZ d   1      -0.610  -3.914  -5.311  0.00  0.00     0.000 A 
ATOM      5  C5  BNZ d   1       0.659  -4.456  -5.273  0.00  0.00     0.000 A 
ATOM      6  C6  BNZ d   1       0.941  -5.485  -4.403  0.00  0.00     0.000 A 
ENDROOT
TORSDOF 0
ENDMDL
