MODEL 1
REMARK minimizedAffinity 2.89884353
REMARK minimizedRMSD -1
REMARK  0 active torsions:
REMARK  status: ('A' for Active; 'I' for Inactive)
ROOT
ATOM      1  C1  BNZ d   1       1.033  -0.068   2.529  0.00  0.00     0.000 A 
ATOM      2  C2  BNZ d   1       1.691   1.049   2.971  0.00  0.00     0.000 A 
ATOM      3  C3  BNZ d   1       2.432   1.810   2.112  0.00  0.00     0.000 A 
ATOM      4  C4  BNZ d   1       2.547   1.433   0.822  0.00  0.00     0.000 A 
ATOM      5  C5  BNZ d   1       1.897   0.305   0.363  0.00  0.00     0.000 A 
ATOM      6  C6  BNZ d   1       1.120  -0.438   1.223  0.00  0.00     0.000 A 
ENDROOT
TORSDOF 0
ENDMDL
