MODEL 1
REMARK minimizedAffinity 2.04308105
REMARK minimizedRMSD -1
REMARK  0 active torsions:
REMARK  status: ('A' for Active; 'I' for Inactive)
ROOT
ATOM      1  C1  BNZ d   1      -0.107  -5.990  -4.868  0.00  0.00     0.000 A 
ATOM      2  C2  BNZ d   1      -1.439  -5.671  -4.868  0.00  0.00     0.000 A 
ATOM      3  C3  BNZ d   1      -1.882  -4.518  -5.453  0.00  0.00     0.000 A 
ATOM      4  C4  BNZ d   1      -0.991  -3.667  -6.000  0.00  0.00     0.000 A 
ATOM      5  C5  BNZ d   1       0.356  -3.969  -6.000  0.00  0.00     0.000 A 
ATOM      6  C6  BNZ d   1       0.795  -5.150  -5.445  0.00  0.00     0.000 A 
ENDROOT
TORSDOF 0
ENDMDL
