MODEL 1
REMARK minimizedAffinity -2.9599216
REMARK minimizedRMSD -1
REMARK  0 active torsions:
REMARK  status: ('A' for Active; 'I' for Inactive)
ROOT
ATOM      1  N1  IND d   1      -0.489  -2.290   1.128  0.00  0.00    -0.196 N 
ATOM      2  C2  IND d   1       0.821  -2.073   1.452  0.00  0.00     0.054 A 
ATOM      3  C3  IND d   1       1.309  -1.019   0.761  0.00  0.00    -0.031 A 
ATOM      4  C4  IND d   1       0.107   0.559  -0.880  0.00  0.00     0.051 A 
ATOM      5  C5  IND d   1      -1.086   0.740  -1.522  0.00  0.00    -0.031 A 
ATOM      6  C6  IND d   1      -2.164  -0.094  -1.306  0.00  0.00     0.015 A 
ATOM      7  C7  IND d   1      -2.092  -1.139  -0.429  0.00  0.00    -0.016 A 
ATOM      8  C8  IND d   1      -0.879  -1.331   0.219  0.00  0.00    -0.047 A 
ATOM      9  C9  IND d   1       0.231  -0.513  -0.027  0.00  0.00    -0.096 A 
ATOM     10  HN1 IND d   1      -0.986  -2.919   1.439  0.00  0.00     0.298 HD
ENDROOT
TORSDOF 0
ENDMDL
