MODEL 1
REMARK minimizedAffinity -2.41674495
REMARK minimizedRMSD -1
REMARK  0 active torsions:
REMARK  status: ('A' for Active; 'I' for Inactive)
ROOT
ATOM      1  N1  IND d   1       0.348  -0.225   1.327  0.00  0.00    -0.196 N 
ATOM      2  C2  IND d   1       0.086  -0.432   0.001  0.00  0.00     0.054 A 
ATOM      3  C3  IND d   1       0.770   0.454  -0.757  0.00  0.00    -0.031 A 
ATOM      4  C4  IND d   1       2.454   2.264  -0.039  0.00  0.00     0.051 A 
ATOM      5  C5  IND d   1       2.992   2.856   1.069  0.00  0.00    -0.031 A 
ATOM      6  C6  IND d   1       2.671   2.441   2.346  0.00  0.00     0.015 A 
ATOM      7  C7  IND d   1       1.806   1.406   2.562  0.00  0.00    -0.016 A 
ATOM      8  C8  IND d   1       1.252   0.807   1.439  0.00  0.00    -0.047 A 
ATOM      9  C9  IND d   1       1.541   1.252   0.143  0.00  0.00    -0.096 A 
ATOM     10  HN1 IND d   1       0.005  -0.666   1.981  0.00  0.00     0.298 HD
ENDROOT
TORSDOF 0
ENDMDL
