MODEL 1
REMARK minimizedAffinity -3.57179117
REMARK minimizedRMSD -1
REMARK  0 active torsions:
REMARK  status: ('A' for Active; 'I' for Inactive)
ROOT
ATOM      1  N1  IND d   1       0.803  -0.336   0.871  0.00  0.00    -0.196 N 
ATOM      2  C2  IND d   1       1.560   0.435   0.035  0.00  0.00     0.054 A 
ATOM      3  C3  IND d   1       0.844   0.789  -1.056  0.00  0.00    -0.031 A 
ATOM      4  C4  IND d   1      -1.618   0.301  -1.625  0.00  0.00     0.051 A 
ATOM      5  C5  IND d   1      -2.708  -0.396  -1.184  0.00  0.00    -0.031 A 
ATOM      6  C6  IND d   1      -2.684  -1.121  -0.010  0.00  0.00     0.015 A 
ATOM      7  C7  IND d   1      -1.567  -1.167   0.776  0.00  0.00    -0.016 A 
ATOM      8  C8  IND d   1      -0.456  -0.466   0.327  0.00  0.00    -0.047 A 
ATOM      9  C9  IND d   1      -0.462   0.236  -0.885  0.00  0.00    -0.096 A 
ATOM     10  HN1 IND d   1       1.068  -0.681   1.613  0.00  0.00     0.298 HD
ENDROOT
TORSDOF 0
ENDMDL
