MODEL 1
REMARK minimizedAffinity -1.66272163
REMARK minimizedRMSD -1
REMARK  0 active torsions:
REMARK  status: ('A' for Active; 'I' for Inactive)
ROOT
ATOM      1  N1  IND d   1      -2.555  -0.782  -1.569  0.00  0.00    -0.196 N 
ATOM      2  C2  IND d   1      -3.200  -1.457  -0.572  0.00  0.00     0.054 A 
ATOM      3  C3  IND d   1      -2.434  -1.497   0.542  0.00  0.00    -0.031 A 
ATOM      4  C4  IND d   1      -0.132  -0.433   0.982  0.00  0.00     0.051 A 
ATOM      5  C5  IND d   1       0.875   0.252   0.361  0.00  0.00    -0.031 A 
ATOM      6  C6  IND d   1       0.786   0.638  -0.961  0.00  0.00     0.015 A 
ATOM      7  C7  IND d   1      -0.321   0.361  -1.712  0.00  0.00    -0.016 A 
ATOM      8  C8  IND d   1      -1.342  -0.340  -1.086  0.00  0.00    -0.047 A 
ATOM      9  C9  IND d   1      -1.241  -0.771   0.243  0.00  0.00    -0.096 A 
ATOM     10  HN1 IND d   1      -2.855  -0.654  -2.365  0.00  0.00     0.298 HD
ENDROOT
TORSDOF 0
ENDMDL
