MODEL 1
REMARK minimizedAffinity -4.59413576
REMARK minimizedRMSD -1
REMARK  0 active torsions:
REMARK  status: ('A' for Active; 'I' for Inactive)
ROOT
ATOM      1  N1  IND d   1       1.548   0.413   0.563  0.00  0.00    -0.196 N 
ATOM      2  C2  IND d   1       1.326   1.432  -0.321  0.00  0.00     0.054 A 
ATOM      3  C3  IND d   1       0.037   1.430  -0.728  0.00  0.00    -0.031 A 
ATOM      4  C4  IND d   1      -1.907  -0.089   0.007  0.00  0.00     0.051 A 
ATOM      5  C5  IND d   1      -2.187  -1.189   0.768  0.00  0.00    -0.031 A 
ATOM      6  C6  IND d   1      -1.217  -1.822   1.518  0.00  0.00     0.015 A 
ATOM      7  C7  IND d   1       0.072  -1.370   1.543  0.00  0.00    -0.016 A 
ATOM      8  C8  IND d   1       0.361  -0.258   0.765  0.00  0.00    -0.047 A 
ATOM      9  C9  IND d   1      -0.610   0.363  -0.031  0.00  0.00    -0.096 A 
ATOM     10  HN1 IND d   1       2.301   0.223   0.932  0.00  0.00     0.298 HD
ENDROOT
TORSDOF 0
ENDMDL
