MODEL 1
REMARK minimizedAffinity -4.99994469
REMARK minimizedRMSD -1
REMARK  0 active torsions:
REMARK  status: ('A' for Active; 'I' for Inactive)
ROOT
ATOM      1  N1  IND d   1      -2.365  -0.440  -1.417  0.00  0.00    -0.196 N 
ATOM      2  C2  IND d   1      -2.978  -0.899  -0.286  0.00  0.00     0.054 A 
ATOM      3  C3  IND d   1      -2.105  -0.923   0.746  0.00  0.00    -0.031 A 
ATOM      4  C4  IND d   1       0.352  -0.158   0.827  0.00  0.00     0.051 A 
ATOM      5  C5  IND d   1       1.364   0.301   0.032  0.00  0.00    -0.031 A 
ATOM      6  C6  IND d   1       1.181   0.544  -1.314  0.00  0.00     0.015 A 
ATOM      7  C7  IND d   1      -0.031   0.347  -1.915  0.00  0.00    -0.016 A 
ATOM      8  C8  IND d   1      -1.059  -0.126  -1.112  0.00  0.00    -0.047 A 
ATOM      9  C9  IND d   1      -0.867  -0.415   0.246  0.00  0.00    -0.096 A 
ATOM     10  HN1 IND d   1      -2.733  -0.360  -2.191  0.00  0.00     0.298 HD
ENDROOT
TORSDOF 0
ENDMDL
