MODEL 1
REMARK minimizedAffinity -2.72392845
REMARK minimizedRMSD -1
REMARK  0 active torsions:
REMARK  status: ('A' for Active; 'I' for Inactive)
ROOT
ATOM      1  N1  IND d   1       0.029  -0.223  -1.720  0.00  0.00    -0.196 N 
ATOM      2  C2  IND d   1       0.978   0.210  -0.836  0.00  0.00     0.054 A 
ATOM      3  C3  IND d   1       0.486   0.202   0.423  0.00  0.00    -0.031 A 
ATOM      4  C4  IND d   1      -1.814  -0.579   1.276  0.00  0.00     0.051 A 
ATOM      5  C5  IND d   1      -3.030  -1.023   0.840  0.00  0.00    -0.031 A 
ATOM      6  C6  IND d   1      -3.294  -1.230  -0.498  0.00  0.00     0.015 A 
ATOM      7  C7  IND d   1      -2.342  -1.010  -1.454  0.00  0.00    -0.016 A 
ATOM      8  C8  IND d   1      -1.108  -0.553  -1.015  0.00  0.00    -0.047 A 
ATOM      9  C9  IND d   1      -0.848  -0.300   0.338  0.00  0.00    -0.096 A 
ATOM     10  HN1 IND d   1       0.126  -0.280  -2.572  0.00  0.00     0.298 HD
ENDROOT
TORSDOF 0
ENDMDL
