MODEL 1
REMARK minimizedAffinity -3.71544361
REMARK minimizedRMSD -1
REMARK  0 active torsions:
REMARK  status: ('A' for Active; 'I' for Inactive)
ROOT
ATOM      1  N1  IND d   1      -2.774  -0.751  -1.489  0.00  0.00    -0.196 N 
ATOM      2  C2  IND d   1      -3.442  -1.252  -0.407  0.00  0.00     0.054 A 
ATOM      3  C3  IND d   1      -2.664  -1.188   0.697  0.00  0.00    -0.031 A 
ATOM      4  C4  IND d   1      -0.301  -0.206   0.978  0.00  0.00     0.051 A 
ATOM      5  C5  IND d   1       0.733   0.334   0.266  0.00  0.00    -0.031 A 
ATOM      6  C6  IND d   1       0.648   0.546  -1.095  0.00  0.00     0.015 A 
ATOM      7  C7  IND d   1      -0.483   0.236  -1.796  0.00  0.00    -0.016 A 
ATOM      8  C8  IND d   1      -1.533  -0.319  -1.077  0.00  0.00    -0.047 A 
ATOM      9  C9  IND d   1      -1.437  -0.576   0.297  0.00  0.00    -0.096 A 
ATOM     10  HN1 IND d   1      -3.078  -0.712  -2.293  0.00  0.00     0.298 HD
ENDROOT
TORSDOF 0
ENDMDL
