MODEL 1
REMARK minimizedAffinity -4.18363333
REMARK minimizedRMSD -1
REMARK  0 active torsions:
REMARK  status: ('A' for Active; 'I' for Inactive)
ROOT
ATOM      1  N1  IND d   1       0.467  -0.393   1.268  0.00  0.00    -0.196 N 
ATOM      2  C2  IND d   1       1.494   0.236   0.622  0.00  0.00     0.054 A 
ATOM      3  C3  IND d   1       1.095   0.653  -0.601  0.00  0.00    -0.031 A 
ATOM      4  C4  IND d   1      -1.226   0.501  -1.703  0.00  0.00     0.051 A 
ATOM      5  C5  IND d   1      -2.476  -0.020  -1.516  0.00  0.00    -0.031 A 
ATOM      6  C6  IND d   1      -2.816  -0.703  -0.366  0.00  0.00     0.015 A 
ATOM      7  C7  IND d   1      -1.918  -0.882   0.648  0.00  0.00    -0.016 A 
ATOM      8  C8  IND d   1      -0.647  -0.361   0.458  0.00  0.00    -0.047 A 
ATOM      9  C9  IND d   1      -0.283   0.297  -0.724  0.00  0.00    -0.096 A 
ATOM     10  HN1 IND d   1       0.509  -0.749   2.050  0.00  0.00     0.298 HD
ENDROOT
TORSDOF 0
ENDMDL
