MODEL 1
REMARK minimizedAffinity -3.69801164
REMARK minimizedRMSD -1
REMARK  0 active torsions:
REMARK  status: ('A' for Active; 'I' for Inactive)
ROOT
ATOM      1  N1  IND d   1       0.318  -0.236   1.229  0.00  0.00    -0.196 N 
ATOM      2  C2  IND d   1       1.404   0.458   0.770  0.00  0.00     0.054 A 
ATOM      3  C3  IND d   1       1.209   0.841  -0.512  0.00  0.00    -0.031 A 
ATOM      4  C4  IND d   1      -0.856   0.529  -2.017  0.00  0.00     0.051 A 
ATOM      5  C5  IND d   1      -2.082  -0.074  -2.052  0.00  0.00    -0.031 A 
ATOM      6  C6  IND d   1      -2.582  -0.773  -0.973  0.00  0.00     0.015 A 
ATOM      7  C7  IND d   1      -1.876  -0.887   0.191  0.00  0.00    -0.016 A 
ATOM      8  C8  IND d   1      -0.627  -0.282   0.228  0.00  0.00    -0.047 A 
ATOM      9  C9  IND d   1      -0.097   0.393  -0.879  0.00  0.00    -0.096 A 
ATOM     10  HN1 IND d   1       0.240  -0.584   2.011  0.00  0.00     0.298 HD
ENDROOT
TORSDOF 0
ENDMDL
