MODEL 1
REMARK minimizedAffinity -2.96362805
REMARK minimizedRMSD -1
REMARK  0 active torsions:
REMARK  status: ('A' for Active; 'I' for Inactive)
ROOT
ATOM      1  N1  IND d   1       1.640  -0.167   1.231  0.00  0.00    -0.196 N 
ATOM      2  C2  IND d   1       1.942   1.055   0.698  0.00  0.00     0.054 A 
ATOM      3  C3  IND d   1       0.869   1.567   0.055  0.00  0.00    -0.031 A 
ATOM      4  C4  IND d   1      -1.515   0.618  -0.159  0.00  0.00     0.051 A 
ATOM      5  C5  IND d   1      -2.264  -0.487   0.132  0.00  0.00    -0.031 A 
ATOM      6  C6  IND d   1      -1.741  -1.563   0.820  0.00  0.00     0.015 A 
ATOM      7  C7  IND d   1      -0.446  -1.568   1.256  0.00  0.00    -0.016 A 
ATOM      8  C8  IND d   1       0.320  -0.451   0.956  0.00  0.00    -0.047 A 
ATOM      9  C9  IND d   1      -0.193   0.626   0.221  0.00  0.00    -0.096 A 
ATOM     10  HN1 IND d   1       2.182  -0.673   1.666  0.00  0.00     0.298 HD
ENDROOT
TORSDOF 0
ENDMDL
