MODEL 1
REMARK minimizedAffinity -4.81478405
REMARK minimizedRMSD -1
REMARK  0 active torsions:
REMARK  status: ('A' for Active; 'I' for Inactive)
ROOT
ATOM      1  N1  IND d   1       1.139  -1.477   1.173  0.00  0.00    -0.196 N 
ATOM      2  C2  IND d   1       1.899  -0.580   0.475  0.00  0.00     0.054 A 
ATOM      3  C3  IND d   1       1.115   0.182  -0.321  0.00  0.00    -0.031 A 
ATOM      4  C4  IND d   1      -1.448   0.199  -0.559  0.00  0.00     0.051 A 
ATOM      5  C5  IND d   1      -2.572  -0.464  -0.152  0.00  0.00    -0.031 A 
ATOM      6  C6  IND d   1      -2.516  -1.518   0.737  0.00  0.00     0.015 A 
ATOM      7  C7  IND d   1      -1.329  -1.942   1.264  0.00  0.00    -0.016 A 
ATOM      8  C8  IND d   1      -0.185  -1.276   0.848  0.00  0.00    -0.047 A 
ATOM      9  C9  IND d   1      -0.231  -0.234  -0.087  0.00  0.00    -0.096 A 
ATOM     10  HN1 IND d   1       1.438  -2.067   1.722  0.00  0.00     0.298 HD
ENDROOT
TORSDOF 0
ENDMDL
