MODEL 1
REMARK minimizedAffinity -3.66740751
REMARK minimizedRMSD -1
REMARK  0 active torsions:
REMARK  status: ('A' for Active; 'I' for Inactive)
ROOT
ATOM      1  N1  IND d   1       1.347  -0.075  -0.330  0.00  0.00    -0.196 N 
ATOM      2  C2  IND d   1       1.440  -0.697   0.884  0.00  0.00     0.054 A 
ATOM      3  C3  IND d   1       0.207  -0.952   1.378  0.00  0.00    -0.031 A 
ATOM      4  C4  IND d   1      -2.099  -0.528   0.317  0.00  0.00     0.051 A 
ATOM      5  C5  IND d   1      -2.696   0.051  -0.768  0.00  0.00    -0.031 A 
ATOM      6  C6  IND d   1      -1.961   0.627  -1.784  0.00  0.00     0.015 A 
ATOM      7  C7  IND d   1      -0.595   0.635  -1.758  0.00  0.00    -0.016 A 
ATOM      8  C8  IND d   1       0.014   0.054  -0.655  0.00  0.00    -0.047 A 
ATOM      9  C9  IND d   1      -0.727  -0.494   0.399  0.00  0.00    -0.096 A 
ATOM     10  HN1 IND d   1       2.009   0.190  -0.810  0.00  0.00     0.298 HD
ENDROOT
TORSDOF 0
ENDMDL
