MODEL 1
REMARK minimizedAffinity -4.55756283
REMARK minimizedRMSD -1
REMARK  0 active torsions:
REMARK  status: ('A' for Active; 'I' for Inactive)
ROOT
ATOM      1  N1  IND d   1      -2.662  -1.528   0.767  0.00  0.00    -0.196 N 
ATOM      2  C2  IND d   1      -3.293  -1.173  -0.393  0.00  0.00     0.054 A 
ATOM      3  C3  IND d   1      -2.473  -0.424  -1.164  0.00  0.00    -0.031 A 
ATOM      4  C4  IND d   1      -0.022   0.255  -0.766  0.00  0.00     0.051 A 
ATOM      5  C5  IND d   1       0.973   0.198   0.169  0.00  0.00    -0.031 A 
ATOM      6  C6  IND d   1       0.805  -0.454   1.374  0.00  0.00     0.015 A 
ATOM      7  C7  IND d   1      -0.366  -1.084   1.685  0.00  0.00    -0.016 A 
ATOM      8  C8  IND d   1      -1.381  -1.022   0.742  0.00  0.00    -0.047 A 
ATOM      9  C9  IND d   1      -1.232  -0.326  -0.465  0.00  0.00    -0.096 A 
ATOM     10  HN1 IND d   1      -3.008  -1.990   1.405  0.00  0.00     0.298 HD
ENDROOT
TORSDOF 0
ENDMDL
