MODEL 1
REMARK minimizedAffinity -0.76115948
REMARK minimizedRMSD -1
REMARK  1 active torsions:
REMARK  status: ('A' for Active; 'I' for Inactive)
REMARK    1  A    between atoms: C1_2  and  C2_3 
ROOT
ATOM      1  C2  UNL d   1       0.208   2.379  -0.923  0.00  0.00    -0.081 A 
ATOM      2  C3  UNL d   1       1.263   2.438  -0.005  0.00  0.00     0.006 A 
ATOM      3  C4  UNL d   1       1.732   1.274   0.611  0.00  0.00     0.002 A 
ATOM      4  C5  UNL d   1       1.158   0.034   0.313  0.00  0.00    -0.080 A 
ATOM      5  C6  UNL d   1       1.672  -1.227   0.944  0.00  0.00     0.076 C 
ATOM      6  C7  UNL d   1       0.093  -0.023  -0.592  0.00  0.00     0.002 A 
ATOM      7  C8  UNL d   1      -0.376   1.140  -1.207  0.00  0.00     0.006 A 
ENDROOT
BRANCH   1   8
ATOM      8  C1  UNL d   1      -0.256   3.623  -1.637  0.00  0.00     0.054 C 
ATOM      9  C   UNL d   1      -0.813   3.295  -3.015  0.00  0.00     0.018 C 
ENDBRANCH   1   8
TORSDOF 1
ENDMDL
