MODEL 1
REMARK minimizedAffinity -3.00844741
REMARK minimizedRMSD -1
REMARK  1 active torsions:
REMARK  status: ('A' for Active; 'I' for Inactive)
REMARK    1  A    between atoms: C1_2  and  C2_3 
ROOT
ATOM      1  C2  UNL d   1       0.331   1.895  -0.486  0.00  0.00    -0.081 A 
ATOM      2  C3  UNL d   1       1.032   3.091  -0.686  0.00  0.00     0.006 A 
ATOM      3  C4  UNL d   1       0.645   3.978  -1.693  0.00  0.00     0.002 A 
ATOM      4  C5  UNL d   1      -0.452   3.689  -2.511  0.00  0.00    -0.080 A 
ATOM      5  C6  UNL d   1      -0.895   4.648  -3.576  0.00  0.00     0.076 C 
ATOM      6  C7  UNL d   1      -1.141   2.487  -2.324  0.00  0.00     0.002 A 
ATOM      7  C8  UNL d   1      -0.755   1.598  -1.317  0.00  0.00     0.006 A 
ENDROOT
BRANCH   1   8
ATOM      8  C1  UNL d   1       0.705   0.966   0.641  0.00  0.00     0.054 C 
ATOM      9  C   UNL d   1       1.408  -0.279   0.121  0.00  0.00     0.018 C 
ENDBRANCH   1   8
TORSDOF 1
ENDMDL
