MODEL 1
REMARK minimizedAffinity -0.571664214
REMARK minimizedRMSD -1
REMARK  1 active torsions:
REMARK  status: ('A' for Active; 'I' for Inactive)
REMARK    1  A    between atoms: C1_2  and  C2_3 
ROOT
ATOM      1  C2  UNL d   1       1.480  -0.066   1.452  0.00  0.00    -0.081 A 
ATOM      2  C3  UNL d   1       0.291   0.152   0.747  0.00  0.00     0.006 A 
ATOM      3  C4  UNL d   1       0.214  -0.137  -0.618  0.00  0.00     0.002 A 
ATOM      4  C5  UNL d   1       1.321  -0.657  -1.297  0.00  0.00    -0.080 A 
ATOM      5  C6  UNL d   1       1.242  -1.000  -2.755  0.00  0.00     0.076 C 
ATOM      6  C7  UNL d   1       2.515  -0.858  -0.596  0.00  0.00     0.002 A 
ATOM      7  C8  UNL d   1       2.593  -0.568   0.768  0.00  0.00     0.006 A 
ENDROOT
BRANCH   1   8
ATOM      8  C1  UNL d   1       1.548   0.185   2.937  0.00  0.00     0.054 C 
ATOM      9  C   UNL d   1       1.200  -1.070   3.726  0.00  0.00     0.018 C 
ENDBRANCH   1   8
TORSDOF 1
ENDMDL
