MODEL 1
REMARK minimizedAffinity -5.47799444
REMARK minimizedRMSD -1
REMARK  1 active torsions:
REMARK  status: ('A' for Active; 'I' for Inactive)
REMARK    1  A    between atoms: C1_2  and  C2_3 
ROOT
ATOM      1  C2  UNL d   1      -1.922  -0.729  -0.444  0.00  0.00    -0.081 A 
ATOM      2  C3  UNL d   1      -1.916  -0.881   0.948  0.00  0.00     0.006 A 
ATOM      3  C4  UNL d   1      -0.745  -0.666   1.678  0.00  0.00     0.002 A 
ATOM      4  C5  UNL d   1       0.436  -0.288   1.031  0.00  0.00    -0.080 A 
ATOM      5  C6  UNL d   1       1.692  -0.025   1.807  0.00  0.00     0.076 C 
ATOM      6  C7  UNL d   1       0.434  -0.153  -0.361  0.00  0.00     0.002 A 
ATOM      7  C8  UNL d   1      -0.736  -0.368  -1.092  0.00  0.00     0.006 A 
ENDROOT
BRANCH   1   8
ATOM      8  C1  UNL d   1      -3.199  -0.897  -1.228  0.00  0.00     0.054 C 
ATOM      9  C   UNL d   1      -4.172  -1.821  -0.509  0.00  0.00     0.018 C 
ENDBRANCH   1   8
TORSDOF 1
ENDMDL
