MODEL 1
REMARK minimizedAffinity -5.80017614
REMARK minimizedRMSD -1
REMARK  1 active torsions:
REMARK  status: ('A' for Active; 'I' for Inactive)
REMARK    1  A    between atoms: C1_2  and  C2_3 
ROOT
ATOM      1  C2  UNL d   1      -1.515  -1.079  -0.082  0.00  0.00    -0.081 A 
ATOM      2  C3  UNL d   1      -0.261  -0.639  -0.524  0.00  0.00     0.006 A 
ATOM      3  C4  UNL d   1       0.739  -0.310   0.395  0.00  0.00     0.002 A 
ATOM      4  C5  UNL d   1       0.504  -0.424   1.769  0.00  0.00    -0.080 A 
ATOM      5  C6  UNL d   1       1.579  -0.104   2.766  0.00  0.00     0.076 C 
ATOM      6  C7  UNL d   1      -0.754  -0.847   2.211  0.00  0.00     0.002 A 
ATOM      7  C8  UNL d   1      -1.754  -1.175   1.293  0.00  0.00     0.006 A 
ENDROOT
BRANCH   1   8
ATOM      8  C1  UNL d   1      -2.573  -1.495  -1.072  0.00  0.00     0.054 C 
ATOM      9  C   UNL d   1      -3.718  -2.223  -0.383  0.00  0.00     0.018 C 
ENDBRANCH   1   8
TORSDOF 1
ENDMDL
