MODEL 1
REMARK minimizedAffinity 4.54451942
REMARK minimizedRMSD -1
REMARK  1 active torsions:
REMARK  status: ('A' for Active; 'I' for Inactive)
REMARK    1  A    between atoms: C1_2  and  C2_3 
ROOT
ATOM      1  C2  UNL d   1      -1.645  -0.500  -0.961  0.00  0.00    -0.081 A 
ATOM      2  C3  UNL d   1      -2.459  -1.025  -1.973  0.00  0.00     0.006 A 
ATOM      3  C4  UNL d   1      -3.716  -1.552  -1.668  0.00  0.00     0.002 A 
ATOM      4  C5  UNL d   1      -4.184  -1.556  -0.349  0.00  0.00    -0.080 A 
ATOM      5  C6  UNL d   1      -5.544  -2.092  -0.013  0.00  0.00     0.076 C 
ATOM      6  C7  UNL d   1      -3.364  -1.048   0.664  0.00  0.00     0.002 A 
ATOM      7  C8  UNL d   1      -2.106  -0.521   0.360  0.00  0.00     0.006 A 
ENDROOT
BRANCH   1   8
ATOM      8  C1  UNL d   1      -0.317   0.128  -1.295  0.00  0.00     0.054 C 
ATOM      9  C   UNL d   1       0.719  -0.161  -0.218  0.00  0.00     0.018 C 
ENDBRANCH   1   8
TORSDOF 1
ENDMDL
