MODEL 1
REMARK minimizedAffinity -1.75916743
REMARK minimizedRMSD -1
REMARK  1 active torsions:
REMARK  status: ('A' for Active; 'I' for Inactive)
REMARK    1  A    between atoms: C1_2  and  C2_3 
ROOT
ATOM      1  C2  UNL d   1       0.153   0.822  -1.858  0.00  0.00    -0.081 A 
ATOM      2  C3  UNL d   1       0.356   0.851  -3.243  0.00  0.00     0.006 A 
ATOM      3  C4  UNL d   1       0.134   2.025  -3.967  0.00  0.00     0.002 A 
ATOM      4  C5  UNL d   1      -0.286   3.191  -3.317  0.00  0.00    -0.080 A 
ATOM      5  C6  UNL d   1      -0.499   4.466  -4.078  0.00  0.00     0.076 C 
ATOM      6  C7  UNL d   1      -0.506   3.157  -1.936  0.00  0.00     0.002 A 
ATOM      7  C8  UNL d   1      -0.285   1.983  -1.212  0.00  0.00     0.006 A 
ENDROOT
BRANCH   1   8
ATOM      8  C1  UNL d   1       0.453  -0.425  -1.066  0.00  0.00     0.054 C 
ATOM      9  C   UNL d   1       1.040  -0.086   0.297  0.00  0.00     0.018 C 
ENDBRANCH   1   8
TORSDOF 1
ENDMDL
