MODEL 1
REMARK minimizedAffinity -2.63323188
REMARK minimizedRMSD -1
REMARK  1 active torsions:
REMARK  status: ('A' for Active; 'I' for Inactive)
REMARK    1  A    between atoms: C1_2  and  C2_3 
ROOT
ATOM      1  C2  UNL d   1       0.398  -0.960   2.039  0.00  0.00    -0.081 A 
ATOM      2  C3  UNL d   1      -0.862  -0.557   1.582  0.00  0.00     0.006 A 
ATOM      3  C4  UNL d   1      -0.981   0.220   0.427  0.00  0.00     0.002 A 
ATOM      4  C5  UNL d   1       0.156   0.600  -0.293  0.00  0.00    -0.080 A 
ATOM      5  C6  UNL d   1       0.040   1.409  -1.551  0.00  0.00     0.076 C 
ATOM      6  C7  UNL d   1       1.417   0.212   0.174  0.00  0.00     0.002 A 
ATOM      7  C8  UNL d   1       1.537  -0.564   1.329  0.00  0.00     0.006 A 
ENDROOT
BRANCH   1   8
ATOM      8  C1  UNL d   1       0.526  -1.853   3.248  0.00  0.00     0.054 C 
ATOM      9  C   UNL d   1      -0.439  -3.027   3.173  0.00  0.00     0.018 C 
ENDBRANCH   1   8
TORSDOF 1
ENDMDL
