MODEL 1
REMARK minimizedAffinity -5.15489721
REMARK minimizedRMSD -1
REMARK  0 active torsions:
REMARK  status: ('A' for Active; 'I' for Inactive)
ROOT
ATOM      1  C   UNL d   1       0.825   2.304  -2.187  0.00  0.00     0.077 C 
ATOM      2  C1  UNL d   1       1.214   0.967  -1.631  0.00  0.00    -0.074 A 
ATOM      3  C2  UNL d   1       2.518   0.481  -1.773  0.00  0.00    -0.005 A 
ATOM      4  C3  UNL d   1       2.867  -0.761  -1.242  0.00  0.00     0.006 A 
ATOM      5  C4  UNL d   1       1.919  -1.527  -0.564  0.00  0.00    -0.005 A 
ATOM      6  C5  UNL d   1       0.611  -1.058  -0.411  0.00  0.00    -0.074 A 
ATOM      7  C6  UNL d   1      -0.419  -1.865   0.323  0.00  0.00     0.077 C 
ATOM      8  C7  UNL d   1       0.269   0.194  -0.941  0.00  0.00    -0.001 A 
ENDROOT
TORSDOF 0
ENDMDL
