MODEL 1
REMARK minimizedAffinity -4.52309895
REMARK minimizedRMSD -1
REMARK  0 active torsions:
REMARK  status: ('A' for Active; 'I' for Inactive)
ROOT
ATOM      1  C   UNL d   1       3.243  -0.791  -2.335  0.00  0.00     0.077 C 
ATOM      2  C1  UNL d   1       2.136   0.099  -1.852  0.00  0.00    -0.074 A 
ATOM      3  C2  UNL d   1       1.862   1.314  -2.488  0.00  0.00    -0.005 A 
ATOM      4  C3  UNL d   1       0.823   2.126  -2.034  0.00  0.00     0.006 A 
ATOM      5  C4  UNL d   1       0.049   1.732  -0.942  0.00  0.00    -0.005 A 
ATOM      6  C5  UNL d   1       0.308   0.520  -0.294  0.00  0.00    -0.074 A 
ATOM      7  C6  UNL d   1      -0.521   0.077   0.875  0.00  0.00     0.077 C 
ATOM      8  C7  UNL d   1       1.349  -0.294  -0.761  0.00  0.00    -0.001 A 
ENDROOT
TORSDOF 0
ENDMDL
