MODEL 1
REMARK minimizedAffinity -5.83639574
REMARK minimizedRMSD -1
REMARK  0 active torsions:
REMARK  status: ('A' for Active; 'I' for Inactive)
ROOT
ATOM      1  C   UNL d   1       3.322  -1.050  -1.743  0.00  0.00     0.077 C 
ATOM      2  C1  UNL d   1       2.221  -0.055  -1.529  0.00  0.00    -0.074 A 
ATOM      3  C2  UNL d   1       2.163   1.126  -2.277  0.00  0.00    -0.005 A 
ATOM      4  C3  UNL d   1       1.127   2.037  -2.074  0.00  0.00     0.006 A 
ATOM      5  C4  UNL d   1       0.140   1.779  -1.122  0.00  0.00    -0.005 A 
ATOM      6  C5  UNL d   1       0.181   0.603  -0.365  0.00  0.00    -0.074 A 
ATOM      7  C6  UNL d   1      -0.877   0.305   0.655  0.00  0.00     0.077 C 
ATOM      8  C7  UNL d   1       1.221  -0.311  -0.580  0.00  0.00    -0.001 A 
ENDROOT
TORSDOF 0
ENDMDL
