MODEL 1
REMARK minimizedAffinity -2.98602843
REMARK minimizedRMSD -1
REMARK  0 active torsions:
REMARK  status: ('A' for Active; 'I' for Inactive)
ROOT
ATOM      1  C   UNL d   1      -0.029  -2.775   0.448  0.00  0.00     0.077 C 
ATOM      2  C1  UNL d   1       0.533  -1.487  -0.077  0.00  0.00    -0.074 A 
ATOM      3  C2  UNL d   1      -0.147  -0.279   0.106  0.00  0.00    -0.005 A 
ATOM      4  C3  UNL d   1       0.393   0.912  -0.380  0.00  0.00     0.006 A 
ATOM      5  C4  UNL d   1       1.616   0.907  -1.052  0.00  0.00    -0.005 A 
ATOM      6  C5  UNL d   1       2.310  -0.292  -1.243  0.00  0.00    -0.074 A 
ATOM      7  C6  UNL d   1       3.631  -0.314  -1.954  0.00  0.00     0.077 C 
ATOM      8  C7  UNL d   1       1.765  -1.483  -0.746  0.00  0.00    -0.001 A 
ENDROOT
TORSDOF 0
ENDMDL
