MODEL 1
REMARK minimizedAffinity -4.88139725
REMARK minimizedRMSD -1
REMARK  0 active torsions:
REMARK  status: ('A' for Active; 'I' for Inactive)
ROOT
ATOM      1  C   UNL d   1       3.586  -0.228  -2.136  0.00  0.00     0.077 C 
ATOM      2  C1  UNL d   1       2.307  -0.250  -1.353  0.00  0.00    -0.074 A 
ATOM      3  C2  UNL d   1       1.581   0.924  -1.128  0.00  0.00    -0.005 A 
ATOM      4  C3  UNL d   1       0.389   0.886  -0.406  0.00  0.00     0.006 A 
ATOM      5  C4  UNL d   1      -0.089  -0.324   0.098  0.00  0.00    -0.005 A 
ATOM      6  C5  UNL d   1       0.622  -1.508  -0.117  0.00  0.00    -0.074 A 
ATOM      7  C6  UNL d   1       0.118  -2.819   0.409  0.00  0.00     0.077 C 
ATOM      8  C7  UNL d   1       1.816  -1.463  -0.850  0.00  0.00    -0.001 A 
ENDROOT
TORSDOF 0
ENDMDL
