MODEL 1
REMARK minimizedAffinity -1.43931746
REMARK minimizedRMSD -1
REMARK  0 active torsions:
REMARK  status: ('A' for Active; 'I' for Inactive)
ROOT
ATOM      1  C   UNL d   1      -1.479   0.829   3.820  0.00  0.00     0.077 C 
ATOM      2  C1  UNL d   1      -1.168   0.615   2.369  0.00  0.00    -0.074 A 
ATOM      3  C2  UNL d   1      -2.110   0.916   1.380  0.00  0.00    -0.005 A 
ATOM      4  C3  UNL d   1      -1.803   0.721   0.033  0.00  0.00     0.006 A 
ATOM      5  C4  UNL d   1      -0.553   0.224  -0.338  0.00  0.00    -0.005 A 
ATOM      6  C5  UNL d   1       0.402  -0.081   0.637  0.00  0.00    -0.074 A 
ATOM      7  C6  UNL d   1       1.754  -0.607   0.255  0.00  0.00     0.077 C 
ATOM      8  C7  UNL d   1       0.089   0.124   1.988  0.00  0.00    -0.001 A 
ENDROOT
TORSDOF 0
ENDMDL
