MODEL 1
REMARK minimizedAffinity -3.65718794
REMARK minimizedRMSD -1
REMARK  0 active torsions:
REMARK  status: ('A' for Active; 'I' for Inactive)
ROOT
ATOM      1  C   UNL d   1       2.767  -0.690  -0.662  0.00  0.00     0.077 C 
ATOM      2  C1  UNL d   1       1.316  -0.650  -0.286  0.00  0.00    -0.074 A 
ATOM      3  C2  UNL d   1       0.482  -1.748  -0.520  0.00  0.00    -0.005 A 
ATOM      4  C3  UNL d   1      -0.864  -1.700  -0.156  0.00  0.00     0.006 A 
ATOM      5  C4  UNL d   1      -1.388  -0.555   0.445  0.00  0.00    -0.005 A 
ATOM      6  C5  UNL d   1      -0.570   0.552   0.688  0.00  0.00    -0.074 A 
ATOM      7  C6  UNL d   1      -1.115   1.787   1.342  0.00  0.00     0.077 C 
ATOM      8  C7  UNL d   1       0.783   0.493   0.326  0.00  0.00    -0.001 A 
ENDROOT
TORSDOF 0
ENDMDL
