MODEL 1
REMARK minimizedAffinity -0.743024468
REMARK minimizedRMSD -1
REMARK  0 active torsions:
REMARK  status: ('A' for Active; 'I' for Inactive)
ROOT
ATOM      1  C   UNL d   1      -1.223   0.683   0.598  0.00  0.00     0.077 C 
ATOM      2  C1  UNL d   1      -0.176   0.817  -0.468  0.00  0.00    -0.074 A 
ATOM      3  C2  UNL d   1      -0.024   2.011  -1.179  0.00  0.00    -0.005 A 
ATOM      4  C3  UNL d   1       0.960   2.124  -2.161  0.00  0.00     0.006 A 
ATOM      5  C4  UNL d   1       1.800   1.046  -2.442  0.00  0.00    -0.005 A 
ATOM      6  C5  UNL d   1       1.663  -0.156  -1.740  0.00  0.00    -0.074 A 
ATOM      7  C6  UNL d   1       2.564  -1.322  -2.023  0.00  0.00     0.077 C 
ATOM      8  C7  UNL d   1       0.676  -0.260  -0.750  0.00  0.00    -0.001 A 
ENDROOT
TORSDOF 0
ENDMDL
