MODEL 1
REMARK minimizedAffinity -5.23781967
REMARK minimizedRMSD -1
REMARK  0 active torsions:
REMARK  status: ('A' for Active; 'I' for Inactive)
ROOT
ATOM      1  C   UNL d   1       1.769   2.883  -2.588  0.00  0.00     0.077 C 
ATOM      2  C1  UNL d   1       1.965   1.485  -2.081  0.00  0.00    -0.074 A 
ATOM      3  C2  UNL d   1       3.111   0.754  -2.411  0.00  0.00    -0.005 A 
ATOM      4  C3  UNL d   1       3.283  -0.541  -1.924  0.00  0.00     0.006 A 
ATOM      5  C4  UNL d   1       2.314  -1.118  -1.103  0.00  0.00    -0.005 A 
ATOM      6  C5  UNL d   1       1.162  -0.402  -0.761  0.00  0.00    -0.074 A 
ATOM      7  C6  UNL d   1       0.115  -1.004   0.129  0.00  0.00     0.077 C 
ATOM      8  C7  UNL d   1       0.999   0.901  -1.249  0.00  0.00    -0.001 A 
ENDROOT
TORSDOF 0
ENDMDL
