MODEL 1
REMARK minimizedAffinity -5.95225
REMARK minimizedRMSD -1
REMARK  0 active torsions:
REMARK  status: ('A' for Active; 'I' for Inactive)
ROOT
ATOM      1  C   UNL d   1       2.536   2.371  -2.710  0.00  0.00     0.077 C 
ATOM      2  C1  UNL d   1       2.217   1.166  -1.875  0.00  0.00    -0.074 A 
ATOM      3  C2  UNL d   1       3.080   0.066  -1.841  0.00  0.00    -0.005 A 
ATOM      4  C3  UNL d   1       2.774  -1.043  -1.052  0.00  0.00     0.006 A 
ATOM      5  C4  UNL d   1       1.605  -1.064  -0.292  0.00  0.00    -0.005 A 
ATOM      6  C5  UNL d   1       0.730   0.027  -0.313  0.00  0.00    -0.074 A 
ATOM      7  C6  UNL d   1      -0.527   0.025   0.505  0.00  0.00     0.077 C 
ATOM      8  C7  UNL d   1       1.047   1.141  -1.103  0.00  0.00    -0.001 A 
ENDROOT
TORSDOF 0
ENDMDL
