MODEL 1
REMARK minimizedAffinity -3.5688684
REMARK minimizedRMSD -1
REMARK  0 active torsions:
REMARK  status: ('A' for Active; 'I' for Inactive)
ROOT
ATOM      1  C   UNL d   1       1.175   2.113  -2.470  0.00  0.00     0.077 C 
ATOM      2  C1  UNL d   1       0.895   0.901  -1.631  0.00  0.00    -0.074 A 
ATOM      3  C2  UNL d   1       1.673  -0.254  -1.754  0.00  0.00    -0.005 A 
ATOM      4  C3  UNL d   1       1.406  -1.370  -0.961  0.00  0.00     0.006 A 
ATOM      5  C4  UNL d   1       0.360  -1.341  -0.038  0.00  0.00    -0.005 A 
ATOM      6  C5  UNL d   1      -0.428  -0.195   0.100  0.00  0.00    -0.074 A 
ATOM      7  C6  UNL d   1      -1.550  -0.144   1.094  0.00  0.00     0.077 C 
ATOM      8  C7  UNL d   1      -0.149   0.925  -0.696  0.00  0.00    -0.001 A 
ENDROOT
TORSDOF 0
ENDMDL
