MODEL 1
REMARK minimizedAffinity -3.47257209
REMARK minimizedRMSD -1
REMARK  0 active torsions:
REMARK  status: ('A' for Active; 'I' for Inactive)
ROOT
ATOM      1  C   UNL d   1      -1.512   0.042   1.078  0.00  0.00     0.077 C 
ATOM      2  C1  UNL d   1      -0.537   0.568   0.067  0.00  0.00    -0.074 A 
ATOM      3  C2  UNL d   1      -0.858   1.667  -0.737  0.00  0.00    -0.005 A 
ATOM      4  C3  UNL d   1       0.063   2.151  -1.666  0.00  0.00     0.006 A 
ATOM      5  C4  UNL d   1       1.311   1.542  -1.800  0.00  0.00    -0.005 A 
ATOM      6  C5  UNL d   1       1.650   0.444  -1.004  0.00  0.00    -0.074 A 
ATOM      7  C6  UNL d   1       2.991  -0.216  -1.129  0.00  0.00     0.077 C 
ATOM      8  C7  UNL d   1       0.722  -0.033  -0.068  0.00  0.00    -0.001 A 
ENDROOT
TORSDOF 0
ENDMDL
