MODEL 1
REMARK minimizedAffinity -5.67940331
REMARK minimizedRMSD -1
REMARK  0 active torsions:
REMARK  status: ('A' for Active; 'I' for Inactive)
ROOT
ATOM      1  C   UNL d   1      -0.828   0.432   0.263  0.00  0.00     0.077 C 
ATOM      2  C1  UNL d   1       0.408   0.332  -0.581  0.00  0.00    -0.074 A 
ATOM      3  C2  UNL d   1       1.561  -0.295  -0.097  0.00  0.00    -0.005 A 
ATOM      4  C3  UNL d   1       2.699  -0.389  -0.898  0.00  0.00     0.006 A 
ATOM      5  C4  UNL d   1       2.697   0.144  -2.187  0.00  0.00    -0.005 A 
ATOM      6  C5  UNL d   1       1.554   0.774  -2.688  0.00  0.00    -0.074 A 
ATOM      7  C6  UNL d   1       1.532   1.343  -4.076  0.00  0.00     0.077 C 
ATOM      8  C7  UNL d   1       0.411   0.858  -1.881  0.00  0.00    -0.001 A 
ENDROOT
TORSDOF 0
ENDMDL
