MODEL 1
REMARK minimizedAffinity -4.24811792
REMARK minimizedRMSD -1
REMARK  0 active torsions:
REMARK  status: ('A' for Active; 'I' for Inactive)
ROOT
ATOM      1  C   UNL d   1       3.085  -0.290  -1.102  0.00  0.00     0.077 C 
ATOM      2  C1  UNL d   1       1.694  -0.634  -0.659  0.00  0.00    -0.074 A 
ATOM      3  C2  UNL d   1       1.356  -1.943  -0.303  0.00  0.00    -0.005 A 
ATOM      4  C3  UNL d   1       0.061  -2.246   0.116  0.00  0.00     0.006 A 
ATOM      5  C4  UNL d   1      -0.909  -1.245   0.183  0.00  0.00    -0.005 A 
ATOM      6  C5  UNL d   1      -0.589   0.071  -0.168  0.00  0.00    -0.074 A 
ATOM      7  C6  UNL d   1      -1.616   1.161  -0.092  0.00  0.00     0.077 C 
ATOM      8  C7  UNL d   1       0.716   0.369  -0.582  0.00  0.00    -0.001 A 
ENDROOT
TORSDOF 0
ENDMDL
