MODEL 1
REMARK minimizedAffinity -4.33122015
REMARK minimizedRMSD -1
REMARK  0 active torsions:
REMARK  status: ('A' for Active; 'I' for Inactive)
ROOT
ATOM      1  C2' OXE d   1       0.713  -0.949   2.137  0.00  0.00     0.078 C 
ATOM      2  C1' OXE d   1       0.674  -0.845  -0.668  0.00  0.00     0.078 C 
ATOM      3  C1  OXE d   1      -0.202   0.126   0.084  0.00  0.00    -0.078 A 
ATOM      4  C2  OXE d   1      -0.211   0.037   1.456  0.00  0.00    -0.078 A 
ATOM      5  C3  OXE d   1      -0.959   0.945   2.200  0.00  0.00     0.003 A 
ATOM      6  C4  OXE d   1      -1.819   1.847   1.562  0.00  0.00    -0.002 A 
ATOM      7  C5  OXE d   1      -1.855   1.927   0.166  0.00  0.00    -0.002 A 
ATOM      8  C6  OXE d   1      -1.022   1.105  -0.585  0.00  0.00     0.003 A 
ENDROOT
TORSDOF 0
ENDMDL
