MODEL 1
REMARK minimizedAffinity -2.28897405
REMARK minimizedRMSD -1
REMARK  0 active torsions:
REMARK  status: ('A' for Active; 'I' for Inactive)
ROOT
ATOM      1  C2' OXE d   1      -0.202   1.380  -1.006  0.00  0.00     0.078 C 
ATOM      2  C1' OXE d   1      -2.156   1.804   0.965  0.00  0.00     0.078 C 
ATOM      3  C1  OXE d   1      -1.057   0.815   1.265  0.00  0.00    -0.078 A 
ATOM      4  C2  OXE d   1      -0.132   0.579   0.277  0.00  0.00    -0.078 A 
ATOM      5  C3  OXE d   1       0.934  -0.283   0.521  0.00  0.00     0.003 A 
ATOM      6  C4  OXE d   1       0.986  -1.027   1.706  0.00  0.00    -0.002 A 
ATOM      7  C5  OXE d   1       0.031  -0.831   2.710  0.00  0.00    -0.002 A 
ATOM      8  C6  OXE d   1      -0.970   0.115   2.523  0.00  0.00     0.003 A 
ENDROOT
TORSDOF 0
ENDMDL
