MODEL 1
REMARK minimizedAffinity -6.26456881
REMARK minimizedRMSD -1
REMARK  0 active torsions:
REMARK  status: ('A' for Active; 'I' for Inactive)
ROOT
ATOM      1  C2' OXE d   1       0.908   0.443  -0.694  0.00  0.00     0.078 C 
ATOM      2  C1' OXE d   1       0.468   3.192  -1.049  0.00  0.00     0.078 C 
ATOM      3  C1  OXE d   1      -0.384   2.468  -0.037  0.00  0.00    -0.078 A 
ATOM      4  C2  OXE d   1      -0.194   1.114   0.097  0.00  0.00    -0.078 A 
ATOM      5  C3  OXE d   1      -0.916   0.407   1.054  0.00  0.00     0.003 A 
ATOM      6  C4  OXE d   1      -1.940   1.033   1.774  0.00  0.00    -0.002 A 
ATOM      7  C5  OXE d   1      -2.178   2.404   1.625  0.00  0.00    -0.002 A 
ATOM      8  C6  OXE d   1      -1.382   3.143   0.757  0.00  0.00     0.003 A 
ENDROOT
TORSDOF 0
ENDMDL
