MODEL 1
REMARK minimizedAffinity -2.80799747
REMARK minimizedRMSD -1
REMARK  0 active torsions:
REMARK  status: ('A' for Active; 'I' for Inactive)
ROOT
ATOM      1  C2' OXE d   1       2.580  -2.966  -1.840  0.00  0.00     0.078 C 
ATOM      2  C1' OXE d   1      -0.178  -3.120  -2.339  0.00  0.00     0.078 C 
ATOM      3  C1  OXE d   1       0.316  -1.998  -1.461  0.00  0.00    -0.078 A 
ATOM      4  C2  OXE d   1       1.661  -1.957  -1.184  0.00  0.00    -0.078 A 
ATOM      5  C3  OXE d   1       2.177  -0.911  -0.425  0.00  0.00     0.003 A 
ATOM      6  C4  OXE d   1       1.320   0.011   0.186  0.00  0.00    -0.002 A 
ATOM      7  C5  OXE d   1      -0.058  -0.035  -0.050  0.00  0.00    -0.002 A 
ATOM      8  C6  OXE d   1      -0.570  -1.006  -0.904  0.00  0.00     0.003 A 
ENDROOT
TORSDOF 0
ENDMDL
