MODEL 1
REMARK minimizedAffinity -4.39663363
REMARK minimizedRMSD -1
REMARK  0 active torsions:
REMARK  status: ('A' for Active; 'I' for Inactive)
ROOT
ATOM      1  C2' OXE d   1       0.401   0.428  -1.528  0.00  0.00     0.078 C 
ATOM      2  C1' OXE d   1       0.930  -0.511   1.064  0.00  0.00     0.078 C 
ATOM      3  C1  OXE d   1      -0.265   0.388   0.872  0.00  0.00    -0.078 A 
ATOM      4  C2  OXE d   1      -0.489   0.881  -0.391  0.00  0.00    -0.078 A 
ATOM      5  C3  OXE d   1      -1.610   1.671  -0.634  0.00  0.00     0.003 A 
ATOM      6  C4  OXE d   1      -2.423   2.093   0.424  0.00  0.00    -0.002 A 
ATOM      7  C5  OXE d   1      -2.189   1.635   1.725  0.00  0.00    -0.002 A 
ATOM      8  C6  OXE d   1      -1.142   0.750   1.958  0.00  0.00     0.003 A 
ENDROOT
TORSDOF 0
ENDMDL
