MODEL 1
REMARK minimizedAffinity -6.16277075
REMARK minimizedRMSD -1
REMARK  0 active torsions:
REMARK  status: ('A' for Active; 'I' for Inactive)
ROOT
ATOM      1  C2' OXE d   1       0.990   0.376  -0.602  0.00  0.00     0.078 C 
ATOM      2  C1' OXE d   1       0.380   3.083  -1.022  0.00  0.00     0.078 C 
ATOM      3  C1  OXE d   1      -0.410   2.338   0.025  0.00  0.00    -0.078 A 
ATOM      4  C2  OXE d   1      -0.136   1.002   0.192  0.00  0.00    -0.078 A 
ATOM      5  C3  OXE d   1      -0.797   0.281   1.182  0.00  0.00     0.003 A 
ATOM      6  C4  OXE d   1      -1.845   0.865   1.904  0.00  0.00    -0.002 A 
ATOM      7  C5  OXE d   1      -2.166   2.215   1.722  0.00  0.00    -0.002 A 
ATOM      8  C6  OXE d   1      -1.432   2.975   0.819  0.00  0.00     0.003 A 
ENDROOT
TORSDOF 0
ENDMDL
