MODEL 1
REMARK minimizedAffinity -5.52063799
REMARK minimizedRMSD -1
REMARK  0 active torsions:
REMARK  status: ('A' for Active; 'I' for Inactive)
ROOT
ATOM      1  C2' OXE d   1       0.194  -0.785   2.235  0.00  0.00     0.078 C 
ATOM      2  C1' OXE d   1       1.113  -0.373  -0.385  0.00  0.00     0.078 C 
ATOM      3  C1  OXE d   1       0.203   0.670   0.213  0.00  0.00    -0.078 A 
ATOM      4  C2  OXE d   1      -0.280   0.438   1.478  0.00  0.00    -0.078 A 
ATOM      5  C3  OXE d   1      -1.079   1.394   2.097  0.00  0.00     0.003 A 
ATOM      6  C4  OXE d   1      -1.521   2.517   1.387  0.00  0.00    -0.002 A 
ATOM      7  C5  OXE d   1      -1.073   2.753   0.083  0.00  0.00    -0.002 A 
ATOM      8  C6  OXE d   1      -0.179   1.863  -0.502  0.00  0.00     0.003 A 
ENDROOT
TORSDOF 0
ENDMDL
