MODEL 1
REMARK minimizedAffinity -6.25008965
REMARK minimizedRMSD -1
REMARK  0 active torsions:
REMARK  status: ('A' for Active; 'I' for Inactive)
ROOT
ATOM      1  C2' OXE d   1      -0.601   3.769  -1.036  0.00  0.00     0.078 C 
ATOM      2  C1' OXE d   1       0.822   1.462  -1.765  0.00  0.00     0.078 C 
ATOM      3  C1  OXE d   1       0.144   1.474  -0.417  0.00  0.00    -0.078 A 
ATOM      4  C2  OXE d   1      -0.511   2.625  -0.050  0.00  0.00    -0.078 A 
ATOM      5  C3  OXE d   1      -1.199   2.670   1.159  0.00  0.00     0.003 A 
ATOM      6  C4  OXE d   1      -1.102   1.611   2.070  0.00  0.00    -0.002 A 
ATOM      7  C5  OXE d   1      -0.407   0.445   1.732  0.00  0.00    -0.002 A 
ATOM      8  C6  OXE d   1       0.185   0.344   0.478  0.00  0.00     0.003 A 
ENDROOT
TORSDOF 0
ENDMDL
