MODEL 1
REMARK minimizedAffinity -5.93245602
REMARK minimizedRMSD -1
REMARK  0 active torsions:
REMARK  status: ('A' for Active; 'I' for Inactive)
ROOT
ATOM      1  C2' OXE d   1      -1.850   3.737   0.860  0.00  0.00     0.078 C 
ATOM      2  C1' OXE d   1      -0.081   3.146  -1.237  0.00  0.00     0.078 C 
ATOM      3  C1  OXE d   1      -0.464   2.025  -0.303  0.00  0.00    -0.078 A 
ATOM      4  C2  OXE d   1      -1.294   2.334   0.748  0.00  0.00    -0.078 A 
ATOM      5  C3  OXE d   1      -1.722   1.327   1.607  0.00  0.00     0.003 A 
ATOM      6  C4  OXE d   1      -1.194   0.034   1.502  0.00  0.00    -0.002 A 
ATOM      7  C5  OXE d   1      -0.317  -0.293   0.463  0.00  0.00    -0.002 A 
ATOM      8  C6  OXE d   1       0.024   0.679  -0.472  0.00  0.00     0.003 A 
ENDROOT
TORSDOF 0
ENDMDL
