MODEL 1
REMARK minimizedAffinity -3.62285805
REMARK minimizedRMSD -1
REMARK  0 active torsions:
REMARK  status: ('A' for Active; 'I' for Inactive)
ROOT
ATOM      1  C2' OXE d   1       0.544  -0.689  -0.240  0.00  0.00     0.078 C 
ATOM      2  C1' OXE d   1      -0.756  -1.279   2.177  0.00  0.00     0.078 C 
ATOM      3  C1  OXE d   1      -1.006   0.073   1.556  0.00  0.00    -0.078 A 
ATOM      4  C2  OXE d   1      -0.329   0.371   0.398  0.00  0.00    -0.078 A 
ATOM      5  C3  OXE d   1      -0.565   1.582  -0.246  0.00  0.00     0.003 A 
ATOM      6  C4  OXE d   1      -1.366   2.560   0.356  0.00  0.00    -0.002 A 
ATOM      7  C5  OXE d   1      -2.033   2.292   1.556  0.00  0.00    -0.002 A 
ATOM      8  C6  OXE d   1      -1.898   1.040   2.146  0.00  0.00     0.003 A 
ENDROOT
TORSDOF 0
ENDMDL
