MODEL 1
REMARK minimizedAffinity -0.0968359336
REMARK minimizedRMSD -1
REMARK  0 active torsions:
REMARK  status: ('A' for Active; 'I' for Inactive)
ROOT
ATOM      1  C2' OXE d   1      -0.257  -2.100  -1.776  0.00  0.00     0.078 C 
ATOM      2  C1' OXE d   1       1.779  -0.561  -0.608  0.00  0.00     0.078 C 
ATOM      3  C1  OXE d   1       0.454  -0.637   0.110  0.00  0.00    -0.078 A 
ATOM      4  C2  OXE d   1      -0.551  -1.354  -0.493  0.00  0.00    -0.078 A 
ATOM      5  C3  OXE d   1      -1.775  -1.502   0.153  0.00  0.00     0.003 A 
ATOM      6  C4  OXE d   1      -2.042  -0.800   1.335  0.00  0.00    -0.002 A 
ATOM      7  C5  OXE d   1      -1.045  -0.032   1.945  0.00  0.00    -0.002 A 
ATOM      8  C6  OXE d   1       0.219   0.026   1.369  0.00  0.00     0.003 A 
ENDROOT
TORSDOF 0
ENDMDL
