MODEL 1
REMARK minimizedAffinity -3.39106321
REMARK minimizedRMSD -1
REMARK  0 active torsions:
REMARK  status: ('A' for Active; 'I' for Inactive)
ROOT
ATOM      1  C2' OXE d   1      -0.538  -0.989   2.238  0.00  0.00     0.078 C 
ATOM      2  C1' OXE d   1      -1.186   1.741   2.166  0.00  0.00     0.078 C 
ATOM      3  C1  OXE d   1      -0.359   1.185   1.035  0.00  0.00    -0.078 A 
ATOM      4  C2  OXE d   1      -0.006  -0.142   1.102  0.00  0.00    -0.078 A 
ATOM      5  C3  OXE d   1       0.710  -0.719   0.057  0.00  0.00     0.003 A 
ATOM      6  C4  OXE d   1       1.206   0.074  -0.985  0.00  0.00    -0.002 A 
ATOM      7  C5  OXE d   1       0.893   1.436  -1.052  0.00  0.00    -0.002 A 
ATOM      8  C6  OXE d   1       0.078   1.996  -0.075  0.00  0.00     0.003 A 
ENDROOT
TORSDOF 0
ENDMDL
