MODEL 1
REMARK minimizedAffinity -4.93776703
REMARK minimizedRMSD -1
REMARK  0 active torsions:
REMARK  status: ('A' for Active; 'I' for Inactive)
ROOT
ATOM      1  C2' OXE d   1       1.437   0.074  -1.172  0.00  0.00     0.078 C 
ATOM      2  C1' OXE d   1       0.247   2.616  -1.112  0.00  0.00     0.078 C 
ATOM      3  C1  OXE d   1      -0.146   1.630  -0.041  0.00  0.00    -0.078 A 
ATOM      4  C2  OXE d   1       0.406   0.374  -0.105  0.00  0.00    -0.078 A 
ATOM      5  C3  OXE d   1       0.120  -0.557   0.890  0.00  0.00     0.003 A 
ATOM      6  C4  OXE d   1      -0.842  -0.275   1.868  0.00  0.00    -0.002 A 
ATOM      7  C5  OXE d   1      -1.446   0.985   1.928  0.00  0.00    -0.002 A 
ATOM      8  C6  OXE d   1      -1.078   1.961   1.009  0.00  0.00     0.003 A 
ENDROOT
TORSDOF 0
ENDMDL
