MODEL 1
REMARK minimizedAffinity -5.55829763
REMARK minimizedRMSD -1
REMARK  0 active torsions:
REMARK  status: ('A' for Active; 'I' for Inactive)
ROOT
ATOM      1  C2' OXE d   1       0.639   0.284  -0.778  0.00  0.00     0.078 C 
ATOM      2  C1' OXE d   1       0.436   3.019  -1.374  0.00  0.00     0.078 C 
ATOM      3  C1  OXE d   1      -0.418   2.478  -0.255  0.00  0.00    -0.078 A 
ATOM      4  C2  OXE d   1      -0.347   1.129  -0.001  0.00  0.00    -0.078 A 
ATOM      5  C3  OXE d   1      -1.072   0.588   1.057  0.00  0.00     0.003 A 
ATOM      6  C4  OXE d   1      -1.989   1.375   1.764  0.00  0.00    -0.002 A 
ATOM      7  C5  OXE d   1      -2.106   2.743   1.495  0.00  0.00    -0.002 A 
ATOM      8  C6  OXE d   1      -1.299   3.317   0.519  0.00  0.00     0.003 A 
ENDROOT
TORSDOF 0
ENDMDL
