MODEL 1
REMARK minimizedAffinity -5.0951395
REMARK minimizedRMSD -1
REMARK  0 active torsions:
REMARK  status: ('A' for Active; 'I' for Inactive)
ROOT
ATOM      1  C2' OXE d   1       0.610  -1.139  -0.513  0.00  0.00     0.078 C 
ATOM      2  C1' OXE d   1      -0.263  -1.583   2.118  0.00  0.00     0.078 C 
ATOM      3  C1  OXE d   1      -0.595  -0.256   1.481  0.00  0.00    -0.078 A 
ATOM      4  C2  OXE d   1      -0.123  -0.030   0.211  0.00  0.00    -0.078 A 
ATOM      5  C3  OXE d   1      -0.447   1.156  -0.444  0.00  0.00     0.003 A 
ATOM      6  C4  OXE d   1      -1.117   2.180   0.236  0.00  0.00    -0.002 A 
ATOM      7  C5  OXE d   1      -1.572   1.985   1.545  0.00  0.00    -0.002 A 
ATOM      8  C6  OXE d   1      -1.356   0.760   2.165  0.00  0.00     0.003 A 
ENDROOT
TORSDOF 0
ENDMDL
