MODEL 1
REMARK minimizedAffinity -2.42068052
REMARK minimizedRMSD -1
REMARK  0 active torsions:
REMARK  status: ('A' for Active; 'I' for Inactive)
ROOT
ATOM      1  C2' OXE d   1       1.156  -0.933  -0.357  0.00  0.00     0.078 C 
ATOM      2  C1' OXE d   1       1.758  -0.253   2.299  0.00  0.00     0.078 C 
ATOM      3  C1  OXE d   1       0.423   0.181   1.747  0.00  0.00    -0.078 A 
ATOM      4  C2  OXE d   1       0.156  -0.116   0.432  0.00  0.00    -0.078 A 
ATOM      5  C3  OXE d   1      -1.083   0.213  -0.111  0.00  0.00     0.003 A 
ATOM      6  C4  OXE d   1      -1.998   0.978   0.622  0.00  0.00    -0.002 A 
ATOM      7  C5  OXE d   1      -1.729   1.325   1.950  0.00  0.00    -0.002 A 
ATOM      8  C6  OXE d   1      -0.544   0.899   2.540  0.00  0.00     0.003 A 
ENDROOT
TORSDOF 0
ENDMDL
