MODEL 1
REMARK minimizedAffinity -4.42033434
REMARK minimizedRMSD -1
REMARK  0 active torsions:
REMARK  status: ('A' for Active; 'I' for Inactive)
ROOT
ATOM      1  C2' OXE d   1      -0.769  -1.107   1.755  0.00  0.00     0.078 C 
ATOM      2  C1' OXE d   1       0.589  -0.777  -0.679  0.00  0.00     0.078 C 
ATOM      3  C1  OXE d   1      -0.046   0.442  -0.056  0.00  0.00    -0.078 A 
ATOM      4  C2  OXE d   1      -0.748   0.262   1.111  0.00  0.00    -0.078 A 
ATOM      5  C3  OXE d   1      -1.306   1.362   1.756  0.00  0.00     0.003 A 
ATOM      6  C4  OXE d   1      -1.290   2.623   1.149  0.00  0.00    -0.002 A 
ATOM      7  C5  OXE d   1      -0.615   2.820  -0.060  0.00  0.00    -0.002 A 
ATOM      8  C6  OXE d   1       0.048   1.751  -0.653  0.00  0.00     0.003 A 
ENDROOT
TORSDOF 0
ENDMDL
