MODEL 1
REMARK minimizedAffinity -2.69504619
REMARK minimizedRMSD -1
REMARK  0 active torsions:
REMARK  status: ('A' for Active; 'I' for Inactive)
ROOT
ATOM      1  C2' OXE d   1      -0.135  -0.833  -0.785  0.00  0.00     0.078 C 
ATOM      2  C1' OXE d   1       0.814  -0.483   1.833  0.00  0.00     0.078 C 
ATOM      3  C1  OXE d   1      -0.343   0.375   1.383  0.00  0.00    -0.078 A 
ATOM      4  C2  OXE d   1      -0.770   0.229   0.085  0.00  0.00    -0.078 A 
ATOM      5  C3  OXE d   1      -1.868   0.956  -0.364  0.00  0.00     0.003 A 
ATOM      6  C4  OXE d   1      -2.444   1.944   0.444  0.00  0.00    -0.002 A 
ATOM      7  C5  OXE d   1      -1.998   2.136   1.756  0.00  0.00    -0.002 A 
ATOM      8  C6  OXE d   1      -0.979   1.332   2.254  0.00  0.00     0.003 A 
ENDROOT
TORSDOF 0
ENDMDL
