MODEL 1
REMARK minimizedAffinity 6.25620747
REMARK minimizedRMSD -1
REMARK  1 active torsions:
REMARK  status: ('A' for Active; 'I' for Inactive)
REMARK    1  A    between atoms: N_2  and  C1_3 
ROOT
ATOM      1  C1  UNL d   1       3.401  -5.837  -3.673  0.00  0.00     0.143 A 
ATOM      2  C2  UNL d   1       2.397  -5.726  -2.705  0.00  0.00    -0.057 A 
ATOM      3  C3  UNL d   1       2.705  -5.711  -1.339  0.00  0.00     0.033 A 
ATOM      4  C4  UNL d   1       4.024  -5.836  -0.915  0.00  0.00    -0.042 A 
ATOM      5  C5  UNL d   1       5.035  -5.972  -1.859  0.00  0.00     0.033 A 
ATOM      6  C6  UNL d   1       4.722  -5.980  -3.222  0.00  0.00    -0.057 A 
ENDROOT
BRANCH   1   7
ATOM      7  N   UNL d   1       3.151  -5.957  -5.042  0.00  0.00    -0.732 N 
ATOM      8  C   UNL d   1       1.800  -5.871  -5.556  0.00  0.00     0.284 C 
ATOM      9  H3  UNL d   1       3.842  -5.469  -5.608  0.00  0.00     0.395 HD
ENDBRANCH   1   7
TORSDOF 1
ENDMDL
