MODEL 1
REMARK minimizedAffinity -0.974652946
REMARK minimizedRMSD -1
REMARK  1 active torsions:
REMARK  status: ('A' for Active; 'I' for Inactive)
REMARK    1  A    between atoms: N_2  and  C1_3 
ROOT
ATOM      1  C1  UNL d   1       2.291  -0.991   2.394  0.00  0.00     0.143 A 
ATOM      2  C2  UNL d   1       1.640  -2.032   1.723  0.00  0.00    -0.057 A 
ATOM      3  C3  UNL d   1       1.125  -3.133   2.418  0.00  0.00     0.033 A 
ATOM      4  C4  UNL d   1       1.277  -3.226   3.798  0.00  0.00    -0.042 A 
ATOM      5  C5  UNL d   1       1.943  -2.215   4.482  0.00  0.00     0.033 A 
ATOM      6  C6  UNL d   1       2.449  -1.115   3.783  0.00  0.00    -0.057 A 
ENDROOT
BRANCH   1   7
ATOM      7  N   UNL d   1       2.911   0.082   1.748  0.00  0.00    -0.732 N 
ATOM      8  C   UNL d   1       2.495   1.442   2.014  0.00  0.00     0.284 C 
ATOM      9  H3  UNL d   1       3.919  -0.038   1.677  0.00  0.00     0.395 HD
ENDBRANCH   1   7
TORSDOF 1
ENDMDL
