MODEL 1
REMARK minimizedAffinity 5.75045872
REMARK minimizedRMSD -1
REMARK  1 active torsions:
REMARK  status: ('A' for Active; 'I' for Inactive)
REMARK    1  A    between atoms: N_2  and  C1_3 
ROOT
ATOM      1  C1  UNL d   1      -2.792   0.127  -2.584  0.00  0.00     0.143 A 
ATOM      2  C2  UNL d   1      -2.243  -0.120  -1.321  0.00  0.00    -0.057 A 
ATOM      3  C3  UNL d   1      -2.059   0.913  -0.394  0.00  0.00     0.033 A 
ATOM      4  C4  UNL d   1      -2.396   2.221  -0.725  0.00  0.00    -0.042 A 
ATOM      5  C5  UNL d   1      -2.920   2.494  -1.984  0.00  0.00     0.033 A 
ATOM      6  C6  UNL d   1      -3.108   1.457  -2.903  0.00  0.00    -0.057 A 
ENDROOT
BRANCH   1   7
ATOM      7  N   UNL d   1      -2.909  -0.840  -3.585  0.00  0.00    -0.732 N 
ATOM      8  C   UNL d   1      -3.496  -2.131  -3.297  0.00  0.00     0.284 C 
ATOM      9  H3  UNL d   1      -3.193  -0.444  -4.477  0.00  0.00     0.395 HD
ENDBRANCH   1   7
TORSDOF 1
ENDMDL
