MODEL 1
REMARK minimizedAffinity 4.77850294
REMARK minimizedRMSD -1
REMARK  1 active torsions:
REMARK  status: ('A' for Active; 'I' for Inactive)
REMARK    1  A    between atoms: N_2  and  C1_3 
ROOT
ATOM      1  C1  UNL d   1      -3.859   3.060  -0.838  0.00  0.00     0.143 A 
ATOM      2  C2  UNL d   1      -5.227   3.347  -0.794  0.00  0.00    -0.057 A 
ATOM      3  C3  UNL d   1      -5.942   3.295   0.408  0.00  0.00     0.033 A 
ATOM      4  C4  UNL d   1      -5.305   2.925   1.588  0.00  0.00    -0.042 A 
ATOM      5  C5  UNL d   1      -3.951   2.612   1.564  0.00  0.00     0.033 A 
ATOM      6  C6  UNL d   1      -3.241   2.672   0.361  0.00  0.00    -0.057 A 
ENDROOT
BRANCH   1   7
ATOM      7  N   UNL d   1      -3.114   2.999  -2.018  0.00  0.00    -0.732 N 
ATOM      8  C   UNL d   1      -3.067   1.780  -2.797  0.00  0.00     0.284 C 
ATOM      9  H3  UNL d   1      -3.199   3.845  -2.576  0.00  0.00     0.395 HD
ENDBRANCH   1   7
TORSDOF 1
ENDMDL
