MODEL 1
REMARK minimizedAffinity 19.2399368
REMARK minimizedRMSD -1
REMARK  2 active torsions:
REMARK  status: ('A' for Active; 'I' for Inactive)
REMARK    1  A    between atoms: C2'_3  and  C1'_4 
REMARK    2  A    between atoms: C1'_4  and  C1_5 
ROOT
ATOM      1  C1  I4B d   1      -1.323   4.981  -1.217  0.00  0.00    -0.075 A 
ATOM      2  C2  I4B d   1      -0.934   3.674  -1.059  0.00  0.00     0.003 A 
ATOM      3  C3  I4B d   1       0.436   3.351  -0.911  0.00  0.00     0.002 A 
ATOM      4  C4  I4B d   1       1.382   4.354  -0.978  0.00  0.00    -0.004 A 
ATOM      5  C5  I4B d   1       0.985   5.680  -1.116  0.00  0.00     0.002 A 
ATOM      6  C6  I4B d   1      -0.377   5.998  -1.224  0.00  0.00     0.003 A 
ENDROOT
BRANCH   1   7
ATOM      7  C1' I4B d   1      -2.776   5.284  -1.404  0.00  0.00     0.060 C 
BRANCH   7   8
ATOM      8  C2' I4B d   1      -3.328   4.310  -2.424  0.00  0.00    -0.013 C 
ATOM      9  C4' I4B d   1      -4.813   4.122  -2.251  0.00  0.00     0.013 C 
ATOM     10  C3' I4B d   1      -3.006   4.838  -3.790  0.00  0.00     0.013 C 
ENDBRANCH   7   8
ENDBRANCH   1   7
TORSDOF 2
ENDMDL
