MODEL 1
REMARK minimizedAffinity 10.4512167
REMARK minimizedRMSD -1
REMARK  2 active torsions:
REMARK  status: ('A' for Active; 'I' for Inactive)
REMARK    1  A    between atoms: C2'_3  and  C1'_4 
REMARK    2  A    between atoms: C1'_4  and  C1_5 
ROOT
ATOM      1  C1  I4B d   1      -1.592   4.995  -1.176  0.00  0.00    -0.075 A 
ATOM      2  C2  I4B d   1      -2.567   4.817  -2.126  0.00  0.00     0.003 A 
ATOM      3  C3  I4B d   1      -3.893   5.246  -1.877  0.00  0.00     0.002 A 
ATOM      4  C4  I4B d   1      -4.209   5.799  -0.653  0.00  0.00    -0.004 A 
ATOM      5  C5  I4B d   1      -3.215   6.000   0.301  0.00  0.00     0.002 A 
ATOM      6  C6  I4B d   1      -1.896   5.607   0.034  0.00  0.00     0.003 A 
ENDROOT
BRANCH   1   7
ATOM      7  C1' I4B d   1      -0.210   4.500  -1.459  0.00  0.00     0.060 C 
BRANCH   7   8
ATOM      8  C2' I4B d   1      -0.142   3.043  -1.049  0.00  0.00    -0.013 C 
ATOM      9  C4' I4B d   1      -0.324   2.887   0.438  0.00  0.00     0.013 C 
ATOM     10  C3' I4B d   1      -1.202   2.299  -1.805  0.00  0.00     0.013 C 
ENDBRANCH   7   8
ENDBRANCH   1   7
TORSDOF 2
ENDMDL
