MODEL 1
REMARK minimizedAffinity 11.1847477
REMARK minimizedRMSD -1
REMARK  2 active torsions:
REMARK  status: ('A' for Active; 'I' for Inactive)
REMARK    1  A    between atoms: C2'_3  and  C1'_4 
REMARK    2  A    between atoms: C1'_4  and  C1_5 
ROOT
ATOM      1  C1  I4B d   1      -1.786   2.045  -1.383  0.00  0.00    -0.075 A 
ATOM      2  C2  I4B d   1      -2.791   2.310  -2.279  0.00  0.00     0.003 A 
ATOM      3  C3  I4B d   1      -4.008   1.588  -2.220  0.00  0.00     0.002 A 
ATOM      4  C4  I4B d   1      -4.157   0.582  -1.286  0.00  0.00    -0.004 A 
ATOM      5  C5  I4B d   1      -3.145   0.331  -0.364  0.00  0.00     0.002 A 
ATOM      6  C6  I4B d   1      -1.957   1.075  -0.404  0.00  0.00     0.003 A 
ENDROOT
BRANCH   1   7
ATOM      7  C1' I4B d   1      -0.502   2.803  -1.496  0.00  0.00     0.060 C 
BRANCH   7   8
ATOM      8  C2' I4B d   1      -0.464   3.825  -0.377  0.00  0.00    -0.013 C 
ATOM      9  C4' I4B d   1      -1.290   5.037  -0.718  0.00  0.00     0.013 C 
ATOM     10  C3' I4B d   1      -0.963   3.163   0.872  0.00  0.00     0.013 C 
ENDBRANCH   7   8
ENDBRANCH   1   7
TORSDOF 2
ENDMDL
