MODEL 1
REMARK minimizedAffinity 19.223875
REMARK minimizedRMSD -1
REMARK  2 active torsions:
REMARK  status: ('A' for Active; 'I' for Inactive)
REMARK    1  A    between atoms: C2'_3  and  C1'_4 
REMARK    2  A    between atoms: C1'_4  and  C1_5 
ROOT
ATOM      1  C1  I4B d   1       0.008  -4.635  -3.237  0.00  0.00    -0.075 A 
ATOM      2  C2  I4B d   1       1.112  -4.300  -3.980  0.00  0.00     0.003 A 
ATOM      3  C3  I4B d   1       1.098  -4.459  -5.387  0.00  0.00     0.002 A 
ATOM      4  C4  I4B d   1      -0.014  -4.999  -6.000  0.00  0.00    -0.004 A 
ATOM      5  C5  I4B d   1      -1.141  -5.316  -5.247  0.00  0.00     0.002 A 
ATOM      6  C6  I4B d   1      -1.135  -5.122  -3.858  0.00  0.00     0.003 A 
ENDROOT
BRANCH   1   7
ATOM      7  C1' I4B d   1       0.068  -4.485  -1.750  0.00  0.00     0.060 C 
BRANCH   7   8
ATOM      8  C2' I4B d   1       1.523  -4.554  -1.332  0.00  0.00    -0.013 C 
ATOM      9  C4' I4B d   1       1.759  -3.794  -0.054  0.00  0.00     0.013 C 
ATOM     10  C3' I4B d   1       1.893  -5.999  -1.179  0.00  0.00     0.013 C 
ENDBRANCH   7   8
ENDBRANCH   1   7
TORSDOF 2
ENDMDL
