MODEL 1
REMARK minimizedAffinity 2.56738901
REMARK minimizedRMSD -1
REMARK  1 active torsions:
REMARK  status: ('A' for Active; 'I' for Inactive)
REMARK    1  A    between atoms: C3_4  and  O_7 
ROOT
ATOM      1  C   UNL d   1      -3.996   2.021   0.779  0.00  0.00    -0.033 A 
ATOM      2  C1  UNL d   1      -5.314   2.231   0.368  0.00  0.00     0.039 A 
ATOM      3  C2  UNL d   1      -5.998   3.379   0.771  0.00  0.00    -0.080 A 
ATOM      4  C3  UNL d   1      -5.355   4.308   1.584  0.00  0.00     0.150 A 
ATOM      5  C4  UNL d   1      -4.041   4.107   1.995  0.00  0.00    -0.007 A 
ATOM      6  C5  UNL d   1      -3.359   2.959   1.592  0.00  0.00     0.039 A 
ENDROOT
BRANCH   4   7
ATOM      7  O   UNL d   1      -5.984   5.441   2.008  0.00  0.00    -0.526 OA
ATOM      8  H5  UNL d   1      -6.895   5.431   1.670  0.00  0.00     0.418 HD
ENDBRANCH   4   7
TORSDOF 1
ENDMDL
