MODEL 1
REMARK minimizedAffinity 4.42144966
REMARK minimizedRMSD -1
REMARK  1 active torsions:
REMARK  status: ('A' for Active; 'I' for Inactive)
REMARK    1  A    between atoms: C3_4  and  O_7 
ROOT
ATOM      1  C   UNL d   1       4.531  -3.001   5.721  0.00  0.00    -0.033 A 
ATOM      2  C1  UNL d   1       3.789  -2.037   5.036  0.00  0.00     0.039 A 
ATOM      3  C2  UNL d   1       4.152  -1.664   3.741  0.00  0.00    -0.080 A 
ATOM      4  C3  UNL d   1       5.258  -2.261   3.142  0.00  0.00     0.150 A 
ATOM      5  C4  UNL d   1       6.000  -3.225   3.817  0.00  0.00    -0.007 A 
ATOM      6  C5  UNL d   1       5.636  -3.596   5.111  0.00  0.00     0.039 A 
ENDROOT
BRANCH   4   7
ATOM      7  O   UNL d   1       5.654  -1.926   1.881  0.00  0.00    -0.526 OA
ATOM      8  H5  UNL d   1       5.065  -1.227   1.550  0.00  0.00     0.418 HD
ENDBRANCH   4   7
TORSDOF 1
ENDMDL
