MODEL 1
REMARK minimizedAffinity 0.700423777
REMARK minimizedRMSD -1
REMARK  1 active torsions:
REMARK  status: ('A' for Active; 'I' for Inactive)
REMARK    1  A    between atoms: C3_4  and  O_7 
ROOT
ATOM      1  C   UNL d   1      -2.018   1.137  -4.741  0.00  0.00    -0.033 A 
ATOM      2  C1  UNL d   1      -1.916   1.872  -5.923  0.00  0.00     0.039 A 
ATOM      3  C2  UNL d   1      -2.460   3.156  -5.999  0.00  0.00    -0.080 A 
ATOM      4  C3  UNL d   1      -3.103   3.692  -4.887  0.00  0.00     0.150 A 
ATOM      5  C4  UNL d   1      -3.205   2.967  -3.704  0.00  0.00    -0.007 A 
ATOM      6  C5  UNL d   1      -2.661   1.685  -3.631  0.00  0.00     0.039 A 
ENDROOT
BRANCH   4   7
ATOM      7  O   UNL d   1      -3.654   4.939  -4.915  0.00  0.00    -0.526 OA
ATOM      8  H5  UNL d   1      -3.532   5.309  -5.805  0.00  0.00     0.418 HD
ENDBRANCH   4   7
TORSDOF 1
ENDMDL
