MODEL 1
REMARK minimizedAffinity 7.93119287
REMARK minimizedRMSD -1
REMARK  1 active torsions:
REMARK  status: ('A' for Active; 'I' for Inactive)
REMARK    1  A    between atoms: C3_4  and  O_7 
ROOT
ATOM      1  C   UNL d   1      -4.233   2.631   0.418  0.00  0.00    -0.033 A 
ATOM      2  C1  UNL d   1      -3.325   3.375   1.173  0.00  0.00     0.039 A 
ATOM      3  C2  UNL d   1      -3.752   4.512   1.861  0.00  0.00    -0.080 A 
ATOM      4  C3  UNL d   1      -5.088   4.894   1.786  0.00  0.00     0.150 A 
ATOM      5  C4  UNL d   1      -6.000   4.156   1.038  0.00  0.00    -0.007 A 
ATOM      6  C5  UNL d   1      -5.571   3.021   0.352  0.00  0.00     0.039 A 
ENDROOT
BRANCH   4   7
ATOM      7  O   UNL d   1      -5.551   6.000   2.436  0.00  0.00    -0.526 OA
ATOM      8  H5  UNL d   1      -4.804   6.426   2.888  0.00  0.00     0.418 HD
ENDBRANCH   4   7
TORSDOF 1
ENDMDL
