MODEL 1
REMARK minimizedAffinity 5.87118721
REMARK minimizedRMSD -1
REMARK  1 active torsions:
REMARK  status: ('A' for Active; 'I' for Inactive)
REMARK    1  A    between atoms: C3_4  and  O_7 
ROOT
ATOM      1  C   UNL d   1       2.364  -5.227   0.397  0.00  0.00    -0.033 A 
ATOM      2  C1  UNL d   1       1.229  -5.998   0.137  0.00  0.00     0.039 A 
ATOM      3  C2  UNL d   1       0.190  -5.476  -0.635  0.00  0.00    -0.080 A 
ATOM      4  C3  UNL d   1       0.297  -4.183  -1.141  0.00  0.00     0.150 A 
ATOM      5  C4  UNL d   1       1.426  -3.411  -0.889  0.00  0.00    -0.007 A 
ATOM      6  C5  UNL d   1       2.463  -3.934  -0.117  0.00  0.00     0.039 A 
ENDROOT
BRANCH   4   7
ATOM      7  O   UNL d   1      -0.694  -3.628  -1.895  0.00  0.00    -0.526 OA
ATOM      8  H5  UNL d   1      -1.423  -4.266  -1.962  0.00  0.00     0.418 HD
ENDBRANCH   4   7
TORSDOF 1
ENDMDL
