MODEL 1
REMARK minimizedAffinity 8.05185509
REMARK minimizedRMSD -1
REMARK  1 active torsions:
REMARK  status: ('A' for Active; 'I' for Inactive)
REMARK    1  A    between atoms: C3_4  and  O_7 
ROOT
ATOM      1  C   UNL d   1       1.404  -1.078  -1.116  0.00  0.00    -0.033 A 
ATOM      2  C1  UNL d   1       1.447  -0.837   0.259  0.00  0.00     0.039 A 
ATOM      3  C2  UNL d   1       1.076   0.412   0.762  0.00  0.00    -0.080 A 
ATOM      4  C3  UNL d   1       0.665   1.409  -0.118  0.00  0.00     0.150 A 
ATOM      5  C4  UNL d   1       0.616   1.175  -1.488  0.00  0.00    -0.007 A 
ATOM      6  C5  UNL d   1       0.987  -0.072  -1.989  0.00  0.00     0.039 A 
ENDROOT
BRANCH   4   7
ATOM      7  O   UNL d   1       0.298   2.645   0.326  0.00  0.00    -0.526 OA
ATOM      8  H5  UNL d   1       0.410   2.670   1.292  0.00  0.00     0.418 HD
ENDBRANCH   4   7
TORSDOF 1
ENDMDL
