MODEL 1
REMARK minimizedAffinity 1.8852576
REMARK minimizedRMSD -1
REMARK  1 active torsions:
REMARK  status: ('A' for Active; 'I' for Inactive)
REMARK    1  A    between atoms: C3_4  and  O_7 
ROOT
ATOM      1  C   UNL d   1      -0.094   1.516  -3.911  0.00  0.00    -0.033 A 
ATOM      2  C1  UNL d   1      -0.502   1.151  -5.196  0.00  0.00     0.039 A 
ATOM      3  C2  UNL d   1      -1.509   1.872  -5.842  0.00  0.00    -0.080 A 
ATOM      4  C3  UNL d   1      -2.098   2.954  -5.194  0.00  0.00     0.150 A 
ATOM      5  C4  UNL d   1      -1.693   3.326  -3.916  0.00  0.00    -0.007 A 
ATOM      6  C5  UNL d   1      -0.689   2.605  -3.272  0.00  0.00     0.039 A 
ENDROOT
BRANCH   4   7
ATOM      7  O   UNL d   1      -3.087   3.684  -5.782  0.00  0.00    -0.526 OA
ATOM      8  H5  UNL d   1      -3.282   3.295  -6.651  0.00  0.00     0.418 HD
ENDBRANCH   4   7
TORSDOF 1
ENDMDL
