MODEL 1
REMARK minimizedAffinity 8.85896206
REMARK minimizedRMSD -1
REMARK  1 active torsions:
REMARK  status: ('A' for Active; 'I' for Inactive)
REMARK    1  A    between atoms: C3_4  and  O_7 
ROOT
ATOM      1  C   UNL d   1      -5.994  -0.859   6.000  0.00  0.00    -0.033 A 
ATOM      2  C1  UNL d   1      -5.868   0.268   5.187  0.00  0.00     0.039 A 
ATOM      3  C2  UNL d   1      -4.743   0.423   4.374  0.00  0.00    -0.080 A 
ATOM      4  C3  UNL d   1      -3.754  -0.557   4.383  0.00  0.00     0.150 A 
ATOM      5  C4  UNL d   1      -3.876  -1.685   5.188  0.00  0.00    -0.007 A 
ATOM      6  C5  UNL d   1      -4.999  -1.837   5.999  0.00  0.00     0.039 A 
ENDROOT
BRANCH   4   7
ATOM      7  O   UNL d   1      -2.636  -0.448   3.610  0.00  0.00    -0.526 OA
ATOM      8  H5  UNL d   1      -2.675   0.395   3.130  0.00  0.00     0.418 HD
ENDBRANCH   4   7
TORSDOF 1
ENDMDL
