MODEL 1
REMARK minimizedAffinity 7.36820936
REMARK minimizedRMSD -1
REMARK  0 active torsions:
REMARK  status: ('A' for Active; 'I' for Inactive)
ROOT
ATOM      1  C4' PXY d   1       2.746  -0.952   2.948  0.00  0.00     0.077 C 
ATOM      2  C1' PXY d   1      -3.013  -0.668   3.350  0.00  0.00     0.077 C 
ATOM      3  C1  PXY d   1      -1.503  -0.733   3.235  0.00  0.00    -0.082 A 
ATOM      4  C2  PXY d   1      -0.864  -1.821   3.633  0.00  0.00     0.003 A 
ATOM      5  C3  PXY d   1       0.504  -1.885   3.566  0.00  0.00     0.003 A 
ATOM      6  C4  PXY d   1       1.221  -0.845   3.037  0.00  0.00    -0.082 A 
ATOM      7  C5  PXY d   1       0.575   0.264   2.619  0.00  0.00     0.003 A 
ATOM      8  C6  PXY d   1      -0.810   0.325   2.734  0.00  0.00     0.003 A 
ENDROOT
TORSDOF 0
ENDMDL
