MODEL 1
REMARK minimizedAffinity -4.11949396
REMARK minimizedRMSD -1
REMARK  0 active torsions:
REMARK  status: ('A' for Active; 'I' for Inactive)
ROOT
ATOM      1  C4' PXY d   1       0.238  -1.030  -2.844  0.00  0.00     0.077 C 
ATOM      2  C1' PXY d   1       0.256   0.324   2.775  0.00  0.00     0.077 C 
ATOM      3  C1  PXY d   1       0.250  -0.018   1.299  0.00  0.00    -0.082 A 
ATOM      4  C2  PXY d   1      -0.115  -1.229   0.909  0.00  0.00     0.003 A 
ATOM      5  C3  PXY d   1      -0.095  -1.566  -0.420  0.00  0.00     0.003 A 
ATOM      6  C4  PXY d   1       0.250  -0.637  -1.365  0.00  0.00    -0.082 A 
ATOM      7  C5  PXY d   1       0.614   0.604  -0.976  0.00  0.00     0.003 A 
ATOM      8  C6  PXY d   1       0.627   0.913   0.381  0.00  0.00     0.003 A 
ENDROOT
TORSDOF 0
ENDMDL
