MODEL 1
REMARK minimizedAffinity -2.59521556
REMARK minimizedRMSD -1
REMARK  0 active torsions:
REMARK  status: ('A' for Active; 'I' for Inactive)
ROOT
ATOM      1  C4' PXY d   1      -0.626  -0.078   3.513  0.00  0.00     0.077 C 
ATOM      2  C1' PXY d   1       0.266  -0.175  -2.197  0.00  0.00     0.077 C 
ATOM      3  C1  PXY d   1       0.019  -0.150  -0.702  0.00  0.00    -0.082 A 
ATOM      4  C2  PXY d   1       0.918   0.396   0.101  0.00  0.00     0.003 A 
ATOM      5  C3  PXY d   1       0.726   0.398   1.459  0.00  0.00     0.003 A 
ATOM      6  C4  PXY d   1      -0.423  -0.117   1.996  0.00  0.00    -0.082 A 
ATOM      7  C5  PXY d   1      -1.350  -0.667   1.183  0.00  0.00     0.003 A 
ATOM      8  C6  PXY d   1      -1.117  -0.696  -0.189  0.00  0.00     0.003 A 
ENDROOT
TORSDOF 0
ENDMDL
