MODEL 1
REMARK minimizedAffinity 6.64301014
REMARK minimizedRMSD -1
REMARK  0 active torsions:
REMARK  status: ('A' for Active; 'I' for Inactive)
ROOT
ATOM      1  C4' PXY d   1      -0.856   0.190   2.441  0.00  0.00     0.077 C 
ATOM      2  C1' PXY d   1      -3.583   0.562  -2.643  0.00  0.00     0.077 C 
ATOM      3  C1  PXY d   1      -2.878   0.471  -1.304  0.00  0.00    -0.082 A 
ATOM      4  C2  PXY d   1      -1.563   0.323  -1.266  0.00  0.00     0.003 A 
ATOM      5  C3  PXY d   1      -0.913   0.206  -0.064  0.00  0.00     0.003 A 
ATOM      6  C4  PXY d   1      -1.609   0.296   1.112  0.00  0.00    -0.082 A 
ATOM      7  C5  PXY d   1      -2.949   0.459   1.081  0.00  0.00     0.003 A 
ATOM      8  C6  PXY d   1      -3.595   0.533  -0.149  0.00  0.00     0.003 A 
ENDROOT
TORSDOF 0
ENDMDL
