MODEL 1
REMARK minimizedAffinity 6.13325739
REMARK minimizedRMSD -1
REMARK  0 active torsions:
REMARK  status: ('A' for Active; 'I' for Inactive)
ROOT
ATOM      1  C4' PXY d   1      -1.561   0.391  -1.242  0.00  0.00     0.077 C 
ATOM      2  C1' PXY d   1      -3.941   0.640   4.020  0.00  0.00     0.077 C 
ATOM      3  C1  PXY d   1      -3.306   0.578   2.645  0.00  0.00    -0.082 A 
ATOM      4  C2  PXY d   1      -4.062   0.714   1.568  0.00  0.00     0.003 A 
ATOM      5  C3  PXY d   1      -3.509   0.628   0.317  0.00  0.00     0.003 A 
ATOM      6  C4  PXY d   1      -2.159   0.456   0.167  0.00  0.00    -0.082 A 
ATOM      7  C5  PXY d   1      -1.378   0.328   1.261  0.00  0.00     0.003 A 
ATOM      8  C6  PXY d   1      -1.966   0.376   2.522  0.00  0.00     0.003 A 
ENDROOT
TORSDOF 0
ENDMDL
