MODEL 1
REMARK minimizedAffinity 2.61126375
REMARK minimizedRMSD -1
REMARK  0 active torsions:
REMARK  status: ('A' for Active; 'I' for Inactive)
ROOT
ATOM      1  C4' PXY d   1       0.300  -1.399   3.547  0.00  0.00     0.077 C 
ATOM      2  C1' PXY d   1      -4.393   1.350   1.589  0.00  0.00     0.077 C 
ATOM      3  C1  PXY d   1      -3.156   0.631   2.091  0.00  0.00    -0.082 A 
ATOM      4  C2  PXY d   1      -3.268  -0.263   3.060  0.00  0.00     0.003 A 
ATOM      5  C3  PXY d   1      -2.155  -0.899   3.548  0.00  0.00     0.003 A 
ATOM      6  C4  PXY d   1      -0.923  -0.656   3.002  0.00  0.00    -0.082 A 
ATOM      7  C5  PXY d   1      -0.803   0.247   2.006  0.00  0.00     0.003 A 
ATOM      8  C6  PXY d   1      -1.938   0.912   1.553  0.00  0.00     0.003 A 
ENDROOT
TORSDOF 0
ENDMDL
