MODEL 1
REMARK minimizedAffinity 4.84563589
REMARK minimizedRMSD -1
REMARK  0 active torsions:
REMARK  status: ('A' for Active; 'I' for Inactive)
ROOT
ATOM      1  C4' PXY d   1      -5.977  -0.244   0.845  0.00  0.00     0.077 C 
ATOM      2  C1' PXY d   1      -0.491   0.796   2.339  0.00  0.00     0.077 C 
ATOM      3  C1  PXY d   1      -1.930   0.535   1.941  0.00  0.00    -0.082 A 
ATOM      4  C2  PXY d   1      -2.679  -0.265   2.682  0.00  0.00     0.003 A 
ATOM      5  C3  PXY d   1      -3.973  -0.537   2.319  0.00  0.00     0.003 A 
ATOM      6  C4  PXY d   1      -4.522   0.056   1.214  0.00  0.00    -0.082 A 
ATOM      7  C5  PXY d   1      -3.767   0.881   0.458  0.00  0.00     0.003 A 
ATOM      8  C6  PXY d   1      -2.444   1.113   0.821  0.00  0.00     0.003 A 
ENDROOT
TORSDOF 0
ENDMDL
