MODEL 1
REMARK minimizedAffinity 7.97431469
REMARK minimizedRMSD -1
REMARK  0 active torsions:
REMARK  status: ('A' for Active; 'I' for Inactive)
ROOT
ATOM      1  C4' PXY d   1      -5.069   0.021   1.056  0.00  0.00     0.077 C 
ATOM      2  C1' PXY d   1       0.454   0.282   2.744  0.00  0.00     0.077 C 
ATOM      3  C1  PXY d   1      -0.991   0.218   2.289  0.00  0.00    -0.082 A 
ATOM      4  C2  PXY d   1      -1.963   0.323   3.181  0.00  0.00     0.003 A 
ATOM      5  C3  PXY d   1      -3.274   0.235   2.792  0.00  0.00     0.003 A 
ATOM      6  C4  PXY d   1      -3.596   0.090   1.468  0.00  0.00    -0.082 A 
ATOM      7  C5  PXY d   1      -2.610  -0.007   0.551  0.00  0.00     0.003 A 
ATOM      8  C6  PXY d   1      -1.285   0.043   0.972  0.00  0.00     0.003 A 
ENDROOT
TORSDOF 0
ENDMDL
