MODEL 1
REMARK minimizedAffinity 4.25065136
REMARK minimizedRMSD -1
REMARK  0 active torsions:
REMARK  status: ('A' for Active; 'I' for Inactive)
ROOT
ATOM      1  C4' PXY d   1      -3.807   0.336   2.368  0.00  0.00     0.077 C 
ATOM      2  C1' PXY d   1       1.924   0.555   3.086  0.00  0.00     0.077 C 
ATOM      3  C1  PXY d   1       0.422   0.486   2.892  0.00  0.00    -0.082 A 
ATOM      4  C2  PXY d   1      -0.286   1.603   2.865  0.00  0.00     0.003 A 
ATOM      5  C3  PXY d   1      -1.649   1.558   2.723  0.00  0.00     0.003 A 
ATOM      6  C4  PXY d   1      -2.287   0.359   2.553  0.00  0.00    -0.082 A 
ATOM      7  C5  PXY d   1      -1.571  -0.785   2.568  0.00  0.00     0.003 A 
ATOM      8  C6  PXY d   1      -0.193  -0.720   2.755  0.00  0.00     0.003 A 
ENDROOT
TORSDOF 0
ENDMDL
