MODEL 1
REMARK minimizedAffinity 6.55360937
REMARK minimizedRMSD -1
REMARK  0 active torsions:
REMARK  status: ('A' for Active; 'I' for Inactive)
ROOT
ATOM      1  C4' PXY d   1       0.267  -0.201   2.812  0.00  0.00     0.077 C 
ATOM      2  C1' PXY d   1      -5.192   0.403   1.009  0.00  0.00     0.077 C 
ATOM      3  C1  PXY d   1      -3.758   0.238   1.471  0.00  0.00    -0.082 A 
ATOM      4  C2  PXY d   1      -3.481   0.257   2.764  0.00  0.00     0.003 A 
ATOM      5  C3  PXY d   1      -2.185   0.142   3.198  0.00  0.00     0.003 A 
ATOM      6  C4  PXY d   1      -1.169  -0.048   2.301  0.00  0.00    -0.082 A 
ATOM      7  C5  PXY d   1      -1.444  -0.079   0.980  0.00  0.00     0.003 A 
ATOM      8  C6  PXY d   1      -2.761   0.081   0.558  0.00  0.00     0.003 A 
ENDROOT
TORSDOF 0
ENDMDL
