MODEL 1
REMARK minimizedAffinity -3.70427775
REMARK minimizedRMSD -1
REMARK  0 active torsions:
REMARK  status: ('A' for Active; 'I' for Inactive)
ROOT
ATOM      1  C4' PXY d   1       0.812   0.368  -3.123  0.00  0.00     0.077 C 
ATOM      2  C1' PXY d   1       0.385   0.373   2.642  0.00  0.00     0.077 C 
ATOM      3  C1  PXY d   1       0.484   0.370   1.129  0.00  0.00    -0.082 A 
ATOM      4  C2  PXY d   1       1.628   0.047   0.550  0.00  0.00     0.003 A 
ATOM      5  C3  PXY d   1       1.745   0.070  -0.816  0.00  0.00     0.003 A 
ATOM      6  C4  PXY d   1       0.663   0.376  -1.599  0.00  0.00    -0.082 A 
ATOM      7  C5  PXY d   1      -0.511   0.696  -1.015  0.00  0.00     0.003 A 
ATOM      8  C6  PXY d   1      -0.597   0.706   0.374  0.00  0.00     0.003 A 
ENDROOT
TORSDOF 0
ENDMDL
