MODEL 1
REMARK minimizedAffinity 5.75002813
REMARK minimizedRMSD -1
REMARK  0 active torsions:
REMARK  status: ('A' for Active; 'I' for Inactive)
ROOT
ATOM      1  C4' PXY d   1       2.689  -0.768   2.749  0.00  0.00     0.077 C 
ATOM      2  C1' PXY d   1      -2.952   0.437   2.371  0.00  0.00     0.077 C 
ATOM      3  C1  PXY d   1      -1.470   0.132   2.464  0.00  0.00    -0.082 A 
ATOM      4  C2  PXY d   1      -1.066  -1.123   2.572  0.00  0.00     0.003 A 
ATOM      5  C3  PXY d   1       0.269  -1.414   2.690  0.00  0.00     0.003 A 
ATOM      6  C4  PXY d   1       1.203  -0.414   2.643  0.00  0.00    -0.082 A 
ATOM      7  C5  PXY d   1       0.799   0.868   2.522  0.00  0.00     0.003 A 
ATOM      8  C6  PXY d   1      -0.563   1.146   2.445  0.00  0.00     0.003 A 
ENDROOT
TORSDOF 0
ENDMDL
