MODEL 1
REMARK minimizedAffinity -1.63797784
REMARK minimizedRMSD -1
REMARK  0 active torsions:
REMARK  status: ('A' for Active; 'I' for Inactive)
ROOT
ATOM      1  C4' PXY d   1       1.481   1.518   0.567  0.00  0.00     0.077 C 
ATOM      2  C1' PXY d   1      -2.549  -0.369   4.255  0.00  0.00     0.077 C 
ATOM      3  C1  PXY d   1      -1.497   0.118   3.279  0.00  0.00    -0.082 A 
ATOM      4  C2  PXY d   1      -0.379   0.656   3.737  0.00  0.00     0.003 A 
ATOM      5  C3  PXY d   1       0.570   1.131   2.868  0.00  0.00     0.003 A 
ATOM      6  C4  PXY d   1       0.395   1.004   1.516  0.00  0.00    -0.082 A 
ATOM      7  C5  PXY d   1      -0.738   0.446   1.041  0.00  0.00     0.003 A 
ATOM      8  C6  PXY d   1      -1.707   0.008   1.939  0.00  0.00     0.003 A 
ENDROOT
TORSDOF 0
ENDMDL
