MODEL 1
REMARK minimizedAffinity -1.1689415
REMARK minimizedRMSD -1
REMARK  0 active torsions:
REMARK  status: ('A' for Active; 'I' for Inactive)
ROOT
ATOM      1  C4' PXY d   1      -2.681   1.670   4.063  0.00  0.00     0.077 C 
ATOM      2  C1' PXY d   1       1.685  -0.347   0.856  0.00  0.00     0.077 C 
ATOM      3  C1  PXY d   1       0.547   0.180   1.708  0.00  0.00    -0.082 A 
ATOM      4  C2  PXY d   1      -0.690   0.146   1.240  0.00  0.00     0.003 A 
ATOM      5  C3  PXY d   1      -1.727   0.647   1.984  0.00  0.00     0.003 A 
ATOM      6  C4  PXY d   1      -1.502   1.140   3.242  0.00  0.00    -0.082 A 
ATOM      7  C5  PXY d   1      -0.244   1.169   3.730  0.00  0.00     0.003 A 
ATOM      8  C6  PXY d   1       0.800   0.693   2.942  0.00  0.00     0.003 A 
ENDROOT
TORSDOF 0
ENDMDL
