MODEL 1
REMARK minimizedAffinity 1.73905158
REMARK minimizedRMSD -1
REMARK  0 active torsions:
REMARK  status: ('A' for Active; 'I' for Inactive)
ROOT
ATOM      1  C4' PXY d   1      -2.671   1.228   2.408  0.00  0.00     0.077 C 
ATOM      2  C1' PXY d   1       2.792  -0.023   0.994  0.00  0.00     0.077 C 
ATOM      3  C1  PXY d   1       1.357   0.309   1.352  0.00  0.00    -0.082 A 
ATOM      4  C2  PXY d   1       1.030   0.513   2.618  0.00  0.00     0.003 A 
ATOM      5  C3  PXY d   1      -0.269   0.783   2.964  0.00  0.00     0.003 A 
ATOM      6  C4  PXY d   1      -1.233   0.899   1.998  0.00  0.00    -0.082 A 
ATOM      7  C5  PXY d   1      -0.905   0.703   0.703  0.00  0.00     0.003 A 
ATOM      8  C6  PXY d   1       0.411   0.389   0.378  0.00  0.00     0.003 A 
ENDROOT
TORSDOF 0
ENDMDL
