MODEL 1
REMARK minimizedAffinity -1.54999077
REMARK minimizedRMSD -1
REMARK  0 active torsions:
REMARK  status: ('A' for Active; 'I' for Inactive)
ROOT
ATOM      1  C4' PXY d   1       2.870   0.265   1.144  0.00  0.00     0.077 C 
ATOM      2  C1' PXY d   1      -2.690   0.654  -0.389  0.00  0.00     0.077 C 
ATOM      3  C1  PXY d   1      -1.235   0.558   0.024  0.00  0.00    -0.082 A 
ATOM      4  C2  PXY d   1      -0.301   0.400  -0.900  0.00  0.00     0.003 A 
ATOM      5  C3  PXY d   1       1.017   0.280  -0.542  0.00  0.00     0.003 A 
ATOM      6  C4  PXY d   1       1.389   0.376   0.772  0.00  0.00    -0.082 A 
ATOM      7  C5  PXY d   1       0.443   0.548   1.720  0.00  0.00     0.003 A 
ATOM      8  C6  PXY d   1      -0.893   0.626   1.339  0.00  0.00     0.003 A 
ENDROOT
TORSDOF 0
ENDMDL
