MODEL 1
REMARK minimizedAffinity -2.40439868
REMARK minimizedRMSD -1
REMARK  0 active torsions:
REMARK  status: ('A' for Active; 'I' for Inactive)
ROOT
ATOM      1  C4' PXY d   1       0.982  -0.002  -1.692  0.00  0.00     0.077 C 
ATOM      2  C1' PXY d   1      -1.181  -1.061   3.564  0.00  0.00     0.077 C 
ATOM      3  C1  PXY d   1      -0.610  -0.772   2.189  0.00  0.00    -0.082 A 
ATOM      4  C2  PXY d   1      -1.046  -1.454   1.143  0.00  0.00     0.003 A 
ATOM      5  C3  PXY d   1      -0.518  -1.227  -0.102  0.00  0.00     0.003 A 
ATOM      6  C4  PXY d   1       0.428  -0.255  -0.287  0.00  0.00    -0.082 A 
ATOM      7  C5  PXY d   1       0.870   0.453   0.774  0.00  0.00     0.003 A 
ATOM      8  C6  PXY d   1       0.351   0.179   2.036  0.00  0.00     0.003 A 
ENDROOT
TORSDOF 0
ENDMDL
