MODEL 1
REMARK minimizedAffinity -4.79056883
REMARK minimizedRMSD -1
REMARK  0 active torsions:
REMARK  status: ('A' for Active; 'I' for Inactive)
ROOT
ATOM      1  C4' PXY d   1       0.083   0.392  -1.884  0.00  0.00     0.077 C 
ATOM      2  C1' PXY d   1      -1.298  -0.645   3.632  0.00  0.00     0.077 C 
ATOM      3  C1  PXY d   1      -0.925  -0.367   2.189  0.00  0.00    -0.082 A 
ATOM      4  C2  PXY d   1      -1.866  -0.371   1.259  0.00  0.00     0.003 A 
ATOM      5  C3  PXY d   1      -1.541  -0.153  -0.056  0.00  0.00     0.003 A 
ATOM      6  C4  PXY d   1      -0.249   0.125  -0.413  0.00  0.00    -0.082 A 
ATOM      7  C5  PXY d   1       0.714   0.142   0.532  0.00  0.00     0.003 A 
ATOM      8  C6  PXY d   1       0.371  -0.123   1.855  0.00  0.00     0.003 A 
ENDROOT
TORSDOF 0
ENDMDL
