MODEL 1
REMARK minimizedAffinity -0.749835134
REMARK minimizedRMSD -1
REMARK  0 active torsions:
REMARK  status: ('A' for Active; 'I' for Inactive)
ROOT
ATOM      1  C4' PXY d   1       1.119   1.278  -0.711  0.00  0.00     0.077 C 
ATOM      2  C1' PXY d   1      -1.088  -1.313   3.961  0.00  0.00     0.077 C 
ATOM      3  C1  PXY d   1      -0.514  -0.643   2.729  0.00  0.00    -0.082 A 
ATOM      4  C2  PXY d   1       0.506   0.190   2.852  0.00  0.00     0.003 A 
ATOM      5  C3  PXY d   1       1.017   0.829   1.752  0.00  0.00     0.003 A 
ATOM      6  C4  PXY d   1       0.513   0.572   0.505  0.00  0.00    -0.082 A 
ATOM      7  C5  PXY d   1      -0.521  -0.285   0.369  0.00  0.00     0.003 A 
ATOM      8  C6  PXY d   1      -1.052  -0.892   1.504  0.00  0.00     0.003 A 
ENDROOT
TORSDOF 0
ENDMDL
