MODEL 1
REMARK minimizedAffinity -3.33853841
REMARK minimizedRMSD -1
REMARK  0 active torsions:
REMARK  status: ('A' for Active; 'I' for Inactive)
ROOT
ATOM      1  C   UNL d   1       2.637  -2.097   2.285  0.00  0.00    -0.002 A 
ATOM      2  C1  UNL d   1       3.455  -1.066   1.847  0.00  0.00     0.010 A 
ATOM      3  C2  UNL d   1       2.926  -0.002   1.113  0.00  0.00     0.041 A 
ATOM      4  C3  UNL d   1       1.547   0.009   0.827  0.00  0.00    -0.075 A 
ATOM      5  S   UNL d   1       0.678   1.209  -0.055  0.00  0.00     0.015 SA
ATOM      6  C4  UNL d   1      -0.800   0.382   0.131  0.00  0.00     0.022 A 
ATOM      7  C5  UNL d   1      -0.653  -0.783   0.845  0.00  0.00     0.026 A 
ATOM      8  C6  UNL d   1       0.702  -1.017   1.258  0.00  0.00    -0.082 A 
ATOM      9  C7  UNL d   1       1.269  -2.082   1.999  0.00  0.00     0.045 A 
ENDROOT
TORSDOF 0
ENDMDL
