MODEL 1
REMARK minimizedAffinity 0.961450934
REMARK minimizedRMSD -1
REMARK  0 active torsions:
REMARK  status: ('A' for Active; 'I' for Inactive)
ROOT
ATOM      1  C   UNL d   1      -1.520   3.368   1.394  0.00  0.00    -0.002 A 
ATOM      2  C1  UNL d   1      -2.702   2.647   1.482  0.00  0.00     0.010 A 
ATOM      3  C2  UNL d   1      -2.698   1.257   1.348  0.00  0.00     0.041 A 
ATOM      4  C3  UNL d   1      -1.473   0.597   1.125  0.00  0.00    -0.075 A 
ATOM      5  S   UNL d   1      -1.225  -1.098   0.932  0.00  0.00     0.015 SA
ATOM      6  C4  UNL d   1       0.456  -0.905   0.730  0.00  0.00     0.022 A 
ATOM      7  C5  UNL d   1       0.836   0.414   0.805  0.00  0.00     0.026 A 
ATOM      8  C6  UNL d   1      -0.269   1.302   1.035  0.00  0.00    -0.082 A 
ATOM      9  C7  UNL d   1      -0.307   2.710   1.173  0.00  0.00     0.045 A 
ENDROOT
TORSDOF 0
ENDMDL
