MODEL 1
REMARK minimizedAffinity 5.1954217
REMARK minimizedRMSD -1
REMARK  0 active torsions:
REMARK  status: ('A' for Active; 'I' for Inactive)
ROOT
ATOM      1  C   UNL d   1      -1.303   4.503   1.556  0.00  0.00    -0.002 A 
ATOM      2  C1  UNL d   1      -2.492   3.834   1.809  0.00  0.00     0.010 A 
ATOM      3  C2  UNL d   1      -2.619   2.476   1.512  0.00  0.00     0.041 A 
ATOM      4  C3  UNL d   1      -1.520   1.794   0.952  0.00  0.00    -0.075 A 
ATOM      5  S   UNL d   1      -1.446   0.130   0.508  0.00  0.00     0.015 SA
ATOM      6  C4  UNL d   1       0.166   0.268  -0.027  0.00  0.00     0.022 A 
ATOM      7  C5  UNL d   1       0.651   1.546   0.122  0.00  0.00     0.026 A 
ATOM      8  C6  UNL d   1      -0.312   2.447   0.689  0.00  0.00    -0.082 A 
ATOM      9  C7  UNL d   1      -0.215   3.824   1.001  0.00  0.00     0.045 A 
ENDROOT
TORSDOF 0
ENDMDL
