MODEL 1
REMARK minimizedAffinity 1.53728235
REMARK minimizedRMSD -1
REMARK  0 active torsions:
REMARK  status: ('A' for Active; 'I' for Inactive)
ROOT
ATOM      1  C   UNL d   1       3.201  -1.064   0.540  0.00  0.00    -0.002 A 
ATOM      2  C1  UNL d   1       3.384   0.174   1.139  0.00  0.00     0.010 A 
ATOM      3  C2  UNL d   1       2.350   1.112   1.161  0.00  0.00     0.041 A 
ATOM      4  C3  UNL d   1       1.117   0.781   0.566  0.00  0.00    -0.075 A 
ATOM      5  S   UNL d   1      -0.291   1.772   0.474  0.00  0.00     0.015 SA
ATOM      6  C4  UNL d   1      -1.169   0.575  -0.363  0.00  0.00     0.022 A 
ATOM      7  C5  UNL d   1      -0.422  -0.559  -0.575  0.00  0.00     0.026 A 
ATOM      8  C6  UNL d   1       0.908  -0.459  -0.043  0.00  0.00    -0.082 A 
ATOM      9  C7  UNL d   1       1.976  -1.389  -0.049  0.00  0.00     0.045 A 
ENDROOT
TORSDOF 0
ENDMDL
