MODEL 1
REMARK minimizedAffinity 1.43095028
REMARK minimizedRMSD -1
REMARK  0 active torsions:
REMARK  status: ('A' for Active; 'I' for Inactive)
ROOT
ATOM      1  C   UNL d   1       1.431  -1.758  -0.033  0.00  0.00    -0.002 A 
ATOM      2  C1  UNL d   1       0.561  -0.847  -0.614  0.00  0.00     0.010 A 
ATOM      3  C2  UNL d   1       0.518   0.476  -0.172  0.00  0.00     0.041 A 
ATOM      4  C3  UNL d   1       1.375   0.874   0.873  0.00  0.00    -0.075 A 
ATOM      5  S   UNL d   1       1.498   2.442   1.578  0.00  0.00     0.015 SA
ATOM      6  C4  UNL d   1       2.709   1.941   2.666  0.00  0.00     0.022 A 
ATOM      7  C5  UNL d   1       3.024   0.612   2.510  0.00  0.00     0.026 A 
ATOM      8  C6  UNL d   1       2.261  -0.025   1.474  0.00  0.00    -0.082 A 
ATOM      9  C7  UNL d   1       2.280  -1.360   1.004  0.00  0.00     0.045 A 
ENDROOT
TORSDOF 0
ENDMDL
