MODEL 1
REMARK minimizedAffinity -0.251444042
REMARK minimizedRMSD -1
REMARK  0 active torsions:
REMARK  status: ('A' for Active; 'I' for Inactive)
ROOT
ATOM      1  C   UNL d   1       0.218  -1.242   0.697  0.00  0.00    -0.002 A 
ATOM      2  C1  UNL d   1       0.650  -0.032   0.171  0.00  0.00     0.010 A 
ATOM      3  C2  UNL d   1      -0.069   0.596  -0.848  0.00  0.00     0.041 A 
ATOM      4  C3  UNL d   1      -1.241  -0.017  -1.333  0.00  0.00    -0.075 A 
ATOM      5  S   UNL d   1      -2.283   0.569  -2.575  0.00  0.00     0.015 SA
ATOM      6  C4  UNL d   1      -3.326  -0.771  -2.436  0.00  0.00     0.022 A 
ATOM      7  C5  UNL d   1      -2.905  -1.655  -1.471  0.00  0.00     0.026 A 
ATOM      8  C6  UNL d   1      -1.696  -1.234  -0.818  0.00  0.00    -0.082 A 
ATOM      9  C7  UNL d   1      -0.945  -1.846   0.213  0.00  0.00     0.045 A 
ENDROOT
TORSDOF 0
ENDMDL
