MODEL 1
REMARK minimizedAffinity -2.53333998
REMARK minimizedRMSD -1
REMARK  0 active torsions:
REMARK  status: ('A' for Active; 'I' for Inactive)
ROOT
ATOM      1  C   UNL d   1       0.169   0.743   1.136  0.00  0.00     0.172 C 
ATOM      2  N   UNL d   1       0.498   0.584  -0.261  0.00  0.00    -0.070 N 
ATOM      3  C1  UNL d   1       1.325  -0.374  -0.782  0.00  0.00    -0.004 A 
ATOM      4  C2  UNL d   1       1.379  -0.188  -2.147  0.00  0.00    -0.047 A 
ATOM      5  C3  UNL d   1       0.557   0.921  -2.456  0.00  0.00    -0.047 A 
ATOM      6  C4  UNL d   1       0.023   1.380  -1.270  0.00  0.00    -0.004 A 
ENDROOT
TORSDOF 0
ENDMDL
