MODEL 1
REMARK minimizedAffinity -2.66535497
REMARK minimizedRMSD -1
REMARK  0 active torsions:
REMARK  status: ('A' for Active; 'I' for Inactive)
ROOT
ATOM      1  C   UNL d   1      -1.302   2.120   1.402  0.00  0.00     0.172 C 
ATOM      2  N   UNL d   1      -0.683   1.040   0.671  0.00  0.00    -0.070 N 
ATOM      3  C1  UNL d   1       0.104   0.058   1.210  0.00  0.00    -0.004 A 
ATOM      4  C2  UNL d   1       0.497  -0.777   0.187  0.00  0.00    -0.047 A 
ATOM      5  C3  UNL d   1      -0.073  -0.280  -1.009  0.00  0.00    -0.047 A 
ATOM      6  C4  UNL d   1      -0.798   0.846  -0.680  0.00  0.00    -0.004 A 
ENDROOT
TORSDOF 0
ENDMDL
