MODEL 1
REMARK minimizedAffinity -3.58425236
REMARK minimizedRMSD -1
REMARK  0 active torsions:
REMARK  status: ('A' for Active; 'I' for Inactive)
ROOT
ATOM      1  C   UNL d   1       0.198  -0.664  -0.832  0.00  0.00     0.172 C 
ATOM      2  N   UNL d   1      -0.200   0.396   0.064  0.00  0.00    -0.070 N 
ATOM      3  C1  UNL d   1      -1.098   1.389  -0.224  0.00  0.00    -0.004 A 
ATOM      4  C2  UNL d   1      -1.203   2.198   0.887  0.00  0.00    -0.047 A 
ATOM      5  C3  UNL d   1      -0.337   1.674   1.876  0.00  0.00    -0.047 A 
ATOM      6  C4  UNL d   1       0.272   0.559   1.340  0.00  0.00    -0.004 A 
ENDROOT
TORSDOF 0
ENDMDL
