MODEL 1
REMARK minimizedAffinity -3.60850644
REMARK minimizedRMSD -1
REMARK  0 active torsions:
REMARK  status: ('A' for Active; 'I' for Inactive)
ROOT
ATOM      1  C   UNL d   1       0.337  -0.581  -1.053  0.00  0.00     0.172 C 
ATOM      2  N   UNL d   1      -0.121   0.410  -0.108  0.00  0.00    -0.070 N 
ATOM      3  C1  UNL d   1      -0.959   1.456  -0.391  0.00  0.00    -0.004 A 
ATOM      4  C2  UNL d   1      -1.154   2.167   0.773  0.00  0.00    -0.047 A 
ATOM      5  C3  UNL d   1      -0.407   1.528   1.790  0.00  0.00    -0.047 A 
ATOM      6  C4  UNL d   1       0.223   0.444   1.217  0.00  0.00    -0.004 A 
ENDROOT
TORSDOF 0
ENDMDL
