MODEL 1
REMARK minimizedAffinity -3.53991127
REMARK minimizedRMSD -1
REMARK  0 active torsions:
REMARK  status: ('A' for Active; 'I' for Inactive)
ROOT
ATOM      1  C   UNL d   1       0.663  -0.855   1.780  0.00  0.00     0.172 C 
ATOM      2  N   UNL d   1      -0.082   0.332   1.433  0.00  0.00    -0.070 N 
ATOM      3  C1  UNL d   1      -0.437   1.333   2.297  0.00  0.00    -0.004 A 
ATOM      4  C2  UNL d   1      -1.135   2.281   1.581  0.00  0.00    -0.047 A 
ATOM      5  C3  UNL d   1      -1.203   1.834   0.240  0.00  0.00    -0.047 A 
ATOM      6  C4  UNL d   1      -0.543   0.625   0.176  0.00  0.00    -0.004 A 
ENDROOT
TORSDOF 0
ENDMDL
