MODEL 1
REMARK minimizedAffinity -2.94968295
REMARK minimizedRMSD -1
REMARK  0 active torsions:
REMARK  status: ('A' for Active; 'I' for Inactive)
ROOT
ATOM      1  C   UNL d   1       0.032  -0.723  -0.302  0.00  0.00     0.172 C 
ATOM      2  N   UNL d   1      -0.417   0.389   0.501  0.00  0.00    -0.070 N 
ATOM      3  C1  UNL d   1      -1.632   1.013   0.393  0.00  0.00    -0.004 A 
ATOM      4  C2  UNL d   1      -1.674   2.020   1.333  0.00  0.00    -0.047 A 
ATOM      5  C3  UNL d   1      -0.443   2.001   2.030  0.00  0.00    -0.047 A 
ATOM      6  C4  UNL d   1       0.316   0.982   1.495  0.00  0.00    -0.004 A 
ENDROOT
TORSDOF 0
ENDMDL
