MODEL 1
REMARK minimizedAffinity -3.47674155
REMARK minimizedRMSD -1
REMARK  0 active torsions:
REMARK  status: ('A' for Active; 'I' for Inactive)
ROOT
ATOM      1  C   UNL d   1       0.367  -0.781  -0.604  0.00  0.00     0.172 C 
ATOM      2  N   UNL d   1      -0.124   0.254   0.275  0.00  0.00    -0.070 N 
ATOM      3  C1  UNL d   1       0.240   0.429   1.583  0.00  0.00    -0.004 A 
ATOM      4  C2  UNL d   1      -0.446   1.520   2.070  0.00  0.00    -0.047 A 
ATOM      5  C3  UNL d   1      -1.251   2.018   1.018  0.00  0.00    -0.047 A 
ATOM      6  C4  UNL d   1      -1.032   1.215  -0.081  0.00  0.00    -0.004 A 
ENDROOT
TORSDOF 0
ENDMDL
