MODEL 1
REMARK minimizedAffinity -1.30806291
REMARK minimizedRMSD -1
REMARK  0 active torsions:
REMARK  status: ('A' for Active; 'I' for Inactive)
ROOT
ATOM      1  C   UNL d   1      -0.030   2.173   2.105  0.00  0.00     0.172 C 
ATOM      2  N   UNL d   1       0.169   1.233   1.027  0.00  0.00    -0.070 N 
ATOM      3  C1  UNL d   1       0.630  -0.049   1.161  0.00  0.00    -0.004 A 
ATOM      4  C2  UNL d   1       0.678  -0.614  -0.095  0.00  0.00    -0.047 A 
ATOM      5  C3  UNL d   1       0.230   0.363  -1.016  0.00  0.00    -0.047 A 
ATOM      6  C4  UNL d   1      -0.078   1.497  -0.294  0.00  0.00    -0.004 A 
ENDROOT
TORSDOF 0
ENDMDL
