MODEL 1
REMARK minimizedAffinity -3.21276736
REMARK minimizedRMSD -1
REMARK  0 active torsions:
REMARK  status: ('A' for Active; 'I' for Inactive)
ROOT
ATOM      1  C   UNL d   1      -1.120   2.145   1.367  0.00  0.00     0.172 C 
ATOM      2  N   UNL d   1      -0.402   1.320   0.424  0.00  0.00    -0.070 N 
ATOM      3  C1  UNL d   1      -0.205   1.607  -0.901  0.00  0.00    -0.004 A 
ATOM      4  C2  UNL d   1       0.524   0.576  -1.452  0.00  0.00    -0.047 A 
ATOM      5  C3  UNL d   1       0.773  -0.364  -0.424  0.00  0.00    -0.047 A 
ATOM      6  C4  UNL d   1       0.189   0.122   0.727  0.00  0.00    -0.004 A 
ENDROOT
TORSDOF 0
ENDMDL
