MODEL 1
REMARK minimizedAffinity -2.7236855
REMARK minimizedRMSD -1
REMARK  0 active torsions:
REMARK  status: ('A' for Active; 'I' for Inactive)
ROOT
ATOM      1  C   UNL d   1       0.850  -0.246   0.361  0.00  0.00     0.172 C 
ATOM      2  N   UNL d   1      -0.111   0.830   0.297  0.00  0.00    -0.070 N 
ATOM      3  C1  UNL d   1      -0.445   1.664   1.331  0.00  0.00    -0.004 A 
ATOM      4  C2  UNL d   1      -1.392   2.552   0.868  0.00  0.00    -0.047 A 
ATOM      5  C3  UNL d   1      -1.636   2.240  -0.491  0.00  0.00    -0.047 A 
ATOM      6  C4  UNL d   1      -0.830   1.170  -0.818  0.00  0.00    -0.004 A 
ENDROOT
TORSDOF 0
ENDMDL
