MODEL 1
REMARK minimizedAffinity -4.58145618
REMARK minimizedRMSD -1
REMARK  1 active torsions:
REMARK  status: ('A' for Active; 'I' for Inactive)
REMARK    1  A    between atoms: C1_2  and  C2_3 
ROOT
ATOM      1  C2  UNL d   1       1.051  -0.413   0.397  0.00  0.00    -0.077 A 
ATOM      2  C3  UNL d   1       0.148   0.528  -0.119  0.00  0.00     0.002 A 
ATOM      3  C4  UNL d   1      -1.223   0.386   0.103  0.00  0.00     0.002 A 
ATOM      4  C5  UNL d   1      -1.703  -0.692   0.844  0.00  0.00    -0.004 A 
ATOM      5  C6  UNL d   1      -0.813  -1.634   1.359  0.00  0.00     0.002 A 
ATOM      6  C7  UNL d   1       0.558  -1.494   1.137  0.00  0.00     0.002 A 
ENDROOT
BRANCH   1   7
ATOM      7  C1  UNL d   1       2.534  -0.235   0.200  0.00  0.00     0.055 C 
ATOM      8  C   UNL d   1       3.222   0.153   1.501  0.00  0.00     0.019 C 
ENDBRANCH   1   7
TORSDOF 1
ENDMDL
