MODEL 1
REMARK minimizedAffinity -5.27694464
REMARK minimizedRMSD -1
REMARK  1 active torsions:
REMARK  status: ('A' for Active; 'I' for Inactive)
REMARK    1  A    between atoms: C1_2  and  C2_3 
ROOT
ATOM      1  C2  UNL d   1       0.015   0.157  -0.141  0.00  0.00    -0.077 A 
ATOM      2  C3  UNL d   1       0.918  -0.882   0.126  0.00  0.00     0.002 A 
ATOM      3  C4  UNL d   1       2.278  -0.611   0.293  0.00  0.00     0.002 A 
ATOM      4  C5  UNL d   1       2.745   0.698   0.199  0.00  0.00    -0.004 A 
ATOM      5  C6  UNL d   1       1.856   1.738  -0.069  0.00  0.00     0.002 A 
ATOM      6  C7  UNL d   1       0.497   1.469  -0.237  0.00  0.00     0.002 A 
ENDROOT
BRANCH   1   7
ATOM      7  C1  UNL d   1      -1.458  -0.127  -0.273  0.00  0.00     0.055 C 
ATOM      8  C   UNL d   1      -1.976   0.261  -1.651  0.00  0.00     0.019 C 
ENDBRANCH   1   7
TORSDOF 1
ENDMDL
