MODEL 1
REMARK minimizedAffinity -0.665164948
REMARK minimizedRMSD -1
REMARK  1 active torsions:
REMARK  status: ('A' for Active; 'I' for Inactive)
REMARK    1  A    between atoms: C1_2  and  C2_3 
ROOT
ATOM      1  C2  UNL d   1       0.038  -0.546   1.072  0.00  0.00    -0.077 A 
ATOM      2  C3  UNL d   1      -0.208   0.126  -0.134  0.00  0.00     0.002 A 
ATOM      3  C4  UNL d   1       0.588   1.209  -0.513  0.00  0.00     0.002 A 
ATOM      4  C5  UNL d   1       1.635   1.626   0.305  0.00  0.00    -0.004 A 
ATOM      5  C6  UNL d   1       1.886   0.966   1.507  0.00  0.00     0.002 A 
ATOM      6  C7  UNL d   1       1.091  -0.116   1.889  0.00  0.00     0.002 A 
ENDROOT
BRANCH   1   7
ATOM      7  C1  UNL d   1      -0.788  -1.746   1.459  0.00  0.00     0.055 C 
ATOM      8  C   UNL d   1       0.035  -2.752   2.249  0.00  0.00     0.019 C 
ENDBRANCH   1   7
TORSDOF 1
ENDMDL
