MODEL 1
REMARK minimizedAffinity -1.96016324
REMARK minimizedRMSD -1
REMARK  1 active torsions:
REMARK  status: ('A' for Active; 'I' for Inactive)
REMARK    1  A    between atoms: C1_2  and  C2_3 
ROOT
ATOM      1  C2  UNL d   1      -2.322  -0.396  -1.553  0.00  0.00    -0.077 A 
ATOM      2  C3  UNL d   1      -1.007   0.074  -1.674  0.00  0.00     0.002 A 
ATOM      3  C4  UNL d   1      -0.223   0.280  -0.537  0.00  0.00     0.002 A 
ATOM      4  C5  UNL d   1      -0.745   0.015   0.728  0.00  0.00    -0.004 A 
ATOM      5  C6  UNL d   1      -2.052  -0.451   0.858  0.00  0.00     0.002 A 
ATOM      6  C7  UNL d   1      -2.837  -0.657  -0.277  0.00  0.00     0.002 A 
ENDROOT
BRANCH   1   7
ATOM      7  C1  UNL d   1      -3.152  -0.667  -2.781  0.00  0.00     0.055 C 
ATOM      8  C   UNL d   1      -2.828   0.318  -3.895  0.00  0.00     0.019 C 
ENDBRANCH   1   7
TORSDOF 1
ENDMDL
