MODEL 1
REMARK minimizedAffinity -5.22980261
REMARK minimizedRMSD -1
REMARK  1 active torsions:
REMARK  status: ('A' for Active; 'I' for Inactive)
REMARK    1  A    between atoms: C1_2  and  C2_3 
ROOT
ATOM      1  C2  UNL d   1       0.557  -0.055   0.720  0.00  0.00    -0.077 A 
ATOM      2  C3  UNL d   1       0.048  -1.281   1.170  0.00  0.00     0.002 A 
ATOM      3  C4  UNL d   1       0.898  -2.234   1.734  0.00  0.00     0.002 A 
ATOM      4  C5  UNL d   1       2.260  -1.969   1.857  0.00  0.00    -0.004 A 
ATOM      5  C6  UNL d   1       2.776  -0.753   1.410  0.00  0.00     0.002 A 
ATOM      6  C7  UNL d   1       1.928   0.200   0.845  0.00  0.00     0.002 A 
ENDROOT
BRANCH   1   7
ATOM      7  C1  UNL d   1      -0.366   0.994   0.156  0.00  0.00     0.055 C 
ATOM      8  C   UNL d   1      -1.528   0.362  -0.597  0.00  0.00     0.019 C 
ENDBRANCH   1   7
TORSDOF 1
ENDMDL
