MODEL 1
REMARK minimizedAffinity -4.80449295
REMARK minimizedRMSD -1
REMARK  1 active torsions:
REMARK  status: ('A' for Active; 'I' for Inactive)
REMARK    1  A    between atoms: C1_2  and  C2_3 
ROOT
ATOM      1  C2  UNL d   1       0.059   0.018   0.301  0.00  0.00    -0.077 A 
ATOM      2  C3  UNL d   1       0.797   1.208   0.374  0.00  0.00     0.002 A 
ATOM      3  C4  UNL d   1       2.183   1.170   0.538  0.00  0.00     0.002 A 
ATOM      4  C5  UNL d   1       2.843  -0.054   0.626  0.00  0.00    -0.004 A 
ATOM      5  C6  UNL d   1       2.117  -1.243   0.557  0.00  0.00     0.002 A 
ATOM      6  C7  UNL d   1       0.732  -1.207   0.395  0.00  0.00     0.002 A 
ENDROOT
BRANCH   1   7
ATOM      7  C1  UNL d   1      -1.430   0.057   0.075  0.00  0.00     0.055 C 
ATOM      8  C   UNL d   1      -1.764   0.093  -1.409  0.00  0.00     0.019 C 
ENDBRANCH   1   7
TORSDOF 1
ENDMDL
