MODEL 1
REMARK minimizedAffinity -1.53782535
REMARK minimizedRMSD -1
REMARK  0 active torsions:
REMARK  status: ('A' for Active; 'I' for Inactive)
ROOT
ATOM      1  C1  DEN d   1       0.027  -3.606  -0.045  0.00  0.00     0.130 A 
ATOM      2  C2  DEN d   1       1.400  -4.101  -0.081  0.00  0.00    -0.031 A 
ATOM      3  C3  DEN d   1       2.286  -3.026   0.408  0.00  0.00     0.027 A 
ATOM      4  C4  DEN d   1       1.669  -0.657   1.218  0.00  0.00     0.027 A 
ATOM      5  C5  DEN d   1       0.630   0.225   1.420  0.00  0.00    -0.003 A 
ATOM      6  C6  DEN d   1      -0.668  -0.093   1.119  0.00  0.00     0.001 A 
ATOM      7  C7  DEN d   1      -0.967  -1.342   0.641  0.00  0.00     0.017 A 
ATOM      8  C8  DEN d   1       0.076  -2.234   0.427  0.00  0.00    -0.094 A 
ATOM      9  C9  DEN d   1       1.380  -1.897   0.749  0.00  0.00    -0.072 A 
ENDROOT
TORSDOF 0
ENDMDL
