MODEL 1
REMARK minimizedAffinity -3.20176268
REMARK minimizedRMSD -1
REMARK  0 active torsions:
REMARK  status: ('A' for Active; 'I' for Inactive)
ROOT
ATOM      1  C1  DEN d   1       3.309  -1.845  -0.099  0.00  0.00     0.130 A 
ATOM      2  C2  DEN d   1       3.447  -3.283  -0.311  0.00  0.00    -0.031 A 
ATOM      3  C3  DEN d   1       2.140  -3.913  -0.038  0.00  0.00     0.027 A 
ATOM      4  C4  DEN d   1      -0.075  -2.805   0.684  0.00  0.00     0.027 A 
ATOM      5  C5  DEN d   1      -0.681  -1.610   1.002  0.00  0.00    -0.003 A 
ATOM      6  C6  DEN d   1       0.004  -0.423   1.009  0.00  0.00     0.001 A 
ATOM      7  C7  DEN d   1       1.325  -0.400   0.647  0.00  0.00     0.017 A 
ATOM      8  C8  DEN d   1       1.944  -1.602   0.332  0.00  0.00    -0.094 A 
ATOM      9  C9  DEN d   1       1.232  -2.789   0.319  0.00  0.00    -0.072 A 
ENDROOT
TORSDOF 0
ENDMDL
