MODEL 1
REMARK minimizedAffinity -6.52591228
REMARK minimizedRMSD -1
REMARK  0 active torsions:
REMARK  status: ('A' for Active; 'I' for Inactive)
ROOT
ATOM      1  C1  DEN d   1       2.058  -3.986   0.009  0.00  0.00     0.130 A 
ATOM      2  C2  DEN d   1       3.449  -3.549   0.100  0.00  0.00    -0.031 A 
ATOM      3  C3  DEN d   1       3.454  -2.110   0.434  0.00  0.00     0.027 A 
ATOM      4  C4  DEN d   1       1.455  -0.527   0.821  0.00  0.00     0.027 A 
ATOM      5  C5  DEN d   1       0.080  -0.439   0.841  0.00  0.00    -0.003 A 
ATOM      6  C6  DEN d   1      -0.725  -1.510   0.554  0.00  0.00     0.001 A 
ATOM      7  C7  DEN d   1      -0.161  -2.728   0.279  0.00  0.00     0.017 A 
ATOM      8  C8  DEN d   1       1.224  -2.823   0.250  0.00  0.00    -0.094 A 
ATOM      9  C9  DEN d   1       2.020  -1.732   0.555  0.00  0.00    -0.072 A 
ENDROOT
TORSDOF 0
ENDMDL
