MODEL 1
REMARK minimizedAffinity 10.6385336
REMARK minimizedRMSD -1
REMARK  0 active torsions:
REMARK  status: ('A' for Active; 'I' for Inactive)
ROOT
ATOM      1  C1  DEN d   1       2.839  -0.232   0.275  0.00  0.00     0.130 A 
ATOM      2  C2  DEN d   1       2.941   0.151   1.680  0.00  0.00    -0.031 A 
ATOM      3  C3  DEN d   1       1.631  -0.093   2.316  0.00  0.00     0.027 A 
ATOM      4  C4  DEN d   1      -0.532  -1.028   1.268  0.00  0.00     0.027 A 
ATOM      5  C5  DEN d   1      -1.109  -1.485   0.103  0.00  0.00    -0.003 A 
ATOM      6  C6  DEN d   1      -0.425  -1.525  -1.083  0.00  0.00     0.001 A 
ATOM      7  C7  DEN d   1       0.889  -1.142  -1.123  0.00  0.00     0.017 A 
ATOM      8  C8  DEN d   1       1.475  -0.672   0.046  0.00  0.00    -0.094 A 
ATOM      9  C9  DEN d   1       0.771  -0.652   1.238  0.00  0.00    -0.072 A 
ENDROOT
TORSDOF 0
ENDMDL
