MODEL 1
REMARK minimizedAffinity 0.114410006
REMARK minimizedRMSD -1
REMARK  0 active torsions:
REMARK  status: ('A' for Active; 'I' for Inactive)
ROOT
ATOM      1  C1  DEN d   1      -1.043  -1.491   1.322  0.00  0.00     0.130 A 
ATOM      2  C2  DEN d   1      -0.718  -0.071   1.431  0.00  0.00    -0.031 A 
ATOM      3  C3  DEN d   1       0.664   0.120   0.946  0.00  0.00     0.027 A 
ATOM      4  C4  DEN d   1       2.322  -1.635   0.038  0.00  0.00     0.027 A 
ATOM      5  C5  DEN d   1       2.503  -2.973  -0.235  0.00  0.00    -0.003 A 
ATOM      6  C6  DEN d   1       1.535  -3.908   0.022  0.00  0.00     0.001 A 
ATOM      7  C7  DEN d   1       0.324  -3.511   0.525  0.00  0.00     0.017 A 
ATOM      8  C8  DEN d   1       0.137  -2.165   0.810  0.00  0.00    -0.094 A 
ATOM      9  C9  DEN d   1       1.123  -1.233   0.532  0.00  0.00    -0.072 A 
ENDROOT
TORSDOF 0
ENDMDL
