MODEL 1
REMARK minimizedAffinity 1.63693309
REMARK minimizedRMSD -1
REMARK  0 active torsions:
REMARK  status: ('A' for Active; 'I' for Inactive)
ROOT
ATOM      1  C1  DEN d   1      -2.180  -0.890   0.904  0.00  0.00     0.130 A 
ATOM      2  C2  DEN d   1      -2.256   0.419   1.548  0.00  0.00    -0.031 A 
ATOM      3  C3  DEN d   1      -0.887   0.821   1.926  0.00  0.00     0.027 A 
ATOM      4  C4  DEN d   1       1.332  -0.445   1.575  0.00  0.00     0.027 A 
ATOM      5  C5  DEN d   1       1.900  -1.600   1.083  0.00  0.00    -0.003 A 
ATOM      6  C6  DEN d   1       1.150  -2.605   0.533  0.00  0.00     0.001 A 
ATOM      7  C7  DEN d   1      -0.207  -2.456   0.419  0.00  0.00     0.017 A 
ATOM      8  C8  DEN d   1      -0.787  -1.298   0.919  0.00  0.00    -0.094 A 
ATOM      9  C9  DEN d   1      -0.011  -0.287   1.461  0.00  0.00    -0.072 A 
ENDROOT
TORSDOF 0
ENDMDL
