MODEL 1
REMARK minimizedAffinity -0.416091412
REMARK minimizedRMSD -1
REMARK  0 active torsions:
REMARK  status: ('A' for Active; 'I' for Inactive)
ROOT
ATOM      1  C1  DEN d   1       0.128  -3.667   0.317  0.00  0.00     0.130 A 
ATOM      2  C2  DEN d   1       1.349  -4.248  -0.234  0.00  0.00    -0.031 A 
ATOM      3  C3  DEN d   1       2.368  -3.182  -0.308  0.00  0.00     0.027 A 
ATOM      4  C4  DEN d   1       2.176  -0.703   0.377  0.00  0.00     0.027 A 
ATOM      5  C5  DEN d   1       1.331   0.259   0.886  0.00  0.00    -0.003 A 
ATOM      6  C6  DEN d   1       0.026  -0.010   1.205  0.00  0.00     0.001 A 
ATOM      7  C7  DEN d   1      -0.459  -1.283   1.063  0.00  0.00     0.017 A 
ATOM      8  C8  DEN d   1       0.385  -2.257   0.544  0.00  0.00    -0.094 A 
ATOM      9  C9  DEN d   1       1.704  -1.968   0.238  0.00  0.00    -0.072 A 
ENDROOT
TORSDOF 0
ENDMDL
