MODEL 1
REMARK minimizedAffinity -6.38123417
REMARK minimizedRMSD -1
REMARK  0 active torsions:
REMARK  status: ('A' for Active; 'I' for Inactive)
ROOT
ATOM      1  C1  DEN d   1       2.265  -3.999   0.069  0.00  0.00     0.130 A 
ATOM      2  C2  DEN d   1       3.585  -3.437  -0.205  0.00  0.00    -0.031 A 
ATOM      3  C3  DEN d   1       3.490  -1.968  -0.087  0.00  0.00     0.027 A 
ATOM      4  C4  DEN d   1       1.439  -0.517   0.496  0.00  0.00     0.027 A 
ATOM      5  C5  DEN d   1       0.095  -0.542   0.800  0.00  0.00    -0.003 A 
ATOM      6  C6  DEN d   1      -0.621  -1.709   0.847  0.00  0.00     0.001 A 
ATOM      7  C7  DEN d   1       0.014  -2.904   0.631  0.00  0.00     0.017 A 
ATOM      8  C8  DEN d   1       1.366  -2.886   0.317  0.00  0.00    -0.094 A 
ATOM      9  C9  DEN d   1       2.075  -1.697   0.286  0.00  0.00    -0.072 A 
ENDROOT
TORSDOF 0
ENDMDL
