MODEL 1
REMARK minimizedAffinity -3.40103006
REMARK minimizedRMSD -1
REMARK  0 active torsions:
REMARK  status: ('A' for Active; 'I' for Inactive)
ROOT
ATOM      1  C1  DEN d   1       1.695  -3.622  -0.116  0.00  0.00     0.130 A 
ATOM      2  C2  DEN d   1       3.019  -3.126  -0.482  0.00  0.00    -0.031 A 
ATOM      3  C3  DEN d   1       3.070  -1.684  -0.168  0.00  0.00     0.027 A 
ATOM      4  C4  DEN d   1       1.239  -0.180   0.849  0.00  0.00     0.027 A 
ATOM      5  C5  DEN d   1      -0.057  -0.148   1.316  0.00  0.00    -0.003 A 
ATOM      6  C6  DEN d   1      -0.864  -1.255   1.306  0.00  0.00     0.001 A 
ATOM      7  C7  DEN d   1      -0.368  -2.452   0.862  0.00  0.00     0.017 A 
ATOM      8  C8  DEN d   1       0.935  -2.491   0.384  0.00  0.00    -0.094 A 
ATOM      9  C9  DEN d   1       1.739  -1.364   0.413  0.00  0.00    -0.072 A 
ENDROOT
TORSDOF 0
ENDMDL
