MODEL 1
REMARK minimizedAffinity -0.702314973
REMARK minimizedRMSD -1
REMARK  0 active torsions:
REMARK  status: ('A' for Active; 'I' for Inactive)
ROOT
ATOM      1  C1  DEN d   1      -0.146  -1.163   0.485  0.00  0.00     0.130 A 
ATOM      2  C2  DEN d   1       0.508   0.105   0.798  0.00  0.00    -0.031 A 
ATOM      3  C3  DEN d   1       1.968  -0.109   0.748  0.00  0.00     0.027 A 
ATOM      4  C4  DEN d   1       3.274  -2.268   0.214  0.00  0.00     0.027 A 
ATOM      5  C5  DEN d   1       3.154  -3.603  -0.104  0.00  0.00    -0.003 A 
ATOM      6  C6  DEN d   1       1.937  -4.221  -0.213  0.00  0.00     0.001 A 
ATOM      7  C7  DEN d   1       0.788  -3.492  -0.048  0.00  0.00     0.017 A 
ATOM      8  C8  DEN d   1       0.901  -2.148   0.280  0.00  0.00    -0.094 A 
ATOM      9  C9  DEN d   1       2.141  -1.538   0.374  0.00  0.00    -0.072 A 
ENDROOT
TORSDOF 0
ENDMDL
