MODEL 1
REMARK minimizedAffinity 3.69047952
REMARK minimizedRMSD -1
REMARK  0 active torsions:
REMARK  status: ('A' for Active; 'I' for Inactive)
ROOT
ATOM      1  C1  DEN d   1       2.231  -2.907   0.939  0.00  0.00     0.130 A 
ATOM      2  C2  DEN d   1       1.786  -4.135   0.285  0.00  0.00    -0.031 A 
ATOM      3  C3  DEN d   1       0.403  -3.925  -0.187  0.00  0.00     0.027 A 
ATOM      4  C4  DEN d   1      -1.084  -1.828   0.026  0.00  0.00     0.027 A 
ATOM      5  C5  DEN d   1      -1.147  -0.542   0.513  0.00  0.00    -0.003 A 
ATOM      6  C6  DEN d   1      -0.109   0.031   1.200  0.00  0.00     0.001 A 
ATOM      7  C7  DEN d   1       1.054  -0.670   1.380  0.00  0.00     0.017 A 
ATOM      8  C8  DEN d   1       1.122  -1.971   0.899  0.00  0.00    -0.094 A 
ATOM      9  C9  DEN d   1       0.067  -2.527   0.196  0.00  0.00    -0.072 A 
ENDROOT
TORSDOF 0
ENDMDL
