MODEL 1
REMARK minimizedAffinity -4.53786516
REMARK minimizedRMSD -1
REMARK  0 active torsions:
REMARK  status: ('A' for Active; 'I' for Inactive)
ROOT
ATOM      1  C1  DEN d   1       3.945  -2.294   0.329  0.00  0.00     0.130 A 
ATOM      2  C2  DEN d   1       3.951  -3.706  -0.042  0.00  0.00    -0.031 A 
ATOM      3  C3  DEN d   1       2.552  -4.176  -0.079  0.00  0.00     0.027 A 
ATOM      4  C4  DEN d   1       0.386  -2.858   0.397  0.00  0.00     0.027 A 
ATOM      5  C5  DEN d   1      -0.125  -1.632   0.762  0.00  0.00    -0.003 A 
ATOM      6  C6  DEN d   1       0.680  -0.559   1.039  0.00  0.00     0.001 A 
ATOM      7  C7  DEN d   1       2.039  -0.678   0.911  0.00  0.00     0.017 A 
ATOM      8  C8  DEN d   1       2.562  -1.913   0.551  0.00  0.00    -0.094 A 
ATOM      9  C9  DEN d   1       1.731  -2.983   0.263  0.00  0.00    -0.072 A 
ENDROOT
TORSDOF 0
ENDMDL
