MODEL 1
REMARK minimizedAffinity -2.44159985
REMARK minimizedRMSD -1
REMARK  0 active torsions:
REMARK  status: ('A' for Active; 'I' for Inactive)
ROOT
ATOM      1  C1  DEN d   1      -1.687  -1.523   0.745  0.00  0.00     0.130 A 
ATOM      2  C2  DEN d   1      -1.488  -0.219   1.371  0.00  0.00    -0.031 A 
ATOM      3  C3  DEN d   1      -0.037   0.046   1.422  0.00  0.00     0.027 A 
ATOM      4  C4  DEN d   1       1.912  -1.426   0.592  0.00  0.00     0.027 A 
ATOM      5  C5  DEN d   1       2.239  -2.626   0.000  0.00  0.00    -0.003 A 
ATOM      6  C6  DEN d   1       1.291  -3.549  -0.351  0.00  0.00     0.001 A 
ATOM      7  C7  DEN d   1      -0.036  -3.268  -0.155  0.00  0.00     0.017 A 
ATOM      8  C8  DEN d   1      -0.373  -2.064   0.448  0.00  0.00    -0.094 A 
ATOM      9  C9  DEN d   1       0.600  -1.138   0.785  0.00  0.00    -0.072 A 
ENDROOT
TORSDOF 0
ENDMDL
