MODEL 1
REMARK minimizedAffinity -1.73047781
REMARK minimizedRMSD -1
REMARK  0 active torsions:
REMARK  status: ('A' for Active; 'I' for Inactive)
ROOT
ATOM      1  C1  DEN d   1      -1.634  -1.251   0.812  0.00  0.00     0.130 A 
ATOM      2  C2  DEN d   1      -1.424   0.097   1.333  0.00  0.00    -0.031 A 
ATOM      3  C3  DEN d   1       0.031   0.343   1.392  0.00  0.00     0.027 A 
ATOM      4  C4  DEN d   1       1.969  -1.224   0.727  0.00  0.00     0.027 A 
ATOM      5  C5  DEN d   1       2.286  -2.474   0.243  0.00  0.00    -0.003 A 
ATOM      6  C6  DEN d   1       1.329  -3.408  -0.051  0.00  0.00     0.001 A 
ATOM      7  C7  DEN d   1       0.004  -3.091   0.094  0.00  0.00     0.017 A 
ATOM      8  C8  DEN d   1      -0.324  -1.835   0.588  0.00  0.00    -0.094 A 
ATOM      9  C9  DEN d   1       0.658  -0.900   0.868  0.00  0.00    -0.072 A 
ENDROOT
TORSDOF 0
ENDMDL
