MODEL 1
REMARK minimizedAffinity -7.04860878
REMARK minimizedRMSD -1
REMARK  0 active torsions:
REMARK  status: ('A' for Active; 'I' for Inactive)
ROOT
ATOM      1  C1  DEN d   1       1.335  -0.111   0.941  0.00  0.00     0.130 A 
ATOM      2  C2  DEN d   1      -0.123  -0.184   0.941  0.00  0.00    -0.031 A 
ATOM      3  C3  DEN d   1      -0.511  -1.576   0.637  0.00  0.00     0.027 A 
ATOM      4  C4  DEN d   1       0.997  -3.616   0.174  0.00  0.00     0.027 A 
ATOM      5  C5  DEN d   1       2.300  -4.045   0.054  0.00  0.00    -0.003 A 
ATOM      6  C6  DEN d   1       3.364  -3.192   0.187  0.00  0.00     0.001 A 
ATOM      7  C7  DEN d   1       3.144  -1.875   0.492  0.00  0.00     0.017 A 
ATOM      8  C8  DEN d   1       1.832  -1.434   0.607  0.00  0.00    -0.094 A 
ATOM      9  C9  DEN d   1       0.771  -2.314   0.482  0.00  0.00    -0.072 A 
ENDROOT
TORSDOF 0
ENDMDL
