MODEL 1
REMARK minimizedAffinity -3.33850527
REMARK minimizedRMSD -1
REMARK  0 active torsions:
REMARK  status: ('A' for Active; 'I' for Inactive)
ROOT
ATOM      1  C   UNL d   1      -3.651   0.058   2.575  0.00  0.00     0.020 A 
ATOM      2  C1  UNL d   1      -3.374   1.320   2.051  0.00  0.00     0.020 A 
ATOM      3  C2  UNL d   1      -2.151   1.563   1.423  0.00  0.00     0.034 A 
ATOM      4  C3  UNL d   1      -1.199   0.542   1.317  0.00  0.00     0.017 A 
ATOM      5  C4  UNL d   1      -1.478  -0.725   1.844  0.00  0.00     0.017 A 
ATOM      6  C5  UNL d   1      -2.704  -0.962   2.471  0.00  0.00     0.034 A 
ATOM      7 Cl   UNL d   1      -0.353  -2.034   1.752  0.00  0.00    -0.070 Cl
ATOM      8 Cl1  UNL d   1       0.292   0.913   0.528  0.00  0.00    -0.070 Cl
ENDROOT
TORSDOF 0
ENDMDL
