MODEL 1
REMARK minimizedAffinity -1.83814788
REMARK minimizedRMSD -1
REMARK  0 active torsions:
REMARK  status: ('A' for Active; 'I' for Inactive)
ROOT
ATOM      1  C   UNL d   1       0.888   0.628  -0.348  0.00  0.00     0.020 A 
ATOM      2  C1  UNL d   1       0.507  -0.541  -1.004  0.00  0.00     0.020 A 
ATOM      3  C2  UNL d   1      -0.699  -1.164  -0.677  0.00  0.00     0.034 A 
ATOM      4  C3  UNL d   1      -1.528  -0.618   0.309  0.00  0.00     0.017 A 
ATOM      5  C4  UNL d   1      -1.145   0.556   0.967  0.00  0.00     0.017 A 
ATOM      6  C5  UNL d   1       0.064   1.176   0.636  0.00  0.00     0.034 A 
ATOM      7 Cl   UNL d   1      -2.116   1.289   2.195  0.00  0.00    -0.070 Cl
ATOM      8 Cl1  UNL d   1      -3.006  -1.442   0.662  0.00  0.00    -0.070 Cl
ENDROOT
TORSDOF 0
ENDMDL
