MODEL 1
REMARK minimizedAffinity -3.56514001
REMARK minimizedRMSD -1
REMARK  0 active torsions:
REMARK  status: ('A' for Active; 'I' for Inactive)
ROOT
ATOM      1  C   UNL d   1       1.570   0.666  -2.353  0.00  0.00     0.020 A 
ATOM      2  C1  UNL d   1       0.562  -0.296  -2.312  0.00  0.00     0.020 A 
ATOM      3  C2  UNL d   1       0.049  -0.719  -1.084  0.00  0.00     0.034 A 
ATOM      4  C3  UNL d   1       0.544  -0.179   0.109  0.00  0.00     0.017 A 
ATOM      5  C4  UNL d   1       1.557   0.786   0.067  0.00  0.00     0.017 A 
ATOM      6  C5  UNL d   1       2.066   1.206  -1.165  0.00  0.00     0.034 A 
ATOM      7 Cl   UNL d   1       2.218   1.498   1.497  0.00  0.00    -0.070 Cl
ATOM      8 Cl1  UNL d   1      -0.136  -0.748   1.592  0.00  0.00    -0.070 Cl
ENDROOT
TORSDOF 0
ENDMDL
