MODEL 1
REMARK minimizedAffinity -3.23024583
REMARK minimizedRMSD -1
REMARK  0 active torsions:
REMARK  status: ('A' for Active; 'I' for Inactive)
ROOT
ATOM      1  C   UNL d   1       1.817   0.151  -2.578  0.00  0.00     0.020 A 
ATOM      2  C1  UNL d   1       2.345  -1.140  -2.604  0.00  0.00     0.020 A 
ATOM      3  C2  UNL d   1       1.923  -2.086  -1.667  0.00  0.00     0.034 A 
ATOM      4  C3  UNL d   1       0.969  -1.743  -0.702  0.00  0.00     0.017 A 
ATOM      5  C4  UNL d   1       0.439  -0.448  -0.678  0.00  0.00     0.017 A 
ATOM      6  C5  UNL d   1       0.866   0.496  -1.617  0.00  0.00     0.034 A 
ATOM      7 Cl   UNL d   1      -0.741   0.050   0.483  0.00  0.00    -0.070 Cl
ATOM      8 Cl1  UNL d   1       0.492  -2.963   0.425  0.00  0.00    -0.070 Cl
ENDROOT
TORSDOF 0
ENDMDL
