MODEL 1
REMARK minimizedAffinity -5.765347
REMARK minimizedRMSD -1
REMARK  0 active torsions:
REMARK  status: ('A' for Active; 'I' for Inactive)
ROOT
ATOM      1  C   UNL d   1       2.194  -1.387  -2.552  0.00  0.00     0.020 A 
ATOM      2  C1  UNL d   1       1.544  -0.166  -2.728  0.00  0.00     0.020 A 
ATOM      3  C2  UNL d   1       0.641   0.289  -1.764  0.00  0.00     0.034 A 
ATOM      4  C3  UNL d   1       0.387  -0.477  -0.621  0.00  0.00     0.017 A 
ATOM      5  C4  UNL d   1       1.041  -1.702  -0.445  0.00  0.00     0.017 A 
ATOM      6  C5  UNL d   1       1.943  -2.153  -1.413  0.00  0.00     0.034 A 
ATOM      7 Cl   UNL d   1       0.778  -2.703   0.939  0.00  0.00    -0.070 Cl
ATOM      8 Cl1  UNL d   1      -0.741   0.147   0.530  0.00  0.00    -0.070 Cl
ENDROOT
TORSDOF 0
ENDMDL
