MODEL 1
REMARK minimizedAffinity -2.40457678
REMARK minimizedRMSD -1
REMARK  0 active torsions:
REMARK  status: ('A' for Active; 'I' for Inactive)
ROOT
ATOM      1  C   UNL d   1      -3.251   0.914   0.734  0.00  0.00     0.020 A 
ATOM      2  C1  UNL d   1      -2.920   1.409  -0.526  0.00  0.00     0.020 A 
ATOM      3  C2  UNL d   1      -1.720   1.029  -1.132  0.00  0.00     0.034 A 
ATOM      4  C3  UNL d   1      -0.848   0.152  -0.477  0.00  0.00     0.017 A 
ATOM      5  C4  UNL d   1      -1.182  -0.344   0.788  0.00  0.00     0.017 A 
ATOM      6  C5  UNL d   1      -2.384   0.039   1.390  0.00  0.00     0.034 A 
ATOM      7 Cl   UNL d   1      -0.156  -1.430   1.658  0.00  0.00    -0.070 Cl
ATOM      8 Cl1  UNL d   1       0.619  -0.275  -1.285  0.00  0.00    -0.070 Cl
ENDROOT
TORSDOF 0
ENDMDL
