MODEL 1
REMARK minimizedAffinity -2.73561811
REMARK minimizedRMSD -1
REMARK  0 active torsions:
REMARK  status: ('A' for Active; 'I' for Inactive)
ROOT
ATOM      1  C   UNL d   1       0.743  -1.054  -2.359  0.00  0.00     0.020 A 
ATOM      2  C1  UNL d   1       0.341   0.273  -2.212  0.00  0.00     0.020 A 
ATOM      3  C2  UNL d   1      -0.327   0.676  -1.053  0.00  0.00     0.034 A 
ATOM      4  C3  UNL d   1      -0.594  -0.250  -0.037  0.00  0.00     0.017 A 
ATOM      5  C4  UNL d   1      -0.189  -1.581  -0.186  0.00  0.00     0.017 A 
ATOM      6  C5  UNL d   1       0.479  -1.979  -1.349  0.00  0.00     0.034 A 
ATOM      7 Cl   UNL d   1      -0.483  -2.780   1.023  0.00  0.00    -0.070 Cl
ATOM      8 Cl1  UNL d   1      -1.423   0.317   1.369  0.00  0.00    -0.070 Cl
ENDROOT
TORSDOF 0
ENDMDL
