MODEL 1
REMARK minimizedAffinity -0.520376205
REMARK minimizedRMSD -1
REMARK  0 active torsions:
REMARK  status: ('A' for Active; 'I' for Inactive)
ROOT
ATOM      1  C   UNL d   1      -0.772   0.022   1.135  0.00  0.00     0.020 A 
ATOM      2  C1  UNL d   1      -0.247   1.238   0.699  0.00  0.00     0.020 A 
ATOM      3  C2  UNL d   1       0.763   1.256  -0.266  0.00  0.00     0.034 A 
ATOM      4  C3  UNL d   1       1.251   0.056  -0.796  0.00  0.00     0.017 A 
ATOM      5  C4  UNL d   1       0.723  -1.164  -0.357  0.00  0.00     0.017 A 
ATOM      6  C5  UNL d   1      -0.288  -1.176   0.609  0.00  0.00     0.034 A 
ATOM      7 Cl   UNL d   1       1.275  -2.685  -0.965  0.00  0.00    -0.070 Cl
ATOM      8 Cl1  UNL d   1       2.501   0.153  -1.985  0.00  0.00    -0.070 Cl
ENDROOT
TORSDOF 0
ENDMDL
