MODEL 1
REMARK minimizedAffinity -1.62634289
REMARK minimizedRMSD -1
REMARK  0 active torsions:
REMARK  status: ('A' for Active; 'I' for Inactive)
ROOT
ATOM      1  C   UNL d   1      -2.480   2.873   2.612  0.00  0.00     0.020 A 
ATOM      2  C1  UNL d   1      -3.845   2.621   2.489  0.00  0.00     0.020 A 
ATOM      3  C2  UNL d   1      -4.286   1.431   1.905  0.00  0.00     0.034 A 
ATOM      4  C3  UNL d   1      -3.360   0.489   1.442  0.00  0.00     0.017 A 
ATOM      5  C4  UNL d   1      -1.989   0.743   1.566  0.00  0.00     0.017 A 
ATOM      6  C5  UNL d   1      -1.554   1.936   2.151  0.00  0.00     0.034 A 
ATOM      7 Cl   UNL d   1      -0.787  -0.371   1.018  0.00  0.00    -0.070 Cl
ATOM      8 Cl1  UNL d   1      -3.975  -0.960   0.731  0.00  0.00    -0.070 Cl
ENDROOT
TORSDOF 0
ENDMDL
