MODEL 1
REMARK minimizedAffinity -1.97512114
REMARK minimizedRMSD -1
REMARK  0 active torsions:
REMARK  status: ('A' for Active; 'I' for Inactive)
ROOT
ATOM      1  C   UNL d   1       1.850   0.795  -2.132  0.00  0.00     0.020 A 
ATOM      2  C1  UNL d   1       1.753   1.560  -0.971  0.00  0.00     0.020 A 
ATOM      3  C2  UNL d   1       1.063   1.063   0.137  0.00  0.00     0.034 A 
ATOM      4  C3  UNL d   1       0.467  -0.202   0.085  0.00  0.00     0.017 A 
ATOM      5  C4  UNL d   1       0.565  -0.969  -1.081  0.00  0.00     0.017 A 
ATOM      6  C5  UNL d   1       1.257  -0.467  -2.187  0.00  0.00     0.034 A 
ATOM      7 Cl   UNL d   1      -0.144  -2.539  -1.221  0.00  0.00    -0.070 Cl
ATOM      8 Cl1  UNL d   1      -0.371  -0.754   1.492  0.00  0.00    -0.070 Cl
ENDROOT
TORSDOF 0
ENDMDL
