MODEL 1
REMARK minimizedAffinity -2.94152403
REMARK minimizedRMSD -1
REMARK  0 active torsions:
REMARK  status: ('A' for Active; 'I' for Inactive)
ROOT
ATOM      1  C   UNL d   1      -3.432   3.730   3.441  0.00  0.00     0.020 A 
ATOM      2  C1  UNL d   1      -2.059   3.568   3.623  0.00  0.00     0.020 A 
ATOM      3  C2  UNL d   1      -1.415   2.442   3.107  0.00  0.00     0.034 A 
ATOM      4  C3  UNL d   1      -2.143   1.473   2.407  0.00  0.00     0.017 A 
ATOM      5  C4  UNL d   1      -3.521   1.637   2.225  0.00  0.00     0.017 A 
ATOM      6  C5  UNL d   1      -4.161   2.766   2.743  0.00  0.00     0.034 A 
ATOM      7 Cl   UNL d   1      -4.486   0.484   1.372  0.00  0.00    -0.070 Cl
ATOM      8 Cl1  UNL d   1      -1.281   0.106   1.796  0.00  0.00    -0.070 Cl
ENDROOT
TORSDOF 0
ENDMDL
