MODEL 1
REMARK minimizedAffinity -1.86917591
REMARK minimizedRMSD -1
REMARK  0 active torsions:
REMARK  status: ('A' for Active; 'I' for Inactive)
ROOT
ATOM      1  C   UNL d   1       2.105   0.520  -1.958  0.00  0.00     0.020 A 
ATOM      2  C1  UNL d   1       1.464   1.588  -1.331  0.00  0.00     0.020 A 
ATOM      3  C2  UNL d   1       0.457   1.346  -0.395  0.00  0.00     0.034 A 
ATOM      4  C3  UNL d   1       0.088   0.033  -0.082  0.00  0.00     0.017 A 
ATOM      5  C4  UNL d   1       0.732  -1.039  -0.711  0.00  0.00     0.017 A 
ATOM      6  C5  UNL d   1       1.739  -0.791  -1.648  0.00  0.00     0.034 A 
ATOM      7 Cl   UNL d   1       0.331  -2.687  -0.377  0.00  0.00    -0.070 Cl
ATOM      8 Cl1  UNL d   1      -1.166  -0.193   1.086  0.00  0.00    -0.070 Cl
ENDROOT
TORSDOF 0
ENDMDL
