MODEL 1
REMARK minimizedAffinity -0.765888095
REMARK minimizedRMSD -1
REMARK  0 active torsions:
REMARK  status: ('A' for Active; 'I' for Inactive)
ROOT
ATOM      1  C   UNL d   1      -0.677   0.320   1.301  0.00  0.00     0.020 A 
ATOM      2  C1  UNL d   1      -0.075   1.418   0.689  0.00  0.00     0.020 A 
ATOM      3  C2  UNL d   1       0.776   1.229  -0.402  0.00  0.00     0.034 A 
ATOM      4  C3  UNL d   1       1.028  -0.061  -0.884  0.00  0.00     0.017 A 
ATOM      5  C4  UNL d   1       0.422  -1.162  -0.268  0.00  0.00     0.017 A 
ATOM      6  C5  UNL d   1      -0.429  -0.967   0.824  0.00  0.00     0.034 A 
ATOM      7 Cl   UNL d   1       0.684  -2.784  -0.806  0.00  0.00    -0.070 Cl
ATOM      8 Cl1  UNL d   1       2.090  -0.220  -2.236  0.00  0.00    -0.070 Cl
ENDROOT
TORSDOF 0
ENDMDL
