MODEL 1
REMARK minimizedAffinity 0.421884567
REMARK minimizedRMSD -1
REMARK  0 active torsions:
REMARK  status: ('A' for Active; 'I' for Inactive)
ROOT
ATOM      1  C   UNL d   1       1.497   1.572  -1.037  0.00  0.00     0.020 A 
ATOM      2  C1  UNL d   1       2.293   0.447  -1.247  0.00  0.00     0.020 A 
ATOM      3  C2  UNL d   1       1.874  -0.802  -0.785  0.00  0.00     0.034 A 
ATOM      4  C3  UNL d   1       0.654  -0.930  -0.110  0.00  0.00     0.017 A 
ATOM      5  C4  UNL d   1      -0.144   0.200   0.101  0.00  0.00     0.017 A 
ATOM      6  C5  UNL d   1       0.281   1.448  -0.364  0.00  0.00     0.034 A 
ATOM      7 Cl   UNL d   1      -1.661   0.122   0.926  0.00  0.00    -0.070 Cl
ATOM      8 Cl1  UNL d   1       0.198  -2.505   0.434  0.00  0.00    -0.070 Cl
ENDROOT
TORSDOF 0
ENDMDL
