MODEL 1
REMARK minimizedAffinity -3.55006289
REMARK minimizedRMSD -1
REMARK  0 active torsions:
REMARK  status: ('A' for Active; 'I' for Inactive)
ROOT
ATOM      1  C   UNL d   1       1.978   0.774  -2.371  0.00  0.00     0.020 A 
ATOM      2  C1  UNL d   1       1.591   1.874  -1.608  0.00  0.00     0.020 A 
ATOM      3  C2  UNL d   1       0.837   1.688  -0.447  0.00  0.00     0.034 A 
ATOM      4  C3  UNL d   1       0.468   0.398  -0.047  0.00  0.00     0.017 A 
ATOM      5  C4  UNL d   1       0.857  -0.705  -0.815  0.00  0.00     0.017 A 
ATOM      6  C5  UNL d   1       1.612  -0.513  -1.976  0.00  0.00     0.034 A 
ATOM      7 Cl   UNL d   1       0.440  -2.327  -0.385  0.00  0.00    -0.070 Cl
ATOM      8 Cl1  UNL d   1      -0.465   0.242   1.399  0.00  0.00    -0.070 Cl
ENDROOT
TORSDOF 0
ENDMDL
