MODEL 1
REMARK minimizedAffinity -4.62895823
REMARK minimizedRMSD -1
REMARK  0 active torsions:
REMARK  status: ('A' for Active; 'I' for Inactive)
ROOT
ATOM      1  C   UNL d   1       0.506  -0.305  -2.211  0.00  0.00     0.020 A 
ATOM      2  C1  UNL d   1      -0.248   0.852  -2.020  0.00  0.00     0.020 A 
ATOM      3  C2  UNL d   1      -0.879   1.081  -0.795  0.00  0.00     0.034 A 
ATOM      4  C3  UNL d   1      -0.756   0.152   0.244  0.00  0.00     0.017 A 
ATOM      5  C4  UNL d   1       0.002  -1.009   0.052  0.00  0.00     0.017 A 
ATOM      6  C5  UNL d   1       0.631  -1.233  -1.177  0.00  0.00     0.034 A 
ATOM      7 Cl   UNL d   1       0.200  -2.202   1.287  0.00  0.00    -0.070 Cl
ATOM      8 Cl1  UNL d   1      -1.562   0.499   1.732  0.00  0.00    -0.070 Cl
ENDROOT
TORSDOF 0
ENDMDL
