MODEL 1
REMARK minimizedAffinity 4.41561556
REMARK minimizedRMSD -1
REMARK  0 active torsions:
REMARK  status: ('A' for Active; 'I' for Inactive)
ROOT
ATOM      1  C   UNL d   1       5.355  -1.870   5.840  0.00  0.00     0.023 A 
ATOM      2  C1  UNL d   1       4.723  -0.637   6.000  0.00  0.00     0.003 A 
ATOM      3  C2  UNL d   1       3.607  -0.317   5.224  0.00  0.00     0.048 A 
ATOM      4  C3  UNL d   1       3.128  -1.235   4.290  0.00  0.00     0.023 A 
ATOM      5  C4  UNL d   1       3.758  -2.470   4.126  0.00  0.00     0.048 A 
ATOM      6  C5  UNL d   1       4.873  -2.785   4.904  0.00  0.00     0.003 A 
ATOM      7  I   UNL d   1       1.468  -0.761   3.133  0.00  0.00    -0.146 I 
ENDROOT
TORSDOF 0
ENDMDL
