MODEL 1
REMARK minimizedAffinity -1.01883018
REMARK minimizedRMSD -1
REMARK  0 active torsions:
REMARK  status: ('A' for Active; 'I' for Inactive)
ROOT
ATOM      1  C   UNL d   1      -1.345  -0.130   2.344  0.00  0.00     0.023 A 
ATOM      2  C1  UNL d   1      -1.572   0.414   1.079  0.00  0.00     0.003 A 
ATOM      3  C2  UNL d   1      -0.523   0.519   0.164  0.00  0.00     0.048 A 
ATOM      4  C3  UNL d   1       0.751   0.077   0.519  0.00  0.00     0.023 A 
ATOM      5  C4  UNL d   1       0.983  -0.469   1.783  0.00  0.00     0.048 A 
ATOM      6  C5  UNL d   1      -0.069  -0.571   2.695  0.00  0.00     0.003 A 
ATOM      7  I   UNL d   1       2.315   0.232  -0.841  0.00  0.00    -0.146 I 
ENDROOT
TORSDOF 0
ENDMDL
