MODEL 1
REMARK minimizedAffinity 1.09912205
REMARK minimizedRMSD -1
REMARK  0 active torsions:
REMARK  status: ('A' for Active; 'I' for Inactive)
ROOT
ATOM      1  C   UNL d   1      -1.800  -0.718   3.403  0.00  0.00     0.023 A 
ATOM      2  C1  UNL d   1      -0.512  -1.143   3.727  0.00  0.00     0.003 A 
ATOM      3  C2  UNL d   1       0.548  -0.893   2.853  0.00  0.00     0.048 A 
ATOM      4  C3  UNL d   1       0.313  -0.216   1.657  0.00  0.00     0.023 A 
ATOM      5  C4  UNL d   1      -0.975   0.213   1.329  0.00  0.00     0.048 A 
ATOM      6  C5  UNL d   1      -2.032  -0.041   2.205  0.00  0.00     0.003 A 
ATOM      7  I   UNL d   1       1.888   0.158   0.355  0.00  0.00    -0.146 I 
ENDROOT
TORSDOF 0
ENDMDL
