MODEL 1
REMARK minimizedAffinity 3.95452976
REMARK minimizedRMSD -1
REMARK  0 active torsions:
REMARK  status: ('A' for Active; 'I' for Inactive)
ROOT
ATOM      1  C   UNL d   1      -1.161   0.102  -0.518  0.00  0.00     0.023 A 
ATOM      2  C1  UNL d   1       0.159  -0.200  -0.181  0.00  0.00     0.003 A 
ATOM      3  C2  UNL d   1       0.491  -0.513   1.139  0.00  0.00     0.048 A 
ATOM      4  C3  UNL d   1      -0.503  -0.524   2.117  0.00  0.00     0.023 A 
ATOM      5  C4  UNL d   1      -1.825  -0.224   1.785  0.00  0.00     0.048 A 
ATOM      6  C5  UNL d   1      -2.152   0.089   0.464  0.00  0.00     0.003 A 
ATOM      7  I   UNL d   1      -0.012  -0.991   4.082  0.00  0.00    -0.146 I 
ENDROOT
TORSDOF 0
ENDMDL
