MODEL 1
REMARK minimizedAffinity 1.8161881
REMARK minimizedRMSD -1
REMARK  0 active torsions:
REMARK  status: ('A' for Active; 'I' for Inactive)
ROOT
ATOM      1  C   UNL d   1      -2.777   0.026   0.791  0.00  0.00     0.023 A 
ATOM      2  C1  UNL d   1      -2.039   0.018  -0.393  0.00  0.00     0.003 A 
ATOM      3  C2  UNL d   1      -0.656  -0.172  -0.353  0.00  0.00     0.048 A 
ATOM      4  C3  UNL d   1      -0.018  -0.355   0.873  0.00  0.00     0.023 A 
ATOM      5  C4  UNL d   1      -0.752  -0.349   2.060  0.00  0.00     0.048 A 
ATOM      6  C5  UNL d   1      -2.135  -0.157   2.016  0.00  0.00     0.003 A 
ATOM      7  I   UNL d   1       2.040  -0.639   0.934  0.00  0.00    -0.146 I 
ENDROOT
TORSDOF 0
ENDMDL
