MODEL 1
REMARK minimizedAffinity -3.13460803
REMARK minimizedRMSD -1
REMARK  0 active torsions:
REMARK  status: ('A' for Active; 'I' for Inactive)
ROOT
ATOM      1  C   UNL d   1      -1.398  -0.352   3.406  0.00  0.00     0.023 A 
ATOM      2  C1  UNL d   1      -2.340   0.258   2.578  0.00  0.00     0.003 A 
ATOM      3  C2  UNL d   1      -2.042   0.495   1.235  0.00  0.00     0.048 A 
ATOM      4  C3  UNL d   1      -0.799   0.118   0.726  0.00  0.00     0.023 A 
ATOM      5  C4  UNL d   1       0.147  -0.493   1.550  0.00  0.00     0.048 A 
ATOM      6  C5  UNL d   1      -0.156  -0.727   2.893  0.00  0.00     0.003 A 
ATOM      7  I   UNL d   1      -0.353   0.470  -1.273  0.00  0.00    -0.146 I 
ENDROOT
TORSDOF 0
ENDMDL
