MODEL 1
REMARK minimizedAffinity -1.49893618
REMARK minimizedRMSD -1
REMARK  0 active torsions:
REMARK  status: ('A' for Active; 'I' for Inactive)
ROOT
ATOM      1  C   UNL d   1      -1.197  -0.094   1.144  0.00  0.00     0.023 A 
ATOM      2  C1  UNL d   1       0.074  -0.669   1.154  0.00  0.00     0.003 A 
ATOM      3  C2  UNL d   1       0.648  -1.077   2.360  0.00  0.00     0.048 A 
ATOM      4  C3  UNL d   1      -0.055  -0.909   3.552  0.00  0.00     0.023 A 
ATOM      5  C4  UNL d   1      -1.328  -0.335   3.547  0.00  0.00     0.048 A 
ATOM      6  C5  UNL d   1      -1.897   0.073   2.339  0.00  0.00     0.003 A 
ATOM      7  I   UNL d   1       0.796  -1.515   5.348  0.00  0.00    -0.146 I 
ENDROOT
TORSDOF 0
ENDMDL
