MODEL 1
REMARK minimizedAffinity -1.2593236
REMARK minimizedRMSD -1
REMARK  0 active torsions:
REMARK  status: ('A' for Active; 'I' for Inactive)
ROOT
ATOM      1  C   UNL d   1      -2.289  -0.485   0.885  0.00  0.00     0.023 A 
ATOM      2  C1  UNL d   1      -1.754  -0.745  -0.377  0.00  0.00     0.003 A 
ATOM      3  C2  UNL d   1      -0.370  -0.737  -0.565  0.00  0.00     0.048 A 
ATOM      4  C3  UNL d   1       0.473  -0.471   0.514  0.00  0.00     0.023 A 
ATOM      5  C4  UNL d   1      -0.059  -0.211   1.778  0.00  0.00     0.048 A 
ATOM      6  C5  UNL d   1      -1.443  -0.219   1.961  0.00  0.00     0.003 A 
ATOM      7  I   UNL d   1       2.532  -0.459   0.237  0.00  0.00    -0.146 I 
ENDROOT
TORSDOF 0
ENDMDL
