MODEL 1
REMARK minimizedAffinity 2.69072914
REMARK minimizedRMSD -1
REMARK  0 active torsions:
REMARK  status: ('A' for Active; 'I' for Inactive)
ROOT
ATOM      1  C   UNL d   1       5.117  -0.088  -0.086  0.00  0.00     0.023 A 
ATOM      2  C1  UNL d   1       5.558  -0.299  -1.393  0.00  0.00     0.003 A 
ATOM      3  C2  UNL d   1       4.761   0.090  -2.471  0.00  0.00     0.048 A 
ATOM      4  C3  UNL d   1       3.525   0.691  -2.236  0.00  0.00     0.023 A 
ATOM      5  C4  UNL d   1       3.080   0.905  -0.931  0.00  0.00     0.048 A 
ATOM      6  C5  UNL d   1       3.880   0.513   0.144  0.00  0.00     0.003 A 
ATOM      7  I   UNL d   1       2.338   1.272  -3.840  0.00  0.00    -0.146 I 
ENDROOT
TORSDOF 0
ENDMDL
