MODEL 1
REMARK minimizedAffinity 10.0623341
REMARK minimizedRMSD -1
REMARK  0 active torsions:
REMARK  status: ('A' for Active; 'I' for Inactive)
ROOT
ATOM      1  C   UNL d   1      -5.527  -1.518  -1.215  0.00  0.00    -0.002 A 
ATOM      2  C1  UNL d   1      -5.715  -2.101  -2.460  0.00  0.00     0.010 A 
ATOM      3  C2  UNL d   1      -5.631  -3.486  -2.616  0.00  0.00     0.041 A 
ATOM      4  C3  UNL d   1      -5.353  -4.283  -1.488  0.00  0.00    -0.075 A 
ATOM      5  S   UNL d   1      -5.204  -6.000  -1.439  0.00  0.00     0.015 SA
ATOM      6  C4  UNL d   1      -4.888  -6.000   0.235  0.00  0.00     0.022 A 
ATOM      7  C5  UNL d   1      -4.892  -4.730   0.761  0.00  0.00     0.026 A 
ATOM      8  C6  UNL d   1      -5.161  -3.719  -0.223  0.00  0.00    -0.082 A 
ATOM      9  C7  UNL d   1      -5.252  -2.312  -0.098  0.00  0.00     0.045 A 
ENDROOT
TORSDOF 0
ENDMDL
