MODEL 1
REMARK minimizedAffinity 2.44344139
REMARK minimizedRMSD -1
REMARK  0 active torsions:
REMARK  status: ('A' for Active; 'I' for Inactive)
ROOT
ATOM      1  C   UNL d   1      -5.846  -2.139  -3.893  0.00  0.00    -0.002 A 
ATOM      2  C1  UNL d   1      -5.795  -3.323  -4.615  0.00  0.00     0.010 A 
ATOM      3  C2  UNL d   1      -5.805  -4.556  -3.959  0.00  0.00     0.041 A 
ATOM      4  C3  UNL d   1      -5.871  -4.579  -2.552  0.00  0.00    -0.075 A 
ATOM      5  S   UNL d   1      -5.897  -5.971  -1.535  0.00  0.00     0.015 SA
ATOM      6  C4  UNL d   1      -5.978  -5.027  -0.118  0.00  0.00     0.022 A 
ATOM      7  C5  UNL d   1      -5.985  -3.680  -0.396  0.00  0.00     0.026 A 
ATOM      8  C6  UNL d   1      -5.924  -3.400  -1.803  0.00  0.00    -0.082 A 
ATOM      9  C7  UNL d   1      -5.911  -2.166  -2.497  0.00  0.00     0.045 A 
ENDROOT
TORSDOF 0
ENDMDL
