MODEL 1
REMARK minimizedAffinity 16.6478405
REMARK minimizedRMSD -1
REMARK  0 active torsions:
REMARK  status: ('A' for Active; 'I' for Inactive)
ROOT
ATOM      1  C   UNL d   1       3.916   5.313  -4.820  0.00  0.00    -0.002 A 
ATOM      2  C1  UNL d   1       4.603   4.165  -5.191  0.00  0.00     0.010 A 
ATOM      3  C2  UNL d   1       4.419   2.971  -4.492  0.00  0.00     0.041 A 
ATOM      4  C3  UNL d   1       3.523   2.947  -3.406  0.00  0.00    -0.075 A 
ATOM      5  S   UNL d   1       3.138   1.598  -2.405  0.00  0.00     0.015 SA
ATOM      6  C4  UNL d   1       2.051   2.512  -1.462  0.00  0.00     0.022 A 
ATOM      7  C5  UNL d   1       1.973   3.817  -1.886  0.00  0.00     0.026 A 
ATOM      8  C6  UNL d   1       2.819   4.090  -3.014  0.00  0.00    -0.082 A 
ATOM      9  C7  UNL d   1       3.028   5.286  -3.741  0.00  0.00     0.045 A 
ENDROOT
TORSDOF 0
ENDMDL
