MODEL 1
REMARK minimizedAffinity 14.9345694
REMARK minimizedRMSD -1
REMARK  0 active torsions:
REMARK  status: ('A' for Active; 'I' for Inactive)
ROOT
ATOM      1  C   UNL d   1       0.293  -0.496  -1.992  0.00  0.00    -0.002 A 
ATOM      2  C1  UNL d   1       1.202  -0.868  -2.973  0.00  0.00     0.010 A 
ATOM      3  C2  UNL d   1       2.131   0.051  -3.465  0.00  0.00     0.041 A 
ATOM      4  C3  UNL d   1       2.133   1.361  -2.948  0.00  0.00    -0.075 A 
ATOM      5  S   UNL d   1       3.180   2.655  -3.399  0.00  0.00     0.015 SA
ATOM      6  C4  UNL d   1       2.446   3.731  -2.299  0.00  0.00     0.022 A 
ATOM      7  C5  UNL d   1       1.426   3.134  -1.597  0.00  0.00     0.026 A 
ATOM      8  C6  UNL d   1       1.229   1.759  -1.959  0.00  0.00    -0.082 A 
ATOM      9  C7  UNL d   1       0.298   0.804  -1.482  0.00  0.00     0.045 A 
ENDROOT
TORSDOF 0
ENDMDL
