MODEL 1
REMARK minimizedAffinity 12.9368382
REMARK minimizedRMSD -1
REMARK  0 active torsions:
REMARK  status: ('A' for Active; 'I' for Inactive)
ROOT
ATOM      1  C   UNL d   1       3.149   5.467  -4.135  0.00  0.00    -0.002 A 
ATOM      2  C1  UNL d   1       3.932   4.416  -4.594  0.00  0.00     0.010 A 
ATOM      3  C2  UNL d   1       3.896   3.174  -3.958  0.00  0.00     0.041 A 
ATOM      4  C3  UNL d   1       3.051   3.002  -2.844  0.00  0.00    -0.075 A 
ATOM      5  S   UNL d   1       2.842   1.569  -1.909  0.00  0.00     0.015 SA
ATOM      6  C4  UNL d   1       1.708   2.317  -0.879  0.00  0.00     0.022 A 
ATOM      7  C5  UNL d   1       1.483   3.628  -1.226  0.00  0.00     0.026 A 
ATOM      8  C6  UNL d   1       2.252   4.044  -2.364  0.00  0.00    -0.082 A 
ATOM      9  C7  UNL d   1       2.312   5.293  -3.030  0.00  0.00     0.045 A 
ENDROOT
TORSDOF 0
ENDMDL
