MODEL 1
REMARK minimizedAffinity 9.70076084
REMARK minimizedRMSD -1
REMARK  0 active torsions:
REMARK  status: ('A' for Active; 'I' for Inactive)
ROOT
ATOM      1  C   UNL d   1      -1.898   0.007   1.684  0.00  0.00    -0.002 A 
ATOM      2  C1  UNL d   1      -0.756   0.651   2.140  0.00  0.00     0.010 A 
ATOM      3  C2  UNL d   1      -0.815   1.975   2.578  0.00  0.00     0.041 A 
ATOM      4  C3  UNL d   1      -2.053   2.647   2.553  0.00  0.00    -0.075 A 
ATOM      5  S   UNL d   1      -2.364   4.271   3.043  0.00  0.00     0.015 SA
ATOM      6  C4  UNL d   1      -4.020   4.147   2.660  0.00  0.00     0.022 A 
ATOM      7  C5  UNL d   1      -4.345   2.905   2.169  0.00  0.00     0.026 A 
ATOM      8  C6  UNL d   1      -3.216   2.020   2.100  0.00  0.00    -0.082 A 
ATOM      9  C7  UNL d   1      -3.124   0.677   1.661  0.00  0.00     0.045 A 
ENDROOT
TORSDOF 0
ENDMDL
