MODEL 1
REMARK minimizedAffinity 12.7178593
REMARK minimizedRMSD -1
REMARK  0 active torsions:
REMARK  status: ('A' for Active; 'I' for Inactive)
ROOT
ATOM      1  C   UNL d   1       5.221   2.282  -5.858  0.00  0.00    -0.002 A 
ATOM      2  C1  UNL d   1       5.999   3.271  -5.272  0.00  0.00     0.010 A 
ATOM      3  C2  UNL d   1       5.417   4.456  -4.818  0.00  0.00     0.041 A 
ATOM      4  C3  UNL d   1       4.027   4.632  -4.962  0.00  0.00    -0.075 A 
ATOM      5  S   UNL d   1       3.096   6.000  -4.478  0.00  0.00     0.015 SA
ATOM      6  C4  UNL d   1       1.645   5.304  -5.037  0.00  0.00     0.022 A 
ATOM      7  C5  UNL d   1       1.846   4.058  -5.583  0.00  0.00     0.026 A 
ATOM      8  C6  UNL d   1       3.223   3.650  -5.548  0.00  0.00    -0.082 A 
ATOM      9  C7  UNL d   1       3.842   2.460  -5.999  0.00  0.00     0.045 A 
ENDROOT
TORSDOF 0
ENDMDL
