MODEL 1
REMARK minimizedAffinity 18.4005032
REMARK minimizedRMSD -1
REMARK  0 active torsions:
REMARK  status: ('A' for Active; 'I' for Inactive)
ROOT
ATOM      1  C   UNL d   1       3.130   2.066  -0.314  0.00  0.00    -0.002 A 
ATOM      2  C1  UNL d   1       2.138   3.030  -0.201  0.00  0.00     0.010 A 
ATOM      3  C2  UNL d   1       2.006   4.030  -1.167  0.00  0.00     0.041 A 
ATOM      4  C3  UNL d   1       2.895   4.044  -2.259  0.00  0.00    -0.075 A 
ATOM      5  S   UNL d   1       2.922   5.172  -3.563  0.00  0.00     0.015 SA
ATOM      6  C4  UNL d   1       4.251   4.400  -4.301  0.00  0.00     0.022 A 
ATOM      7  C5  UNL d   1       4.676   3.307  -3.584  0.00  0.00     0.026 A 
ATOM      8  C6  UNL d   1       3.902   3.084  -2.396  0.00  0.00    -0.082 A 
ATOM      9  C7  UNL d   1       4.010   2.084  -1.400  0.00  0.00     0.045 A 
ENDROOT
TORSDOF 0
ENDMDL
