MODEL 1
REMARK minimizedAffinity 3.58671498
REMARK minimizedRMSD -1
REMARK  0 active torsions:
REMARK  status: ('A' for Active; 'I' for Inactive)
ROOT
ATOM      1  C   UNL d   1       1.024   2.379  -0.727  0.00  0.00    -0.002 A 
ATOM      2  C1  UNL d   1       2.155   2.710  -1.461  0.00  0.00     0.010 A 
ATOM      3  C2  UNL d   1       2.673   1.822  -2.405  0.00  0.00     0.041 A 
ATOM      4  C3  UNL d   1       2.030   0.585  -2.603  0.00  0.00    -0.075 A 
ATOM      5  S   UNL d   1       2.486  -0.660  -3.705  0.00  0.00     0.015 SA
ATOM      6  C4  UNL d   1       1.190  -1.659  -3.229  0.00  0.00     0.022 A 
ATOM      7  C5  UNL d   1       0.419  -1.074  -2.253  0.00  0.00     0.026 A 
ATOM      8  C6  UNL d   1       0.890   0.229  -1.876  0.00  0.00    -0.082 A 
ATOM      9  C7  UNL d   1       0.389   1.151  -0.926  0.00  0.00     0.045 A 
ENDROOT
TORSDOF 0
ENDMDL
