MODEL 1
REMARK minimizedAffinity 7.60889053
REMARK minimizedRMSD -1
REMARK  0 active torsions:
REMARK  status: ('A' for Active; 'I' for Inactive)
ROOT
ATOM      1  C   UNL d   1       0.268  -0.845   3.989  0.00  0.00    -0.002 A 
ATOM      2  C1  UNL d   1      -0.854  -0.109   4.341  0.00  0.00     0.010 A 
ATOM      3  C2  UNL d   1      -0.931   1.253   4.044  0.00  0.00     0.041 A 
ATOM      4  C3  UNL d   1       0.147   1.868   3.378  0.00  0.00    -0.075 A 
ATOM      5  S   UNL d   1       0.274   3.523   2.911  0.00  0.00     0.015 SA
ATOM      6  C4  UNL d   1       1.819   3.291   2.232  0.00  0.00     0.022 A 
ATOM      7  C5  UNL d   1       2.244   1.989   2.350  0.00  0.00     0.026 A 
ATOM      8  C6  UNL d   1       1.288   1.147   3.012  0.00  0.00    -0.082 A 
ATOM      9  C7  UNL d   1       1.336  -0.232   3.328  0.00  0.00     0.045 A 
ENDROOT
TORSDOF 0
ENDMDL
