MODEL 1
REMARK minimizedAffinity -4.33613014
REMARK minimizedRMSD -1
REMARK  1 active torsions:
REMARK  status: ('A' for Active; 'I' for Inactive)
REMARK    1  A    between atoms: C1_2  and  C2_3 
ROOT
ATOM      1  C2  UNL d   1      -0.517   0.380  -0.978  0.00  0.00    -0.076 A 
ATOM      2  C3  UNL d   1      -1.886   0.096  -0.836  0.00  0.00     0.004 A 
ATOM      3  C4  UNL d   1      -2.654  -0.298  -1.930  0.00  0.00    -0.003 A 
ATOM      4  C5  UNL d   1      -2.064  -0.416  -3.184  0.00  0.00     0.000 A 
ATOM      5  C6  UNL d   1      -0.703  -0.156  -3.339  0.00  0.00     0.000 A 
ATOM      6  C7  UNL d   1       0.088   0.227  -2.243  0.00  0.00    -0.073 A 
ATOM      7  C8  UNL d   1       1.550   0.501  -2.469  0.00  0.00     0.078 C 
ENDROOT
BRANCH   1   8
ATOM      8  C1  UNL d   1       0.259   0.830   0.240  0.00  0.00     0.053 C 
ATOM      9  C   UNL d   1      -0.156   2.213   0.717  0.00  0.00     0.018 C 
ENDBRANCH   1   8
TORSDOF 1
ENDMDL
