MODEL 1
REMARK minimizedAffinity 0.467884719
REMARK minimizedRMSD -1
REMARK  1 active torsions:
REMARK  status: ('A' for Active; 'I' for Inactive)
REMARK    1  A    between atoms: C1_2  and  C2_3 
ROOT
ATOM      1  C2  UNL d   1      -0.990   0.571  -0.888  0.00  0.00    -0.076 A 
ATOM      2  C3  UNL d   1      -0.135   1.586  -1.351  0.00  0.00     0.004 A 
ATOM      3  C4  UNL d   1       1.078   1.847  -0.716  0.00  0.00    -0.003 A 
ATOM      4  C5  UNL d   1       1.456   1.097   0.392  0.00  0.00     0.000 A 
ATOM      5  C6  UNL d   1       0.628   0.075   0.854  0.00  0.00     0.000 A 
ATOM      6  C7  UNL d   1      -0.590  -0.213   0.216  0.00  0.00    -0.073 A 
ATOM      7  C8  UNL d   1      -1.447  -1.323   0.761  0.00  0.00     0.078 C 
ENDROOT
BRANCH   1   8
ATOM      8  C1  UNL d   1      -2.305   0.351  -1.601  0.00  0.00     0.053 C 
ATOM      9  C   UNL d   1      -2.195  -0.663  -2.729  0.00  0.00     0.018 C 
ENDBRANCH   1   8
TORSDOF 1
ENDMDL
