MODEL 1
REMARK minimizedAffinity 0.547902048
REMARK minimizedRMSD -1
REMARK  1 active torsions:
REMARK  status: ('A' for Active; 'I' for Inactive)
REMARK    1  A    between atoms: C1_2  and  C2_3 
ROOT
ATOM      1  C2  UNL d   1      -0.861   0.430  -0.908  0.00  0.00    -0.076 A 
ATOM      2  C3  UNL d   1      -0.916   0.915  -2.226  0.00  0.00     0.004 A 
ATOM      3  C4  UNL d   1      -1.650   0.248  -3.206  0.00  0.00    -0.003 A 
ATOM      4  C5  UNL d   1      -2.340  -0.915  -2.883  0.00  0.00     0.000 A 
ATOM      5  C6  UNL d   1      -2.311  -1.401  -1.576  0.00  0.00     0.000 A 
ATOM      6  C7  UNL d   1      -1.590  -0.731  -0.573  0.00  0.00    -0.073 A 
ATOM      7  C8  UNL d   1      -1.588  -1.303   0.818  0.00  0.00     0.078 C 
ENDROOT
BRANCH   1   8
ATOM      8  C1  UNL d   1      -0.028   1.181   0.106  0.00  0.00     0.053 C 
ATOM      9  C   UNL d   1       1.409   0.685   0.160  0.00  0.00     0.018 C 
ENDBRANCH   1   8
TORSDOF 1
ENDMDL
