MODEL 1
REMARK minimizedAffinity -1.0077877
REMARK minimizedRMSD -1
REMARK  1 active torsions:
REMARK  status: ('A' for Active; 'I' for Inactive)
REMARK    1  A    between atoms: C1_2  and  C2_3 
ROOT
ATOM      1  C2  UNL d   1      -2.428   0.466  -1.267  0.00  0.00    -0.076 A 
ATOM      2  C3  UNL d   1      -2.684   1.843  -1.387  0.00  0.00     0.004 A 
ATOM      3  C4  UNL d   1      -3.287   2.363  -2.531  0.00  0.00    -0.003 A 
ATOM      4  C5  UNL d   1      -3.643   1.515  -3.574  0.00  0.00     0.000 A 
ATOM      5  C6  UNL d   1      -3.412   0.144  -3.464  0.00  0.00     0.000 A 
ATOM      6  C7  UNL d   1      -2.820  -0.399  -2.311  0.00  0.00    -0.073 A 
ATOM      7  C8  UNL d   1      -2.589  -1.884  -2.249  0.00  0.00     0.078 C 
ENDROOT
BRANCH   1   8
ATOM      8  C1  UNL d   1      -1.747  -0.037  -0.014  0.00  0.00     0.053 C 
ATOM      9  C   UNL d   1      -0.286   0.380   0.063  0.00  0.00     0.018 C 
ENDBRANCH   1   8
TORSDOF 1
ENDMDL
