MODEL 1
REMARK minimizedAffinity -2.52237606
REMARK minimizedRMSD -1
REMARK  1 active torsions:
REMARK  status: ('A' for Active; 'I' for Inactive)
REMARK    1  A    between atoms: C1_2  and  C2_3 
ROOT
ATOM      1  C2  UNL d   1      -0.498   0.128   0.216  0.00  0.00    -0.076 A 
ATOM      2  C3  UNL d   1      -0.035   1.395  -0.179  0.00  0.00     0.004 A 
ATOM      3  C4  UNL d   1       1.250   1.823   0.150  0.00  0.00    -0.003 A 
ATOM      4  C5  UNL d   1       2.093   0.991   0.878  0.00  0.00     0.000 A 
ATOM      5  C6  UNL d   1       1.656  -0.276   1.262  0.00  0.00     0.000 A 
ATOM      6  C7  UNL d   1       0.370  -0.730   0.925  0.00  0.00    -0.073 A 
ATOM      7  C8  UNL d   1      -0.051  -2.104   1.370  0.00  0.00     0.078 C 
ENDROOT
BRANCH   1   8
ATOM      8  C1  UNL d   1      -1.911  -0.272  -0.146  0.00  0.00     0.053 C 
ATOM      9  C   UNL d   1      -2.255   0.051  -1.592  0.00  0.00     0.018 C 
ENDBRANCH   1   8
TORSDOF 1
ENDMDL
