MODEL 1
REMARK minimizedAffinity -3.98837185
REMARK minimizedRMSD -1
REMARK  1 active torsions:
REMARK  status: ('A' for Active; 'I' for Inactive)
REMARK    1  A    between atoms: C1_2  and  C2_3 
ROOT
ATOM      1  C2  UNL d   1      -0.500   0.643  -0.228  0.00  0.00    -0.076 A 
ATOM      2  C3  UNL d   1       0.641   1.320  -0.695  0.00  0.00     0.004 A 
ATOM      3  C4  UNL d   1       1.901   1.057  -0.160  0.00  0.00    -0.003 A 
ATOM      4  C5  UNL d   1       2.041   0.112   0.851  0.00  0.00     0.000 A 
ATOM      5  C6  UNL d   1       0.923  -0.581   1.314  0.00  0.00     0.000 A 
ATOM      6  C7  UNL d   1      -0.352  -0.340   0.774  0.00  0.00    -0.073 A 
ATOM      7  C8  UNL d   1      -1.523  -1.112   1.315  0.00  0.00     0.078 C 
ENDROOT
BRANCH   1   8
ATOM      8  C1  UNL d   1      -1.844   0.990  -0.827  0.00  0.00     0.053 C 
ATOM      9  C   UNL d   1      -2.152   0.178  -2.075  0.00  0.00     0.018 C 
ENDBRANCH   1   8
TORSDOF 1
ENDMDL
