MODEL 1
REMARK minimizedAffinity -3.54214931
REMARK minimizedRMSD -1
REMARK  1 active torsions:
REMARK  status: ('A' for Active; 'I' for Inactive)
REMARK    1  A    between atoms: C1_2  and  C2_3 
ROOT
ATOM      1  C2  UNL d   1       0.144   0.970  -0.386  0.00  0.00    -0.076 A 
ATOM      2  C3  UNL d   1      -0.096  -0.121   0.468  0.00  0.00     0.004 A 
ATOM      3  C4  UNL d   1       0.956  -0.794   1.085  0.00  0.00    -0.003 A 
ATOM      4  C5  UNL d   1       2.267  -0.388   0.859  0.00  0.00     0.000 A 
ATOM      5  C6  UNL d   1       2.523   0.702   0.029  0.00  0.00     0.000 A 
ATOM      6  C7  UNL d   1       1.472   1.403  -0.588  0.00  0.00    -0.073 A 
ATOM      7  C8  UNL d   1       1.806   2.568  -1.479  0.00  0.00     0.078 C 
ENDROOT
BRANCH   1   8
ATOM      8  C1  UNL d   1      -1.035   1.644  -1.049  0.00  0.00     0.053 C 
ATOM      9  C   UNL d   1      -2.049   0.647  -1.589  0.00  0.00     0.018 C 
ENDBRANCH   1   8
TORSDOF 1
ENDMDL
