MODEL 1
REMARK minimizedAffinity -3.38953686
REMARK minimizedRMSD -1
REMARK  2 active torsions:
REMARK  status: ('A' for Active; 'I' for Inactive)
REMARK    1  A    between atoms: C1_2  and  C2_3 
REMARK    2  A    between atoms: C2_3  and  C3_4 
ROOT
ATOM      1  C3  UNL d   1       0.519  -0.633   1.296  0.00  0.00    -0.075 A 
ATOM      2  C4  UNL d   1       1.471  -1.207   0.441  0.00  0.00     0.002 A 
ATOM      3  C5  UNL d   1       2.634  -1.777   0.958  0.00  0.00     0.002 A 
ATOM      4  C6  UNL d   1       2.866  -1.772   2.331  0.00  0.00    -0.004 A 
ATOM      5  C7  UNL d   1       1.935  -1.189   3.189  0.00  0.00     0.002 A 
ATOM      6  C8  UNL d   1       0.768  -0.622   2.675  0.00  0.00     0.002 A 
ENDROOT
BRANCH   1   7
ATOM      7  C2  UNL d   1      -0.757  -0.040   0.746  0.00  0.00     0.056 C 
BRANCH   7   8
ATOM      8  C1  UNL d   1      -0.714   0.244  -0.759  0.00  0.00     0.007 C 
ATOM      9  C   UNL d   1      -0.025   1.557  -1.103  0.00  0.00     0.009 C 
ENDBRANCH   7   8
ENDBRANCH   1   7
TORSDOF 2
ENDMDL
