MODEL 1
REMARK minimizedAffinity -4.07227659
REMARK minimizedRMSD -1
REMARK  2 active torsions:
REMARK  status: ('A' for Active; 'I' for Inactive)
REMARK    1  A    between atoms: C1_2  and  C2_3 
REMARK    2  A    between atoms: C2_3  and  C3_4 
ROOT
ATOM      1  C3  UNL d   1       0.065  -0.083  -0.554  0.00  0.00    -0.075 A 
ATOM      2  C4  UNL d   1      -0.969  -0.087   0.393  0.00  0.00     0.002 A 
ATOM      3  C5  UNL d   1      -0.692  -0.299   1.744  0.00  0.00     0.002 A 
ATOM      4  C6  UNL d   1       0.618  -0.521   2.163  0.00  0.00    -0.004 A 
ATOM      5  C7  UNL d   1       1.651  -0.536   1.229  0.00  0.00     0.002 A 
ATOM      6  C8  UNL d   1       1.378  -0.319  -0.123  0.00  0.00     0.002 A 
ENDROOT
BRANCH   1   7
ATOM      7  C2  UNL d   1      -0.224   0.176  -2.013  0.00  0.00     0.056 C 
BRANCH   7   8
ATOM      8  C1  UNL d   1      -0.889   1.529  -2.286  0.00  0.00     0.007 C 
ATOM      9  C   UNL d   1       0.090   2.595  -2.759  0.00  0.00     0.009 C 
ENDBRANCH   7   8
ENDBRANCH   1   7
TORSDOF 2
ENDMDL
