MODEL 1
REMARK minimizedAffinity -0.672236025
REMARK minimizedRMSD -1
REMARK  2 active torsions:
REMARK  status: ('A' for Active; 'I' for Inactive)
REMARK    1  A    between atoms: C1_2  and  C2_3 
REMARK    2  A    between atoms: C2_3  and  C3_4 
ROOT
ATOM      1  C3  UNL d   1       0.859  -0.111   0.865  0.00  0.00    -0.075 A 
ATOM      2  C4  UNL d   1      -0.243   0.002   0.005  0.00  0.00     0.002 A 
ATOM      3  C5  UNL d   1      -1.536  -0.229   0.476  0.00  0.00     0.002 A 
ATOM      4  C6  UNL d   1      -1.742  -0.587   1.807  0.00  0.00    -0.004 A 
ATOM      5  C7  UNL d   1      -0.653  -0.719   2.666  0.00  0.00     0.002 A 
ATOM      6  C8  UNL d   1       0.641  -0.484   2.198  0.00  0.00     0.002 A 
ENDROOT
BRANCH   1   7
ATOM      7  C2  UNL d   1       2.258   0.167   0.369  0.00  0.00     0.056 C 
BRANCH   7   8
ATOM      8  C1  UNL d   1       2.986  -1.070  -0.168  0.00  0.00     0.007 C 
ATOM      9  C   UNL d   1       2.328  -1.663  -1.406  0.00  0.00     0.009 C 
ENDBRANCH   7   8
ENDBRANCH   1   7
TORSDOF 2
ENDMDL
