MODEL 1
REMARK minimizedAffinity -5.23608065
REMARK minimizedRMSD -1
REMARK  2 active torsions:
REMARK  status: ('A' for Active; 'I' for Inactive)
REMARK    1  A    between atoms: C1_2  and  C2_3 
REMARK    2  A    between atoms: C2_3  and  C3_4 
ROOT
ATOM      1  C3  UNL d   1       1.101  -0.884   0.233  0.00  0.00    -0.075 A 
ATOM      2  C4  UNL d   1       1.758  -2.119   0.329  0.00  0.00     0.002 A 
ATOM      3  C5  UNL d   1       2.442  -2.470   1.493  0.00  0.00     0.002 A 
ATOM      4  C6  UNL d   1       2.487  -1.588   2.570  0.00  0.00    -0.004 A 
ATOM      5  C7  UNL d   1       1.852  -0.351   2.481  0.00  0.00     0.002 A 
ATOM      6  C8  UNL d   1       1.164   0.000   1.319  0.00  0.00     0.002 A 
ENDROOT
BRANCH   1   7
ATOM      7  C2  UNL d   1       0.335  -0.510  -1.013  0.00  0.00     0.056 C 
BRANCH   7   8
ATOM      8  C1  UNL d   1      -0.808   0.480  -0.768  0.00  0.00     0.007 C 
ATOM      9  C   UNL d   1      -1.049   1.420  -1.942  0.00  0.00     0.009 C 
ENDBRANCH   7   8
ENDBRANCH   1   7
TORSDOF 2
ENDMDL
