MODEL 1
REMARK minimizedAffinity -3.8609705
REMARK minimizedRMSD -1
REMARK  2 active torsions:
REMARK  status: ('A' for Active; 'I' for Inactive)
REMARK    1  A    between atoms: C1_2  and  C2_3 
REMARK    2  A    between atoms: C2_3  and  C3_4 
ROOT
ATOM      1  C3  UNL d   1       0.109   0.188  -0.424  0.00  0.00    -0.075 A 
ATOM      2  C4  UNL d   1      -0.954   0.193   0.491  0.00  0.00     0.002 A 
ATOM      3  C5  UNL d   1      -0.723  -0.047   1.846  0.00  0.00     0.002 A 
ATOM      4  C6  UNL d   1       0.568  -0.304   2.301  0.00  0.00    -0.004 A 
ATOM      5  C7  UNL d   1       1.629  -0.328   1.398  0.00  0.00     0.002 A 
ATOM      6  C8  UNL d   1       1.402  -0.084   0.042  0.00  0.00     0.002 A 
ENDROOT
BRANCH   1   7
ATOM      7  C2  UNL d   1      -0.130   0.475  -1.887  0.00  0.00     0.056 C 
BRANCH   7   8
ATOM      8  C1  UNL d   1      -1.222   1.518  -2.148  0.00  0.00     0.007 C 
ATOM      9  C   UNL d   1      -0.693   2.793  -2.793  0.00  0.00     0.009 C 
ENDBRANCH   7   8
ENDBRANCH   1   7
TORSDOF 2
ENDMDL
