MODEL 1
REMARK minimizedAffinity -1.53727341
REMARK minimizedRMSD -1
REMARK  2 active torsions:
REMARK  status: ('A' for Active; 'I' for Inactive)
REMARK    1  A    between atoms: C1_2  and  C2_3 
REMARK    2  A    between atoms: C2_3  and  C3_4 
ROOT
ATOM      1  C3  UNL d   1      -0.231  -0.206   0.249  0.00  0.00    -0.075 A 
ATOM      2  C4  UNL d   1      -0.802  -0.668   1.443  0.00  0.00     0.002 A 
ATOM      3  C5  UNL d   1      -0.003  -1.226   2.442  0.00  0.00     0.002 A 
ATOM      4  C6  UNL d   1       1.373  -1.338   2.255  0.00  0.00    -0.004 A 
ATOM      5  C7  UNL d   1       1.949  -0.897   1.066  0.00  0.00     0.002 A 
ATOM      6  C8  UNL d   1       1.153  -0.334   0.067  0.00  0.00     0.002 A 
ENDROOT
BRANCH   1   7
ATOM      7  C2  UNL d   1      -1.086   0.426  -0.823  0.00  0.00     0.056 C 
BRANCH   7   8
ATOM      8  C1  UNL d   1      -1.079   1.958  -0.805  0.00  0.00     0.007 C 
ATOM      9  C   UNL d   1      -1.810   2.577  -1.989  0.00  0.00     0.009 C 
ENDBRANCH   7   8
ENDBRANCH   1   7
TORSDOF 2
ENDMDL
