MODEL 1
REMARK minimizedAffinity -1.52797723
REMARK minimizedRMSD -1
REMARK  1 active torsions:
REMARK  status: ('A' for Active; 'I' for Inactive)
REMARK    1  A    between atoms: C1_2  and  C2_3 
ROOT
ATOM      1  C2  UNL d   1       0.398  -0.406   0.568  0.00  0.00    -0.076 A 
ATOM      2  C3  UNL d   1       0.192  -1.290   1.642  0.00  0.00     0.004 A 
ATOM      3  C4  UNL d   1      -0.652  -0.951   2.698  0.00  0.00    -0.003 A 
ATOM      4  C5  UNL d   1      -1.304   0.277   2.698  0.00  0.00     0.000 A 
ATOM      5  C6  UNL d   1      -1.125   1.159   1.632  0.00  0.00     0.000 A 
ATOM      6  C7  UNL d   1      -0.291   0.826   0.551  0.00  0.00    -0.073 A 
ATOM      7  C8  UNL d   1      -0.129   1.817  -0.568  0.00  0.00     0.078 C 
ENDROOT
BRANCH   1   8
ATOM      8  C1  UNL d   1       1.346  -0.816  -0.536  0.00  0.00     0.053 C 
ATOM      9  C   UNL d   1       0.859  -2.040  -1.297  0.00  0.00     0.018 C 
ENDBRANCH   1   8
TORSDOF 1
ENDMDL
