MODEL 1
REMARK minimizedAffinity -0.974996686
REMARK minimizedRMSD -1
REMARK  1 active torsions:
REMARK  status: ('A' for Active; 'I' for Inactive)
REMARK    1  A    between atoms: C1_2  and  C2_3 
ROOT
ATOM      1  C2  UNL d   1      -0.416   0.993   1.003  0.00  0.00    -0.076 A 
ATOM      2  C3  UNL d   1      -0.233   1.831  -0.111  0.00  0.00     0.004 A 
ATOM      3  C4  UNL d   1       0.551   1.428  -1.191  0.00  0.00    -0.003 A 
ATOM      4  C5  UNL d   1       1.164   0.180  -1.175  0.00  0.00     0.000 A 
ATOM      5  C6  UNL d   1       0.979  -0.672  -0.087  0.00  0.00     0.000 A 
ATOM      6  C7  UNL d   1       0.178  -0.288   1.003  0.00  0.00    -0.073 A 
ATOM      7  C8  UNL d   1       0.018  -1.243   2.154  0.00  0.00     0.078 C 
ENDROOT
BRANCH   1   8
ATOM      8  C1  UNL d   1      -1.254   1.494   2.156  0.00  0.00     0.053 C 
ATOM      9  C   UNL d   1      -0.445   2.308   3.154  0.00  0.00     0.018 C 
ENDBRANCH   1   8
TORSDOF 1
ENDMDL
