MODEL 1
REMARK minimizedAffinity -3.34603691
REMARK minimizedRMSD -1
REMARK  1 active torsions:
REMARK  status: ('A' for Active; 'I' for Inactive)
REMARK    1  A    between atoms: C1_2  and  C2_3 
ROOT
ATOM      1  C2  UNL d   1       0.066  -0.029   0.023  0.00  0.00    -0.076 A 
ATOM      2  C3  UNL d   1      -0.472  -0.675   1.149  0.00  0.00     0.004 A 
ATOM      3  C4  UNL d   1      -1.127   0.046   2.145  0.00  0.00    -0.003 A 
ATOM      4  C5  UNL d   1      -1.256   1.426   2.031  0.00  0.00     0.000 A 
ATOM      5  C6  UNL d   1      -0.744   2.082   0.912  0.00  0.00     0.000 A 
ATOM      6  C7  UNL d   1      -0.094   1.367  -0.109  0.00  0.00    -0.073 A 
ATOM      7  C8  UNL d   1       0.444   2.126  -1.291  0.00  0.00     0.078 C 
ENDROOT
BRANCH   1   8
ATOM      8  C1  UNL d   1       0.790  -0.860  -1.012  0.00  0.00     0.053 C 
ATOM      9  C   UNL d   1       0.090  -2.180  -1.293  0.00  0.00     0.018 C 
ENDBRANCH   1   8
TORSDOF 1
ENDMDL
