MODEL 1
REMARK minimizedAffinity -3.95609069
REMARK minimizedRMSD -1
REMARK  1 active torsions:
REMARK  status: ('A' for Active; 'I' for Inactive)
REMARK    1  A    between atoms: C1_2  and  C2_3 
ROOT
ATOM      1  C2  UNL d   1       0.403  -0.083   0.389  0.00  0.00    -0.076 A 
ATOM      2  C3  UNL d   1      -0.162  -0.825   1.441  0.00  0.00     0.004 A 
ATOM      3  C4  UNL d   1      -1.023  -0.227   2.359  0.00  0.00    -0.003 A 
ATOM      4  C5  UNL d   1      -1.335   1.123   2.239  0.00  0.00     0.000 A 
ATOM      5  C6  UNL d   1      -0.798   1.870   1.192  0.00  0.00     0.000 A 
ATOM      6  C7  UNL d   1       0.059   1.279   0.248  0.00  0.00    -0.073 A 
ATOM      7  C8  UNL d   1       0.615   2.134  -0.858  0.00  0.00     0.078 C 
ENDROOT
BRANCH   1   8
ATOM      8  C1  UNL d   1       1.352  -0.779  -0.561  0.00  0.00     0.053 C 
ATOM      9  C   UNL d   1       0.674  -1.885  -1.355  0.00  0.00     0.018 C 
ENDBRANCH   1   8
TORSDOF 1
ENDMDL
