MODEL 1
REMARK minimizedAffinity -3.53953934
REMARK minimizedRMSD -1
REMARK  1 active torsions:
REMARK  status: ('A' for Active; 'I' for Inactive)
REMARK    1  A    between atoms: C1_2  and  C2_3 
ROOT
ATOM      1  C2  UNL d   1       0.007  -0.102   0.045  0.00  0.00    -0.076 A 
ATOM      2  C3  UNL d   1      -0.480  -0.749   1.194  0.00  0.00     0.004 A 
ATOM      3  C4  UNL d   1      -1.123  -0.032   2.202  0.00  0.00    -0.003 A 
ATOM      4  C5  UNL d   1      -1.290   1.342   2.078  0.00  0.00     0.000 A 
ATOM      5  C6  UNL d   1      -0.828   1.998   0.937  0.00  0.00     0.000 A 
ATOM      6  C7  UNL d   1      -0.192   1.288  -0.097  0.00  0.00    -0.073 A 
ATOM      7  C8  UNL d   1       0.291   2.047  -1.302  0.00  0.00     0.078 C 
ENDROOT
BRANCH   1   8
ATOM      8  C1  UNL d   1       0.720  -0.926  -1.003  0.00  0.00     0.053 C 
ATOM      9  C   UNL d   1      -0.227  -1.828  -1.779  0.00  0.00     0.018 C 
ENDBRANCH   1   8
TORSDOF 1
ENDMDL
