MODEL 1
REMARK minimizedAffinity -3.10198545
REMARK minimizedRMSD -1
REMARK  1 active torsions:
REMARK  status: ('A' for Active; 'I' for Inactive)
REMARK    1  A    between atoms: C1_2  and  C2_3 
ROOT
ATOM      1  C2  UNL d   1       0.037  -0.872  -0.714  0.00  0.00    -0.076 A 
ATOM      2  C3  UNL d   1      -0.818  -1.304   0.315  0.00  0.00     0.004 A 
ATOM      3  C4  UNL d   1      -1.208  -0.438   1.335  0.00  0.00    -0.003 A 
ATOM      4  C5  UNL d   1      -0.749   0.875   1.343  0.00  0.00     0.000 A 
ATOM      5  C6  UNL d   1       0.085   1.326   0.321  0.00  0.00     0.000 A 
ATOM      6  C7  UNL d   1       0.475   0.470  -0.724  0.00  0.00    -0.073 A 
ATOM      7  C8  UNL d   1       1.381   1.008  -1.798  0.00  0.00     0.078 C 
ENDROOT
BRANCH   1   8
ATOM      8  C1  UNL d   1       0.448  -1.863  -1.779  0.00  0.00     0.053 C 
ATOM      9  C   UNL d   1       1.172  -3.070  -1.203  0.00  0.00     0.018 C 
ENDBRANCH   1   8
TORSDOF 1
ENDMDL
