MODEL 1
REMARK minimizedAffinity 1.07493222
REMARK minimizedRMSD -1
REMARK  1 active torsions:
REMARK  status: ('A' for Active; 'I' for Inactive)
REMARK    1  A    between atoms: C1_2  and  C2_3 
ROOT
ATOM      1  C2  UNL d   1       1.054  -2.063  -1.531  0.00  0.00    -0.076 A 
ATOM      2  C3  UNL d   1       1.556  -2.943  -0.556  0.00  0.00     0.004 A 
ATOM      3  C4  UNL d   1       1.491  -4.323  -0.734  0.00  0.00    -0.003 A 
ATOM      4  C5  UNL d   1       0.924  -4.848  -1.890  0.00  0.00     0.000 A 
ATOM      5  C6  UNL d   1       0.437  -3.990  -2.876  0.00  0.00     0.000 A 
ATOM      6  C7  UNL d   1       0.509  -2.595  -2.719  0.00  0.00    -0.073 A 
ATOM      7  C8  UNL d   1      -0.037  -1.717  -3.812  0.00  0.00     0.078 C 
ENDROOT
BRANCH   1   8
ATOM      8  C1  UNL d   1       1.127  -0.575  -1.271  0.00  0.00     0.053 C 
ATOM      9  C   UNL d   1      -0.036  -0.073  -0.430  0.00  0.00     0.018 C 
ENDBRANCH   1   8
TORSDOF 1
ENDMDL
