MODEL 1
REMARK minimizedAffinity -1.9389956
REMARK minimizedRMSD -1
REMARK  1 active torsions:
REMARK  status: ('A' for Active; 'I' for Inactive)
REMARK    1  A    between atoms: C1_2  and  C2_3 
ROOT
ATOM      1  C2  UNL d   1      -0.052  -1.558  -0.930  0.00  0.00    -0.076 A 
ATOM      2  C3  UNL d   1      -1.103  -1.994  -0.106  0.00  0.00     0.004 A 
ATOM      3  C4  UNL d   1      -1.618  -1.172   0.896  0.00  0.00    -0.003 A 
ATOM      4  C5  UNL d   1      -1.090   0.100   1.088  0.00  0.00     0.000 A 
ATOM      5  C6  UNL d   1      -0.058   0.555   0.268  0.00  0.00     0.000 A 
ATOM      6  C7  UNL d   1       0.461  -0.254  -0.757  0.00  0.00    -0.073 A 
ATOM      7  C8  UNL d   1       1.578   0.285  -1.608  0.00  0.00     0.078 C 
ENDROOT
BRANCH   1   8
ATOM      8  C1  UNL d   1       0.484  -2.503  -1.982  0.00  0.00     0.053 C 
ATOM      9  C   UNL d   1      -0.025  -3.925  -1.800  0.00  0.00     0.018 C 
ENDBRANCH   1   8
TORSDOF 1
ENDMDL
