MODEL 1
REMARK minimizedAffinity -4.42907858
REMARK minimizedRMSD -1
REMARK  1 active torsions:
REMARK  status: ('A' for Active; 'I' for Inactive)
REMARK    1  A    between atoms: C1_2  and  C2_3 
ROOT
ATOM      1  C2  UNL d   1      -0.517   0.967   0.804  0.00  0.00    -0.076 A 
ATOM      2  C3  UNL d   1       0.371   0.797  -0.273  0.00  0.00     0.004 A 
ATOM      3  C4  UNL d   1       0.847   1.893  -0.990  0.00  0.00    -0.003 A 
ATOM      4  C5  UNL d   1       0.443   3.177  -0.642  0.00  0.00     0.000 A 
ATOM      5  C6  UNL d   1      -0.423   3.366   0.434  0.00  0.00     0.000 A 
ATOM      6  C7  UNL d   1      -0.900   2.273   1.178  0.00  0.00    -0.073 A 
ATOM      7  C8  UNL d   1      -1.837   2.534   2.325  0.00  0.00     0.078 C 
ENDROOT
BRANCH   1   8
ATOM      8  C1  UNL d   1      -1.022  -0.261   1.527  0.00  0.00     0.053 C 
ATOM      9  C   UNL d   1      -2.135  -0.968   0.770  0.00  0.00     0.018 C 
ENDBRANCH   1   8
TORSDOF 1
ENDMDL
