MODEL 1
REMARK minimizedAffinity -4.87632704
REMARK minimizedRMSD -1
REMARK  1 active torsions:
REMARK  status: ('A' for Active; 'I' for Inactive)
REMARK    1  A    between atoms: C1_2  and  C2_3 
ROOT
ATOM      1  C2  UNL d   1       0.095   0.091   0.209  0.00  0.00    -0.076 A 
ATOM      2  C3  UNL d   1       0.063   1.382  -0.347  0.00  0.00     0.004 A 
ATOM      3  C4  UNL d   1      -0.583   2.429   0.307  0.00  0.00    -0.003 A 
ATOM      4  C5  UNL d   1      -1.207   2.203   1.529  0.00  0.00     0.000 A 
ATOM      5  C6  UNL d   1      -1.171   0.933   2.104  0.00  0.00     0.000 A 
ATOM      6  C7  UNL d   1      -0.510  -0.130   1.465  0.00  0.00    -0.073 A 
ATOM      7  C8  UNL d   1      -0.507  -1.481   2.127  0.00  0.00     0.078 C 
ENDROOT
BRANCH   1   8
ATOM      8  C1  UNL d   1       0.787  -1.012  -0.560  0.00  0.00     0.053 C 
ATOM      9  C   UNL d   1       0.139  -1.276  -1.910  0.00  0.00     0.018 C 
ENDBRANCH   1   8
TORSDOF 1
ENDMDL
