MODEL 1
REMARK minimizedAffinity -3.48777246
REMARK minimizedRMSD -1
REMARK  1 active torsions:
REMARK  status: ('A' for Active; 'I' for Inactive)
REMARK    1  A    between atoms: C1_2  and  C2_3 
ROOT
ATOM      1  C2  UNL d   1       0.239   0.141   0.190  0.00  0.00    -0.076 A 
ATOM      2  C3  UNL d   1      -0.339  -0.624   1.218  0.00  0.00     0.004 A 
ATOM      3  C4  UNL d   1      -1.137  -0.030   2.194  0.00  0.00    -0.003 A 
ATOM      4  C5  UNL d   1      -1.371   1.340   2.158  0.00  0.00     0.000 A 
ATOM      5  C6  UNL d   1      -0.821   2.113   1.135  0.00  0.00     0.000 A 
ATOM      6  C7  UNL d   1      -0.027   1.526   0.134  0.00  0.00    -0.073 A 
ATOM      7  C8  UNL d   1       0.546   2.408  -0.941  0.00  0.00     0.078 C 
ENDROOT
BRANCH   1   8
ATOM      8  C1  UNL d   1       1.118  -0.554  -0.825  0.00  0.00     0.053 C 
ATOM      9  C   UNL d   1       0.384  -1.657  -1.572  0.00  0.00     0.018 C 
ENDBRANCH   1   8
TORSDOF 1
ENDMDL
