MODEL 1
REMARK minimizedAffinity -2.76011062
REMARK minimizedRMSD -1
REMARK  1 active torsions:
REMARK  status: ('A' for Active; 'I' for Inactive)
REMARK    1  A    between atoms: C1_2  and  C2_3 
ROOT
ATOM      1  C2  UNL d   1       0.621  -0.727  -1.187  0.00  0.00    -0.076 A 
ATOM      2  C3  UNL d   1       1.589   0.113  -1.765  0.00  0.00     0.004 A 
ATOM      3  C4  UNL d   1       1.567   1.489  -1.545  0.00  0.00    -0.003 A 
ATOM      4  C5  UNL d   1       0.578   2.047  -0.743  0.00  0.00     0.000 A 
ATOM      5  C6  UNL d   1      -0.380   1.227  -0.147  0.00  0.00     0.000 A 
ATOM      6  C7  UNL d   1      -0.362  -0.164  -0.345  0.00  0.00    -0.073 A 
ATOM      7  C8  UNL d   1      -1.423  -1.001   0.317  0.00  0.00     0.078 C 
ENDROOT
BRANCH   1   8
ATOM      8  C1  UNL d   1       0.679  -2.209  -1.482  0.00  0.00     0.053 C 
ATOM      9  C   UNL d   1       0.248  -2.537  -2.904  0.00  0.00     0.018 C 
ENDBRANCH   1   8
TORSDOF 1
ENDMDL
