MODEL 1
REMARK minimizedAffinity -0.557919562
REMARK minimizedRMSD -1
REMARK  0 active torsions:
REMARK  status: ('A' for Active; 'I' for Inactive)
ROOT
ATOM      1  C   UNL d   1      -5.999   5.911  -4.900  0.00  0.00     0.020 A 
ATOM      2  C1  UNL d   1      -5.209   5.578  -6.000  0.00  0.00     0.020 A 
ATOM      3  C2  UNL d   1      -4.419   4.427  -5.969  0.00  0.00     0.034 A 
ATOM      4  C3  UNL d   1      -4.416   3.605  -4.836  0.00  0.00     0.017 A 
ATOM      5  C4  UNL d   1      -5.209   3.940  -3.733  0.00  0.00     0.017 A 
ATOM      6  C5  UNL d   1      -5.998   5.093  -3.769  0.00  0.00     0.034 A 
ATOM      7 Cl   UNL d   1      -5.258   2.975  -2.300  0.00  0.00    -0.070 Cl
ATOM      8 Cl1  UNL d   1      -3.415   2.197  -4.868  0.00  0.00    -0.070 Cl
ENDROOT
TORSDOF 0
ENDMDL
