MODEL 1
REMARK minimizedAffinity 13.6920519
REMARK minimizedRMSD -1
REMARK  0 active torsions:
REMARK  status: ('A' for Active; 'I' for Inactive)
ROOT
ATOM      1  C   UNL d   1      -0.703   0.228   4.979  0.00  0.00     0.020 A 
ATOM      2  C1  UNL d   1      -0.237  -0.963   5.534  0.00  0.00     0.020 A 
ATOM      3  C2  UNL d   1       0.932  -1.551   5.046  0.00  0.00     0.034 A 
ATOM      4  C3  UNL d   1       1.639  -0.948   3.999  0.00  0.00     0.017 A 
ATOM      5  C4  UNL d   1       1.171   0.248   3.442  0.00  0.00     0.017 A 
ATOM      6  C5  UNL d   1      -0.000   0.832   3.935  0.00  0.00     0.034 A 
ATOM      7 Cl   UNL d   1       1.989   1.051   2.149  0.00  0.00    -0.070 Cl
ATOM      8 Cl1  UNL d   1       3.077  -1.729   3.445  0.00  0.00    -0.070 Cl
ENDROOT
TORSDOF 0
ENDMDL
