MODEL 1
REMARK minimizedAffinity 6.01877069
REMARK minimizedRMSD -1
REMARK  0 active torsions:
REMARK  status: ('A' for Active; 'I' for Inactive)
ROOT
ATOM      1  C   UNL d   1      -3.610  -5.970  -5.945  0.00  0.00     0.020 A 
ATOM      2  C1  UNL d   1      -4.439  -4.850  -5.998  0.00  0.00     0.020 A 
ATOM      3  C2  UNL d   1      -3.882  -3.569  -5.999  0.00  0.00     0.034 A 
ATOM      4  C3  UNL d   1      -2.493  -3.405  -5.947  0.00  0.00     0.017 A 
ATOM      5  C4  UNL d   1      -1.662  -4.530  -5.894  0.00  0.00     0.017 A 
ATOM      6  C5  UNL d   1      -2.225  -5.810  -5.893  0.00  0.00     0.034 A 
ATOM      7 Cl   UNL d   1       0.060  -4.407  -5.829  0.00  0.00    -0.070 Cl
ATOM      8 Cl1  UNL d   1      -1.874  -1.792  -5.953  0.00  0.00    -0.070 Cl
ENDROOT
TORSDOF 0
ENDMDL
