MODEL 1
REMARK minimizedAffinity 8.84623432
REMARK minimizedRMSD -1
REMARK  0 active torsions:
REMARK  status: ('A' for Active; 'I' for Inactive)
ROOT
ATOM      1  C   UNL d   1       5.897  -3.220  -4.131  0.00  0.00     0.020 A 
ATOM      2  C1  UNL d   1       4.906  -3.810  -4.916  0.00  0.00     0.020 A 
ATOM      3  C2  UNL d   1       3.560  -3.541  -4.660  0.00  0.00     0.034 A 
ATOM      4  C3  UNL d   1       3.200  -2.681  -3.616  0.00  0.00     0.017 A 
ATOM      5  C4  UNL d   1       4.195  -2.090  -2.828  0.00  0.00     0.017 A 
ATOM      6  C5  UNL d   1       5.542  -2.362  -3.090  0.00  0.00     0.034 A 
ATOM      7 Cl   UNL d   1       3.829  -1.018  -1.523  0.00  0.00    -0.070 Cl
ATOM      8 Cl1  UNL d   1       1.517  -2.394  -3.355  0.00  0.00    -0.070 Cl
ENDROOT
TORSDOF 0
ENDMDL
