MODEL 1
REMARK minimizedAffinity 19.6418095
REMARK minimizedRMSD -1
REMARK  0 active torsions:
REMARK  status: ('A' for Active; 'I' for Inactive)
ROOT
ATOM      1  C   UNL d   1       0.907   2.750   0.798  0.00  0.00     0.020 A 
ATOM      2  C1  UNL d   1       0.185   1.558   0.840  0.00  0.00     0.020 A 
ATOM      3  C2  UNL d   1      -0.761   1.279  -0.149  0.00  0.00     0.034 A 
ATOM      4  C3  UNL d   1      -0.987   2.193  -1.185  0.00  0.00     0.017 A 
ATOM      5  C4  UNL d   1      -0.261   3.389  -1.226  0.00  0.00     0.017 A 
ATOM      6  C5  UNL d   1       0.684   3.663  -0.234  0.00  0.00     0.034 A 
ATOM      7 Cl   UNL d   1      -0.485   4.565  -2.473  0.00  0.00    -0.070 Cl
ATOM      8 Cl1  UNL d   1      -2.171   1.782  -2.374  0.00  0.00    -0.070 Cl
ENDROOT
TORSDOF 0
ENDMDL
