MODEL 1
REMARK minimizedAffinity -1.16987491
REMARK minimizedRMSD -1
REMARK  0 active torsions:
REMARK  status: ('A' for Active; 'I' for Inactive)
ROOT
ATOM      1  C   UNL d   1      -1.744   1.944   1.791  0.00  0.00     0.020 A 
ATOM      2  C1  UNL d   1      -0.848   2.643   0.983  0.00  0.00     0.020 A 
ATOM      3  C2  UNL d   1       0.525   2.542   1.213  0.00  0.00     0.034 A 
ATOM      4  C3  UNL d   1       1.007   1.741   2.255  0.00  0.00     0.017 A 
ATOM      5  C4  UNL d   1       0.108   1.040   3.066  0.00  0.00     0.017 A 
ATOM      6  C5  UNL d   1      -1.267   1.145   2.831  0.00  0.00     0.034 A 
ATOM      7 Cl   UNL d   1       0.627   0.032   4.370  0.00  0.00    -0.070 Cl
ATOM      8 Cl1  UNL d   1       2.718   1.662   2.482  0.00  0.00    -0.070 Cl
ENDROOT
TORSDOF 0
ENDMDL
