MODEL 1
REMARK minimizedAffinity 6.8518033
REMARK minimizedRMSD -1
REMARK  0 active torsions:
REMARK  status: ('A' for Active; 'I' for Inactive)
ROOT
ATOM      1  C   UNL d   1       0.329   3.609  -0.448  0.00  0.00     0.020 A 
ATOM      2  C1  UNL d   1      -0.488   4.234   0.494  0.00  0.00     0.020 A 
ATOM      3  C2  UNL d   1      -0.524   3.763   1.808  0.00  0.00     0.034 A 
ATOM      4  C3  UNL d   1       0.257   2.664   2.184  0.00  0.00     0.017 A 
ATOM      5  C4  UNL d   1       1.076   2.038   1.238  0.00  0.00     0.017 A 
ATOM      6  C5  UNL d   1       1.109   2.513  -0.076  0.00  0.00     0.034 A 
ATOM      7 Cl   UNL d   1       2.068   0.677   1.627  0.00  0.00    -0.070 Cl
ATOM      8 Cl1  UNL d   1       0.163   2.136   3.827  0.00  0.00    -0.070 Cl
ENDROOT
TORSDOF 0
ENDMDL
