MODEL 1
REMARK minimizedAffinity -2.53056669
REMARK minimizedRMSD -1
REMARK  0 active torsions:
REMARK  status: ('A' for Active; 'I' for Inactive)
ROOT
ATOM      1  C   UNL d   1       1.542   0.779   3.345  0.00  0.00     0.020 A 
ATOM      2  C1  UNL d   1       1.136   2.102   3.178  0.00  0.00     0.020 A 
ATOM      3  C2  UNL d   1       0.854   2.591   1.901  0.00  0.00     0.034 A 
ATOM      4  C3  UNL d   1       0.979   1.755   0.785  0.00  0.00     0.017 A 
ATOM      5  C4  UNL d   1       1.386   0.427   0.953  0.00  0.00     0.017 A 
ATOM      6  C5  UNL d   1       1.667  -0.057   2.234  0.00  0.00     0.034 A 
ATOM      7 Cl   UNL d   1       1.562  -0.664  -0.376  0.00  0.00    -0.070 Cl
ATOM      8 Cl1  UNL d   1       0.614   2.426  -0.765  0.00  0.00    -0.070 Cl
ENDROOT
TORSDOF 0
ENDMDL
