MODEL 1
REMARK minimizedAffinity -3.11608386
REMARK minimizedRMSD -1
REMARK  1 active torsions:
REMARK  status: ('A' for Active; 'I' for Inactive)
REMARK    1  A    between atoms: N_2  and  C1_3 
ROOT
ATOM      1  C1  UNL d   1       3.561   1.873   5.898  0.00  0.00     0.143 A 
ATOM      2  C2  UNL d   1       2.530   2.813   5.999  0.00  0.00    -0.057 A 
ATOM      3  C3  UNL d   1       2.798   4.187   5.994  0.00  0.00     0.033 A 
ATOM      4  C4  UNL d   1       4.108   4.646   5.916  0.00  0.00    -0.042 A 
ATOM      5  C5  UNL d   1       5.151   3.729   5.839  0.00  0.00     0.033 A 
ATOM      6  C6  UNL d   1       4.876   2.358   5.838  0.00  0.00    -0.057 A 
ENDROOT
BRANCH   1   7
ATOM      7  N   UNL d   1       3.367   0.493   5.997  0.00  0.00    -0.732 N 
ATOM      8  C   UNL d   1       3.368  -0.339   4.812  0.00  0.00     0.284 C 
ATOM      9  H3  UNL d   1       3.860   0.087   6.790  0.00  0.00     0.395 HD
ENDBRANCH   1   7
TORSDOF 1
ENDMDL
