MODEL 1
REMARK minimizedAffinity -0.597790658
REMARK minimizedRMSD -1
REMARK  1 active torsions:
REMARK  status: ('A' for Active; 'I' for Inactive)
REMARK    1  A    between atoms: N_2  and  C1_3 
ROOT
ATOM      1  C1  UNL d   1       2.687   3.715   5.316  0.00  0.00     0.143 A 
ATOM      2  C2  UNL d   1       3.286   3.782   4.054  0.00  0.00    -0.057 A 
ATOM      3  C3  UNL d   1       3.886   2.657   3.475  0.00  0.00     0.033 A 
ATOM      4  C4  UNL d   1       3.923   1.449   4.163  0.00  0.00    -0.042 A 
ATOM      5  C5  UNL d   1       3.356   1.366   5.430  0.00  0.00     0.033 A 
ATOM      6  C6  UNL d   1       2.753   2.491   6.000  0.00  0.00    -0.057 A 
ENDROOT
BRANCH   1   7
ATOM      7  N   UNL d   1       2.162   4.822   5.987  0.00  0.00    -0.732 N 
ATOM      8  C   UNL d   1       0.736   5.068   6.000  0.00  0.00     0.284 C 
ATOM      9  H3  UNL d   1       2.620   4.989   6.880  0.00  0.00     0.395 HD
ENDBRANCH   1   7
TORSDOF 1
ENDMDL
