MODEL 1
REMARK minimizedAffinity -0.223785207
REMARK minimizedRMSD -1
REMARK  1 active torsions:
REMARK  status: ('A' for Active; 'I' for Inactive)
REMARK    1  A    between atoms: N_2  and  C1_3 
ROOT
ATOM      1  C1  UNL d   1      -0.038  -3.839   4.875  0.00  0.00     0.143 A 
ATOM      2  C2  UNL d   1      -0.831  -4.103   5.996  0.00  0.00    -0.057 A 
ATOM      3  C3  UNL d   1      -1.757  -5.153   6.000  0.00  0.00     0.033 A 
ATOM      4  C4  UNL d   1      -1.927  -5.942   4.867  0.00  0.00    -0.042 A 
ATOM      5  C5  UNL d   1      -1.167  -5.682   3.732  0.00  0.00     0.033 A 
ATOM      6  C6  UNL d   1      -0.239  -4.636   3.737  0.00  0.00    -0.057 A 
ENDROOT
BRANCH   1   7
ATOM      7  N   UNL d   1       0.830  -2.748   4.775  0.00  0.00    -0.732 N 
ATOM      8  C   UNL d   1       1.744  -2.633   3.659  0.00  0.00     0.284 C 
ATOM      9  H3  UNL d   1       0.385  -1.872   5.040  0.00  0.00     0.395 HD
ENDBRANCH   1   7
TORSDOF 1
ENDMDL
