MODEL 1
REMARK minimizedAffinity 3.98302889
REMARK minimizedRMSD -1
REMARK  1 active torsions:
REMARK  status: ('A' for Active; 'I' for Inactive)
REMARK    1  A    between atoms: N_2  and  C1_3 
ROOT
ATOM      1  C1  UNL d   1      -3.417   0.208  -0.372  0.00  0.00     0.143 A 
ATOM      2  C2  UNL d   1      -3.398   0.892   0.848  0.00  0.00    -0.057 A 
ATOM      3  C3  UNL d   1      -4.573   1.101   1.582  0.00  0.00     0.033 A 
ATOM      4  C4  UNL d   1      -5.795   0.653   1.091  0.00  0.00    -0.042 A 
ATOM      5  C5  UNL d   1      -5.841  -0.007  -0.131  0.00  0.00     0.033 A 
ATOM      6  C6  UNL d   1      -4.664  -0.218  -0.856  0.00  0.00    -0.057 A 
ENDROOT
BRANCH   1   7
ATOM      7  N   UNL d   1      -2.299   0.055  -1.195  0.00  0.00    -0.732 N 
ATOM      8  C   UNL d   1      -2.434   0.090  -2.636  0.00  0.00     0.284 C 
ATOM      9  H3  UNL d   1      -1.485   0.553  -0.842  0.00  0.00     0.395 HD
ENDBRANCH   1   7
TORSDOF 1
ENDMDL
