MODEL 1
REMARK minimizedAffinity 6.78566313
REMARK minimizedRMSD -1
REMARK  1 active torsions:
REMARK  status: ('A' for Active; 'I' for Inactive)
REMARK    1  A    between atoms: N_2  and  C1_3 
ROOT
ATOM      1  C1  UNL d   1       3.607   0.764  -0.444  0.00  0.00     0.143 A 
ATOM      2  C2  UNL d   1       3.366   1.995   0.175  0.00  0.00    -0.057 A 
ATOM      3  C3  UNL d   1       4.418   2.855   0.514  0.00  0.00     0.033 A 
ATOM      4  C4  UNL d   1       5.735   2.485   0.265  0.00  0.00    -0.042 A 
ATOM      5  C5  UNL d   1       6.000   1.255  -0.327  0.00  0.00     0.033 A 
ATOM      6  C6  UNL d   1       4.945   0.403  -0.669  0.00  0.00    -0.057 A 
ENDROOT
BRANCH   1   7
ATOM      7  N   UNL d   1       2.612  -0.178  -0.717  0.00  0.00    -0.732 N 
ATOM      8  C   UNL d   1       2.886  -1.594  -0.600  0.00  0.00     0.284 C 
ATOM      9  H3  UNL d   1       1.704   0.101  -0.354  0.00  0.00     0.395 HD
ENDBRANCH   1   7
TORSDOF 1
ENDMDL
