MODEL 1
REMARK minimizedAffinity -0.47985968
REMARK minimizedRMSD -1
REMARK  0 active torsions:
REMARK  status: ('A' for Active; 'I' for Inactive)
ROOT
ATOM      1  C   UNL d   1       2.266  -1.515   0.476  0.00  0.00     0.020 A 
ATOM      2  C1  UNL d   1       2.533  -0.939  -0.766  0.00  0.00     0.020 A 
ATOM      3  C2  UNL d   1       1.598  -0.084  -1.354  0.00  0.00     0.034 A 
ATOM      4  C3  UNL d   1       0.393   0.197  -0.701  0.00  0.00     0.017 A 
ATOM      5  C4  UNL d   1       0.126  -0.381   0.545  0.00  0.00     0.017 A 
ATOM      6  C5  UNL d   1       1.065  -1.236   1.130  0.00  0.00     0.034 A 
ATOM      7 Cl   UNL d   1      -1.339  -0.081   1.412  0.00  0.00    -0.070 Cl
ATOM      8 Cl1  UNL d   1      -0.717   1.263  -1.487  0.00  0.00    -0.070 Cl
ENDROOT
TORSDOF 0
ENDMDL
