MODEL 1
REMARK minimizedAffinity 1.40106869
REMARK minimizedRMSD -1
REMARK  0 active torsions:
REMARK  status: ('A' for Active; 'I' for Inactive)
ROOT
ATOM      1  C   UNL d   1      -0.563   0.459   0.698  0.00  0.00     0.020 A 
ATOM      2  C1  UNL d   1       0.293   1.311   0.001  0.00  0.00     0.020 A 
ATOM      3  C2  UNL d   1      -0.046   1.742  -1.284  0.00  0.00     0.034 A 
ATOM      4  C3  UNL d   1      -1.243   1.321  -1.875  0.00  0.00     0.017 A 
ATOM      5  C4  UNL d   1      -2.101   0.466  -1.173  0.00  0.00     0.017 A 
ATOM      6  C5  UNL d   1      -1.757   0.038   0.113  0.00  0.00     0.034 A 
ATOM      7 Cl   UNL d   1      -3.595  -0.095  -1.836  0.00  0.00    -0.070 Cl
ATOM      8 Cl1  UNL d   1      -1.598   1.893  -3.466  0.00  0.00    -0.070 Cl
ENDROOT
TORSDOF 0
ENDMDL
