MODEL 1
REMARK minimizedAffinity 0.227990344
REMARK minimizedRMSD -1
REMARK  0 active torsions:
REMARK  status: ('A' for Active; 'I' for Inactive)
ROOT
ATOM      1  C   UNL d   1       2.336  -1.898   0.567  0.00  0.00     0.020 A 
ATOM      2  C1  UNL d   1       2.009  -0.836  -0.276  0.00  0.00     0.020 A 
ATOM      3  C2  UNL d   1       0.848  -0.094  -0.046  0.00  0.00     0.034 A 
ATOM      4  C3  UNL d   1       0.011  -0.412   1.030  0.00  0.00     0.017 A 
ATOM      5  C4  UNL d   1       0.340  -1.477   1.875  0.00  0.00     0.017 A 
ATOM      6  C5  UNL d   1       1.503  -2.217   1.640  0.00  0.00     0.034 A 
ATOM      7 Cl   UNL d   1      -0.644  -1.930   3.222  0.00  0.00    -0.070 Cl
ATOM      8 Cl1  UNL d   1      -1.407   0.549   1.255  0.00  0.00    -0.070 Cl
ENDROOT
TORSDOF 0
ENDMDL
