MODEL 1
REMARK minimizedAffinity -4.65648222
REMARK minimizedRMSD -1
REMARK  0 active torsions:
REMARK  status: ('A' for Active; 'I' for Inactive)
ROOT
ATOM      1  C   UNL d   1       0.175  -2.281   1.336  0.00  0.00     0.020 A 
ATOM      2  C1  UNL d   1       1.547  -2.051   1.422  0.00  0.00     0.020 A 
ATOM      3  C2  UNL d   1       2.096  -0.890   0.874  0.00  0.00     0.034 A 
ATOM      4  C3  UNL d   1       1.273   0.045   0.236  0.00  0.00     0.017 A 
ATOM      5  C4  UNL d   1      -0.105  -0.187   0.150  0.00  0.00     0.017 A 
ATOM      6  C5  UNL d   1      -0.649  -1.351   0.701  0.00  0.00     0.034 A 
ATOM      7 Cl   UNL d   1      -1.185   0.920  -0.621  0.00  0.00    -0.070 Cl
ATOM      8 Cl1  UNL d   1       2.020   1.458  -0.419  0.00  0.00    -0.070 Cl
ENDROOT
TORSDOF 0
ENDMDL
