MODEL 1
REMARK minimizedAffinity 3.27553773
REMARK minimizedRMSD -1
REMARK  0 active torsions:
REMARK  status: ('A' for Active; 'I' for Inactive)
ROOT
ATOM      1  C   UNL d   1       2.442  -0.868  -0.179  0.00  0.00     0.020 A 
ATOM      2  C1  UNL d   1       1.860  -1.872   0.594  0.00  0.00     0.020 A 
ATOM      3  C2  UNL d   1       0.647  -1.637   1.245  0.00  0.00     0.034 A 
ATOM      4  C3  UNL d   1       0.012  -0.396   1.124  0.00  0.00     0.017 A 
ATOM      5  C4  UNL d   1       0.597   0.611   0.348  0.00  0.00     0.017 A 
ATOM      6  C5  UNL d   1       1.812   0.371  -0.301  0.00  0.00     0.034 A 
ATOM      7 Cl   UNL d   1      -0.126   2.169   0.152  0.00  0.00    -0.070 Cl
ATOM      8 Cl1  UNL d   1      -1.486  -0.175   1.956  0.00  0.00    -0.070 Cl
ENDROOT
TORSDOF 0
ENDMDL
