MODEL 1
REMARK minimizedAffinity -0.0914834738
REMARK minimizedRMSD -1
REMARK  0 active torsions:
REMARK  status: ('A' for Active; 'I' for Inactive)
ROOT
ATOM      1  C   UNL d   1      -0.917  -0.229   1.572  0.00  0.00     0.020 A 
ATOM      2  C1  UNL d   1      -1.919   0.730   1.721  0.00  0.00     0.020 A 
ATOM      3  C2  UNL d   1      -3.024   0.722   0.868  0.00  0.00     0.034 A 
ATOM      4  C3  UNL d   1      -3.130  -0.246  -0.138  0.00  0.00     0.017 A 
ATOM      5  C4  UNL d   1      -2.124  -1.207  -0.286  0.00  0.00     0.017 A 
ATOM      6  C5  UNL d   1      -1.020  -1.195   0.571  0.00  0.00     0.034 A 
ATOM      7 Cl   UNL d   1      -2.185  -2.433  -1.504  0.00  0.00    -0.070 Cl
ATOM      8 Cl1  UNL d   1      -4.525  -0.196  -1.157  0.00  0.00    -0.070 Cl
ENDROOT
TORSDOF 0
ENDMDL
