MODEL 1
REMARK minimizedAffinity 2.40255618
REMARK minimizedRMSD -1
REMARK  0 active torsions:
REMARK  status: ('A' for Active; 'I' for Inactive)
ROOT
ATOM      1  C   UNL d   1       1.105  -1.944   1.278  0.00  0.00     0.020 A 
ATOM      2  C1  UNL d   1       2.178  -2.308   0.466  0.00  0.00     0.020 A 
ATOM      3  C2  UNL d   1       2.759  -1.368  -0.388  0.00  0.00     0.034 A 
ATOM      4  C3  UNL d   1       2.267  -0.059  -0.432  0.00  0.00     0.017 A 
ATOM      5  C4  UNL d   1       1.189   0.306   0.383  0.00  0.00     0.017 A 
ATOM      6  C5  UNL d   1       0.612  -0.639   1.236  0.00  0.00     0.034 A 
ATOM      7 Cl   UNL d   1       0.527   1.903   0.384  0.00  0.00    -0.070 Cl
ATOM      8 Cl1  UNL d   1       3.033   1.052  -1.511  0.00  0.00    -0.070 Cl
ENDROOT
TORSDOF 0
ENDMDL
