MODEL 1
REMARK minimizedAffinity 0.452906221
REMARK minimizedRMSD -1
REMARK  0 active torsions:
REMARK  status: ('A' for Active; 'I' for Inactive)
ROOT
ATOM      1  C   UNL d   1       1.869  -3.257  -0.385  0.00  0.00     0.020 A 
ATOM      2  C1  UNL d   1       1.206  -2.957   0.804  0.00  0.00     0.020 A 
ATOM      3  C2  UNL d   1       1.055  -1.627   1.204  0.00  0.00     0.034 A 
ATOM      4  C3  UNL d   1       1.568  -0.593   0.413  0.00  0.00     0.017 A 
ATOM      5  C4  UNL d   1       2.234  -0.895  -0.781  0.00  0.00     0.017 A 
ATOM      6  C5  UNL d   1       2.382  -2.228  -1.175  0.00  0.00     0.034 A 
ATOM      7 Cl   UNL d   1       2.894   0.327  -1.809  0.00  0.00    -0.070 Cl
ATOM      8 Cl1  UNL d   1       1.346   1.028   0.967  0.00  0.00    -0.070 Cl
ENDROOT
TORSDOF 0
ENDMDL
