MODEL 1
REMARK minimizedAffinity 3.78569913
REMARK minimizedRMSD -1
REMARK  0 active torsions:
REMARK  status: ('A' for Active; 'I' for Inactive)
ROOT
ATOM      1  C   UNL d   1       2.413  -1.865   1.726  0.00  0.00     0.020 A 
ATOM      2  C1  UNL d   1       1.573  -2.946   1.460  0.00  0.00     0.020 A 
ATOM      3  C2  UNL d   1       1.292  -3.304   0.140  0.00  0.00     0.034 A 
ATOM      4  C3  UNL d   1       1.850  -2.580  -0.920  0.00  0.00     0.017 A 
ATOM      5  C4  UNL d   1       2.693  -1.495  -0.652  0.00  0.00     0.017 A 
ATOM      6  C5  UNL d   1       2.971  -1.141   0.671  0.00  0.00     0.034 A 
ATOM      7 Cl   UNL d   1       3.419  -0.554  -1.907  0.00  0.00    -0.070 Cl
ATOM      8 Cl1  UNL d   1       1.459  -3.079  -2.527  0.00  0.00    -0.070 Cl
ENDROOT
TORSDOF 0
ENDMDL
