MODEL 1
REMARK minimizedAffinity 7.69999218
REMARK minimizedRMSD -1
REMARK  0 active torsions:
REMARK  status: ('A' for Active; 'I' for Inactive)
ROOT
ATOM      1  C   UNL d   1      -3.191   1.035   0.929  0.00  0.00     0.020 A 
ATOM      2  C1  UNL d   1      -3.590   0.654  -0.352  0.00  0.00     0.020 A 
ATOM      3  C2  UNL d   1      -3.267  -0.616  -0.835  0.00  0.00     0.034 A 
ATOM      4  C3  UNL d   1      -2.543  -1.509  -0.037  0.00  0.00     0.017 A 
ATOM      5  C4  UNL d   1      -2.143  -1.126   1.248  0.00  0.00     0.017 A 
ATOM      6  C5  UNL d   1      -2.469   0.147   1.727  0.00  0.00     0.034 A 
ATOM      7 Cl   UNL d   1      -1.247  -2.173   2.291  0.00  0.00    -0.070 Cl
ATOM      8 Cl1  UNL d   1      -2.178  -3.063  -0.699  0.00  0.00    -0.070 Cl
ENDROOT
TORSDOF 0
ENDMDL
