MODEL 1
REMARK minimizedAffinity 10.5127068
REMARK minimizedRMSD -1
REMARK  0 active torsions:
REMARK  status: ('A' for Active; 'I' for Inactive)
ROOT
ATOM      1  C   UNL d   1      -3.848   2.618  -2.576  0.00  0.00     0.020 A 
ATOM      2  C1  UNL d   1      -3.173   1.718  -3.401  0.00  0.00     0.020 A 
ATOM      3  C2  UNL d   1      -2.938   0.412  -2.965  0.00  0.00     0.034 A 
ATOM      4  C3  UNL d   1      -3.378   0.003  -1.701  0.00  0.00     0.017 A 
ATOM      5  C4  UNL d   1      -4.055   0.906  -0.874  0.00  0.00     0.017 A 
ATOM      6  C5  UNL d   1      -4.287   2.213  -1.315  0.00  0.00     0.034 A 
ATOM      7 Cl   UNL d   1      -4.627   0.474   0.699  0.00  0.00    -0.070 Cl
ATOM      8 Cl1  UNL d   1      -3.053  -1.627  -1.226  0.00  0.00    -0.070 Cl
ENDROOT
TORSDOF 0
ENDMDL
