MODEL 1
REMARK minimizedAffinity 2.51191497
REMARK minimizedRMSD -1
REMARK  0 active torsions:
REMARK  status: ('A' for Active; 'I' for Inactive)
ROOT
ATOM      1  C   UNL d   1       3.763   0.404  -2.493  0.00  0.00     0.020 A 
ATOM      2  C1  UNL d   1       4.023  -0.934  -2.197  0.00  0.00     0.020 A 
ATOM      3  C2  UNL d   1       3.434  -1.528  -1.079  0.00  0.00     0.034 A 
ATOM      4  C3  UNL d   1       2.583  -0.785  -0.253  0.00  0.00     0.017 A 
ATOM      5  C4  UNL d   1       2.323   0.557  -0.551  0.00  0.00     0.017 A 
ATOM      6  C5  UNL d   1       2.915   1.147  -1.672  0.00  0.00     0.034 A 
ATOM      7 Cl   UNL d   1       1.284   1.538   0.421  0.00  0.00    -0.070 Cl
ATOM      8 Cl1  UNL d   1       1.889  -1.585   1.112  0.00  0.00    -0.070 Cl
ENDROOT
TORSDOF 0
ENDMDL
