MODEL 1
REMARK minimizedAffinity 7.17825556
REMARK minimizedRMSD -1
REMARK  0 active torsions:
REMARK  status: ('A' for Active; 'I' for Inactive)
ROOT
ATOM      1  C   UNL d   1      -1.423   3.251  -1.887  0.00  0.00     0.020 A 
ATOM      2  C1  UNL d   1      -2.106   2.477  -2.825  0.00  0.00     0.020 A 
ATOM      3  C2  UNL d   1      -2.823   1.352  -2.413  0.00  0.00     0.034 A 
ATOM      4  C3  UNL d   1      -2.859   0.998  -1.059  0.00  0.00     0.017 A 
ATOM      5  C4  UNL d   1      -2.174   1.775  -0.119  0.00  0.00     0.017 A 
ATOM      6  C5  UNL d   1      -1.458   2.901  -0.537  0.00  0.00     0.034 A 
ATOM      7 Cl   UNL d   1      -2.173   1.401   1.569  0.00  0.00    -0.070 Cl
ATOM      8 Cl1  UNL d   1      -3.766  -0.406  -0.621  0.00  0.00    -0.070 Cl
ENDROOT
TORSDOF 0
ENDMDL
