MODEL 1
REMARK minimizedAffinity 4.68509102
REMARK minimizedRMSD -1
REMARK  0 active torsions:
REMARK  status: ('A' for Active; 'I' for Inactive)
ROOT
ATOM      1  C   UNL d   1      -0.803  -0.631   2.325  0.00  0.00     0.020 A 
ATOM      2  C1  UNL d   1      -0.744  -2.023   2.357  0.00  0.00     0.020 A 
ATOM      3  C2  UNL d   1      -1.216  -2.768   1.274  0.00  0.00     0.034 A 
ATOM      4  C3  UNL d   1      -1.751  -2.120   0.155  0.00  0.00     0.017 A 
ATOM      5  C4  UNL d   1      -1.810  -0.722   0.123  0.00  0.00     0.017 A 
ATOM      6  C5  UNL d   1      -1.335   0.018   1.210  0.00  0.00     0.034 A 
ATOM      7 Cl   UNL d   1      -2.455   0.148  -1.224  0.00  0.00    -0.070 Cl
ATOM      8 Cl1  UNL d   1      -2.316  -3.104  -1.148  0.00  0.00    -0.070 Cl
ENDROOT
TORSDOF 0
ENDMDL
