MODEL 1
REMARK minimizedAffinity 6.29507351
REMARK minimizedRMSD -1
REMARK  0 active torsions:
REMARK  status: ('A' for Active; 'I' for Inactive)
ROOT
ATOM      1  C   UNL d   1      -1.781   2.500  -2.691  0.00  0.00     0.020 A 
ATOM      2  C1  UNL d   1      -2.925   1.973  -3.290  0.00  0.00     0.020 A 
ATOM      3  C2  UNL d   1      -3.832   1.231  -2.531  0.00  0.00     0.034 A 
ATOM      4  C3  UNL d   1      -3.597   1.014  -1.168  0.00  0.00     0.017 A 
ATOM      5  C4  UNL d   1      -2.449   1.543  -0.568  0.00  0.00     0.017 A 
ATOM      6  C5  UNL d   1      -1.544   2.285  -1.333  0.00  0.00     0.034 A 
ATOM      7 Cl   UNL d   1      -2.091   1.318   1.108  0.00  0.00    -0.070 Cl
ATOM      8 Cl1  UNL d   1      -4.762   0.087  -0.290  0.00  0.00    -0.070 Cl
ENDROOT
TORSDOF 0
ENDMDL
