MODEL 1
REMARK minimizedAffinity 3.5836606
REMARK minimizedRMSD -1
REMARK  0 active torsions:
REMARK  status: ('A' for Active; 'I' for Inactive)
ROOT
ATOM      1  C   UNL d   1      -2.313  -0.897   1.988  0.00  0.00     0.020 A 
ATOM      2  C1  UNL d   1      -2.557   0.460   1.781  0.00  0.00     0.020 A 
ATOM      3  C2  UNL d   1      -2.800   0.937   0.492  0.00  0.00     0.034 A 
ATOM      4  C3  UNL d   1      -2.798   0.057  -0.596  0.00  0.00     0.017 A 
ATOM      5  C4  UNL d   1      -2.553  -1.305  -0.388  0.00  0.00     0.017 A 
ATOM      6  C5  UNL d   1      -2.311  -1.778   0.906  0.00  0.00     0.034 A 
ATOM      7 Cl   UNL d   1      -2.535  -2.452  -1.681  0.00  0.00    -0.070 Cl
ATOM      8 Cl1  UNL d   1      -3.106   0.716  -2.164  0.00  0.00    -0.070 Cl
ENDROOT
TORSDOF 0
ENDMDL
