MODEL 1
REMARK minimizedAffinity 5.27028894
REMARK minimizedRMSD -1
REMARK  0 active torsions:
REMARK  status: ('A' for Active; 'I' for Inactive)
ROOT
ATOM      1  C   UNL d   1       2.674  -2.651  -0.326  0.00  0.00     0.020 A 
ATOM      2  C1  UNL d   1       1.951  -2.304   0.814  0.00  0.00     0.020 A 
ATOM      3  C2  UNL d   1       1.678  -0.961   1.086  0.00  0.00     0.034 A 
ATOM      4  C3  UNL d   1       2.128   0.039   0.216  0.00  0.00     0.017 A 
ATOM      5  C4  UNL d   1       2.853  -0.311  -0.929  0.00  0.00     0.017 A 
ATOM      6  C5  UNL d   1       3.124  -1.656  -1.196  0.00  0.00     0.034 A 
ATOM      7 Cl   UNL d   1       3.441   0.867  -2.049  0.00  0.00    -0.070 Cl
ATOM      8 Cl1  UNL d   1       1.753   1.678   0.614  0.00  0.00    -0.070 Cl
ENDROOT
TORSDOF 0
ENDMDL
