MODEL 1
REMARK minimizedAffinity -0.846633852
REMARK minimizedRMSD -1
REMARK  0 active torsions:
REMARK  status: ('A' for Active; 'I' for Inactive)
ROOT
ATOM      1  C1  BNZ d   1       0.970   1.876  -2.175  0.00  0.00     0.000 A 
ATOM      2  C2  BNZ d   1       0.612   3.044  -2.793  0.00  0.00     0.000 A 
ATOM      3  C3  BNZ d   1      -0.704   3.346  -3.010  0.00  0.00     0.000 A 
ATOM      4  C4  BNZ d   1      -1.656   2.463  -2.645  0.00  0.00     0.000 A 
ATOM      5  C5  BNZ d   1      -1.309   1.276  -2.029  0.00  0.00     0.000 A 
ATOM      6  C6  BNZ d   1       0.014   0.993  -1.778  0.00  0.00     0.000 A 
ENDROOT
TORSDOF 0
ENDMDL
