MODEL 1
REMARK minimizedAffinity -1.69365978
REMARK minimizedRMSD -1
REMARK  0 active torsions:
REMARK  status: ('A' for Active; 'I' for Inactive)
ROOT
ATOM      1  C1  BNZ d   1       0.565  -1.080   1.408  0.00  0.00     0.000 A 
ATOM      2  C2  BNZ d   1       0.723  -1.086   0.048  0.00  0.00     0.000 A 
ATOM      3  C3  BNZ d   1      -0.126  -0.382  -0.759  0.00  0.00     0.000 A 
ATOM      4  C4  BNZ d   1      -1.156   0.292  -0.209  0.00  0.00     0.000 A 
ATOM      5  C5  BNZ d   1      -1.336   0.301   1.160  0.00  0.00     0.000 A 
ATOM      6  C6  BNZ d   1      -0.455  -0.377   1.972  0.00  0.00     0.000 A 
ENDROOT
TORSDOF 0
ENDMDL
