MODEL 1
REMARK minimizedAffinity -3.54532409
REMARK minimizedRMSD -1
REMARK  0 active torsions:
REMARK  status: ('A' for Active; 'I' for Inactive)
ROOT
ATOM      1  C1  BNZ d   1      -0.186  -0.376  -1.059  0.00  0.00     0.000 A 
ATOM      2  C2  BNZ d   1      -0.259  -0.766   0.251  0.00  0.00     0.000 A 
ATOM      3  C3  BNZ d   1      -0.816   0.051   1.195  0.00  0.00     0.000 A 
ATOM      4  C4  BNZ d   1      -1.262   1.272   0.835  0.00  0.00     0.000 A 
ATOM      5  C5  BNZ d   1      -1.186   1.684  -0.481  0.00  0.00     0.000 A 
ATOM      6  C6  BNZ d   1      -0.660   0.843  -1.435  0.00  0.00     0.000 A 
ENDROOT
TORSDOF 0
ENDMDL
