MODEL 1
REMARK minimizedAffinity -1.76609075
REMARK minimizedRMSD -1
REMARK  0 active torsions:
REMARK  status: ('A' for Active; 'I' for Inactive)
ROOT
ATOM      1  C1  BNZ d   1      -0.415   0.145   0.552  0.00  0.00     0.000 A 
ATOM      2  C2  BNZ d   1      -0.928   0.658  -0.610  0.00  0.00     0.000 A 
ATOM      3  C3  BNZ d   1      -0.371   0.345  -1.818  0.00  0.00     0.000 A 
ATOM      4  C4  BNZ d   1       0.720  -0.447  -1.861  0.00  0.00     0.000 A 
ATOM      5  C5  BNZ d   1       1.254  -0.964  -0.697  0.00  0.00     0.000 A 
ATOM      6  C6  BNZ d   1       0.667  -0.678   0.514  0.00  0.00     0.000 A 
ENDROOT
TORSDOF 0
ENDMDL
