MODEL 1
REMARK minimizedAffinity -3.83312011
REMARK minimizedRMSD -1
REMARK  0 active torsions:
REMARK  status: ('A' for Active; 'I' for Inactive)
ROOT
ATOM      1  C1  BNZ d   1      -0.404  -0.184   0.011  0.00  0.00     0.000 A 
ATOM      2  C2  BNZ d   1      -0.836  -0.278   1.307  0.00  0.00     0.000 A 
ATOM      3  C3  BNZ d   1      -0.130  -0.997   2.230  0.00  0.00     0.000 A 
ATOM      4  C4  BNZ d   1       0.985  -1.653   1.848  0.00  0.00     0.000 A 
ATOM      5  C5  BNZ d   1       1.429  -1.575   0.543  0.00  0.00     0.000 A 
ATOM      6  C6  BNZ d   1       0.737  -0.819  -0.374  0.00  0.00     0.000 A 
ENDROOT
TORSDOF 0
ENDMDL
