MODEL 1
REMARK minimizedAffinity -2.5784452
REMARK minimizedRMSD -1
REMARK  0 active torsions:
REMARK  status: ('A' for Active; 'I' for Inactive)
ROOT
ATOM      1  C1  BNZ d   1      -0.706  -0.870   0.236  0.00  0.00     0.000 A 
ATOM      2  C2  BNZ d   1      -0.671  -0.774  -1.130  0.00  0.00     0.000 A 
ATOM      3  C3  BNZ d   1      -0.493   0.435  -1.742  0.00  0.00     0.000 A 
ATOM      4  C4  BNZ d   1      -0.392   1.550  -0.991  0.00  0.00     0.000 A 
ATOM      5  C5  BNZ d   1      -0.435   1.471   0.387  0.00  0.00     0.000 A 
ATOM      6  C6  BNZ d   1      -0.575   0.248   1.001  0.00  0.00     0.000 A 
ENDROOT
TORSDOF 0
ENDMDL
