MODEL 1
REMARK minimizedAffinity 6.48066998
REMARK minimizedRMSD -1
REMARK  0 active torsions:
REMARK  status: ('A' for Active; 'I' for Inactive)
ROOT
ATOM      1  O1  BZF d   1       0.710  -0.643  -2.655  0.00  0.00    -0.204 OA
ATOM      2  C2  BZF d   1       1.783   0.025  -3.214  0.00  0.00     0.174 A 
ATOM      3  C3  BZF d   1       2.311   0.901  -2.335  0.00  0.00    -0.012 A 
ATOM      4  C3A BZF d   1       1.578   0.706  -1.122  0.00  0.00    -0.107 A 
ATOM      5  C4  BZF d   1       1.647   1.271   0.119  0.00  0.00     0.055 A 
ATOM      6  C5  BZF d   1       0.738   0.910   1.062  0.00  0.00    -0.016 A 
ATOM      7  C6  BZF d   1      -0.256  -0.010   0.797  0.00  0.00     0.022 A 
ATOM      8  C7  BZF d   1      -0.362  -0.602  -0.418  0.00  0.00     0.029 A 
ATOM      9  C7A BZF d   1       0.575  -0.263  -1.362  0.00  0.00     0.058 A 
ENDROOT
TORSDOF 0
ENDMDL
