MODEL 1
REMARK minimizedAffinity 4.79354334
REMARK minimizedRMSD -1
REMARK  0 active torsions:
REMARK  status: ('A' for Active; 'I' for Inactive)
ROOT
ATOM      1  O1  BZF d   1       5.837   5.799   4.394  0.00  0.00    -0.204 OA
ATOM      2  C2  BZF d   1       5.873   5.985   3.025  0.00  0.00     0.174 A 
ATOM      3  C3  BZF d   1       5.994   4.805   2.385  0.00  0.00    -0.012 A 
ATOM      4  C3A BZF d   1       5.945   3.812   3.414  0.00  0.00    -0.107 A 
ATOM      5  C4  BZF d   1       6.000   2.447   3.406  0.00  0.00     0.055 A 
ATOM      6  C5  BZF d   1       5.999   1.779   4.589  0.00  0.00    -0.016 A 
ATOM      7  C6  BZF d   1       5.950   2.442   5.798  0.00  0.00     0.022 A 
ATOM      8  C7  BZF d   1       5.889   3.795   5.856  0.00  0.00     0.029 A 
ATOM      9  C7A BZF d   1       5.856   4.472   4.662  0.00  0.00     0.058 A 
ENDROOT
TORSDOF 0
ENDMDL
