MODEL 1
REMARK minimizedAffinity 2.35636401
REMARK minimizedRMSD -1
REMARK  0 active torsions:
REMARK  status: ('A' for Active; 'I' for Inactive)
ROOT
ATOM      1  O1  BZF d   1       5.966   5.173   2.252  0.00  0.00    -0.204 OA
ATOM      2  C2  BZF d   1       5.999   5.995   3.362  0.00  0.00     0.174 A 
ATOM      3  C3  BZF d   1       5.962   5.268   4.497  0.00  0.00    -0.012 A 
ATOM      4  C3A BZF d   1       5.995   3.903   4.071  0.00  0.00    -0.107 A 
ATOM      5  C4  BZF d   1       5.998   2.711   4.737  0.00  0.00     0.055 A 
ATOM      6  C5  BZF d   1       5.961   1.555   4.024  0.00  0.00    -0.016 A 
ATOM      7  C6  BZF d   1       5.916   1.554   2.645  0.00  0.00     0.022 A 
ATOM      8  C7  BZF d   1       5.917   2.711   1.940  0.00  0.00     0.029 A 
ATOM      9  C7A BZF d   1       5.987   3.880   2.657  0.00  0.00     0.058 A 
ENDROOT
TORSDOF 0
ENDMDL
