MODEL 1
REMARK minimizedAffinity 6.26520634
REMARK minimizedRMSD -1
REMARK  0 active torsions:
REMARK  status: ('A' for Active; 'I' for Inactive)
ROOT
ATOM      1  O1  BZF d   1       5.989   2.470   4.036  0.00  0.00    -0.204 OA
ATOM      2  C2  BZF d   1       6.000   1.501   3.052  0.00  0.00     0.174 A 
ATOM      3  C3  BZF d   1       5.938   2.062   1.827  0.00  0.00    -0.012 A 
ATOM      4  C3A BZF d   1       5.979   3.474   2.058  0.00  0.00    -0.107 A 
ATOM      5  C4  BZF d   1       5.965   4.561   1.231  0.00  0.00     0.055 A 
ATOM      6  C5  BZF d   1       5.942   5.805   1.777  0.00  0.00    -0.016 A 
ATOM      7  C6  BZF d   1       5.925   5.998   3.143  0.00  0.00     0.022 A 
ATOM      8  C7  BZF d   1       5.943   4.951   4.003  0.00  0.00     0.029 A 
ATOM      9  C7A BZF d   1       6.000   3.693   3.454  0.00  0.00     0.058 A 
ENDROOT
TORSDOF 0
ENDMDL
