MODEL 1
REMARK minimizedAffinity 14.0984573
REMARK minimizedRMSD -1
REMARK  0 active torsions:
REMARK  status: ('A' for Active; 'I' for Inactive)
ROOT
ATOM      1  O1  BZF d   1       4.750  -0.930   4.617  0.00  0.00    -0.204 OA
ATOM      2  C2  BZF d   1       5.378  -0.509   5.773  0.00  0.00     0.174 A 
ATOM      3  C3  BZF d   1       6.000   0.671   5.577  0.00  0.00    -0.012 A 
ATOM      4  C3A BZF d   1       5.667   1.055   4.240  0.00  0.00    -0.107 A 
ATOM      5  C4  BZF d   1       5.973   2.141   3.471  0.00  0.00     0.055 A 
ATOM      6  C5  BZF d   1       5.550   2.177   2.180  0.00  0.00    -0.016 A 
ATOM      7  C6  BZF d   1       4.825   1.143   1.625  0.00  0.00     0.022 A 
ATOM      8  C7  BZF d   1       4.493   0.047   2.349  0.00  0.00     0.029 A 
ATOM      9  C7A BZF d   1       4.891   0.023   3.664  0.00  0.00     0.058 A 
ENDROOT
TORSDOF 0
ENDMDL
