MODEL 1
REMARK minimizedAffinity 9.83686066
REMARK minimizedRMSD -1
REMARK  0 active torsions:
REMARK  status: ('A' for Active; 'I' for Inactive)
ROOT
ATOM      1  O1  BZF d   1       4.636   5.164   3.231  0.00  0.00    -0.204 OA
ATOM      2  C2  BZF d   1       5.944   4.772   3.436  0.00  0.00     0.174 A 
ATOM      3  C3  BZF d   1       6.000   3.487   3.841  0.00  0.00    -0.012 A 
ATOM      4  C3A BZF d   1       4.648   3.021   3.803  0.00  0.00    -0.107 A 
ATOM      5  C4  BZF d   1       4.060   1.820   4.080  0.00  0.00     0.055 A 
ATOM      6  C5  BZF d   1       2.707   1.715   4.014  0.00  0.00    -0.016 A 
ATOM      7  C6  BZF d   1       1.911   2.792   3.680  0.00  0.00     0.022 A 
ATOM      8  C7  BZF d   1       2.448   4.002   3.392  0.00  0.00     0.029 A 
ATOM      9  C7A BZF d   1       3.818   4.102   3.426  0.00  0.00     0.058 A 
ENDROOT
TORSDOF 0
ENDMDL
