MODEL 1
REMARK minimizedAffinity 4.50978804
REMARK minimizedRMSD -1
REMARK  0 active torsions:
REMARK  status: ('A' for Active; 'I' for Inactive)
ROOT
ATOM      1  O1  BZF d   1       1.252  -4.426   0.438  0.00  0.00    -0.204 OA
ATOM      2  C2  BZF d   1       0.970  -3.073   0.460  0.00  0.00     0.174 A 
ATOM      3  C3  BZF d   1       1.361  -2.522   1.627  0.00  0.00    -0.012 A 
ATOM      4  C3A BZF d   1       2.005  -3.578   2.345  0.00  0.00    -0.107 A 
ATOM      5  C4  BZF d   1       2.617  -3.648   3.564  0.00  0.00     0.055 A 
ATOM      6  C5  BZF d   1       3.080  -4.848   4.003  0.00  0.00    -0.016 A 
ATOM      7  C6  BZF d   1       2.944  -5.997   3.252  0.00  0.00     0.022 A 
ATOM      8  C7  BZF d   1       2.349  -5.977   2.035  0.00  0.00     0.029 A 
ATOM      9  C7A BZF d   1       1.909  -4.760   1.574  0.00  0.00     0.058 A 
ENDROOT
TORSDOF 0
ENDMDL
