MODEL 1
REMARK minimizedAffinity 7.14484644
REMARK minimizedRMSD -1
REMARK  0 active torsions:
REMARK  status: ('A' for Active; 'I' for Inactive)
ROOT
ATOM      1  O1  BZF d   1       5.943   3.713   1.560  0.00  0.00    -0.204 OA
ATOM      2  C2  BZF d   1       5.882   4.913   0.879  0.00  0.00     0.174 A 
ATOM      3  C3  BZF d   1       5.807   5.948   1.739  0.00  0.00    -0.012 A 
ATOM      4  C3A BZF d   1       5.914   5.364   3.041  0.00  0.00    -0.107 A 
ATOM      5  C4  BZF d   1       5.920   5.882   4.305  0.00  0.00     0.055 A 
ATOM      6  C5  BZF d   1       5.966   5.035   5.366  0.00  0.00    -0.016 A 
ATOM      7  C6  BZF d   1       6.000   3.665   5.200  0.00  0.00     0.022 A 
ATOM      8  C7  BZF d   1       6.000   3.105   3.966  0.00  0.00     0.029 A 
ATOM      9  C7A BZF d   1       5.987   3.960   2.891  0.00  0.00     0.058 A 
ENDROOT
TORSDOF 0
ENDMDL
