MODEL 1
REMARK minimizedAffinity 10.4055939
REMARK minimizedRMSD -1
REMARK  0 active torsions:
REMARK  status: ('A' for Active; 'I' for Inactive)
ROOT
ATOM      1  O1  BZF d   1       2.256  -4.537   3.897  0.00  0.00    -0.204 OA
ATOM      2  C2  BZF d   1       1.511  -5.352   3.067  0.00  0.00     0.174 A 
ATOM      3  C3  BZF d   1       2.307  -6.000   2.192  0.00  0.00    -0.012 A 
ATOM      4  C3A BZF d   1       3.642  -5.633   2.555  0.00  0.00    -0.107 A 
ATOM      5  C4  BZF d   1       4.872  -5.968   2.067  0.00  0.00     0.055 A 
ATOM      6  C5  BZF d   1       5.976  -5.379   2.599  0.00  0.00    -0.016 A 
ATOM      7  C6  BZF d   1       5.885  -4.449   3.614  0.00  0.00     0.022 A 
ATOM      8  C7  BZF d   1       4.686  -4.089   4.133  0.00  0.00     0.029 A 
ATOM      9  C7A BZF d   1       3.572  -4.707   3.621  0.00  0.00     0.058 A 
ENDROOT
TORSDOF 0
ENDMDL
