MODEL 1
REMARK minimizedAffinity 13.0834284
REMARK minimizedRMSD -1
REMARK  0 active torsions:
REMARK  status: ('A' for Active; 'I' for Inactive)
ROOT
ATOM      1  O1  BZF d   1       5.836   2.226  -3.741  0.00  0.00    -0.204 OA
ATOM      2  C2  BZF d   1       6.000   2.929  -4.918  0.00  0.00     0.174 A 
ATOM      3  C3  BZF d   1       4.880   2.874  -5.668  0.00  0.00    -0.012 A 
ATOM      4  C3A BZF d   1       3.928   2.164  -4.871  0.00  0.00    -0.107 A 
ATOM      5  C4  BZF d   1       2.625   1.803  -5.063  0.00  0.00     0.055 A 
ATOM      6  C5  BZF d   1       2.001   1.051  -4.119  0.00  0.00    -0.016 A 
ATOM      7  C6  BZF d   1       2.650   0.639  -2.974  0.00  0.00     0.022 A 
ATOM      8  C7  BZF d   1       3.941   0.977  -2.736  0.00  0.00     0.029 A 
ATOM      9  C7A BZF d   1       4.564   1.764  -3.673  0.00  0.00     0.058 A 
ENDROOT
TORSDOF 0
ENDMDL
