MODEL 1
REMARK minimizedAffinity 6.19371367
REMARK minimizedRMSD -1
REMARK  0 active torsions:
REMARK  status: ('A' for Active; 'I' for Inactive)
ROOT
ATOM      1  O1  BZF d   1       3.781   3.130   3.176  0.00  0.00    -0.204 OA
ATOM      2  C2  BZF d   1       4.959   2.731   2.574  0.00  0.00     0.174 A 
ATOM      3  C3  BZF d   1       5.997   3.466   3.021  0.00  0.00    -0.012 A 
ATOM      4  C3A BZF d   1       5.448   4.319   4.030  0.00  0.00    -0.107 A 
ATOM      5  C4  BZF d   1       5.986   5.268   4.852  0.00  0.00     0.055 A 
ATOM      6  C5  BZF d   1       5.164   5.973   5.673  0.00  0.00    -0.016 A 
ATOM      7  C6  BZF d   1       3.801   5.759   5.694  0.00  0.00     0.022 A 
ATOM      8  C7  BZF d   1       3.222   4.826   4.900  0.00  0.00     0.029 A 
ATOM      9  C7A BZF d   1       4.054   4.089   4.093  0.00  0.00     0.058 A 
ENDROOT
TORSDOF 0
ENDMDL
