MODEL 1
REMARK minimizedAffinity 5.63020086
REMARK minimizedRMSD -1
REMARK  0 active torsions:
REMARK  status: ('A' for Active; 'I' for Inactive)
ROOT
ATOM      1  O1  BZF d   1       2.611   3.714  -0.300  0.00  0.00    -0.204 OA
ATOM      2  C2  BZF d   1       2.666   2.347  -0.104  0.00  0.00     0.174 A 
ATOM      3  C3  BZF d   1       3.698   1.808  -0.784  0.00  0.00    -0.012 A 
ATOM      4  C3A BZF d   1       4.383   2.918  -1.372  0.00  0.00    -0.107 A 
ATOM      5  C4  BZF d   1       5.498   3.027  -2.153  0.00  0.00     0.055 A 
ATOM      6  C5  BZF d   1       5.859   4.251  -2.621  0.00  0.00    -0.016 A 
ATOM      7  C6  BZF d   1       5.127   5.384  -2.333  0.00  0.00     0.022 A 
ATOM      8  C7  BZF d   1       4.017   5.327  -1.558  0.00  0.00     0.029 A 
ATOM      9  C7A BZF d   1       3.667   4.097  -1.056  0.00  0.00     0.058 A 
ENDROOT
TORSDOF 0
ENDMDL
