MODEL 1
REMARK minimizedAffinity 4.32635593
REMARK minimizedRMSD -1
REMARK  0 active torsions:
REMARK  status: ('A' for Active; 'I' for Inactive)
ROOT
ATOM      1  O1  BZF d   1      -0.703  -2.148   0.125  0.00  0.00    -0.204 OA
ATOM      2  C2  BZF d   1      -1.713  -1.312  -0.309  0.00  0.00     0.174 A 
ATOM      3  C3  BZF d   1      -2.888  -1.972  -0.369  0.00  0.00    -0.012 A 
ATOM      4  C3A BZF d   1      -2.610  -3.280   0.141  0.00  0.00    -0.107 A 
ATOM      5  C4  BZF d   1      -3.379  -4.390   0.348  0.00  0.00     0.055 A 
ATOM      6  C5  BZF d   1      -2.787  -5.530   0.791  0.00  0.00    -0.016 A 
ATOM      7  C6  BZF d   1      -1.431  -5.597   1.033  0.00  0.00     0.022 A 
ATOM      8  C7  BZF d   1      -0.628  -4.521   0.848  0.00  0.00     0.029 A 
ATOM      9  C7A BZF d   1      -1.229  -3.358   0.432  0.00  0.00     0.058 A 
ENDROOT
TORSDOF 0
ENDMDL
