MODEL 1
REMARK minimizedAffinity -2.55737948
REMARK minimizedRMSD -1
REMARK  0 active torsions:
REMARK  status: ('A' for Active; 'I' for Inactive)
ROOT
ATOM      1  O1  BZF d   1       0.928  -2.216  -0.423  0.00  0.00    -0.204 OA
ATOM      2  C2  BZF d   1       0.847  -0.849  -0.609  0.00  0.00     0.174 A 
ATOM      3  C3  BZF d   1      -0.440  -0.454  -0.695  0.00  0.00    -0.012 A 
ATOM      4  C3A BZF d   1      -1.213  -1.635  -0.462  0.00  0.00    -0.107 A 
ATOM      5  C4  BZF d   1      -2.555  -1.883  -0.404  0.00  0.00     0.055 A 
ATOM      6  C5  BZF d   1      -2.983  -3.161  -0.231  0.00  0.00    -0.016 A 
ATOM      7  C6  BZF d   1      -2.100  -4.214  -0.118  0.00  0.00     0.022 A 
ATOM      8  C7  BZF d   1      -0.759  -4.017  -0.164  0.00  0.00     0.029 A 
ATOM      9  C7A BZF d   1      -0.323  -2.723  -0.306  0.00  0.00     0.058 A 
ENDROOT
TORSDOF 0
ENDMDL
