MODEL 1
REMARK minimizedAffinity 11.9365664
REMARK minimizedRMSD -1
REMARK  0 active torsions:
REMARK  status: ('A' for Active; 'I' for Inactive)
ROOT
ATOM      1  O1  BZF d   1       5.365  -5.902   2.090  0.00  0.00    -0.204 OA
ATOM      2  C2  BZF d   1       5.876  -5.997   3.370  0.00  0.00     0.174 A 
ATOM      3  C3  BZF d   1       4.883  -5.997   4.283  0.00  0.00    -0.012 A 
ATOM      4  C3A BZF d   1       3.672  -5.988   3.520  0.00  0.00    -0.107 A 
ATOM      5  C4  BZF d   1       2.349  -5.999   3.860  0.00  0.00     0.055 A 
ATOM      6  C5  BZF d   1       1.414  -5.911   2.877  0.00  0.00    -0.016 A 
ATOM      7  C6  BZF d   1       1.767  -5.806   1.547  0.00  0.00     0.022 A 
ATOM      8  C7  BZF d   1       3.066  -5.796   1.162  0.00  0.00     0.029 A 
ATOM      9  C7A BZF d   1       4.012  -5.918   2.150  0.00  0.00     0.058 A 
ENDROOT
TORSDOF 0
ENDMDL
