MODEL 1
REMARK minimizedAffinity 15.6593761
REMARK minimizedRMSD -1
REMARK  0 active torsions:
REMARK  status: ('A' for Active; 'I' for Inactive)
ROOT
ATOM      1  O1  BZF d   1       5.514  -5.959   1.992  0.00  0.00    -0.204 OA
ATOM      2  C2  BZF d   1       5.563  -5.914   3.372  0.00  0.00     0.174 A 
ATOM      3  C3  BZF d   1       4.321  -5.845   3.893  0.00  0.00    -0.012 A 
ATOM      4  C3A BZF d   1       3.437  -5.940   2.771  0.00  0.00    -0.107 A 
ATOM      5  C4  BZF d   1       2.077  -5.945   2.646  0.00  0.00     0.055 A 
ATOM      6  C5  BZF d   1       1.529  -5.977   1.402  0.00  0.00    -0.016 A 
ATOM      7  C6  BZF d   1       2.309  -5.998   0.265  0.00  0.00     0.022 A 
ATOM      8  C7  BZF d   1       3.663  -5.999   0.340  0.00  0.00     0.029 A 
ATOM      9  C7A BZF d   1       4.220  -6.000   1.595  0.00  0.00     0.058 A 
ENDROOT
TORSDOF 0
ENDMDL
