MODEL 1
REMARK minimizedAffinity -4.866889
REMARK minimizedRMSD -1
REMARK  0 active torsions:
REMARK  status: ('A' for Active; 'I' for Inactive)
ROOT
ATOM      1  C2' OXE d   1      -2.434   0.384   0.775  0.00  0.00     0.078 C 
ATOM      2  C1' OXE d   1       0.072   1.329  -0.066  0.00  0.00     0.078 C 
ATOM      3  C1  OXE d   1      -0.077  -0.153   0.173  0.00  0.00    -0.078 A 
ATOM      4  C2  OXE d   1      -1.294  -0.600   0.630  0.00  0.00    -0.078 A 
ATOM      5  C3  OXE d   1      -1.501  -1.964   0.814  0.00  0.00     0.003 A 
ATOM      6  C4  OXE d   1      -0.439  -2.867   0.687  0.00  0.00    -0.002 A 
ATOM      7  C5  OXE d   1       0.819  -2.427   0.261  0.00  0.00    -0.002 A 
ATOM      8  C6  OXE d   1       1.005  -1.082  -0.040  0.00  0.00     0.003 A 
ENDROOT
TORSDOF 0
ENDMDL
