MODEL 1
REMARK minimizedAffinity -2.51537657
REMARK minimizedRMSD -1
REMARK  0 active torsions:
REMARK  status: ('A' for Active; 'I' for Inactive)
ROOT
ATOM      1  C2' OXE d   1      -3.820  -5.991  -3.629  0.00  0.00     0.078 C 
ATOM      2  C1' OXE d   1      -5.317  -5.824  -5.998  0.00  0.00     0.078 C 
ATOM      3  C1  OXE d   1      -5.302  -4.620  -5.089  0.00  0.00    -0.078 A 
ATOM      4  C2  OXE d   1      -4.605  -4.727  -3.910  0.00  0.00    -0.078 A 
ATOM      5  C3  OXE d   1      -4.513  -3.628  -3.061  0.00  0.00     0.003 A 
ATOM      6  C4  OXE d   1      -5.249  -2.466  -3.323  0.00  0.00    -0.002 A 
ATOM      7  C5  OXE d   1      -5.998  -2.351  -4.500  0.00  0.00    -0.002 A 
ATOM      8  C6  OXE d   1      -6.000  -3.400  -5.412  0.00  0.00     0.003 A 
ENDROOT
TORSDOF 0
ENDMDL
