MODEL 1
REMARK minimizedAffinity -3.86214662
REMARK minimizedRMSD -1
REMARK  0 active torsions:
REMARK  status: ('A' for Active; 'I' for Inactive)
ROOT
ATOM      1  C2' OXE d   1      -2.267  -4.542  -5.999  0.00  0.00     0.078 C 
ATOM      2  C1' OXE d   1      -3.622  -5.931  -3.970  0.00  0.00     0.078 C 
ATOM      3  C1  OXE d   1      -4.231  -4.644  -4.470  0.00  0.00    -0.078 A 
ATOM      4  C2  OXE d   1      -3.537  -3.948  -5.430  0.00  0.00    -0.078 A 
ATOM      5  C3  OXE d   1      -4.082  -2.783  -5.964  0.00  0.00     0.003 A 
ATOM      6  C4  OXE d   1      -5.252  -2.235  -5.425  0.00  0.00    -0.002 A 
ATOM      7  C5  OXE d   1      -5.953  -2.908  -4.419  0.00  0.00    -0.002 A 
ATOM      8  C6  OXE d   1      -5.479  -4.133  -3.961  0.00  0.00     0.003 A 
ENDROOT
TORSDOF 0
ENDMDL
