MODEL 1
REMARK minimizedAffinity -4.33780479
REMARK minimizedRMSD -1
REMARK  0 active torsions:
REMARK  status: ('A' for Active; 'I' for Inactive)
ROOT
ATOM      1  C2' OXE d   1      -5.999  -4.507  -3.274  0.00  0.00     0.078 C 
ATOM      2  C1' OXE d   1      -5.440  -2.040  -4.490  0.00  0.00     0.078 C 
ATOM      3  C1  OXE d   1      -4.517  -3.195  -4.786  0.00  0.00    -0.078 A 
ATOM      4  C2  OXE d   1      -4.771  -4.387  -4.150  0.00  0.00    -0.078 A 
ATOM      5  C3  OXE d   1      -3.983  -5.499  -4.430  0.00  0.00     0.003 A 
ATOM      6  C4  OXE d   1      -2.843  -5.377  -5.234  0.00  0.00    -0.002 A 
ATOM      7  C5  OXE d   1      -2.544  -4.162  -5.860  0.00  0.00    -0.002 A 
ATOM      8  C6  OXE d   1      -3.392  -3.075  -5.681  0.00  0.00     0.003 A 
ENDROOT
TORSDOF 0
ENDMDL
