MODEL 1
REMARK minimizedAffinity -3.46844602
REMARK minimizedRMSD -1
REMARK  0 active torsions:
REMARK  status: ('A' for Active; 'I' for Inactive)
ROOT
ATOM      1  C2' OXE d   1      -5.018  -2.393  -5.470  0.00  0.00     0.078 C 
ATOM      2  C1' OXE d   1      -6.000  -4.611  -4.057  0.00  0.00     0.078 C 
ATOM      3  C1  OXE d   1      -4.642  -4.732  -4.702  0.00  0.00    -0.078 A 
ATOM      4  C2  OXE d   1      -4.189  -3.659  -5.430  0.00  0.00    -0.078 A 
ATOM      5  C3  OXE d   1      -2.920  -3.698  -6.000  0.00  0.00     0.003 A 
ATOM      6  C4  OXE d   1      -2.164  -4.876  -5.967  0.00  0.00    -0.002 A 
ATOM      7  C5  OXE d   1      -2.624  -5.995  -5.264  0.00  0.00    -0.002 A 
ATOM      8  C6  OXE d   1      -3.839  -5.925  -4.591  0.00  0.00     0.003 A 
ENDROOT
TORSDOF 0
ENDMDL
