MODEL 1
REMARK minimizedAffinity -3.45481515
REMARK minimizedRMSD -1
REMARK  0 active torsions:
REMARK  status: ('A' for Active; 'I' for Inactive)
ROOT
ATOM      1  C2' OXE d   1      -2.013  -4.612  -5.545  0.00  0.00     0.078 C 
ATOM      2  C1' OXE d   1      -3.719  -5.948  -3.760  0.00  0.00     0.078 C 
ATOM      3  C1  OXE d   1      -4.251  -4.719  -4.455  0.00  0.00    -0.078 A 
ATOM      4  C2  OXE d   1      -3.393  -4.045  -5.291  0.00  0.00    -0.078 A 
ATOM      5  C3  OXE d   1      -3.850  -2.937  -6.000  0.00  0.00     0.003 A 
ATOM      6  C4  OXE d   1      -5.125  -2.413  -5.752  0.00  0.00    -0.002 A 
ATOM      7  C5  OXE d   1      -6.000  -3.062  -4.874  0.00  0.00    -0.002 A 
ATOM      8  C6  OXE d   1      -5.594  -4.237  -4.251  0.00  0.00     0.003 A 
ENDROOT
TORSDOF 0
ENDMDL
