MODEL 1
REMARK minimizedAffinity -4.14580202
REMARK minimizedRMSD -1
REMARK  0 active torsions:
REMARK  status: ('A' for Active; 'I' for Inactive)
ROOT
ATOM      1  C2' OXE d   1      -4.608  -2.178  -4.882  0.00  0.00     0.078 C 
ATOM      2  C1' OXE d   1      -5.870  -4.498  -3.933  0.00  0.00     0.078 C 
ATOM      3  C1  OXE d   1      -4.512  -4.647  -4.571  0.00  0.00    -0.078 A 
ATOM      4  C2  OXE d   1      -3.922  -3.513  -5.075  0.00  0.00    -0.078 A 
ATOM      5  C3  OXE d   1      -2.645  -3.585  -5.625  0.00  0.00     0.003 A 
ATOM      6  C4  OXE d   1      -2.022  -4.826  -5.808  0.00  0.00    -0.002 A 
ATOM      7  C5  OXE d   1      -2.623  -5.999  -5.338  0.00  0.00    -0.002 A 
ATOM      8  C6  OXE d   1      -3.846  -5.922  -4.681  0.00  0.00     0.003 A 
ENDROOT
TORSDOF 0
ENDMDL
