MODEL 1
REMARK minimizedAffinity -1.09335768
REMARK minimizedRMSD -1
REMARK  0 active torsions:
REMARK  status: ('A' for Active; 'I' for Inactive)
ROOT
ATOM      1  C2' OXE d   1      -2.208  -5.097  -3.437  0.00  0.00     0.078 C 
ATOM      2  C1' OXE d   1      -3.001  -5.925  -6.000  0.00  0.00     0.078 C 
ATOM      3  C1  OXE d   1      -3.784  -4.814  -5.345  0.00  0.00    -0.078 A 
ATOM      4  C2  OXE d   1      -3.418  -4.448  -4.073  0.00  0.00    -0.078 A 
ATOM      5  C3  OXE d   1      -4.073  -3.391  -3.445  0.00  0.00     0.003 A 
ATOM      6  C4  OXE d   1      -5.197  -2.803  -4.035  0.00  0.00    -0.002 A 
ATOM      7  C5  OXE d   1      -5.611  -3.189  -5.315  0.00  0.00    -0.002 A 
ATOM      8  C6  OXE d   1      -4.891  -4.161  -5.999  0.00  0.00     0.003 A 
ENDROOT
TORSDOF 0
ENDMDL
