MODEL 1
REMARK minimizedAffinity -1.7024312
REMARK minimizedRMSD -1
REMARK  0 active torsions:
REMARK  status: ('A' for Active; 'I' for Inactive)
ROOT
ATOM      1  C2' OXE d   1      -4.278  -1.901  -4.643  0.00  0.00     0.078 C 
ATOM      2  C1' OXE d   1      -5.865  -4.078  -3.853  0.00  0.00     0.078 C 
ATOM      3  C1  OXE d   1      -4.475  -4.368  -4.362  0.00  0.00    -0.078 A 
ATOM      4  C2  OXE d   1      -3.723  -3.301  -4.790  0.00  0.00    -0.078 A 
ATOM      5  C3  OXE d   1      -2.414  -3.507  -5.217  0.00  0.00     0.003 A 
ATOM      6  C4  OXE d   1      -1.911  -4.806  -5.360  0.00  0.00    -0.002 A 
ATOM      7  C5  OXE d   1      -2.675  -5.910  -4.967  0.00  0.00    -0.002 A 
ATOM      8  C6  OXE d   1      -3.940  -5.706  -4.427  0.00  0.00     0.003 A 
ENDROOT
TORSDOF 0
ENDMDL
