MODEL 1
REMARK minimizedAffinity 3.40535951
REMARK minimizedRMSD -1
REMARK  0 active torsions:
REMARK  status: ('A' for Active; 'I' for Inactive)
ROOT
ATOM      1  C2' OXE d   1       2.000  -2.732   1.387  0.00  0.00     0.078 C 
ATOM      2  C1' OXE d   1       0.988  -1.025  -0.599  0.00  0.00     0.078 C 
ATOM      3  C1  OXE d   1       0.206  -1.153   0.684  0.00  0.00    -0.078 A 
ATOM      4  C2  OXE d   1       0.684  -2.025   1.632  0.00  0.00    -0.078 A 
ATOM      5  C3  OXE d   1       0.031  -2.140   2.856  0.00  0.00     0.003 A 
ATOM      6  C4  OXE d   1      -1.191  -1.490   3.071  0.00  0.00    -0.002 A 
ATOM      7  C5  OXE d   1      -1.716  -0.627   2.103  0.00  0.00    -0.002 A 
ATOM      8  C6  OXE d   1      -1.010  -0.415   0.924  0.00  0.00     0.003 A 
ENDROOT
TORSDOF 0
ENDMDL
