MODEL 1
REMARK minimizedAffinity -3.6572957
REMARK minimizedRMSD -1
REMARK  0 active torsions:
REMARK  status: ('A' for Active; 'I' for Inactive)
ROOT
ATOM      1  C2' OXE d   1      -5.672  -3.147  -5.591  0.00  0.00     0.078 C 
ATOM      2  C1' OXE d   1      -5.998  -5.226  -3.733  0.00  0.00     0.078 C 
ATOM      3  C1  OXE d   1      -4.664  -5.105  -4.426  0.00  0.00    -0.078 A 
ATOM      4  C2  OXE d   1      -4.528  -4.113  -5.367  0.00  0.00    -0.078 A 
ATOM      5  C3  OXE d   1      -3.301  -3.923  -5.996  0.00  0.00     0.003 A 
ATOM      6  C4  OXE d   1      -2.252  -4.827  -5.791  0.00  0.00    -0.002 A 
ATOM      7  C5  OXE d   1      -2.382  -5.868  -4.865  0.00  0.00    -0.002 A 
ATOM      8  C6  OXE d   1      -3.564  -5.994  -4.144  0.00  0.00     0.003 A 
ENDROOT
TORSDOF 0
ENDMDL
