MODEL 1
REMARK minimizedAffinity -3.93807435
REMARK minimizedRMSD -1
REMARK  0 active torsions:
REMARK  status: ('A' for Active; 'I' for Inactive)
ROOT
ATOM      1  C2' OXE d   1      -5.794  -5.598  -3.745  0.00  0.00     0.078 C 
ATOM      2  C1' OXE d   1      -6.000  -2.942  -4.632  0.00  0.00     0.078 C 
ATOM      3  C1  OXE d   1      -4.719  -3.683  -4.922  0.00  0.00    -0.078 A 
ATOM      4  C2  OXE d   1      -4.609  -4.967  -4.444  0.00  0.00    -0.078 A 
ATOM      5  C3  OXE d   1      -3.470  -5.714  -4.730  0.00  0.00     0.003 A 
ATOM      6  C4  OXE d   1      -2.374  -5.120  -5.368  0.00  0.00    -0.002 A 
ATOM      7  C5  OXE d   1      -2.450  -3.801  -5.828  0.00  0.00    -0.002 A 
ATOM      8  C6  OXE d   1      -3.628  -3.084  -5.651  0.00  0.00     0.003 A 
ENDROOT
TORSDOF 0
ENDMDL
