MODEL 1
REMARK minimizedAffinity -3.32188702
REMARK minimizedRMSD -1
REMARK  0 active torsions:
REMARK  status: ('A' for Active; 'I' for Inactive)
ROOT
ATOM      1  C2' OXE d   1      -5.472  -3.835  -3.755  0.00  0.00     0.078 C 
ATOM      2  C1' OXE d   1      -5.633  -5.514  -5.999  0.00  0.00     0.078 C 
ATOM      3  C1  OXE d   1      -4.282  -5.329  -5.354  0.00  0.00    -0.078 A 
ATOM      4  C2  OXE d   1      -4.204  -4.469  -4.286  0.00  0.00    -0.078 A 
ATOM      5  C3  OXE d   1      -2.992  -4.305  -3.620  0.00  0.00     0.003 A 
ATOM      6  C4  OXE d   1      -1.823  -4.887  -4.124  0.00  0.00    -0.002 A 
ATOM      7  C5  OXE d   1      -1.873  -5.735  -5.235  0.00  0.00    -0.002 A 
ATOM      8  C6  OXE d   1      -3.100  -6.000  -5.835  0.00  0.00     0.003 A 
ENDROOT
TORSDOF 0
ENDMDL
