MODEL 1
REMARK minimizedAffinity -3.70416737
REMARK minimizedRMSD -1
REMARK  0 active torsions:
REMARK  status: ('A' for Active; 'I' for Inactive)
ROOT
ATOM      1  C2' OXE d   1      -6.000  -4.834  -5.588  0.00  0.00     0.078 C 
ATOM      2  C1' OXE d   1      -4.734  -2.811  -4.109  0.00  0.00     0.078 C 
ATOM      3  C1  OXE d   1      -3.872  -3.907  -4.684  0.00  0.00    -0.078 A 
ATOM      4  C2  OXE d   1      -4.505  -4.918  -5.367  0.00  0.00    -0.078 A 
ATOM      5  C3  OXE d   1      -3.752  -5.924  -5.964  0.00  0.00     0.003 A 
ATOM      6  C4  OXE d   1      -2.371  -6.000  -5.746  0.00  0.00    -0.002 A 
ATOM      7  C5  OXE d   1      -1.711  -5.002  -5.020  0.00  0.00    -0.002 A 
ATOM      8  C6  OXE d   1      -2.439  -3.929  -4.520  0.00  0.00     0.003 A 
ENDROOT
TORSDOF 0
ENDMDL
