MODEL 1
REMARK minimizedAffinity -2.35412145
REMARK minimizedRMSD -1
REMARK  0 active torsions:
REMARK  status: ('A' for Active; 'I' for Inactive)
ROOT
ATOM      1  C2' OXE d   1      -5.578  -3.812  -3.529  0.00  0.00     0.078 C 
ATOM      2  C1' OXE d   1      -6.000  -5.076  -6.000  0.00  0.00     0.078 C 
ATOM      3  C1  OXE d   1      -4.633  -5.194  -5.374  0.00  0.00    -0.078 A 
ATOM      4  C2  OXE d   1      -4.422  -4.533  -4.188  0.00  0.00    -0.078 A 
ATOM      5  C3  OXE d   1      -3.195  -4.654  -3.540  0.00  0.00     0.003 A 
ATOM      6  C4  OXE d   1      -2.128  -5.314  -4.161  0.00  0.00    -0.002 A 
ATOM      7  C5  OXE d   1      -2.310  -5.961  -5.388  0.00  0.00    -0.002 A 
ATOM      8  C6  OXE d   1      -3.566  -5.946  -5.986  0.00  0.00     0.003 A 
ENDROOT
TORSDOF 0
ENDMDL
