MODEL 1
REMARK minimizedAffinity -1.63223743
REMARK minimizedRMSD -1
REMARK  0 active torsions:
REMARK  status: ('A' for Active; 'I' for Inactive)
ROOT
ATOM      1  C2' OXE d   1      -6.000  -2.202  -3.174  0.00  0.00     0.078 C 
ATOM      2  C1' OXE d   1      -5.997  -2.191  -5.981  0.00  0.00     0.078 C 
ATOM      3  C1  OXE d   1      -4.987  -3.064  -5.280  0.00  0.00    -0.078 A 
ATOM      4  C2  OXE d   1      -4.965  -3.028  -3.907  0.00  0.00    -0.078 A 
ATOM      5  C3  OXE d   1      -4.090  -3.856  -3.209  0.00  0.00     0.003 A 
ATOM      6  C4  OXE d   1      -3.129  -4.609  -3.894  0.00  0.00    -0.002 A 
ATOM      7  C5  OXE d   1      -3.108  -4.630  -5.293  0.00  0.00    -0.002 A 
ATOM      8  C6  OXE d   1      -4.056  -3.898  -6.000  0.00  0.00     0.003 A 
ENDROOT
TORSDOF 0
ENDMDL
