MODEL 1
REMARK minimizedAffinity -3.95729232
REMARK minimizedRMSD -1
REMARK  0 active torsions:
REMARK  status: ('A' for Active; 'I' for Inactive)
ROOT
ATOM      1  C2' OXE d   1      -1.501  -4.870  -4.880  0.00  0.00     0.078 C 
ATOM      2  C1' OXE d   1      -3.254  -6.000  -3.001  0.00  0.00     0.078 C 
ATOM      3  C1  OXE d   1      -3.740  -4.810  -3.790  0.00  0.00    -0.078 A 
ATOM      4  C2  OXE d   1      -2.859  -4.234  -4.674  0.00  0.00    -0.078 A 
ATOM      5  C3  OXE d   1      -3.275  -3.168  -5.466  0.00  0.00     0.003 A 
ATOM      6  C4  OXE d   1      -4.529  -2.580  -5.261  0.00  0.00    -0.002 A 
ATOM      7  C5  OXE d   1      -5.427  -3.126  -4.338  0.00  0.00    -0.002 A 
ATOM      8  C6  OXE d   1      -5.065  -4.264  -3.626  0.00  0.00     0.003 A 
ENDROOT
TORSDOF 0
ENDMDL
