MODEL 1
REMARK minimizedAffinity -2.42638326
REMARK minimizedRMSD -1
REMARK  0 active torsions:
REMARK  status: ('A' for Active; 'I' for Inactive)
ROOT
ATOM      1  C2' OXE d   1      -1.136  -5.482  -5.992  0.00  0.00     0.078 C 
ATOM      2  C1' OXE d   1      -1.338  -5.999  -3.240  0.00  0.00     0.078 C 
ATOM      3  C1  OXE d   1      -2.562  -5.477  -3.949  0.00  0.00    -0.078 A 
ATOM      4  C2  OXE d   1      -2.441  -5.183  -5.286  0.00  0.00    -0.078 A 
ATOM      5  C3  OXE d   1      -3.555  -4.750  -6.000  0.00  0.00     0.003 A 
ATOM      6  C4  OXE d   1      -4.755  -4.466  -5.338  0.00  0.00    -0.002 A 
ATOM      7  C5  OXE d   1      -4.888  -4.721  -3.968  0.00  0.00    -0.002 A 
ATOM      8  C6  OXE d   1      -3.816  -5.265  -3.270  0.00  0.00     0.003 A 
ENDROOT
TORSDOF 0
ENDMDL
