MODEL 1
REMARK minimizedAffinity 0.252743006
REMARK minimizedRMSD -1
REMARK  0 active torsions:
REMARK  status: ('A' for Active; 'I' for Inactive)
ROOT
ATOM      1  C2' OXE d   1      -3.018  -3.774  -2.651  0.00  0.00     0.078 C 
ATOM      2  C1' OXE d   1      -2.486  -5.556  -4.754  0.00  0.00     0.078 C 
ATOM      3  C1  OXE d   1      -3.720  -4.694  -4.857  0.00  0.00    -0.078 A 
ATOM      4  C2  OXE d   1      -3.998  -3.859  -3.802  0.00  0.00    -0.078 A 
ATOM      5  C3  OXE d   1      -5.094  -3.003  -3.870  0.00  0.00     0.003 A 
ATOM      6  C4  OXE d   1      -6.000  -3.096  -4.933  0.00  0.00    -0.002 A 
ATOM      7  C5  OXE d   1      -5.757  -3.968  -6.000  0.00  0.00    -0.002 A 
ATOM      8  C6  OXE d   1      -4.602  -4.742  -5.997  0.00  0.00     0.003 A 
ENDROOT
TORSDOF 0
ENDMDL
