MODEL 1
REMARK minimizedAffinity -1.75673449
REMARK minimizedRMSD -1
REMARK  1 active torsions:
REMARK  status: ('A' for Active; 'I' for Inactive)
REMARK    1  A    between atoms: C1_2  and  C2_3 
ROOT
ATOM      1  C2  UNL d   1       2.253  -0.097   0.882  0.00  0.00    -0.081 A 
ATOM      2  C3  UNL d   1       1.984   1.275   0.817  0.00  0.00     0.006 A 
ATOM      3  C4  UNL d   1       0.725   1.732   0.421  0.00  0.00     0.002 A 
ATOM      4  C5  UNL d   1      -0.288   0.824   0.091  0.00  0.00    -0.080 A 
ATOM      5  C6  UNL d   1      -1.654   1.301  -0.306  0.00  0.00     0.076 C 
ATOM      6  C7  UNL d   1      -0.014  -0.547   0.140  0.00  0.00     0.002 A 
ATOM      7  C8  UNL d   1       1.245  -1.004   0.535  0.00  0.00     0.006 A 
ENDROOT
BRANCH   1   8
ATOM      8  C1  UNL d   1       3.590  -0.594   1.371  0.00  0.00     0.054 C 
ATOM      9  C   UNL d   1       4.145  -1.678   0.458  0.00  0.00     0.018 C 
ENDBRANCH   1   8
TORSDOF 1
ENDMDL
