MODEL 1
REMARK minimizedAffinity 1.32950807
REMARK minimizedRMSD -1
REMARK  1 active torsions:
REMARK  status: ('A' for Active; 'I' for Inactive)
REMARK    1  A    between atoms: C1_2  and  C2_3 
ROOT
ATOM      1  C2  UNL d   1      -1.260   0.340  -0.455  0.00  0.00    -0.081 A 
ATOM      2  C3  UNL d   1      -1.092  -0.905  -1.073  0.00  0.00     0.006 A 
ATOM      3  C4  UNL d   1       0.118  -1.594  -0.960  0.00  0.00     0.002 A 
ATOM      4  C5  UNL d   1       1.176  -1.054  -0.221  0.00  0.00    -0.080 A 
ATOM      5  C6  UNL d   1       2.470  -1.797  -0.067  0.00  0.00     0.076 C 
ATOM      6  C7  UNL d   1       1.014   0.198   0.382  0.00  0.00     0.002 A 
ATOM      7  C8  UNL d   1      -0.195   0.888   0.269  0.00  0.00     0.006 A 
ENDROOT
BRANCH   1   8
ATOM      8  C1  UNL d   1      -2.585   1.056  -0.520  0.00  0.00     0.054 C 
ATOM      9  C   UNL d   1      -3.434   0.763   0.709  0.00  0.00     0.018 C 
ENDBRANCH   1   8
TORSDOF 1
ENDMDL
