MODEL 1
REMARK minimizedAffinity -1.81988931
REMARK minimizedRMSD -1
REMARK  1 active torsions:
REMARK  status: ('A' for Active; 'I' for Inactive)
REMARK    1  A    between atoms: C1_2  and  C2_3 
ROOT
ATOM      1  C2  UNL d   1       1.666   0.227   0.873  0.00  0.00    -0.081 A 
ATOM      2  C3  UNL d   1       2.501  -0.745   1.438  0.00  0.00     0.006 A 
ATOM      3  C4  UNL d   1       2.542  -2.038   0.911  0.00  0.00     0.002 A 
ATOM      4  C5  UNL d   1       1.754  -2.378  -0.195  0.00  0.00    -0.080 A 
ATOM      5  C6  UNL d   1       1.811  -3.754  -0.789  0.00  0.00     0.076 C 
ATOM      6  C7  UNL d   1       0.907  -1.413  -0.748  0.00  0.00     0.002 A 
ATOM      7  C8  UNL d   1       0.865  -0.120  -0.221  0.00  0.00     0.006 A 
ENDROOT
BRANCH   1   8
ATOM      8  C1  UNL d   1       1.668   1.639   1.399  0.00  0.00     0.054 C 
ATOM      9  C   UNL d   1       1.256   2.632   0.321  0.00  0.00     0.018 C 
ENDBRANCH   1   8
TORSDOF 1
ENDMDL
