MODEL 1
REMARK minimizedAffinity -4.88946819
REMARK minimizedRMSD -1
REMARK  1 active torsions:
REMARK  status: ('A' for Active; 'I' for Inactive)
REMARK    1  A    between atoms: C1_2  and  C2_3 
ROOT
ATOM      1  C2  UNL d   1      -0.556   0.194  -0.428  0.00  0.00    -0.081 A 
ATOM      2  C3  UNL d   1      -0.282  -1.174  -0.547  0.00  0.00     0.006 A 
ATOM      3  C4  UNL d   1       1.007  -1.660  -0.318  0.00  0.00     0.002 A 
ATOM      4  C5  UNL d   1       2.042  -0.789   0.041  0.00  0.00    -0.080 A 
ATOM      5  C6  UNL d   1       3.423  -1.303   0.319  0.00  0.00     0.076 C 
ATOM      6  C7  UNL d   1       1.772   0.580   0.143  0.00  0.00     0.002 A 
ATOM      7  C8  UNL d   1       0.483   1.067  -0.086  0.00  0.00     0.006 A 
ENDROOT
BRANCH   1   8
ATOM      8  C1  UNL d   1      -1.959   0.714  -0.611  0.00  0.00     0.054 C 
ATOM      9  C   UNL d   1      -2.709   0.760   0.713  0.00  0.00     0.018 C 
ENDBRANCH   1   8
TORSDOF 1
ENDMDL
