MODEL 1
REMARK minimizedAffinity -0.342080027
REMARK minimizedRMSD -1
REMARK  0 active torsions:
REMARK  status: ('A' for Active; 'I' for Inactive)
ROOT
ATOM      1  O1  BZF d   1      -1.909   0.074  -0.359  0.00  0.00    -0.204 OA
ATOM      2  C2  BZF d   1      -1.656  -0.249   0.960  0.00  0.00     0.174 A 
ATOM      3  C3  BZF d   1      -0.332  -0.386   1.174  0.00  0.00    -0.012 A 
ATOM      4  C3A BZF d   1       0.288  -0.043  -0.069  0.00  0.00    -0.107 A 
ATOM      5  C4  BZF d   1       1.587   0.028  -0.482  0.00  0.00     0.055 A 
ATOM      6  C5  BZF d   1       1.852   0.324  -1.782  0.00  0.00    -0.016 A 
ATOM      7  C6  BZF d   1       0.843   0.551  -2.695  0.00  0.00     0.022 A 
ATOM      8  C7  BZF d   1      -0.461   0.497  -2.331  0.00  0.00     0.029 A 
ATOM      9  C7A BZF d   1      -0.731   0.230  -1.011  0.00  0.00     0.058 A 
ENDROOT
TORSDOF 0
ENDMDL
