MODEL 1
REMARK minimizedAffinity -4.15283251
REMARK minimizedRMSD -1
REMARK  0 active torsions:
REMARK  status: ('A' for Active; 'I' for Inactive)
ROOT
ATOM      1  O1  BZF d   1      -1.193  -0.337   0.011  0.00  0.00    -0.204 OA
ATOM      2  C2  BZF d   1      -0.935   0.490   1.087  0.00  0.00     0.174 A 
ATOM      3  C3  BZF d   1       0.231   1.147   0.917  0.00  0.00    -0.012 A 
ATOM      4  C3A BZF d   1       0.686   0.773  -0.387  0.00  0.00    -0.107 A 
ATOM      5  C4  BZF d   1       1.780   1.110  -1.132  0.00  0.00     0.055 A 
ATOM      6  C5  BZF d   1       1.967   0.513  -2.338  0.00  0.00    -0.016 A 
ATOM      7  C6  BZF d   1       1.085  -0.429  -2.827  0.00  0.00     0.022 A 
ATOM      8  C7  BZF d   1      -0.016  -0.792  -2.126  0.00  0.00     0.029 A 
ATOM      9  C7A BZF d   1      -0.226  -0.166  -0.922  0.00  0.00     0.058 A 
ENDROOT
TORSDOF 0
ENDMDL
