MODEL 1
REMARK minimizedAffinity -4.14636564
REMARK minimizedRMSD -1
REMARK  0 active torsions:
REMARK  status: ('A' for Active; 'I' for Inactive)
ROOT
ATOM      1  O1  BZF d   1       0.331   0.293  -0.200  0.00  0.00    -0.204 OA
ATOM      2  C2  BZF d   1       0.784   1.447  -0.811  0.00  0.00     0.174 A 
ATOM      3  C3  BZF d   1       1.551   1.153  -1.880  0.00  0.00    -0.012 A 
ATOM      4  C3A BZF d   1       1.503  -0.273  -1.996  0.00  0.00    -0.107 A 
ATOM      5  C4  BZF d   1       2.054  -1.162  -2.875  0.00  0.00     0.055 A 
ATOM      6  C5  BZF d   1       1.874  -2.493  -2.667  0.00  0.00    -0.016 A 
ATOM      7  C6  BZF d   1       1.154  -2.969  -1.590  0.00  0.00     0.022 A 
ATOM      8  C7  BZF d   1       0.585  -2.125  -0.695  0.00  0.00     0.029 A 
ATOM      9  C7A BZF d   1       0.738  -0.779  -0.921  0.00  0.00     0.058 A 
ENDROOT
TORSDOF 0
ENDMDL
