MODEL 1
REMARK minimizedAffinity -2.2212708
REMARK minimizedRMSD -1
REMARK  0 active torsions:
REMARK  status: ('A' for Active; 'I' for Inactive)
ROOT
ATOM      1  O1  BZF d   1      -0.636  -1.421   1.037  0.00  0.00    -0.204 OA
ATOM      2  C2  BZF d   1      -1.319  -0.416   1.694  0.00  0.00     0.174 A 
ATOM      3  C3  BZF d   1      -0.923   0.796   1.256  0.00  0.00    -0.012 A 
ATOM      4  C3A BZF d   1       0.003   0.531   0.199  0.00  0.00    -0.107 A 
ATOM      5  C4  BZF d   1       0.727   1.331  -0.638  0.00  0.00     0.055 A 
ATOM      6  C5  BZF d   1       1.595   0.757  -1.513  0.00  0.00    -0.016 A 
ATOM      7  C6  BZF d   1       1.769  -0.610  -1.573  0.00  0.00     0.022 A 
ATOM      8  C7  BZF d   1       1.070  -1.444  -0.766  0.00  0.00     0.029 A 
ATOM      9  C7A BZF d   1       0.167  -0.870   0.096  0.00  0.00     0.058 A 
ENDROOT
TORSDOF 0
ENDMDL
