MODEL 1
REMARK minimizedAffinity -3.95921087
REMARK minimizedRMSD -1
REMARK  0 active torsions:
REMARK  status: ('A' for Active; 'I' for Inactive)
ROOT
ATOM      1  O1  BZF d   1       2.260   0.617  -2.379  0.00  0.00    -0.204 OA
ATOM      2  C2  BZF d   1       1.329   1.437  -1.772  0.00  0.00     0.174 A 
ATOM      3  C3  BZF d   1       0.355   0.708  -1.189  0.00  0.00    -0.012 A 
ATOM      4  C3A BZF d   1       0.748  -0.656  -1.369  0.00  0.00    -0.107 A 
ATOM      5  C4  BZF d   1       0.198  -1.849  -0.996  0.00  0.00     0.055 A 
ATOM      6  C5  BZF d   1       0.795  -3.004  -1.391  0.00  0.00    -0.016 A 
ATOM      7  C6  BZF d   1       1.938  -3.003  -2.162  0.00  0.00     0.022 A 
ATOM      8  C7  BZF d   1       2.524  -1.845  -2.552  0.00  0.00     0.029 A 
ATOM      9  C7A BZF d   1       1.942  -0.676  -2.127  0.00  0.00     0.058 A 
ENDROOT
TORSDOF 0
ENDMDL
