MODEL 1
REMARK minimizedAffinity -1.5260067
REMARK minimizedRMSD -1
REMARK  0 active torsions:
REMARK  status: ('A' for Active; 'I' for Inactive)
ROOT
ATOM      1  O1  BZF d   1      -0.456  -0.815  -0.263  0.00  0.00    -0.204 OA
ATOM      2  C2  BZF d   1       0.506   0.175  -0.318  0.00  0.00     0.174 A 
ATOM      3  C3  BZF d   1       0.069   1.301   0.282  0.00  0.00    -0.012 A 
ATOM      4  C3A BZF d   1      -1.213   0.966   0.822  0.00  0.00    -0.107 A 
ATOM      5  C4  BZF d   1      -2.138   1.663   1.545  0.00  0.00     0.055 A 
ATOM      6  C5  BZF d   1      -3.320   1.068   1.854  0.00  0.00    -0.016 A 
ATOM      7  C6  BZF d   1      -3.612  -0.219   1.452  0.00  0.00     0.022 A 
ATOM      8  C7  BZF d   1      -2.723  -0.952   0.738  0.00  0.00     0.029 A 
ATOM      9  C7A BZF d   1      -1.514  -0.365   0.453  0.00  0.00     0.058 A 
ENDROOT
TORSDOF 0
ENDMDL
