MODEL 1
REMARK minimizedAffinity -3.1928637
REMARK minimizedRMSD -1
REMARK  0 active torsions:
REMARK  status: ('A' for Active; 'I' for Inactive)
ROOT
ATOM      1  O1  BZF d   1      -0.820  -1.565  -0.673  0.00  0.00    -0.204 OA
ATOM      2  C2  BZF d   1      -0.991  -1.171   0.640  0.00  0.00     0.174 A 
ATOM      3  C3  BZF d   1      -0.103  -0.211   0.971  0.00  0.00    -0.012 A 
ATOM      4  C3A BZF d   1       0.610   0.074  -0.236  0.00  0.00    -0.107 A 
ATOM      5  C4  BZF d   1       1.611   0.948  -0.551  0.00  0.00     0.055 A 
ATOM      6  C5  BZF d   1       2.137   0.926  -1.804  0.00  0.00    -0.016 A 
ATOM      7  C6  BZF d   1       1.692   0.040  -2.763  0.00  0.00     0.022 A 
ATOM      8  C7  BZF d   1       0.699  -0.843  -2.499  0.00  0.00     0.029 A 
ATOM      9  C7A BZF d   1       0.142  -0.801  -1.244  0.00  0.00     0.058 A 
ENDROOT
TORSDOF 0
ENDMDL
