MODEL 1
REMARK minimizedAffinity -5.26091957
REMARK minimizedRMSD -1
REMARK  0 active torsions:
REMARK  status: ('A' for Active; 'I' for Inactive)
ROOT
ATOM      1  O1  BZF d   1       0.380  -0.455   0.796  0.00  0.00    -0.204 OA
ATOM      2  C2  BZF d   1       0.460   0.903   1.042  0.00  0.00     0.174 A 
ATOM      3  C3  BZF d   1       0.912   1.560  -0.046  0.00  0.00    -0.012 A 
ATOM      4  C3A BZF d   1       1.040   0.561  -1.062  0.00  0.00    -0.107 A 
ATOM      5  C4  BZF d   1       1.431   0.597  -2.371  0.00  0.00     0.055 A 
ATOM      6  C5  BZF d   1       1.516  -0.566  -3.067  0.00  0.00    -0.016 A 
ATOM      7  C6  BZF d   1       1.224  -1.783  -2.487  0.00  0.00     0.022 A 
ATOM      8  C7  BZF d   1       0.827  -1.869  -1.193  0.00  0.00     0.029 A 
ATOM      9  C7A BZF d   1       0.708  -0.692  -0.496  0.00  0.00     0.058 A 
ENDROOT
TORSDOF 0
ENDMDL
