MODEL 1
REMARK minimizedAffinity -1.20323992
REMARK minimizedRMSD -1
REMARK  0 active torsions:
REMARK  status: ('A' for Active; 'I' for Inactive)
ROOT
ATOM      1  O1  BZF d   1      -0.802   0.654  -0.844  0.00  0.00    -0.204 OA
ATOM      2  C2  BZF d   1       0.480   0.441  -0.375  0.00  0.00     0.174 A 
ATOM      3  C3  BZF d   1       0.473   0.225   0.956  0.00  0.00    -0.012 A 
ATOM      4  C3A BZF d   1      -0.909   0.216   1.329  0.00  0.00    -0.107 A 
ATOM      5  C4  BZF d   1      -1.560   0.033   2.515  0.00  0.00     0.055 A 
ATOM      6  C5  BZF d   1      -2.912   0.158   2.552  0.00  0.00    -0.016 A 
ATOM      7  C6  BZF d   1      -3.644   0.471   1.425  0.00  0.00     0.022 A 
ATOM      8  C7  BZF d   1      -3.043   0.657   0.225  0.00  0.00     0.029 A 
ATOM      9  C7A BZF d   1      -1.679   0.498   0.177  0.00  0.00     0.058 A 
ENDROOT
TORSDOF 0
ENDMDL
