MODEL 1
REMARK minimizedAffinity -3.89213204
REMARK minimizedRMSD -1
REMARK  0 active torsions:
REMARK  status: ('A' for Active; 'I' for Inactive)
ROOT
ATOM      1  O1  BZF d   1      -0.087  -1.654   0.126  0.00  0.00    -0.204 OA
ATOM      2  C2  BZF d   1      -0.624  -0.978   1.205  0.00  0.00     0.174 A 
ATOM      3  C3  BZF d   1      -0.453   0.353   1.069  0.00  0.00    -0.012 A 
ATOM      4  C3A BZF d   1       0.152   0.525  -0.216  0.00  0.00    -0.107 A 
ATOM      5  C4  BZF d   1       0.551   1.622  -0.926  0.00  0.00     0.055 A 
ATOM      6  C5  BZF d   1       1.174   1.444  -2.120  0.00  0.00    -0.016 A 
ATOM      7  C6  BZF d   1       1.418   0.186  -2.632  0.00  0.00     0.022 A 
ATOM      8  C7  BZF d   1       1.035  -0.931  -1.967  0.00  0.00     0.029 A 
ATOM      9  C7A BZF d   1       0.376  -0.754  -0.774  0.00  0.00     0.058 A 
ENDROOT
TORSDOF 0
ENDMDL
