MODEL 1
REMARK minimizedAffinity -4.54700661
REMARK minimizedRMSD -1
REMARK  0 active torsions:
REMARK  status: ('A' for Active; 'I' for Inactive)
ROOT
ATOM      1  O1  BZF d   1      -0.544  -0.814   0.433  0.00  0.00    -0.204 OA
ATOM      2  C2  BZF d   1      -0.452   0.527   0.753  0.00  0.00     0.174 A 
ATOM      3  C3  BZF d   1       0.434   1.151  -0.049  0.00  0.00    -0.012 A 
ATOM      4  C3A BZF d   1       0.859   0.156  -0.986  0.00  0.00    -0.107 A 
ATOM      5  C4  BZF d   1       1.722   0.170  -2.044  0.00  0.00     0.055 A 
ATOM      6  C5  BZF d   1       1.971  -0.989  -2.709  0.00  0.00    -0.016 A 
ATOM      7  C6  BZF d   1       1.379  -2.179  -2.340  0.00  0.00     0.022 A 
ATOM      8  C7  BZF d   1       0.512  -2.242  -1.300  0.00  0.00     0.029 A 
ATOM      9  C7A BZF d   1       0.234  -1.066  -0.647  0.00  0.00     0.058 A 
ENDROOT
TORSDOF 0
ENDMDL
