MODEL 1
REMARK minimizedAffinity -4.15524244
REMARK minimizedRMSD -1
REMARK  0 active torsions:
REMARK  status: ('A' for Active; 'I' for Inactive)
ROOT
ATOM      1  O1  BZF d   1       1.141  -0.793  -2.966  0.00  0.00    -0.204 OA
ATOM      2  C2  BZF d   1       2.010   0.205  -3.361  0.00  0.00     0.174 A 
ATOM      3  C3  BZF d   1       2.003   1.223  -2.476  0.00  0.00    -0.012 A 
ATOM      4  C3A BZF d   1       1.140   0.796  -1.418  0.00  0.00    -0.107 A 
ATOM      5  C4  BZF d   1       0.742   1.367  -0.242  0.00  0.00     0.055 A 
ATOM      6  C5  BZF d   1      -0.166   0.718   0.533  0.00  0.00    -0.016 A 
ATOM      7  C6  BZF d   1      -0.701  -0.498   0.161  0.00  0.00     0.022 A 
ATOM      8  C7  BZF d   1      -0.334  -1.106  -0.993  0.00  0.00     0.029 A 
ATOM      9  C7A BZF d   1       0.609  -0.468  -1.763  0.00  0.00     0.058 A 
ENDROOT
TORSDOF 0
ENDMDL
