MODEL 1
REMARK minimizedAffinity -3.53523183
REMARK minimizedRMSD -1
REMARK  0 active torsions:
REMARK  status: ('A' for Active; 'I' for Inactive)
ROOT
ATOM      1  O1  BZF d   1       2.420   1.297  -1.971  0.00  0.00    -0.204 OA
ATOM      2  C2  BZF d   1       2.411   0.385  -3.009  0.00  0.00     0.174 A 
ATOM      3  C3  BZF d   1       1.529  -0.606  -2.767  0.00  0.00    -0.012 A 
ATOM      4  C3A BZF d   1       0.883  -0.244  -1.542  0.00  0.00    -0.107 A 
ATOM      5  C4  BZF d   1      -0.101  -0.823  -0.793  0.00  0.00     0.055 A 
ATOM      6  C5  BZF d   1      -0.453  -0.254   0.389  0.00  0.00    -0.016 A 
ATOM      7  C6  BZF d   1       0.161   0.890   0.855  0.00  0.00     0.022 A 
ATOM      8  C7  BZF d   1       1.139   1.504   0.145  0.00  0.00     0.029 A 
ATOM      9  C7A BZF d   1       1.474   0.949  -1.066  0.00  0.00     0.058 A 
ENDROOT
TORSDOF 0
ENDMDL
