MODEL 1
REMARK minimizedAffinity -5.46549797
REMARK minimizedRMSD -1
REMARK  0 active torsions:
REMARK  status: ('A' for Active; 'I' for Inactive)
ROOT
ATOM      1  O1  BZF d   1      -0.350  -1.492   1.596  0.00  0.00    -0.204 OA
ATOM      2  C2  BZF d   1      -0.392  -0.153   1.936  0.00  0.00     0.174 A 
ATOM      3  C3  BZF d   1      -0.091   0.620   0.872  0.00  0.00    -0.012 A 
ATOM      4  C3A BZF d   1       0.064  -0.289  -0.222  0.00  0.00    -0.107 A 
ATOM      5  C4  BZF d   1       0.352  -0.124  -1.547  0.00  0.00     0.055 A 
ATOM      6  C5  BZF d   1       0.504  -1.223  -2.332  0.00  0.00    -0.016 A 
ATOM      7  C6  BZF d   1       0.381  -2.500  -1.825  0.00  0.00     0.022 A 
ATOM      8  C7  BZF d   1       0.092  -2.714  -0.518  0.00  0.00     0.029 A 
ATOM      9  C7A BZF d   1      -0.096  -1.605   0.270  0.00  0.00     0.058 A 
ENDROOT
TORSDOF 0
ENDMDL
