MODEL 1
REMARK minimizedAffinity -3.32823133
REMARK minimizedRMSD -1
REMARK  0 active torsions:
REMARK  status: ('A' for Active; 'I' for Inactive)
ROOT
ATOM      1  O1  BZF d   1      -1.597  -0.912  -0.538  0.00  0.00    -0.204 OA
ATOM      2  C2  BZF d   1      -2.034  -0.436   0.683  0.00  0.00     0.174 A 
ATOM      3  C3  BZF d   1      -1.165   0.464   1.185  0.00  0.00    -0.012 A 
ATOM      4  C3A BZF d   1      -0.165   0.626   0.174  0.00  0.00    -0.107 A 
ATOM      5  C4  BZF d   1       0.957   1.398   0.079  0.00  0.00     0.055 A 
ATOM      6  C5  BZF d   1       1.759   1.267  -1.011  0.00  0.00    -0.016 A 
ATOM      7  C6  BZF d   1       1.472   0.370  -2.019  0.00  0.00     0.022 A 
ATOM      8  C7  BZF d   1       0.368  -0.415  -1.971  0.00  0.00     0.029 A 
ATOM      9  C7A BZF d   1      -0.462  -0.260  -0.887  0.00  0.00     0.058 A 
ENDROOT
TORSDOF 0
ENDMDL
