MODEL 1
REMARK minimizedAffinity -2.93042493
REMARK minimizedRMSD -1
REMARK  0 active torsions:
REMARK  status: ('A' for Active; 'I' for Inactive)
ROOT
ATOM      1  O1  BZF d   1       0.700  -1.098  -0.406  0.00  0.00    -0.204 OA
ATOM      2  C2  BZF d   1       0.837   0.043  -1.173  0.00  0.00     0.174 A 
ATOM      3  C3  BZF d   1      -0.036   0.992  -0.777  0.00  0.00    -0.012 A 
ATOM      4  C3A BZF d   1      -0.699   0.441   0.365  0.00  0.00    -0.107 A 
ATOM      5  C4  BZF d   1      -1.663   0.913   1.209  0.00  0.00     0.055 A 
ATOM      6  C5  BZF d   1      -2.147   0.096   2.182  0.00  0.00    -0.016 A 
ATOM      7  C6  BZF d   1      -1.693  -1.198   2.335  0.00  0.00     0.022 A 
ATOM      8  C7  BZF d   1      -0.734  -1.709   1.525  0.00  0.00     0.029 A 
ATOM      9  C7A BZF d   1      -0.220  -0.875   0.563  0.00  0.00     0.058 A 
ENDROOT
TORSDOF 0
ENDMDL
