MODEL 1
REMARK minimizedAffinity -2.96948576
REMARK minimizedRMSD -1
REMARK  0 active torsions:
REMARK  status: ('A' for Active; 'I' for Inactive)
ROOT
ATOM      1  O1  BZF d   1       1.886   0.901  -2.227  0.00  0.00    -0.204 OA
ATOM      2  C2  BZF d   1       1.750  -0.233  -3.004  0.00  0.00     0.174 A 
ATOM      3  C3  BZF d   1       1.004  -1.161  -2.370  0.00  0.00    -0.012 A 
ATOM      4  C3A BZF d   1       0.575  -0.534  -1.157  0.00  0.00    -0.107 A 
ATOM      5  C4  BZF d   1      -0.206  -0.943  -0.114  0.00  0.00     0.055 A 
ATOM      6  C5  BZF d   1      -0.371  -0.116   0.951  0.00  0.00    -0.016 A 
ATOM      7  C6  BZF d   1       0.233   1.123   1.009  0.00  0.00     0.022 A 
ATOM      8  C7  BZF d   1       1.013   1.574  -0.003  0.00  0.00     0.029 A 
ATOM      9  C7A BZF d   1       1.155   0.754  -1.096  0.00  0.00     0.058 A 
ENDROOT
TORSDOF 0
ENDMDL
