MODEL 1
REMARK minimizedAffinity 5.26321793
REMARK minimizedRMSD -1
REMARK  0 active torsions:
REMARK  status: ('A' for Active; 'I' for Inactive)
ROOT
ATOM      1  C   UNL d   1      -1.155   0.514   2.559  0.00  0.00     0.020 A 
ATOM      2  C1  UNL d   1       0.169   0.741   2.186  0.00  0.00     0.020 A 
ATOM      3  C2  UNL d   1       0.954  -0.317   1.721  0.00  0.00     0.034 A 
ATOM      4  C3  UNL d   1       0.415  -1.605   1.628  0.00  0.00     0.017 A 
ATOM      5  C4  UNL d   1      -0.914  -1.832   2.003  0.00  0.00     0.017 A 
ATOM      6  C5  UNL d   1      -1.695  -0.769   2.468  0.00  0.00     0.034 A 
ATOM      7 Cl   UNL d   1      -1.649  -3.394   1.916  0.00  0.00    -0.070 Cl
ATOM      8 Cl1  UNL d   1       1.443  -2.866   1.044  0.00  0.00    -0.070 Cl
ENDROOT
TORSDOF 0
ENDMDL
