MODEL 1
REMARK minimizedAffinity -3.96699882
REMARK minimizedRMSD -1
REMARK  0 active torsions:
REMARK  status: ('A' for Active; 'I' for Inactive)
ROOT
ATOM      1  C   UNL d   1       0.240  -1.162   2.717  0.00  0.00     0.020 A 
ATOM      2  C1  UNL d   1       0.529  -0.830   1.394  0.00  0.00     0.020 A 
ATOM      3  C2  UNL d   1       1.598  -1.443   0.738  0.00  0.00     0.034 A 
ATOM      4  C3  UNL d   1       2.383  -2.391   1.404  0.00  0.00     0.017 A 
ATOM      5  C4  UNL d   1       2.093  -2.723   2.733  0.00  0.00     0.017 A 
ATOM      6  C5  UNL d   1       1.021  -2.106   3.385  0.00  0.00     0.034 A 
ATOM      7 Cl   UNL d   1       3.016  -3.883   3.621  0.00  0.00    -0.070 Cl
ATOM      8 Cl1  UNL d   1       3.689  -3.110   0.531  0.00  0.00    -0.070 Cl
ENDROOT
TORSDOF 0
ENDMDL
