MODEL 1
REMARK minimizedAffinity 3.6321764
REMARK minimizedRMSD -1
REMARK  0 active torsions:
REMARK  status: ('A' for Active; 'I' for Inactive)
ROOT
ATOM      1  C   UNL d   1       4.340   1.426  -0.011  0.00  0.00     0.020 A 
ATOM      2  C1  UNL d   1       4.095   2.756  -0.349  0.00  0.00     0.020 A 
ATOM      3  C2  UNL d   1       2.822   3.147  -0.770  0.00  0.00     0.034 A 
ATOM      4  C3  UNL d   1       1.789   2.207  -0.853  0.00  0.00     0.017 A 
ATOM      5  C4  UNL d   1       2.035   0.872  -0.514  0.00  0.00     0.017 A 
ATOM      6  C5  UNL d   1       3.312   0.486  -0.093  0.00  0.00     0.034 A 
ATOM      7 Cl   UNL d   1       0.811  -0.346  -0.592  0.00  0.00    -0.070 Cl
ATOM      8 Cl1  UNL d   1       0.239   2.761  -1.381  0.00  0.00    -0.070 Cl
ENDROOT
TORSDOF 0
ENDMDL
