MODEL 1
REMARK minimizedAffinity 2.17982292
REMARK minimizedRMSD -1
REMARK  0 active torsions:
REMARK  status: ('A' for Active; 'I' for Inactive)
ROOT
ATOM      1  C   UNL d   1       0.562  -3.526   2.854  0.00  0.00     0.020 A 
ATOM      2  C1  UNL d   1       1.483  -3.677   1.818  0.00  0.00     0.020 A 
ATOM      3  C2  UNL d   1       1.580  -2.704   0.822  0.00  0.00     0.034 A 
ATOM      4  C3  UNL d   1       0.754  -1.574   0.859  0.00  0.00     0.017 A 
ATOM      5  C4  UNL d   1      -0.170  -1.423   1.899  0.00  0.00     0.017 A 
ATOM      6  C5  UNL d   1      -0.263  -2.401   2.894  0.00  0.00     0.034 A 
ATOM      7 Cl   UNL d   1      -1.223  -0.057   2.011  0.00  0.00    -0.070 Cl
ATOM      8 Cl1  UNL d   1       0.928  -0.410  -0.406  0.00  0.00    -0.070 Cl
ENDROOT
TORSDOF 0
ENDMDL
