MODEL 1
REMARK minimizedAffinity 8.64274883
REMARK minimizedRMSD -1
REMARK  0 active torsions:
REMARK  status: ('A' for Active; 'I' for Inactive)
ROOT
ATOM      1  C   UNL d   1       5.432  -3.018   0.087  0.00  0.00     0.020 A 
ATOM      2  C1  UNL d   1       4.090  -3.101  -0.283  0.00  0.00     0.020 A 
ATOM      3  C2  UNL d   1       3.314  -1.942  -0.359  0.00  0.00     0.034 A 
ATOM      4  C3  UNL d   1       3.879  -0.696  -0.066  0.00  0.00     0.017 A 
ATOM      5  C4  UNL d   1       5.226  -0.613   0.305  0.00  0.00     0.017 A 
ATOM      6  C5  UNL d   1       5.998  -1.776   0.380  0.00  0.00     0.034 A 
ATOM      7 Cl   UNL d   1       5.993   0.889   0.682  0.00  0.00    -0.070 Cl
ATOM      8 Cl1  UNL d   1       2.861   0.695  -0.182  0.00  0.00    -0.070 Cl
ENDROOT
TORSDOF 0
ENDMDL
