MODEL 1
REMARK minimizedAffinity 4.11113024
REMARK minimizedRMSD -1
REMARK  0 active torsions:
REMARK  status: ('A' for Active; 'I' for Inactive)
ROOT
ATOM      1  C   UNL d   1      -0.317  -2.889   3.118  0.00  0.00     0.020 A 
ATOM      2  C1  UNL d   1       0.839  -3.335   2.479  0.00  0.00     0.020 A 
ATOM      3  C2  UNL d   1       1.343  -2.635   1.381  0.00  0.00     0.034 A 
ATOM      4  C3  UNL d   1       0.692  -1.487   0.918  0.00  0.00     0.017 A 
ATOM      5  C4  UNL d   1      -0.469  -1.040   1.560  0.00  0.00     0.017 A 
ATOM      6  C5  UNL d   1      -0.970  -1.744   2.659  0.00  0.00     0.034 A 
ATOM      7 Cl   UNL d   1      -1.328   0.369   1.047  0.00  0.00    -0.070 Cl
ATOM      8 Cl1  UNL d   1       1.371  -0.671  -0.446  0.00  0.00    -0.070 Cl
ENDROOT
TORSDOF 0
ENDMDL
