MODEL 1
REMARK minimizedAffinity 5.09296417
REMARK minimizedRMSD -1
REMARK  0 active torsions:
REMARK  status: ('A' for Active; 'I' for Inactive)
ROOT
ATOM      1  C   UNL d   1      -0.084  -3.567   3.210  0.00  0.00     0.020 A 
ATOM      2  C1  UNL d   1       0.964  -4.004   2.401  0.00  0.00     0.020 A 
ATOM      3  C2  UNL d   1       1.524  -3.141   1.457  0.00  0.00     0.034 A 
ATOM      4  C3  UNL d   1       1.037  -1.836   1.319  0.00  0.00     0.017 A 
ATOM      5  C4  UNL d   1      -0.015  -1.398   2.132  0.00  0.00     0.017 A 
ATOM      6  C5  UNL d   1      -0.572  -2.266   3.076  0.00  0.00     0.034 A 
ATOM      7 Cl   UNL d   1      -0.669   0.198   2.021  0.00  0.00    -0.070 Cl
ATOM      8 Cl1  UNL d   1       1.777  -0.823   0.132  0.00  0.00    -0.070 Cl
ENDROOT
TORSDOF 0
ENDMDL
