MODEL 1
REMARK minimizedAffinity 0.726770401
REMARK minimizedRMSD -1
REMARK  0 active torsions:
REMARK  status: ('A' for Active; 'I' for Inactive)
ROOT
ATOM      1  C   UNL d   1      -0.460  -0.173   1.934  0.00  0.00     0.020 A 
ATOM      2  C1  UNL d   1      -0.158  -1.248   2.770  0.00  0.00     0.020 A 
ATOM      3  C2  UNL d   1       0.797  -2.189   2.379  0.00  0.00     0.034 A 
ATOM      4  C3  UNL d   1       1.453  -2.058   1.149  0.00  0.00     0.017 A 
ATOM      5  C4  UNL d   1       1.148  -0.979   0.311  0.00  0.00     0.017 A 
ATOM      6  C5  UNL d   1       0.192  -0.039   0.708  0.00  0.00     0.034 A 
ATOM      7 Cl   UNL d   1       1.916  -0.750  -1.220  0.00  0.00    -0.070 Cl
ATOM      8 Cl1  UNL d   1       2.622  -3.259   0.730  0.00  0.00    -0.070 Cl
ENDROOT
TORSDOF 0
ENDMDL
