MODEL 1
REMARK minimizedAffinity 0.199434102
REMARK minimizedRMSD -1
REMARK  0 active torsions:
REMARK  status: ('A' for Active; 'I' for Inactive)
ROOT
ATOM      1  C   UNL d   1       2.380  -4.564   2.073  0.00  0.00     0.020 A 
ATOM      2  C1  UNL d   1       2.809  -4.112   0.826  0.00  0.00     0.020 A 
ATOM      3  C2  UNL d   1       2.246  -2.962   0.268  0.00  0.00     0.034 A 
ATOM      4  C3  UNL d   1       1.250  -2.260   0.958  0.00  0.00     0.017 A 
ATOM      5  C4  UNL d   1       0.820  -2.715   2.210  0.00  0.00     0.017 A 
ATOM      6  C5  UNL d   1       1.387  -3.867   2.763  0.00  0.00     0.034 A 
ATOM      7 Cl   UNL d   1      -0.404  -1.902   3.121  0.00  0.00    -0.070 Cl
ATOM      8 Cl1  UNL d   1       0.598  -0.846   0.209  0.00  0.00    -0.070 Cl
ENDROOT
TORSDOF 0
ENDMDL
