MODEL 1
REMARK minimizedAffinity 0.017417321
REMARK minimizedRMSD -1
REMARK  0 active torsions:
REMARK  status: ('A' for Active; 'I' for Inactive)
ROOT
ATOM      1  C   UNL d   1      -0.093  -2.507   3.117  0.00  0.00     0.020 A 
ATOM      2  C1  UNL d   1      -0.544  -1.273   2.650  0.00  0.00     0.020 A 
ATOM      3  C2  UNL d   1       0.005  -0.724   1.489  0.00  0.00     0.034 A 
ATOM      4  C3  UNL d   1       1.006  -1.408   0.791  0.00  0.00     0.017 A 
ATOM      5  C4  UNL d   1       1.457  -2.647   1.261  0.00  0.00     0.017 A 
ATOM      6  C5  UNL d   1       0.905  -3.192   2.424  0.00  0.00     0.034 A 
ATOM      7 Cl   UNL d   1       2.690  -3.552   0.454  0.00  0.00    -0.070 Cl
ATOM      8 Cl1  UNL d   1       1.639  -0.670  -0.637  0.00  0.00    -0.070 Cl
ENDROOT
TORSDOF 0
ENDMDL
