MODEL 1
REMARK minimizedAffinity -2.12096262
REMARK minimizedRMSD -1
REMARK  1 active torsions:
REMARK  status: ('A' for Active; 'I' for Inactive)
REMARK    1  A    between atoms: C1_2  and  C2_3 
ROOT
ATOM      1  C2  UNL d   1      -1.308   1.684   1.736  0.00  0.00    -0.076 A 
ATOM      2  C3  UNL d   1      -1.867   1.393   0.480  0.00  0.00     0.004 A 
ATOM      3  C4  UNL d   1      -1.212   0.554  -0.420  0.00  0.00    -0.003 A 
ATOM      4  C5  UNL d   1       0.014  -0.007  -0.078  0.00  0.00     0.000 A 
ATOM      5  C6  UNL d   1       0.575   0.257   1.171  0.00  0.00     0.000 A 
ATOM      6  C7  UNL d   1      -0.081   1.087   2.096  0.00  0.00    -0.073 A 
ATOM      7  C8  UNL d   1       0.573   1.343   3.426  0.00  0.00     0.078 C 
ENDROOT
BRANCH   1   8
ATOM      8  C1  UNL d   1      -2.051   2.622   2.660  0.00  0.00     0.053 C 
ATOM      9  C   UNL d   1      -3.478   2.881   2.202  0.00  0.00     0.018 C 
ENDBRANCH   1   8
TORSDOF 1
ENDMDL
