MODEL 1
REMARK minimizedAffinity -4.75594759
REMARK minimizedRMSD -1
REMARK  1 active torsions:
REMARK  status: ('A' for Active; 'I' for Inactive)
REMARK    1  A    between atoms: C1_2  and  C2_3 
ROOT
ATOM      1  C2  UNL d   1       0.260  -0.034  -0.156  0.00  0.00    -0.076 A 
ATOM      2  C3  UNL d   1       1.594  -0.128   0.277  0.00  0.00     0.004 A 
ATOM      3  C4  UNL d   1       1.900  -0.342   1.620  0.00  0.00    -0.003 A 
ATOM      4  C5  UNL d   1       0.876  -0.465   2.552  0.00  0.00     0.000 A 
ATOM      5  C6  UNL d   1      -0.454  -0.392   2.139  0.00  0.00     0.000 A 
ATOM      6  C7  UNL d   1      -0.779  -0.194   0.786  0.00  0.00    -0.073 A 
ATOM      7  C8  UNL d   1      -2.230  -0.117   0.397  0.00  0.00     0.078 C 
ENDROOT
BRANCH   1   8
ATOM      8  C1  UNL d   1      -0.011   0.225  -1.620  0.00  0.00     0.053 C 
ATOM      9  C   UNL d   1       0.958  -0.513  -2.531  0.00  0.00     0.018 C 
ENDBRANCH   1   8
TORSDOF 1
ENDMDL
