MODEL 1
REMARK minimizedAffinity -1.19381988
REMARK minimizedRMSD -1
REMARK  1 active torsions:
REMARK  status: ('A' for Active; 'I' for Inactive)
REMARK    1  A    between atoms: C1_2  and  C2_3 
ROOT
ATOM      1  C2  UNL d   1      -0.079  -0.253   0.401  0.00  0.00    -0.076 A 
ATOM      2  C3  UNL d   1       0.145   0.828   1.272  0.00  0.00     0.004 A 
ATOM      3  C4  UNL d   1      -0.086   0.705   2.641  0.00  0.00    -0.003 A 
ATOM      4  C5  UNL d   1      -0.542  -0.500   3.162  0.00  0.00     0.000 A 
ATOM      5  C6  UNL d   1      -0.752  -1.588   2.315  0.00  0.00     0.000 A 
ATOM      6  C7  UNL d   1      -0.509  -1.487   0.935  0.00  0.00    -0.073 A 
ATOM      7  C8  UNL d   1      -0.759  -2.690   0.068  0.00  0.00     0.078 C 
ENDROOT
BRANCH   1   8
ATOM      8  C1  UNL d   1       0.163  -0.054  -1.078  0.00  0.00     0.053 C 
ATOM      9  C   UNL d   1       1.398  -0.791  -1.572  0.00  0.00     0.018 C 
ENDBRANCH   1   8
TORSDOF 1
ENDMDL
