MODEL 1
REMARK minimizedAffinity -0.939222574
REMARK minimizedRMSD -1
REMARK  1 active torsions:
REMARK  status: ('A' for Active; 'I' for Inactive)
REMARK    1  A    between atoms: C1_2  and  C2_3 
ROOT
ATOM      1  C2  UNL d   1      -0.657  -0.313   1.291  0.00  0.00    -0.076 A 
ATOM      2  C3  UNL d   1       0.728  -0.125   1.140  0.00  0.00     0.004 A 
ATOM      3  C4  UNL d   1       1.275   0.218  -0.095  0.00  0.00    -0.003 A 
ATOM      4  C5  UNL d   1       0.446   0.380  -1.199  0.00  0.00     0.000 A 
ATOM      5  C6  UNL d   1      -0.932   0.214  -1.064  0.00  0.00     0.000 A 
ATOM      6  C7  UNL d   1      -1.501  -0.116   0.177  0.00  0.00    -0.073 A 
ATOM      7  C8  UNL d   1      -2.993  -0.289   0.264  0.00  0.00     0.078 C 
ENDROOT
BRANCH   1   8
ATOM      8  C1  UNL d   1      -1.191  -0.712   2.648  0.00  0.00     0.053 C 
ATOM      9  C   UNL d   1      -0.952   0.356   3.705  0.00  0.00     0.018 C 
ENDBRANCH   1   8
TORSDOF 1
ENDMDL
