MODEL 1
REMARK minimizedAffinity -2.83276987
REMARK minimizedRMSD -1
REMARK  1 active torsions:
REMARK  status: ('A' for Active; 'I' for Inactive)
REMARK    1  A    between atoms: C1_2  and  C2_3 
ROOT
ATOM      1  C2  UNL d   1      -0.928  -0.310  -0.281  0.00  0.00    -0.076 A 
ATOM      2  C3  UNL d   1      -1.587   0.665  -1.049  0.00  0.00     0.004 A 
ATOM      3  C4  UNL d   1      -2.956   0.887  -0.906  0.00  0.00    -0.003 A 
ATOM      4  C5  UNL d   1      -3.687   0.139   0.009  0.00  0.00     0.000 A 
ATOM      5  C6  UNL d   1      -3.047  -0.821   0.793  0.00  0.00     0.000 A 
ATOM      6  C7  UNL d   1      -1.665  -1.046   0.672  0.00  0.00    -0.073 A 
ATOM      7  C8  UNL d   1      -1.026  -2.097   1.538  0.00  0.00     0.078 C 
ENDROOT
BRANCH   1   8
ATOM      8  C1  UNL d   1       0.552  -0.526  -0.499  0.00  0.00     0.053 C 
ATOM      9  C   UNL d   1       0.884  -0.869  -1.943  0.00  0.00     0.018 C 
ENDBRANCH   1   8
TORSDOF 1
ENDMDL
