MODEL 1
REMARK minimizedAffinity -5.15731096
REMARK minimizedRMSD -1
REMARK  1 active torsions:
REMARK  status: ('A' for Active; 'I' for Inactive)
REMARK    1  A    between atoms: C1_2  and  C2_3 
ROOT
ATOM      1  C2  UNL d   1       0.203  -0.323  -0.387  0.00  0.00    -0.076 A 
ATOM      2  C3  UNL d   1       0.857  -1.006   0.653  0.00  0.00     0.004 A 
ATOM      3  C4  UNL d   1       0.406  -0.910   1.969  0.00  0.00    -0.003 A 
ATOM      4  C5  UNL d   1      -0.707  -0.131   2.265  0.00  0.00     0.000 A 
ATOM      5  C6  UNL d   1      -1.378   0.539   1.243  0.00  0.00     0.000 A 
ATOM      6  C7  UNL d   1      -0.947   0.440  -0.091  0.00  0.00    -0.073 A 
ATOM      7  C8  UNL d   1      -1.705   1.188  -1.152  0.00  0.00     0.078 C 
ENDROOT
BRANCH   1   8
ATOM      8  C1  UNL d   1       0.753  -0.443  -1.790  0.00  0.00     0.053 C 
ATOM      9  C   UNL d   1       1.104  -1.876  -2.159  0.00  0.00     0.018 C 
ENDBRANCH   1   8
TORSDOF 1
ENDMDL
