MODEL 1
REMARK minimizedAffinity -4.25628567
REMARK minimizedRMSD -1
REMARK  1 active torsions:
REMARK  status: ('A' for Active; 'I' for Inactive)
REMARK    1  A    between atoms: C1_2  and  C2_3 
ROOT
ATOM      1  C2  UNL d   1       0.364   0.141   1.221  0.00  0.00    -0.076 A 
ATOM      2  C3  UNL d   1       0.243   0.797  -0.016  0.00  0.00     0.004 A 
ATOM      3  C4  UNL d   1      -1.003   0.973  -0.616  0.00  0.00    -0.003 A 
ATOM      4  C5  UNL d   1      -2.148   0.497   0.012  0.00  0.00     0.000 A 
ATOM      5  C6  UNL d   1      -2.049  -0.140   1.248  0.00  0.00     0.000 A 
ATOM      6  C7  UNL d   1      -0.803  -0.312   1.874  0.00  0.00    -0.073 A 
ATOM      7  C8  UNL d   1      -0.753  -1.012   3.205  0.00  0.00     0.078 C 
ENDROOT
BRANCH   1   8
ATOM      8  C1  UNL d   1       1.743  -0.045   1.811  0.00  0.00     0.053 C 
ATOM      9  C   UNL d   1       2.689   1.091   1.451  0.00  0.00     0.018 C 
ENDBRANCH   1   8
TORSDOF 1
ENDMDL
