MODEL 1
REMARK minimizedAffinity -2.71408176
REMARK minimizedRMSD -1
REMARK  1 active torsions:
REMARK  status: ('A' for Active; 'I' for Inactive)
REMARK    1  A    between atoms: C1_2  and  C2_3 
ROOT
ATOM      1  C2  UNL d   1       0.718  -0.784  -1.793  0.00  0.00    -0.076 A 
ATOM      2  C3  UNL d   1      -0.350  -0.217  -1.075  0.00  0.00     0.004 A 
ATOM      3  C4  UNL d   1      -0.167   0.271   0.217  0.00  0.00    -0.003 A 
ATOM      4  C5  UNL d   1       1.087   0.201   0.813  0.00  0.00     0.000 A 
ATOM      5  C6  UNL d   1       2.162  -0.341   0.110  0.00  0.00     0.000 A 
ATOM      6  C7  UNL d   1       1.998  -0.823  -1.200  0.00  0.00    -0.073 A 
ATOM      7  C8  UNL d   1       3.190  -1.404  -1.910  0.00  0.00     0.078 C 
ENDROOT
BRANCH   1   8
ATOM      8  C1  UNL d   1       0.454  -1.322  -3.181  0.00  0.00     0.053 C 
ATOM      9  C   UNL d   1       0.592  -2.835  -3.256  0.00  0.00     0.018 C 
ENDBRANCH   1   8
TORSDOF 1
ENDMDL
