MODEL 1
REMARK minimizedAffinity 1.16761661
REMARK minimizedRMSD -1
REMARK  1 active torsions:
REMARK  status: ('A' for Active; 'I' for Inactive)
REMARK    1  A    between atoms: C1_2  and  C2_3 
ROOT
ATOM      1  C2  UNL d   1      -1.028   0.569   1.402  0.00  0.00    -0.076 A 
ATOM      2  C3  UNL d   1      -1.377   0.497   0.042  0.00  0.00     0.004 A 
ATOM      3  C4  UNL d   1      -0.397   0.458  -0.949  0.00  0.00    -0.003 A 
ATOM      4  C5  UNL d   1       0.948   0.491  -0.595  0.00  0.00     0.000 A 
ATOM      5  C6  UNL d   1       1.311   0.544   0.750  0.00  0.00     0.000 A 
ATOM      6  C7  UNL d   1       0.336   0.567   1.761  0.00  0.00    -0.073 A 
ATOM      7  C8  UNL d   1       0.785   0.631   3.196  0.00  0.00     0.078 C 
ENDROOT
BRANCH   1   8
ATOM      8  C1  UNL d   1      -2.135   0.635   2.430  0.00  0.00     0.053 C 
ATOM      9  C   UNL d   1      -3.425   1.207   1.862  0.00  0.00     0.018 C 
ENDBRANCH   1   8
TORSDOF 1
ENDMDL
