MODEL 1
REMARK minimizedAffinity -4.30184889
REMARK minimizedRMSD -1
REMARK  1 active torsions:
REMARK  status: ('A' for Active; 'I' for Inactive)
REMARK    1  A    between atoms: C1_2  and  C2_3 
ROOT
ATOM      1  C2  UNL d   1       0.122   0.078  -0.030  0.00  0.00    -0.076 A 
ATOM      2  C3  UNL d   1       1.376   0.643   0.261  0.00  0.00     0.004 A 
ATOM      3  C4  UNL d   1       1.779   0.854   1.578  0.00  0.00    -0.003 A 
ATOM      4  C5  UNL d   1       0.936   0.502   2.626  0.00  0.00     0.000 A 
ATOM      5  C6  UNL d   1      -0.304  -0.075   2.356  0.00  0.00     0.000 A 
ATOM      6  C7  UNL d   1      -0.720  -0.309   1.034  0.00  0.00    -0.073 A 
ATOM      7  C8  UNL d   1      -2.070  -0.930   0.801  0.00  0.00     0.078 C 
ENDROOT
BRANCH   1   8
ATOM      8  C1  UNL d   1      -0.273  -0.101  -1.479  0.00  0.00     0.053 C 
ATOM      9  C   UNL d   1       0.897  -0.525  -2.353  0.00  0.00     0.018 C 
ENDBRANCH   1   8
TORSDOF 1
ENDMDL
