MODEL 1
REMARK minimizedAffinity -2.88440299
REMARK minimizedRMSD -1
REMARK  1 active torsions:
REMARK  status: ('A' for Active; 'I' for Inactive)
REMARK    1  A    between atoms: C1_2  and  C2_3 
ROOT
ATOM      1  C2  UNL d   1      -0.099   0.453   0.282  0.00  0.00    -0.076 A 
ATOM      2  C3  UNL d   1       1.124   1.013   0.691  0.00  0.00     0.004 A 
ATOM      3  C4  UNL d   1       1.432   1.155   2.043  0.00  0.00    -0.003 A 
ATOM      4  C5  UNL d   1       0.522   0.739   3.008  0.00  0.00     0.000 A 
ATOM      5  C6  UNL d   1      -0.689   0.165   2.621  0.00  0.00     0.000 A 
ATOM      6  C7  UNL d   1      -1.008  -0.000   1.262  0.00  0.00    -0.073 A 
ATOM      7  C8  UNL d   1      -2.330  -0.619   0.901  0.00  0.00     0.078 C 
ENDROOT
BRANCH   1   8
ATOM      8  C1  UNL d   1      -0.389   0.349  -1.198  0.00  0.00     0.053 C 
ATOM      9  C   UNL d   1       0.781   0.806  -2.055  0.00  0.00     0.018 C 
ENDBRANCH   1   8
TORSDOF 1
ENDMDL
