MODEL 1
REMARK minimizedAffinity -4.23390579
REMARK minimizedRMSD -1
REMARK  1 active torsions:
REMARK  status: ('A' for Active; 'I' for Inactive)
REMARK    1  A    between atoms: C1_2  and  C2_3 
ROOT
ATOM      1  C2  UNL d   1      -0.746   0.069   1.309  0.00  0.00    -0.076 A 
ATOM      2  C3  UNL d   1      -0.922  -0.351  -0.021  0.00  0.00     0.004 A 
ATOM      3  C4  UNL d   1       0.172  -0.681  -0.820  0.00  0.00    -0.003 A 
ATOM      4  C5  UNL d   1       1.459  -0.599  -0.300  0.00  0.00     0.000 A 
ATOM      5  C6  UNL d   1       1.651  -0.202   1.023  0.00  0.00     0.000 A 
ATOM      6  C7  UNL d   1       0.558   0.119   1.846  0.00  0.00    -0.073 A 
ATOM      7  C8  UNL d   1       0.823   0.547   3.263  0.00  0.00     0.078 C 
ENDROOT
BRANCH   1   8
ATOM      8  C1  UNL d   1      -1.968   0.441   2.118  0.00  0.00     0.053 C 
ATOM      9  C   UNL d   1      -3.196   0.666   1.250  0.00  0.00     0.018 C 
ENDBRANCH   1   8
TORSDOF 1
ENDMDL
