MODEL 1
REMARK minimizedAffinity -4.17108774
REMARK minimizedRMSD -1
REMARK  1 active torsions:
REMARK  status: ('A' for Active; 'I' for Inactive)
REMARK    1  A    between atoms: C1_2  and  C2_3 
ROOT
ATOM      1  C2  UNL d   1       0.073  -0.028   0.570  0.00  0.00    -0.076 A 
ATOM      2  C3  UNL d   1       1.287  -0.654   0.903  0.00  0.00     0.004 A 
ATOM      3  C4  UNL d   1       1.461  -1.268   2.142  0.00  0.00    -0.003 A 
ATOM      4  C5  UNL d   1       0.423  -1.267   3.068  0.00  0.00     0.000 A 
ATOM      5  C6  UNL d   1      -0.794  -0.667   2.747  0.00  0.00     0.000 A 
ATOM      6  C7  UNL d   1      -0.991  -0.057   1.496  0.00  0.00    -0.073 A 
ATOM      7  C8  UNL d   1      -2.322   0.581   1.206  0.00  0.00     0.078 C 
ENDROOT
BRANCH   1   8
ATOM      8  C1  UNL d   1      -0.048   0.646  -0.779  0.00  0.00     0.053 C 
ATOM      9  C   UNL d   1       0.757  -0.062  -1.858  0.00  0.00     0.018 C 
ENDBRANCH   1   8
TORSDOF 1
ENDMDL
