MODEL 1
REMARK minimizedAffinity -2.06296849
REMARK minimizedRMSD -1
REMARK  1 active torsions:
REMARK  status: ('A' for Active; 'I' for Inactive)
REMARK    1  A    between atoms: C1_2  and  C2_3 
ROOT
ATOM      1  C2  UNL d   1       0.179   0.407   0.264  0.00  0.00    -0.076 A 
ATOM      2  C3  UNL d   1       1.373   0.918   0.804  0.00  0.00     0.004 A 
ATOM      3  C4  UNL d   1       1.578   0.956   2.182  0.00  0.00    -0.003 A 
ATOM      4  C5  UNL d   1       0.594   0.483   3.043  0.00  0.00     0.000 A 
ATOM      5  C6  UNL d   1      -0.588  -0.044   2.524  0.00  0.00     0.000 A 
ATOM      6  C7  UNL d   1      -0.805  -0.104   1.137  0.00  0.00    -0.073 A 
ATOM      7  C8  UNL d   1      -2.101  -0.677   0.633  0.00  0.00     0.078 C 
ENDROOT
BRANCH   1   8
ATOM      8  C1  UNL d   1       0.001   0.417  -1.237  0.00  0.00     0.053 C 
ATOM      9  C   UNL d   1       1.192  -0.183  -1.969  0.00  0.00     0.018 C 
ENDBRANCH   1   8
TORSDOF 1
ENDMDL
