MODEL 1
REMARK minimizedAffinity 10.456665
REMARK minimizedRMSD -1
REMARK  1 active torsions:
REMARK  status: ('A' for Active; 'I' for Inactive)
REMARK    1  A    between atoms: C1_2  and  C2_3 
ROOT
ATOM      1  C2  UNL d   1       1.900   0.158  -0.068  0.00  0.00    -0.081 A 
ATOM      2  C3  UNL d   1       0.908   0.614  -0.945  0.00  0.00     0.006 A 
ATOM      3  C4  UNL d   1      -0.280   1.157  -0.450  0.00  0.00     0.002 A 
ATOM      4  C5  UNL d   1      -0.493   1.260   0.929  0.00  0.00    -0.080 A 
ATOM      5  C6  UNL d   1      -1.751   1.869   1.473  0.00  0.00     0.076 C 
ATOM      6  C7  UNL d   1       0.490   0.788   1.805  0.00  0.00     0.002 A 
ATOM      7  C8  UNL d   1       1.678   0.245   1.311  0.00  0.00     0.006 A 
ENDROOT
BRANCH   1   8
ATOM      8  C1  UNL d   1       3.209  -0.368  -0.598  0.00  0.00     0.054 C 
ATOM      9  C   UNL d   1       4.219   0.754  -0.791  0.00  0.00     0.018 C 
ENDBRANCH   1   8
TORSDOF 1
ENDMDL
