MODEL 1
REMARK minimizedAffinity 4.42816782
REMARK minimizedRMSD -1
REMARK  1 active torsions:
REMARK  status: ('A' for Active; 'I' for Inactive)
REMARK    1  A    between atoms: C1_2  and  C2_3 
ROOT
ATOM      1  C2  UNL d   1       3.965  -1.208  -0.287  0.00  0.00    -0.081 A 
ATOM      2  C3  UNL d   1       5.335  -1.102  -0.020  0.00  0.00     0.006 A 
ATOM      3  C4  UNL d   1       6.000   0.114  -0.200  0.00  0.00     0.002 A 
ATOM      4  C5  UNL d   1       5.304   1.245  -0.642  0.00  0.00    -0.080 A 
ATOM      5  C6  UNL d   1       5.999   2.563  -0.810  0.00  0.00     0.076 C 
ATOM      6  C7  UNL d   1       3.939   1.134  -0.925  0.00  0.00     0.002 A 
ATOM      7  C8  UNL d   1       3.274  -0.081  -0.746  0.00  0.00     0.006 A 
ENDROOT
BRANCH   1   8
ATOM      8  C1  UNL d   1       3.232  -2.500  -0.032  0.00  0.00     0.054 C 
ATOM      9  C   UNL d   1       2.511  -2.983  -1.282  0.00  0.00     0.018 C 
ENDBRANCH   1   8
TORSDOF 1
ENDMDL
