MODEL 1
REMARK minimizedAffinity 10.2814045
REMARK minimizedRMSD -1
REMARK  1 active torsions:
REMARK  status: ('A' for Active; 'I' for Inactive)
REMARK    1  A    between atoms: C1_2  and  C2_3 
ROOT
ATOM      1  C2  UNL d   1       4.596  -0.182  -0.083  0.00  0.00    -0.081 A 
ATOM      2  C3  UNL d   1       4.272   1.122  -0.477  0.00  0.00     0.006 A 
ATOM      3  C4  UNL d   1       2.958   1.455  -0.814  0.00  0.00     0.002 A 
ATOM      4  C5  UNL d   1       1.945   0.492  -0.754  0.00  0.00    -0.080 A 
ATOM      5  C6  UNL d   1       0.524   0.843  -1.083  0.00  0.00     0.076 C 
ATOM      6  C7  UNL d   1       2.271  -0.815  -0.376  0.00  0.00     0.002 A 
ATOM      7  C8  UNL d   1       3.585  -1.148  -0.041  0.00  0.00     0.006 A 
ENDROOT
BRANCH   1   8
ATOM      8  C1  UNL d   1       6.000  -0.527   0.343  0.00  0.00     0.054 C 
ATOM      9  C   UNL d   1       6.000  -1.466   1.540  0.00  0.00     0.018 C 
ENDBRANCH   1   8
TORSDOF 1
ENDMDL
