MODEL 1
REMARK minimizedAffinity 16.2723694
REMARK minimizedRMSD -1
REMARK  1 active torsions:
REMARK  status: ('A' for Active; 'I' for Inactive)
REMARK    1  A    between atoms: C1_2  and  C2_3 
ROOT
ATOM      1  C2  UNL d   1      -2.962  -5.235  -4.775  0.00  0.00    -0.081 A 
ATOM      2  C3  UNL d   1      -1.828  -6.000  -4.473  0.00  0.00     0.006 A 
ATOM      3  C4  UNL d   1      -1.100  -5.756  -3.306  0.00  0.00     0.002 A 
ATOM      4  C5  UNL d   1      -1.497  -4.750  -2.419  0.00  0.00    -0.080 A 
ATOM      5  C6  UNL d   1      -0.742  -4.498  -1.148  0.00  0.00     0.076 C 
ATOM      6  C7  UNL d   1      -2.619  -3.974  -2.729  0.00  0.00     0.002 A 
ATOM      7  C8  UNL d   1      -3.348  -4.217  -3.896  0.00  0.00     0.006 A 
ENDROOT
BRANCH   1   8
ATOM      8  C1  UNL d   1      -3.787  -5.538  -6.000  0.00  0.00     0.054 C 
ATOM      9  C   UNL d   1      -5.184  -4.945  -5.887  0.00  0.00     0.018 C 
ENDBRANCH   1   8
TORSDOF 1
ENDMDL
