MODEL 1
REMARK minimizedAffinity 7.06398439
REMARK minimizedRMSD -1
REMARK  1 active torsions:
REMARK  status: ('A' for Active; 'I' for Inactive)
REMARK    1  A    between atoms: C1_2  and  C2_3 
ROOT
ATOM      1  C2  UNL d   1       3.367  -1.621  -0.649  0.00  0.00    -0.081 A 
ATOM      2  C3  UNL d   1       2.956  -2.019  -1.927  0.00  0.00     0.006 A 
ATOM      3  C4  UNL d   1       1.888  -2.906  -2.083  0.00  0.00     0.002 A 
ATOM      4  C5  UNL d   1       1.209  -3.403  -0.966  0.00  0.00    -0.080 A 
ATOM      5  C6  UNL d   1       0.042  -4.332  -1.121  0.00  0.00     0.076 C 
ATOM      6  C7  UNL d   1       1.631  -3.019   0.311  0.00  0.00     0.002 A 
ATOM      7  C8  UNL d   1       2.699  -2.133   0.468  0.00  0.00     0.006 A 
ENDROOT
BRANCH   1   8
ATOM      8  C1  UNL d   1       4.476  -0.614  -0.479  0.00  0.00     0.054 C 
ATOM      9  C   UNL d   1       4.053   0.764  -0.969  0.00  0.00     0.018 C 
ENDBRANCH   1   8
TORSDOF 1
ENDMDL
