MODEL 1
REMARK minimizedAffinity 9.31386471
REMARK minimizedRMSD -1
REMARK  1 active torsions:
REMARK  status: ('A' for Active; 'I' for Inactive)
REMARK    1  A    between atoms: C1_2  and  C2_3 
ROOT
ATOM      1  C2  UNL d   1       1.793   0.057   0.112  0.00  0.00    -0.081 A 
ATOM      2  C3  UNL d   1       1.563   0.244   1.481  0.00  0.00     0.006 A 
ATOM      3  C4  UNL d   1       0.327   0.710   1.935  0.00  0.00     0.002 A 
ATOM      4  C5  UNL d   1      -0.702   0.988   1.029  0.00  0.00    -0.080 A 
ATOM      5  C6  UNL d   1      -2.044   1.460   1.505  0.00  0.00     0.076 C 
ATOM      6  C7  UNL d   1      -0.468   0.818  -0.340  0.00  0.00     0.002 A 
ATOM      7  C8  UNL d   1       0.768   0.353  -0.794  0.00  0.00     0.006 A 
ENDROOT
BRANCH   1   8
ATOM      8  C1  UNL d   1       3.103  -0.507  -0.375  0.00  0.00     0.054 C 
ATOM      9  C   UNL d   1       4.180   0.567  -0.433  0.00  0.00     0.018 C 
ENDBRANCH   1   8
TORSDOF 1
ENDMDL
