MODEL 1
REMARK minimizedAffinity 13.0592022
REMARK minimizedRMSD -1
REMARK  1 active torsions:
REMARK  status: ('A' for Active; 'I' for Inactive)
REMARK    1  A    between atoms: C1_2  and  C2_3 
ROOT
ATOM      1  C2  UNL d   1      -3.381  -0.522  -2.980  0.00  0.00    -0.081 A 
ATOM      2  C3  UNL d   1      -2.121  -0.005  -3.304  0.00  0.00     0.006 A 
ATOM      3  C4  UNL d   1      -1.990   0.976  -4.290  0.00  0.00     0.002 A 
ATOM      4  C5  UNL d   1      -3.117   1.462  -4.961  0.00  0.00    -0.080 A 
ATOM      5  C6  UNL d   1      -2.994   2.537  -6.000  0.00  0.00     0.076 C 
ATOM      6  C7  UNL d   1      -4.374   0.934  -4.650  0.00  0.00     0.002 A 
ATOM      7  C8  UNL d   1      -4.506  -0.048  -3.665  0.00  0.00     0.006 A 
ENDROOT
BRANCH   1   8
ATOM      8  C1  UNL d   1      -3.533  -1.533  -1.873  0.00  0.00     0.054 C 
ATOM      9  C   UNL d   1      -3.257  -2.945  -2.371  0.00  0.00     0.018 C 
ENDBRANCH   1   8
TORSDOF 1
ENDMDL
