MODEL 1
REMARK minimizedAffinity -3.69663763
REMARK minimizedRMSD -1
REMARK  1 active torsions:
REMARK  status: ('A' for Active; 'I' for Inactive)
REMARK    1  A    between atoms: C3_4  and  O_7 
ROOT
ATOM      1  C   UNL d   1      -0.902   0.147   1.657  0.00  0.00    -0.033 A 
ATOM      2  C1  UNL d   1      -1.210   1.265   0.879  0.00  0.00     0.039 A 
ATOM      3  C2  UNL d   1      -0.507   1.512  -0.301  0.00  0.00    -0.080 A 
ATOM      4  C3  UNL d   1       0.501   0.635  -0.693  0.00  0.00     0.150 A 
ATOM      5  C4  UNL d   1       0.811  -0.483   0.075  0.00  0.00    -0.007 A 
ATOM      6  C5  UNL d   1       0.108  -0.727   1.254  0.00  0.00     0.039 A 
ENDROOT
BRANCH   4   7
ATOM      7  O   UNL d   1       1.218   0.838  -1.835  0.00  0.00    -0.526 OA
ATOM      8  H5  UNL d   1       0.913   1.663  -2.247  0.00  0.00     0.418 HD
ENDBRANCH   4   7
TORSDOF 1
ENDMDL
