MODEL 1
REMARK minimizedAffinity -3.21361065
REMARK minimizedRMSD -1
REMARK  1 active torsions:
REMARK  status: ('A' for Active; 'I' for Inactive)
REMARK    1  A    between atoms: C3_4  and  O_7 
ROOT
ATOM      1  C   UNL d   1       0.693  -0.800  -0.466  0.00  0.00    -0.033 A 
ATOM      2  C1  UNL d   1       0.251   0.339  -1.140  0.00  0.00     0.039 A 
ATOM      3  C2  UNL d   1      -0.726   1.157  -0.567  0.00  0.00    -0.080 A 
ATOM      4  C3  UNL d   1      -1.250   0.824   0.678  0.00  0.00     0.150 A 
ATOM      5  C4  UNL d   1      -0.812  -0.308   1.357  0.00  0.00    -0.007 A 
ATOM      6  C5  UNL d   1       0.163  -1.123   0.784  0.00  0.00     0.039 A 
ENDROOT
BRANCH   4   7
ATOM      7  O   UNL d   1      -2.208   1.588   1.275  0.00  0.00    -0.526 OA
ATOM      8  H5  UNL d   1      -2.434   2.321   0.678  0.00  0.00     0.418 HD
ENDBRANCH   4   7
TORSDOF 1
ENDMDL
