MODEL 1
REMARK minimizedAffinity -2.14033437
REMARK minimizedRMSD -1
REMARK  1 active torsions:
REMARK  status: ('A' for Active; 'I' for Inactive)
REMARK    1  A    between atoms: C3_4  and  O_7 
ROOT
ATOM      1  C   UNL d   1       0.937  -0.122  -0.751  0.00  0.00    -0.033 A 
ATOM      2  C1  UNL d   1       0.400   1.133  -1.043  0.00  0.00     0.039 A 
ATOM      3  C2  UNL d   1      -0.522   1.720  -0.174  0.00  0.00    -0.080 A 
ATOM      4  C3  UNL d   1      -0.897   1.042   0.983  0.00  0.00     0.150 A 
ATOM      5  C4  UNL d   1      -0.362  -0.207   1.283  0.00  0.00    -0.007 A 
ATOM      6  C5  UNL d   1       0.557  -0.791   0.413  0.00  0.00     0.039 A 
ENDROOT
BRANCH   4   7
ATOM      7  O   UNL d   1      -1.797   1.572   1.860  0.00  0.00    -0.526 OA
ATOM      8  H5  UNL d   1      -2.103   2.425   1.508  0.00  0.00     0.418 HD
ENDBRANCH   4   7
TORSDOF 1
ENDMDL
