MODEL 1
REMARK minimizedAffinity -3.32836461
REMARK minimizedRMSD -1
REMARK  1 active torsions:
REMARK  status: ('A' for Active; 'I' for Inactive)
REMARK    1  A    between atoms: C3_4  and  O_7 
ROOT
ATOM      1  C   UNL d   1      -0.993  -0.405   0.216  0.00  0.00    -0.033 A 
ATOM      2  C1  UNL d   1      -1.558   0.846  -0.038  0.00  0.00     0.039 A 
ATOM      3  C2  UNL d   1      -0.841   1.805  -0.756  0.00  0.00    -0.080 A 
ATOM      4  C3  UNL d   1       0.438   1.501  -1.213  0.00  0.00     0.150 A 
ATOM      5  C4  UNL d   1       1.006   0.255  -0.967  0.00  0.00    -0.007 A 
ATOM      6  C5  UNL d   1       0.288  -0.701  -0.250  0.00  0.00     0.039 A 
ENDROOT
BRANCH   4   7
ATOM      7  O   UNL d   1       1.178   2.406  -1.914  0.00  0.00    -0.526 OA
ATOM      8  H5  UNL d   1       0.670   3.232  -1.983  0.00  0.00     0.418 HD
ENDBRANCH   4   7
TORSDOF 1
ENDMDL
