MODEL 1
REMARK minimizedAffinity -3.74966145
REMARK minimizedRMSD -1
REMARK  1 active torsions:
REMARK  status: ('A' for Active; 'I' for Inactive)
REMARK    1  A    between atoms: C3_4  and  O_7 
ROOT
ATOM      1  C   UNL d   1      -0.908   1.127  -0.388  0.00  0.00    -0.033 A 
ATOM      2  C1  UNL d   1      -0.195   0.271   0.453  0.00  0.00     0.039 A 
ATOM      3  C2  UNL d   1      -0.193   0.487   1.832  0.00  0.00    -0.080 A 
ATOM      4  C3  UNL d   1      -0.908   1.560   2.357  0.00  0.00     0.150 A 
ATOM      5  C4  UNL d   1      -1.625   2.414   1.525  0.00  0.00    -0.007 A 
ATOM      6  C5  UNL d   1      -1.625   2.197   0.148  0.00  0.00     0.039 A 
ENDROOT
BRANCH   4   7
ATOM      7  O   UNL d   1      -0.933   1.813   3.696  0.00  0.00    -0.526 OA
ATOM      8  H5  UNL d   1      -0.370   1.159   4.144  0.00  0.00     0.418 HD
ENDBRANCH   4   7
TORSDOF 1
ENDMDL
