MODEL 1
REMARK minimizedAffinity -4.18774414
REMARK minimizedRMSD -1
REMARK  1 active torsions:
REMARK  status: ('A' for Active; 'I' for Inactive)
REMARK    1  A    between atoms: C3_4  and  O_7 
ROOT
ATOM      1  C   UNL d   1       0.680  -0.613   0.619  0.00  0.00    -0.033 A 
ATOM      2  C1  UNL d   1       0.422   0.422  -0.281  0.00  0.00     0.039 A 
ATOM      3  C2  UNL d   1      -0.499   1.420   0.044  0.00  0.00    -0.080 A 
ATOM      4  C3  UNL d   1      -1.154   1.371   1.272  0.00  0.00     0.150 A 
ATOM      5  C4  UNL d   1      -0.899   0.344   2.175  0.00  0.00    -0.007 A 
ATOM      6  C5  UNL d   1       0.020  -0.651   1.848  0.00  0.00     0.039 A 
ENDROOT
BRANCH   4   7
ATOM      7  O   UNL d   1      -2.065   2.319   1.632  0.00  0.00    -0.526 OA
ATOM      8  H5  UNL d   1      -2.160   2.949   0.898  0.00  0.00     0.418 HD
ENDBRANCH   4   7
TORSDOF 1
ENDMDL
