MODEL 1
REMARK minimizedAffinity -4.37617064
REMARK minimizedRMSD -1
REMARK  1 active torsions:
REMARK  status: ('A' for Active; 'I' for Inactive)
REMARK    1  A    between atoms: C3_4  and  O_7 
ROOT
ATOM      1  C   UNL d   1       0.218   1.439  -1.065  0.00  0.00    -0.033 A 
ATOM      2  C1  UNL d   1      -0.228   0.473  -0.161  0.00  0.00     0.039 A 
ATOM      3  C2  UNL d   1      -1.157   0.811   0.824  0.00  0.00    -0.080 A 
ATOM      4  C3  UNL d   1      -1.634   2.117   0.895  0.00  0.00     0.150 A 
ATOM      5  C4  UNL d   1      -1.197   3.084  -0.005  0.00  0.00    -0.007 A 
ATOM      6  C5  UNL d   1      -0.268   2.745  -0.988  0.00  0.00     0.039 A 
ENDROOT
BRANCH   4   7
ATOM      7  O   UNL d   1      -2.538   2.496   1.842  0.00  0.00    -0.526 OA
ATOM      8  H5  UNL d   1      -2.726   1.731   2.411  0.00  0.00     0.418 HD
ENDBRANCH   4   7
TORSDOF 1
ENDMDL
