MODEL 1
REMARK minimizedAffinity -4.8399229
REMARK minimizedRMSD -1
REMARK  1 active torsions:
REMARK  status: ('A' for Active; 'I' for Inactive)
REMARK    1  A    between atoms: C3_4  and  O_7 
ROOT
ATOM      1  C   UNL d   1       0.744  -0.270  -0.050  0.00  0.00    -0.033 A 
ATOM      2  C1  UNL d   1       0.110  -0.508   1.171  0.00  0.00     0.039 A 
ATOM      3  C2  UNL d   1      -1.024   0.226   1.526  0.00  0.00    -0.080 A 
ATOM      4  C3  UNL d   1      -1.513   1.192   0.651  0.00  0.00     0.150 A 
ATOM      5  C4  UNL d   1      -0.889   1.431  -0.569  0.00  0.00    -0.007 A 
ATOM      6  C5  UNL d   1       0.243   0.698  -0.921  0.00  0.00     0.039 A 
ENDROOT
BRANCH   4   7
ATOM      7  O   UNL d   1      -2.614   1.937   0.956  0.00  0.00    -0.526 OA
ATOM      8  H5  UNL d   1      -2.922   1.683   1.841  0.00  0.00     0.418 HD
ENDBRANCH   4   7
TORSDOF 1
ENDMDL
