MODEL 1
REMARK minimizedAffinity -0.670085728
REMARK minimizedRMSD -1
REMARK  1 active torsions:
REMARK  status: ('A' for Active; 'I' for Inactive)
REMARK    1  A    between atoms: C3_4  and  O_7 
ROOT
ATOM      1  C   UNL d   1      -0.756   2.101  -0.720  0.00  0.00    -0.033 A 
ATOM      2  C1  UNL d   1      -1.222   1.078   0.108  0.00  0.00     0.039 A 
ATOM      3  C2  UNL d   1      -0.506  -0.115   0.217  0.00  0.00    -0.080 A 
ATOM      4  C3  UNL d   1       0.674  -0.272  -0.505  0.00  0.00     0.150 A 
ATOM      5  C4  UNL d   1       1.147   0.744  -1.328  0.00  0.00    -0.007 A 
ATOM      6  C5  UNL d   1       0.430   1.935  -1.437  0.00  0.00     0.039 A 
ENDROOT
BRANCH   4   7
ATOM      7  O   UNL d   1       1.405  -1.421  -0.434  0.00  0.00    -0.526 OA
ATOM      8  H5  UNL d   1       0.942  -2.045   0.150  0.00  0.00     0.418 HD
ENDBRANCH   4   7
TORSDOF 1
ENDMDL
