MODEL 1
REMARK minimizedAffinity -5.20498371
REMARK minimizedRMSD -1
REMARK  1 active torsions:
REMARK  status: ('A' for Active; 'I' for Inactive)
REMARK    1  A    between atoms: C3_4  and  O_7 
ROOT
ATOM      1  C   UNL d   1       0.633  -0.271   0.716  0.00  0.00    -0.033 A 
ATOM      2  C1  UNL d   1       0.176  -0.095   2.023  0.00  0.00     0.039 A 
ATOM      3  C2  UNL d   1      -1.028   0.573   2.260  0.00  0.00    -0.080 A 
ATOM      4  C3  UNL d   1      -1.763   1.058   1.182  0.00  0.00     0.150 A 
ATOM      5  C4  UNL d   1      -1.316   0.882  -0.123  0.00  0.00    -0.007 A 
ATOM      6  C5  UNL d   1      -0.113   0.216  -0.357  0.00  0.00     0.039 A 
ENDROOT
BRANCH   4   7
ATOM      7  O   UNL d   1      -2.941   1.720   1.364  0.00  0.00    -0.526 OA
ATOM      8  H5  UNL d   1      -3.110   1.791   2.318  0.00  0.00     0.418 HD
ENDBRANCH   4   7
TORSDOF 1
ENDMDL
