MODEL 1
REMARK minimizedAffinity -3.70279717
REMARK minimizedRMSD -1
REMARK  1 active torsions:
REMARK  status: ('A' for Active; 'I' for Inactive)
REMARK    1  A    between atoms: C3_4  and  O_7 
ROOT
ATOM      1  C   UNL d   1       0.865   0.475  -1.003  0.00  0.00    -0.033 A 
ATOM      2  C1  UNL d   1       0.274  -0.159   0.091  0.00  0.00     0.039 A 
ATOM      3  C2  UNL d   1      -0.835   0.413   0.716  0.00  0.00    -0.080 A 
ATOM      4  C3  UNL d   1      -1.344   1.617   0.236  0.00  0.00     0.150 A 
ATOM      5  C4  UNL d   1      -0.763   2.252  -0.856  0.00  0.00    -0.007 A 
ATOM      6  C5  UNL d   1       0.346   1.679  -1.478  0.00  0.00     0.039 A 
ENDROOT
BRANCH   4   7
ATOM      7  O   UNL d   1      -2.423   2.216   0.816  0.00  0.00    -0.526 OA
ATOM      8  H5  UNL d   1      -2.701   1.679   1.577  0.00  0.00     0.418 HD
ENDBRANCH   4   7
TORSDOF 1
ENDMDL
