MODEL 1
REMARK minimizedAffinity -5.14366055
REMARK minimizedRMSD -1
REMARK  1 active torsions:
REMARK  status: ('A' for Active; 'I' for Inactive)
REMARK    1  A    between atoms: C3_4  and  O_7 
ROOT
ATOM      1  C   UNL d   1       0.613   0.283   0.026  0.00  0.00    -0.033 A 
ATOM      2  C1  UNL d   1       0.031  -0.063   1.247  0.00  0.00     0.039 A 
ATOM      3  C2  UNL d   1      -1.040   0.680   1.747  0.00  0.00    -0.080 A 
ATOM      4  C3  UNL d   1      -1.521   1.763   1.017  0.00  0.00     0.150 A 
ATOM      5  C4  UNL d   1      -0.949   2.111  -0.203  0.00  0.00    -0.007 A 
ATOM      6  C5  UNL d   1       0.122   1.368  -0.700  0.00  0.00     0.039 A 
ENDROOT
BRANCH   4   7
ATOM      7  O   UNL d   1      -2.561   2.521   1.466  0.00  0.00    -0.526 OA
ATOM      8  H5  UNL d   1      -2.836   2.181   2.334  0.00  0.00     0.418 HD
ENDBRANCH   4   7
TORSDOF 1
ENDMDL
