MODEL 1
REMARK minimizedAffinity -2.52673864
REMARK minimizedRMSD -1
REMARK  1 active torsions:
REMARK  status: ('A' for Active; 'I' for Inactive)
REMARK    1  A    between atoms: C3_4  and  O_7 
ROOT
ATOM      1  C   UNL d   1      -0.277  -0.398   0.496  0.00  0.00    -0.033 A 
ATOM      2  C1  UNL d   1      -0.381  -0.199   1.874  0.00  0.00     0.039 A 
ATOM      3  C2  UNL d   1      -1.054   0.919   2.371  0.00  0.00    -0.080 A 
ATOM      4  C3  UNL d   1      -1.618   1.828   1.480  0.00  0.00     0.150 A 
ATOM      5  C4  UNL d   1      -1.521   1.634   0.106  0.00  0.00    -0.007 A 
ATOM      6  C5  UNL d   1      -0.848   0.518  -0.388  0.00  0.00     0.039 A 
ENDROOT
BRANCH   4   7
ATOM      7  O   UNL d   1      -2.281   2.936   1.918  0.00  0.00    -0.526 OA
ATOM      8  H5  UNL d   1      -2.243   2.954   2.889  0.00  0.00     0.418 HD
ENDBRANCH   4   7
TORSDOF 1
ENDMDL
