MODEL 1
REMARK minimizedAffinity -4.5130806
REMARK minimizedRMSD -1
REMARK  1 active torsions:
REMARK  status: ('A' for Active; 'I' for Inactive)
REMARK    1  A    between atoms: C3_4  and  O_7 
ROOT
ATOM      1  C   UNL d   1      -1.795   1.713   1.521  0.00  0.00    -0.033 A 
ATOM      2  C1  UNL d   1      -1.990   1.503   0.155  0.00  0.00     0.039 A 
ATOM      3  C2  UNL d   1      -1.286   0.494  -0.506  0.00  0.00    -0.080 A 
ATOM      4  C3  UNL d   1      -0.393  -0.298   0.211  0.00  0.00     0.150 A 
ATOM      5  C4  UNL d   1      -0.198  -0.097   1.574  0.00  0.00    -0.007 A 
ATOM      6  C5  UNL d   1      -0.901   0.911   2.231  0.00  0.00     0.039 A 
ENDROOT
BRANCH   4   7
ATOM      7  O   UNL d   1       0.320  -1.292  -0.391  0.00  0.00    -0.526 OA
ATOM      8  H5  UNL d   1       0.103  -1.295  -1.338  0.00  0.00     0.418 HD
ENDBRANCH   4   7
TORSDOF 1
ENDMDL
