MODEL 1
REMARK minimizedAffinity -4.49081373
REMARK minimizedRMSD -1
REMARK  1 active torsions:
REMARK  status: ('A' for Active; 'I' for Inactive)
REMARK    1  A    between atoms: C3_4  and  O_7 
ROOT
ATOM      1  C   UNL d   1       0.451   0.759  -1.083  0.00  0.00    -0.033 A 
ATOM      2  C1  UNL d   1      -0.089  -0.052  -0.083  0.00  0.00     0.039 A 
ATOM      3  C2  UNL d   1      -0.905   0.504   0.904  0.00  0.00    -0.080 A 
ATOM      4  C3  UNL d   1      -1.174   1.869   0.879  0.00  0.00     0.150 A 
ATOM      5  C4  UNL d   1      -0.643   2.682  -0.116  0.00  0.00    -0.007 A 
ATOM      6  C5  UNL d   1       0.173   2.126  -1.101  0.00  0.00     0.039 A 
ENDROOT
BRANCH   4   7
ATOM      7  O   UNL d   1      -1.961   2.458   1.824  0.00  0.00    -0.526 OA
ATOM      8  H5  UNL d   1      -2.234   1.779   2.464  0.00  0.00     0.418 HD
ENDBRANCH   4   7
TORSDOF 1
ENDMDL
