MODEL 1
REMARK minimizedAffinity -4.1406846
REMARK minimizedRMSD -1
REMARK  0 active torsions:
REMARK  status: ('A' for Active; 'I' for Inactive)
ROOT
ATOM      1  C   UNL d   1       0.839  -0.219   1.077  0.00  0.00     0.172 C 
ATOM      2  N   UNL d   1       0.040   0.983   1.089  0.00  0.00    -0.070 N 
ATOM      3  C1  UNL d   1       0.151   2.007   1.992  0.00  0.00    -0.004 A 
ATOM      4  C2  UNL d   1      -0.785   2.963   1.663  0.00  0.00    -0.047 A 
ATOM      5  C3  UNL d   1      -1.483   2.498   0.523  0.00  0.00    -0.047 A 
ATOM      6  C4  UNL d   1      -0.953   1.270   0.189  0.00  0.00    -0.004 A 
ENDROOT
TORSDOF 0
ENDMDL
