MODEL 1
REMARK minimizedAffinity -3.68493652
REMARK minimizedRMSD -1
REMARK  0 active torsions:
REMARK  status: ('A' for Active; 'I' for Inactive)
ROOT
ATOM      1  C   UNL d   1       1.428  -5.647  -0.096  0.00  0.00     0.172 C 
ATOM      2  N   UNL d   1       0.629  -4.624  -0.728  0.00  0.00    -0.070 N 
ATOM      3  C1  UNL d   1      -0.739  -4.569  -0.732  0.00  0.00    -0.004 A 
ATOM      4  C2  UNL d   1      -1.115  -3.446  -1.437  0.00  0.00    -0.047 A 
ATOM      5  C3  UNL d   1       0.069  -2.804  -1.873  0.00  0.00    -0.047 A 
ATOM      6  C4  UNL d   1       1.134  -3.555  -1.420  0.00  0.00    -0.004 A 
ENDROOT
TORSDOF 0
ENDMDL
