MODEL 1
REMARK minimizedAffinity 5.24066877
REMARK minimizedRMSD -1
REMARK  0 active torsions:
REMARK  status: ('A' for Active; 'I' for Inactive)
ROOT
ATOM      1  C   UNL d   1       2.027   3.463   2.821  0.00  0.00     0.172 C 
ATOM      2  N   UNL d   1       0.788   2.843   2.415  0.00  0.00    -0.070 N 
ATOM      3  C1  UNL d   1       0.326   1.628   2.843  0.00  0.00    -0.004 A 
ATOM      4  C2  UNL d   1      -0.885   1.396   2.227  0.00  0.00    -0.047 A 
ATOM      5  C3  UNL d   1      -1.160   2.511   1.400  0.00  0.00    -0.047 A 
ATOM      6  C4  UNL d   1      -0.108   3.392   1.535  0.00  0.00    -0.004 A 
ENDROOT
TORSDOF 0
ENDMDL
