MODEL 1
REMARK minimizedAffinity -3.28673983
REMARK minimizedRMSD -1
REMARK  0 active torsions:
REMARK  status: ('A' for Active; 'I' for Inactive)
ROOT
ATOM      1  C   UNL d   1       0.360  -0.824  -0.604  0.00  0.00     0.172 C 
ATOM      2  N   UNL d   1       0.001   0.124   0.424  0.00  0.00    -0.070 N 
ATOM      3  C1  UNL d   1       0.637   0.277   1.627  0.00  0.00    -0.004 A 
ATOM      4  C2  UNL d   1      -0.006   1.280   2.320  0.00  0.00    -0.047 A 
ATOM      5  C3  UNL d   1      -1.067   1.744   1.506  0.00  0.00    -0.047 A 
ATOM      6  C4  UNL d   1      -1.040   1.011   0.339  0.00  0.00    -0.004 A 
ENDROOT
TORSDOF 0
ENDMDL
