MODEL 1
REMARK minimizedAffinity -3.87928581
REMARK minimizedRMSD -1
REMARK  0 active torsions:
REMARK  status: ('A' for Active; 'I' for Inactive)
ROOT
ATOM      1  C   UNL d   1       0.708  -0.519  -0.798  0.00  0.00     0.172 C 
ATOM      2  N   UNL d   1       0.008   0.401   0.068  0.00  0.00    -0.070 N 
ATOM      3  C1  UNL d   1       0.289   0.625   1.389  0.00  0.00    -0.004 A 
ATOM      4  C2  UNL d   1      -0.599   1.569   1.856  0.00  0.00    -0.047 A 
ATOM      5  C3  UNL d   1      -1.445   1.924   0.778  0.00  0.00    -0.047 A 
ATOM      6  C4  UNL d   1      -1.046   1.186  -0.317  0.00  0.00    -0.004 A 
ENDROOT
TORSDOF 0
ENDMDL
