MODEL 1
REMARK minimizedAffinity -3.34720826
REMARK minimizedRMSD -1
REMARK  0 active torsions:
REMARK  status: ('A' for Active; 'I' for Inactive)
ROOT
ATOM      1  C   UNL d   1       0.475   0.115   1.467  0.00  0.00     0.172 C 
ATOM      2  N   UNL d   1      -0.112   1.397   1.158  0.00  0.00    -0.070 N 
ATOM      3  C1  UNL d   1      -0.425   1.851  -0.095  0.00  0.00    -0.004 A 
ATOM      4  C2  UNL d   1      -0.963   3.113   0.035  0.00  0.00    -0.047 A 
ATOM      5  C3  UNL d   1      -0.972   3.430   1.414  0.00  0.00    -0.047 A 
ATOM      6  C4  UNL d   1      -0.440   2.350   2.087  0.00  0.00    -0.004 A 
ENDROOT
TORSDOF 0
ENDMDL
