MODEL 1
REMARK minimizedAffinity -2.60563087
REMARK minimizedRMSD -1
REMARK  0 active torsions:
REMARK  status: ('A' for Active; 'I' for Inactive)
ROOT
ATOM      1  C   UNL d   1      -1.106   2.015   1.153  0.00  0.00     0.172 C 
ATOM      2  N   UNL d   1      -0.481   0.894   0.492  0.00  0.00    -0.070 N 
ATOM      3  C1  UNL d   1       0.350  -0.020   1.083  0.00  0.00    -0.004 A 
ATOM      4  C2  UNL d   1       0.733  -0.928   0.119  0.00  0.00    -0.047 A 
ATOM      5  C3  UNL d   1       0.111  -0.546  -1.094  0.00  0.00    -0.047 A 
ATOM      6  C4  UNL d   1      -0.635   0.585  -0.834  0.00  0.00    -0.004 A 
ENDROOT
TORSDOF 0
ENDMDL
