MODEL 1
REMARK minimizedAffinity -2.58354497
REMARK minimizedRMSD -1
REMARK  0 active torsions:
REMARK  status: ('A' for Active; 'I' for Inactive)
ROOT
ATOM      1  C   UNL d   1       0.137  -0.602  -1.087  0.00  0.00     0.172 C 
ATOM      2  N   UNL d   1       0.113  -2.026  -1.328  0.00  0.00    -0.070 N 
ATOM      3  C1  UNL d   1       0.045  -2.998  -0.365  0.00  0.00    -0.004 A 
ATOM      4  C2  UNL d   1       0.044  -4.221  -1.000  0.00  0.00    -0.047 A 
ATOM      5  C3  UNL d   1       0.115  -3.976  -2.392  0.00  0.00    -0.047 A 
ATOM      6  C4  UNL d   1       0.157  -2.609  -2.567  0.00  0.00    -0.004 A 
ENDROOT
TORSDOF 0
ENDMDL
