MODEL 1
REMARK minimizedAffinity -3.39215994
REMARK minimizedRMSD -1
REMARK  0 active torsions:
REMARK  status: ('A' for Active; 'I' for Inactive)
ROOT
ATOM      1  C   UNL d   1      -1.253   3.272  -1.094  0.00  0.00     0.172 C 
ATOM      2  N   UNL d   1      -0.887   2.553   0.103  0.00  0.00    -0.070 N 
ATOM      3  C1  UNL d   1      -0.911   1.192   0.256  0.00  0.00    -0.004 A 
ATOM      4  C2  UNL d   1      -0.492   0.904   1.537  0.00  0.00    -0.047 A 
ATOM      5  C3  UNL d   1      -0.208   2.135   2.177  0.00  0.00    -0.047 A 
ATOM      6  C4  UNL d   1      -0.462   3.139   1.266  0.00  0.00    -0.004 A 
ENDROOT
TORSDOF 0
ENDMDL
