MODEL 1
REMARK minimizedAffinity -3.69924951
REMARK minimizedRMSD -1
REMARK  0 active torsions:
REMARK  status: ('A' for Active; 'I' for Inactive)
ROOT
ATOM      1  C   UNL d   1       0.160  -1.268  -0.596  0.00  0.00     0.172 C 
ATOM      2  N   UNL d   1      -0.214  -0.157   0.247  0.00  0.00    -0.070 N 
ATOM      3  C1  UNL d   1      -1.156   0.790  -0.052  0.00  0.00    -0.004 A 
ATOM      4  C2  UNL d   1      -1.217   1.673   1.005  0.00  0.00    -0.047 A 
ATOM      5  C3  UNL d   1      -0.278   1.242   1.972  0.00  0.00    -0.047 A 
ATOM      6  C4  UNL d   1       0.329   0.107   1.477  0.00  0.00    -0.004 A 
ENDROOT
TORSDOF 0
ENDMDL
