MODEL 1
REMARK minimizedAffinity -3.70266938
REMARK minimizedRMSD -1
REMARK  0 active torsions:
REMARK  status: ('A' for Active; 'I' for Inactive)
ROOT
ATOM      1  C   UNL d   1      -0.785   3.229  -1.681  0.00  0.00     0.172 C 
ATOM      2  N   UNL d   1      -0.831   2.646  -0.360  0.00  0.00    -0.070 N 
ATOM      3  C1  UNL d   1      -1.241   3.284   0.780  0.00  0.00    -0.004 A 
ATOM      4  C2  UNL d   1      -1.136   2.391   1.824  0.00  0.00    -0.047 A 
ATOM      5  C3  UNL d   1      -0.645   1.174   1.293  0.00  0.00    -0.047 A 
ATOM      6  C4  UNL d   1      -0.465   1.361  -0.061  0.00  0.00    -0.004 A 
ENDROOT
TORSDOF 0
ENDMDL
