MODEL 1
REMARK minimizedAffinity 12.9945879
REMARK minimizedRMSD -1
REMARK  0 active torsions:
REMARK  status: ('A' for Active; 'I' for Inactive)
ROOT
ATOM      1  C   UNL d   1       1.556   1.824   1.506  0.00  0.00    -0.002 A 
ATOM      2  C1  UNL d   1       2.133   2.385   0.376  0.00  0.00     0.010 A 
ATOM      3  C2  UNL d   1       3.506   2.636   0.329  0.00  0.00     0.041 A 
ATOM      4  C3  UNL d   1       4.297   2.308   1.448  0.00  0.00    -0.075 A 
ATOM      5  S   UNL d   1       5.999   2.525   1.618  0.00  0.00     0.015 SA
ATOM      6  C4  UNL d   1       6.000   1.877   3.194  0.00  0.00     0.022 A 
ATOM      7  C5  UNL d   1       4.741   1.500   3.597  0.00  0.00     0.026 A 
ATOM      8  C6  UNL d   1       3.738   1.742   2.598  0.00  0.00    -0.082 A 
ATOM      9  C7  UNL d   1       2.343   1.500   2.614  0.00  0.00     0.045 A 
ENDROOT
TORSDOF 0
ENDMDL
