MODEL 1
REMARK minimizedAffinity 7.7245841
REMARK minimizedRMSD -1
REMARK  0 active torsions:
REMARK  status: ('A' for Active; 'I' for Inactive)
ROOT
ATOM      1  C   UNL d   1      -1.781   2.642   1.165  0.00  0.00    -0.002 A 
ATOM      2  C1  UNL d   1      -1.776   2.553   2.550  0.00  0.00     0.010 A 
ATOM      3  C2  UNL d   1      -0.580   2.364   3.245  0.00  0.00     0.041 A 
ATOM      4  C3  UNL d   1       0.623   2.267   2.519  0.00  0.00    -0.075 A 
ATOM      5  S   UNL d   1       2.207   2.036   3.158  0.00  0.00     0.015 SA
ATOM      6  C4  UNL d   1       2.916   2.051   1.608  0.00  0.00     0.022 A 
ATOM      7  C5  UNL d   1       1.981   2.227   0.615  0.00  0.00     0.026 A 
ATOM      8  C6  UNL d   1       0.644   2.355   1.124  0.00  0.00    -0.082 A 
ATOM      9  C7  UNL d   1      -0.585   2.545   0.448  0.00  0.00     0.045 A 
ENDROOT
TORSDOF 0
ENDMDL
