MODEL 1
REMARK minimizedAffinity 14.5147095
REMARK minimizedRMSD -1
REMARK  0 active torsions:
REMARK  status: ('A' for Active; 'I' for Inactive)
ROOT
ATOM      1  C   UNL d   1       1.723   2.962   0.680  0.00  0.00    -0.002 A 
ATOM      2  C1  UNL d   1       2.687   2.065   1.119  0.00  0.00     0.010 A 
ATOM      3  C2  UNL d   1       2.344   0.748   1.427  0.00  0.00     0.041 A 
ATOM      4  C3  UNL d   1       1.002   0.342   1.284  0.00  0.00    -0.075 A 
ATOM      5  S   UNL d   1       0.350  -1.222   1.602  0.00  0.00     0.015 SA
ATOM      6  C4  UNL d   1      -1.224  -0.737   1.162  0.00  0.00     0.022 A 
ATOM      7  C5  UNL d   1      -1.269   0.583   0.780  0.00  0.00     0.026 A 
ATOM      8  C6  UNL d   1       0.014   1.226   0.843  0.00  0.00    -0.082 A 
ATOM      9  C7  UNL d   1       0.394   2.556   0.540  0.00  0.00     0.045 A 
ENDROOT
TORSDOF 0
ENDMDL
