MODEL 1
REMARK minimizedAffinity 8.55417728
REMARK minimizedRMSD -1
REMARK  0 active torsions:
REMARK  status: ('A' for Active; 'I' for Inactive)
ROOT
ATOM      1  C   UNL d   1       3.088   1.484   1.051  0.00  0.00    -0.002 A 
ATOM      2  C1  UNL d   1       3.257   1.448   2.428  0.00  0.00     0.010 A 
ATOM      3  C2  UNL d   1       2.185   1.714   3.282  0.00  0.00     0.041 A 
ATOM      4  C3  UNL d   1       0.928   2.018   2.723  0.00  0.00    -0.075 A 
ATOM      5  S   UNL d   1      -0.528   2.377   3.574  0.00  0.00     0.015 SA
ATOM      6  C4  UNL d   1      -1.409   2.585   2.130  0.00  0.00     0.022 A 
ATOM      7  C5  UNL d   1      -0.627   2.390   1.016  0.00  0.00     0.026 A 
ATOM      8  C6  UNL d   1       0.733   2.059   1.340  0.00  0.00    -0.082 A 
ATOM      9  C7  UNL d   1       1.839   1.786   0.500  0.00  0.00     0.045 A 
ENDROOT
TORSDOF 0
ENDMDL
