MODEL 1
REMARK minimizedAffinity 21.4324169
REMARK minimizedRMSD -1
REMARK  0 active torsions:
REMARK  status: ('A' for Active; 'I' for Inactive)
ROOT
ATOM      1  C   UNL d   1       1.766   3.164   0.304  0.00  0.00    -0.002 A 
ATOM      2  C1  UNL d   1       2.271   2.524   1.427  0.00  0.00     0.010 A 
ATOM      3  C2  UNL d   1       1.411   2.023   2.407  0.00  0.00     0.041 A 
ATOM      4  C3  UNL d   1       0.021   2.176   2.236  0.00  0.00    -0.075 A 
ATOM      5  S   UNL d   1      -1.222   1.642   3.304  0.00  0.00     0.015 SA
ATOM      6  C4  UNL d   1      -2.454   2.250   2.295  0.00  0.00     0.022 A 
ATOM      7  C5  UNL d   1      -1.946   2.849   1.166  0.00  0.00     0.026 A 
ATOM      8  C6  UNL d   1      -0.512   2.816   1.113  0.00  0.00    -0.082 A 
ATOM      9  C7  UNL d   1       0.386   3.314   0.138  0.00  0.00     0.045 A 
ENDROOT
TORSDOF 0
ENDMDL
