MODEL 1
REMARK minimizedAffinity 16.4680061
REMARK minimizedRMSD -1
REMARK  0 active torsions:
REMARK  status: ('A' for Active; 'I' for Inactive)
ROOT
ATOM      1  C   UNL d   1       4.792   2.134   4.519  0.00  0.00    -0.002 A 
ATOM      2  C1  UNL d   1       3.833   1.576   5.352  0.00  0.00     0.010 A 
ATOM      3  C2  UNL d   1       2.634   1.087   4.829  0.00  0.00     0.041 A 
ATOM      4  C3  UNL d   1       2.415   1.165   3.440  0.00  0.00    -0.075 A 
ATOM      5  S   UNL d   1       1.023   0.629   2.575  0.00  0.00     0.015 SA
ATOM      6  C4  UNL d   1       1.669   1.126   1.078  0.00  0.00     0.022 A 
ATOM      7  C5  UNL d   1       2.915   1.690   1.216  0.00  0.00     0.026 A 
ATOM      8  C6  UNL d   1       3.366   1.721   2.579  0.00  0.00    -0.082 A 
ATOM      9  C7  UNL d   1       4.570   2.210   3.141  0.00  0.00     0.045 A 
ENDROOT
TORSDOF 0
ENDMDL
