MODEL 1
REMARK minimizedAffinity 11.6491604
REMARK minimizedRMSD -1
REMARK  0 active torsions:
REMARK  status: ('A' for Active; 'I' for Inactive)
ROOT
ATOM      1  C   UNL d   1       1.896   0.966   0.416  0.00  0.00    -0.002 A 
ATOM      2  C1  UNL d   1       3.146   0.865  -0.179  0.00  0.00     0.010 A 
ATOM      3  C2  UNL d   1       4.306   1.099   0.562  0.00  0.00     0.041 A 
ATOM      4  C3  UNL d   1       4.189   1.437   1.924  0.00  0.00    -0.075 A 
ATOM      5  S   UNL d   1       5.472   1.766   3.028  0.00  0.00     0.015 SA
ATOM      6  C4  UNL d   1       4.391   2.048   4.316  0.00  0.00     0.022 A 
ATOM      7  C5  UNL d   1       3.080   1.899   3.931  0.00  0.00     0.026 A 
ATOM      8  C6  UNL d   1       2.942   1.544   2.546  0.00  0.00    -0.082 A 
ATOM      9  C7  UNL d   1       1.784   1.302   1.768  0.00  0.00     0.045 A 
ENDROOT
TORSDOF 0
ENDMDL
