MODEL 1
REMARK minimizedAffinity -4.11531115
REMARK minimizedRMSD -1
REMARK  0 active torsions:
REMARK  status: ('A' for Active; 'I' for Inactive)
ROOT
ATOM      1  C1  BNZ d   1       0.201  -0.165  -0.510  0.00  0.00     0.000 A 
ATOM      2  C2  BNZ d   1       0.233  -1.530  -0.617  0.00  0.00     0.000 A 
ATOM      3  C3  BNZ d   1      -0.380  -2.320   0.315  0.00  0.00     0.000 A 
ATOM      4  C4  BNZ d   1      -0.989  -1.746   1.373  0.00  0.00     0.000 A 
ATOM      5  C5  BNZ d   1      -1.022  -0.372   1.500  0.00  0.00     0.000 A 
ATOM      6  C6  BNZ d   1      -0.437   0.421   0.540  0.00  0.00     0.000 A 
ENDROOT
TORSDOF 0
ENDMDL
