MODEL 1
REMARK minimizedAffinity -4.26178694
REMARK minimizedRMSD -1
REMARK  0 active torsions:
REMARK  status: ('A' for Active; 'I' for Inactive)
ROOT
ATOM      1  C1  BNZ d   1       1.061  -2.239  -0.524  0.00  0.00     0.000 A 
ATOM      2  C2  BNZ d   1       0.708  -0.944  -0.796  0.00  0.00     0.000 A 
ATOM      3  C3  BNZ d   1      -0.215  -0.294  -0.025  0.00  0.00     0.000 A 
ATOM      4  C4  BNZ d   1      -0.812  -0.951   0.989  0.00  0.00     0.000 A 
ATOM      5  C5  BNZ d   1      -0.474  -2.260   1.270  0.00  0.00     0.000 A 
ATOM      6  C6  BNZ d   1       0.484  -2.899   0.517  0.00  0.00     0.000 A 
ENDROOT
TORSDOF 0
ENDMDL
