MODEL 1
REMARK minimizedAffinity -4.56033468
REMARK minimizedRMSD -1
REMARK  0 active torsions:
REMARK  status: ('A' for Active; 'I' for Inactive)
ROOT
ATOM      1  C1  BNZ d   1      -0.024  -2.650   0.135  0.00  0.00     0.000 A 
ATOM      2  C2  BNZ d   1       0.722  -1.748  -0.576  0.00  0.00     0.000 A 
ATOM      3  C3  BNZ d   1       0.719  -0.422  -0.246  0.00  0.00     0.000 A 
ATOM      4  C4  BNZ d   1      -0.061   0.007   0.768  0.00  0.00     0.000 A 
ATOM      5  C5  BNZ d   1      -0.826  -0.888   1.488  0.00  0.00     0.000 A 
ATOM      6  C6  BNZ d   1      -0.790  -2.228   1.178  0.00  0.00     0.000 A 
ENDROOT
TORSDOF 0
ENDMDL
