MODEL 1
REMARK minimizedAffinity -4.68104696
REMARK minimizedRMSD -1
REMARK  0 active torsions:
REMARK  status: ('A' for Active; 'I' for Inactive)
ROOT
ATOM      1  C1  BNZ d   1      -1.090  -0.495   1.048  0.00  0.00     0.000 A 
ATOM      2  C2  BNZ d   1      -0.942  -1.848   1.197  0.00  0.00     0.000 A 
ATOM      3  C3  BNZ d   1      -0.063  -2.546   0.417  0.00  0.00     0.000 A 
ATOM      4  C4  BNZ d   1       0.637  -1.897  -0.536  0.00  0.00     0.000 A 
ATOM      5  C5  BNZ d   1       0.492  -0.534  -0.704  0.00  0.00     0.000 A 
ATOM      6  C6  BNZ d   1      -0.365   0.171   0.109  0.00  0.00     0.000 A 
ENDROOT
TORSDOF 0
ENDMDL
