MODEL 1
REMARK minimizedAffinity -4.45180082
REMARK minimizedRMSD -1
REMARK  0 active torsions:
REMARK  status: ('A' for Active; 'I' for Inactive)
ROOT
ATOM      1  C1  BNZ d   1      -0.975   0.342   0.921  0.00  0.00     0.000 A 
ATOM      2  C2  BNZ d   1      -0.626  -0.982   0.906  0.00  0.00     0.000 A 
ATOM      3  C3  BNZ d   1       0.159  -1.487  -0.093  0.00  0.00     0.000 A 
ATOM      4  C4  BNZ d   1       0.559  -0.679  -1.095  0.00  0.00     0.000 A 
ATOM      5  C5  BNZ d   1       0.207   0.656  -1.099  0.00  0.00     0.000 A 
ATOM      6  C6  BNZ d   1      -0.550   1.171  -0.071  0.00  0.00     0.000 A 
ENDROOT
TORSDOF 0
ENDMDL
