MODEL 1
REMARK minimizedAffinity -3.54178309
REMARK minimizedRMSD -1
REMARK  0 active torsions:
REMARK  status: ('A' for Active; 'I' for Inactive)
ROOT
ATOM      1  C1  BNZ d   1       0.586  -1.619  -1.927  0.00  0.00     0.000 A 
ATOM      2  C2  BNZ d   1       0.456  -2.386  -0.800  0.00  0.00     0.000 A 
ATOM      3  C3  BNZ d   1       0.053  -1.830   0.382  0.00  0.00     0.000 A 
ATOM      4  C4  BNZ d   1      -0.179  -0.503   0.446  0.00  0.00     0.000 A 
ATOM      5  C5  BNZ d   1      -0.043   0.285  -0.679  0.00  0.00     0.000 A 
ATOM      6  C6  BNZ d   1       0.325  -0.285  -1.877  0.00  0.00     0.000 A 
ENDROOT
TORSDOF 0
ENDMDL
