MODEL 1
REMARK minimizedAffinity -4.99282503
REMARK minimizedRMSD -1
REMARK  0 active torsions:
REMARK  status: ('A' for Active; 'I' for Inactive)
ROOT
ATOM      1  C1  BNZ d   1      -0.576  -1.104   1.727  0.00  0.00     0.000 A 
ATOM      2  C2  BNZ d   1      -0.207  -0.099   0.873  0.00  0.00     0.000 A 
ATOM      3  C3  BNZ d   1       0.265  -0.381  -0.378  0.00  0.00     0.000 A 
ATOM      4  C4  BNZ d   1       0.405  -1.667  -0.759  0.00  0.00     0.000 A 
ATOM      5  C5  BNZ d   1       0.046  -2.692   0.093  0.00  0.00     0.000 A 
ATOM      6  C6  BNZ d   1      -0.466  -2.403   1.338  0.00  0.00     0.000 A 
ENDROOT
TORSDOF 0
ENDMDL
