MODEL 1
REMARK minimizedAffinity -5.09949732
REMARK minimizedRMSD -1
REMARK  0 active torsions:
REMARK  status: ('A' for Active; 'I' for Inactive)
ROOT
ATOM      1  C1  BNZ d   1       0.344  -2.065  -0.609  0.00  0.00     0.000 A 
ATOM      2  C2  BNZ d   1       0.388  -0.698  -0.671  0.00  0.00     0.000 A 
ATOM      3  C3  BNZ d   1      -0.300   0.066   0.229  0.00  0.00     0.000 A 
ATOM      4  C4  BNZ d   1      -1.063  -0.536   1.164  0.00  0.00     0.000 A 
ATOM      5  C5  BNZ d   1      -1.125  -1.914   1.234  0.00  0.00     0.000 A 
ATOM      6  C6  BNZ d   1      -0.400  -2.680   0.350  0.00  0.00     0.000 A 
ENDROOT
TORSDOF 0
ENDMDL
