MODEL 1
REMARK minimizedAffinity -4.55954599
REMARK minimizedRMSD -1
REMARK  0 active torsions:
REMARK  status: ('A' for Active; 'I' for Inactive)
ROOT
ATOM      1  C1  BNZ d   1      -0.301  -3.469  -0.380  0.00  0.00     0.000 A 
ATOM      2  C2  BNZ d   1       0.286  -3.026  -1.535  0.00  0.00     0.000 A 
ATOM      3  C3  BNZ d   1       0.653  -1.717  -1.676  0.00  0.00     0.000 A 
ATOM      4  C4  BNZ d   1       0.396  -0.845  -0.680  0.00  0.00     0.000 A 
ATOM      5  C5  BNZ d   1      -0.204  -1.274   0.487  0.00  0.00     0.000 A 
ATOM      6  C6  BNZ d   1      -0.536  -2.601   0.641  0.00  0.00     0.000 A 
ENDROOT
TORSDOF 0
ENDMDL
