MODEL 1
REMARK minimizedAffinity -4.63352633
REMARK minimizedRMSD -1
REMARK  0 active torsions:
REMARK  status: ('A' for Active; 'I' for Inactive)
ROOT
ATOM      1  C1  BNZ d   1       0.638  -2.951  -1.908  0.00  0.00     0.000 A 
ATOM      2  C2  BNZ d   1       0.675  -1.583  -1.862  0.00  0.00     0.000 A 
ATOM      3  C3  BNZ d   1       0.286  -0.910  -0.738  0.00  0.00     0.000 A 
ATOM      4  C4  BNZ d   1      -0.177  -1.602   0.323  0.00  0.00     0.000 A 
ATOM      5  C5  BNZ d   1      -0.230  -2.982   0.288  0.00  0.00     0.000 A 
ATOM      6  C6  BNZ d   1       0.199  -3.658  -0.831  0.00  0.00     0.000 A 
ENDROOT
TORSDOF 0
ENDMDL
