MODEL 1
REMARK minimizedAffinity -4.24542618
REMARK minimizedRMSD -1
REMARK  0 active torsions:
REMARK  status: ('A' for Active; 'I' for Inactive)
ROOT
ATOM      1  C1  BNZ d   1      -1.190  -0.586   1.078  0.00  0.00     0.000 A 
ATOM      2  C2  BNZ d   1      -1.290  -1.946   1.206  0.00  0.00     0.000 A 
ATOM      3  C3  BNZ d   1      -0.473  -2.779   0.495  0.00  0.00     0.000 A 
ATOM      4  C4  BNZ d   1       0.416  -2.253  -0.373  0.00  0.00     0.000 A 
ATOM      5  C5  BNZ d   1       0.523  -0.884  -0.521  0.00  0.00     0.000 A 
ATOM      6  C6  BNZ d   1      -0.275  -0.048   0.226  0.00  0.00     0.000 A 
ENDROOT
TORSDOF 0
ENDMDL
