MODEL 1
REMARK minimizedAffinity -2.87675738
REMARK minimizedRMSD -1
REMARK  0 active torsions:
REMARK  status: ('A' for Active; 'I' for Inactive)
ROOT
ATOM      1  C1  BNZ d   1       1.113  -2.150   0.509  0.00  0.00     0.000 A 
ATOM      2  C2  BNZ d   1       0.866  -0.803   0.481  0.00  0.00     0.000 A 
ATOM      3  C3  BNZ d   1      -0.396  -0.318   0.682  0.00  0.00     0.000 A 
ATOM      4  C4  BNZ d   1      -1.415  -1.181   0.870  0.00  0.00     0.000 A 
ATOM      5  C5  BNZ d   1      -1.185  -2.542   0.891  0.00  0.00     0.000 A 
ATOM      6  C6  BNZ d   1       0.094  -3.025   0.728  0.00  0.00     0.000 A 
ENDROOT
TORSDOF 0
ENDMDL
