MODEL 1
REMARK minimizedAffinity -1.65760958
REMARK minimizedRMSD -1
REMARK  0 active torsions:
REMARK  status: ('A' for Active; 'I' for Inactive)
ROOT
ATOM      1  C1  BNZ d   1      -0.639   1.002  -0.078  0.00  0.00     0.000 A 
ATOM      2  C2  BNZ d   1      -1.251   0.503   1.041  0.00  0.00     0.000 A 
ATOM      3  C3  BNZ d   1      -1.221  -0.835   1.317  0.00  0.00     0.000 A 
ATOM      4  C4  BNZ d   1      -0.616  -1.677   0.454  0.00  0.00     0.000 A 
ATOM      5  C5  BNZ d   1      -0.002  -1.191  -0.683  0.00  0.00     0.000 A 
ATOM      6  C6  BNZ d   1      -0.001   0.162  -0.938  0.00  0.00     0.000 A 
ENDROOT
TORSDOF 0
ENDMDL
