MODEL 1
REMARK minimizedAffinity -5.01235867
REMARK minimizedRMSD -1
REMARK  0 active torsions:
REMARK  status: ('A' for Active; 'I' for Inactive)
ROOT
ATOM      1  C1  BNZ d   1       0.699  -2.141  -1.139  0.00  0.00     0.000 A 
ATOM      2  C2  BNZ d   1       0.688  -0.782  -0.967  0.00  0.00     0.000 A 
ATOM      3  C3  BNZ d   1       0.148  -0.223   0.158  0.00  0.00     0.000 A 
ATOM      4  C4  BNZ d   1      -0.415  -1.020   1.089  0.00  0.00     0.000 A 
ATOM      5  C5  BNZ d   1      -0.420  -2.391   0.926  0.00  0.00     0.000 A 
ATOM      6  C6  BNZ d   1       0.159  -2.952  -0.189  0.00  0.00     0.000 A 
ENDROOT
TORSDOF 0
ENDMDL
