MODEL 1
REMARK minimizedAffinity -4.8887105
REMARK minimizedRMSD -1
REMARK  0 active torsions:
REMARK  status: ('A' for Active; 'I' for Inactive)
ROOT
ATOM      1  C1  BNZ d   1      -1.377  -0.948   1.323  0.00  0.00     0.000 A 
ATOM      2  C2  BNZ d   1      -1.705  -2.242   1.016  0.00  0.00     0.000 A 
ATOM      3  C3  BNZ d   1      -0.785  -3.083   0.456  0.00  0.00     0.000 A 
ATOM      4  C4  BNZ d   1       0.448  -2.620   0.168  0.00  0.00     0.000 A 
ATOM      5  C5  BNZ d   1       0.791  -1.315   0.463  0.00  0.00     0.000 A 
ATOM      6  C6  BNZ d   1      -0.126  -0.482   1.062  0.00  0.00     0.000 A 
ENDROOT
TORSDOF 0
ENDMDL
