MODEL 1
REMARK minimizedAffinity -2.91641736
REMARK minimizedRMSD -1
REMARK  0 active torsions:
REMARK  status: ('A' for Active; 'I' for Inactive)
ROOT
ATOM      1  C4' PXY d   1      -0.038   0.340  -0.610  0.00  0.00     0.077 C 
ATOM      2  C1' PXY d   1      -2.626  -0.498   4.490  0.00  0.00     0.077 C 
ATOM      3  C1  PXY d   1      -1.958  -0.282   3.146  0.00  0.00    -0.082 A 
ATOM      4  C2  PXY d   1      -0.640  -0.355   3.051  0.00  0.00     0.003 A 
ATOM      5  C3  PXY d   1      -0.018  -0.131   1.850  0.00  0.00     0.003 A 
ATOM      6  C4  PXY d   1      -0.755   0.119   0.724  0.00  0.00    -0.082 A 
ATOM      7  C5  PXY d   1      -2.101   0.185   0.811  0.00  0.00     0.003 A 
ATOM      8  C6  PXY d   1      -2.711  -0.005   2.047  0.00  0.00     0.003 A 
ENDROOT
TORSDOF 0
ENDMDL
