MODEL 1
REMARK minimizedAffinity 7.96516323
REMARK minimizedRMSD -1
REMARK  0 active torsions:
REMARK  status: ('A' for Active; 'I' for Inactive)
ROOT
ATOM      1  C4' PXY d   1      -1.016  -1.243   4.314  0.00  0.00     0.077 C 
ATOM      2  C1' PXY d   1      -1.337   0.446  -1.204  0.00  0.00     0.077 C 
ATOM      3  C1  PXY d   1      -1.240   0.008   0.244  0.00  0.00    -0.082 A 
ATOM      4  C2  PXY d   1      -2.020  -0.966   0.685  0.00  0.00     0.003 A 
ATOM      5  C3  PXY d   1      -1.968  -1.353   2.000  0.00  0.00     0.003 A 
ATOM      6  C4  PXY d   1      -1.072  -0.774   2.858  0.00  0.00    -0.082 A 
ATOM      7  C5  PXY d   1      -0.266   0.213   2.412  0.00  0.00     0.003 A 
ATOM      8  C6  PXY d   1      -0.363   0.619   1.085  0.00  0.00     0.003 A 
ENDROOT
TORSDOF 0
ENDMDL
