MODEL 1
REMARK minimizedAffinity -1.35337913
REMARK minimizedRMSD -1
REMARK  0 active torsions:
REMARK  status: ('A' for Active; 'I' for Inactive)
ROOT
ATOM      1  C4' PXY d   1      -1.566  -0.994   3.867  0.00  0.00     0.077 C 
ATOM      2  C1' PXY d   1       0.743   1.426  -0.847  0.00  0.00     0.077 C 
ATOM      3  C1  PXY d   1       0.150   0.788   0.393  0.00  0.00    -0.082 A 
ATOM      4  C2  PXY d   1      -1.088   0.323   0.361  0.00  0.00     0.003 A 
ATOM      5  C3  PXY d   1      -1.652  -0.228   1.483  0.00  0.00     0.003 A 
ATOM      6  C4  PXY d   1      -0.923  -0.351   2.635  0.00  0.00    -0.082 A 
ATOM      7  C5  PXY d   1       0.345   0.112   2.673  0.00  0.00     0.003 A 
ATOM      8  C6  PXY d   1       0.884   0.705   1.536  0.00  0.00     0.003 A 
ENDROOT
TORSDOF 0
ENDMDL
