MODEL 1
REMARK minimizedAffinity 0.642305493
REMARK minimizedRMSD -1
REMARK  0 active torsions:
REMARK  status: ('A' for Active; 'I' for Inactive)
ROOT
ATOM      1  C4' PXY d   1      -3.306  -0.242   1.310  0.00  0.00     0.077 C 
ATOM      2  C1' PXY d   1       2.159  -0.419   3.187  0.00  0.00     0.077 C 
ATOM      3  C1  PXY d   1       0.724  -0.385   2.698  0.00  0.00    -0.082 A 
ATOM      4  C2  PXY d   1       0.350   0.543   1.832  0.00  0.00     0.003 A 
ATOM      5  C3  PXY d   1      -0.951   0.607   1.403  0.00  0.00     0.003 A 
ATOM      6  C4  PXY d   1      -1.866  -0.320   1.825  0.00  0.00    -0.082 A 
ATOM      7  C5  PXY d   1      -1.489  -1.276   2.700  0.00  0.00     0.003 A 
ATOM      8  C6  PXY d   1      -0.174  -1.300   3.154  0.00  0.00     0.003 A 
ENDROOT
TORSDOF 0
ENDMDL
