MODEL 1
REMARK minimizedAffinity -3.39577341
REMARK minimizedRMSD -1
REMARK  0 active torsions:
REMARK  status: ('A' for Active; 'I' for Inactive)
ROOT
ATOM      1  C4' PXY d   1       5.999  -0.725   2.545  0.00  0.00     0.077 C 
ATOM      2  C1' PXY d   1       5.758  -5.427   5.899  0.00  0.00     0.077 C 
ATOM      3  C1  PXY d   1       5.825  -4.201   5.009  0.00  0.00    -0.082 A 
ATOM      4  C2  PXY d   1       5.960  -3.003   5.555  0.00  0.00     0.003 A 
ATOM      5  C3  PXY d   1       5.990  -1.882   4.768  0.00  0.00     0.003 A 
ATOM      6  C4  PXY d   1       5.936  -1.991   3.404  0.00  0.00    -0.082 A 
ATOM      7  C5  PXY d   1       5.810  -3.210   2.839  0.00  0.00     0.003 A 
ATOM      8  C6  PXY d   1       5.739  -4.333   3.658  0.00  0.00     0.003 A 
ENDROOT
TORSDOF 0
ENDMDL
