MODEL 1
REMARK minimizedAffinity 2.00079322
REMARK minimizedRMSD -1
REMARK  0 active torsions:
REMARK  status: ('A' for Active; 'I' for Inactive)
ROOT
ATOM      1  C4' PXY d   1      -1.156  -0.860   4.120  0.00  0.00     0.077 C 
ATOM      2  C1' PXY d   1      -1.338   0.914  -1.379  0.00  0.00     0.077 C 
ATOM      3  C1  PXY d   1      -1.278   0.452   0.064  0.00  0.00    -0.082 A 
ATOM      4  C2  PXY d   1      -2.113  -0.482   0.487  0.00  0.00     0.003 A 
ATOM      5  C3  PXY d   1      -2.094  -0.888   1.797  0.00  0.00     0.003 A 
ATOM      6  C4  PXY d   1      -1.175  -0.371   2.669  0.00  0.00    -0.082 A 
ATOM      7  C5  PXY d   1      -0.312   0.576   2.243  0.00  0.00     0.003 A 
ATOM      8  C6  PXY d   1      -0.375   1.004   0.920  0.00  0.00     0.003 A 
ENDROOT
TORSDOF 0
ENDMDL
