MODEL 1
REMARK minimizedAffinity 8.87227821
REMARK minimizedRMSD -1
REMARK  0 active torsions:
REMARK  status: ('A' for Active; 'I' for Inactive)
ROOT
ATOM      1  C4' PXY d   1      -2.051   0.643   0.788  0.00  0.00     0.077 C 
ATOM      2  C1' PXY d   1       3.369  -0.437   2.484  0.00  0.00     0.077 C 
ATOM      3  C1  PXY d   1       1.943  -0.164   2.046  0.00  0.00    -0.082 A 
ATOM      4  C2  PXY d   1       1.720   0.533   0.944  0.00  0.00     0.003 A 
ATOM      5  C3  PXY d   1       0.437   0.816   0.550  0.00  0.00     0.003 A 
ATOM      6  C4  PXY d   1      -0.628   0.336   1.263  0.00  0.00    -0.082 A 
ATOM      7  C5  PXY d   1      -0.409  -0.386   2.383  0.00  0.00     0.003 A 
ATOM      8  C6  PXY d   1       0.901  -0.627   2.788  0.00  0.00     0.003 A 
ENDROOT
TORSDOF 0
ENDMDL
