MODEL 1
REMARK minimizedAffinity 10.0726624
REMARK minimizedRMSD -1
REMARK  0 active torsions:
REMARK  status: ('A' for Active; 'I' for Inactive)
ROOT
ATOM      1  C4' PXY d   1      -2.299   0.543  -1.100  0.00  0.00     0.077 C 
ATOM      2  C1' PXY d   1       0.708   0.612   3.837  0.00  0.00     0.077 C 
ATOM      3  C1  PXY d   1      -0.086   0.582   2.546  0.00  0.00    -0.082 A 
ATOM      4  C2  PXY d   1       0.321   1.300   1.511  0.00  0.00     0.003 A 
ATOM      5  C3  PXY d   1      -0.402   1.310   0.346  0.00  0.00     0.003 A 
ATOM      6  C4  PXY d   1      -1.524   0.536   0.221  0.00  0.00    -0.082 A 
ATOM      7  C5  PXY d   1      -1.940  -0.207   1.268  0.00  0.00     0.003 A 
ATOM      8  C6  PXY d   1      -1.215  -0.172   2.456  0.00  0.00     0.003 A 
ENDROOT
TORSDOF 0
ENDMDL
