MODEL 1
REMARK minimizedAffinity 8.26465225
REMARK minimizedRMSD -1
REMARK  0 active torsions:
REMARK  status: ('A' for Active; 'I' for Inactive)
ROOT
ATOM      1  C4' PXY d   1      -3.069  -1.864   0.973  0.00  0.00     0.077 C 
ATOM      2  C1' PXY d   1       1.198   1.042   3.573  0.00  0.00     0.077 C 
ATOM      3  C1  PXY d   1       0.083   0.269   2.897  0.00  0.00    -0.082 A 
ATOM      4  C2  PXY d   1      -0.414   0.705   1.751  0.00  0.00     0.003 A 
ATOM      5  C3  PXY d   1      -1.444   0.036   1.143  0.00  0.00     0.003 A 
ATOM      6  C4  PXY d   1      -1.936  -1.121   1.686  0.00  0.00    -0.082 A 
ATOM      7  C5  PXY d   1      -1.427  -1.578   2.850  0.00  0.00     0.003 A 
ATOM      8  C6  PXY d   1      -0.409  -0.862   3.473  0.00  0.00     0.003 A 
ENDROOT
TORSDOF 0
ENDMDL
