MODEL 1
REMARK minimizedAffinity 8.15127754
REMARK minimizedRMSD -1
REMARK  0 active torsions:
REMARK  status: ('A' for Active; 'I' for Inactive)
ROOT
ATOM      1  C4' PXY d   1      -1.854  -0.890  -2.276  0.00  0.00     0.077 C 
ATOM      2  C1' PXY d   1      -2.937   1.157   3.021  0.00  0.00     0.077 C 
ATOM      3  C1  PXY d   1      -2.641   0.626   1.632  0.00  0.00    -0.082 A 
ATOM      4  C2  PXY d   1      -3.642   0.299   0.830  0.00  0.00     0.003 A 
ATOM      5  C3  PXY d   1      -3.392  -0.213  -0.417  0.00  0.00     0.003 A 
ATOM      6  C4  PXY d   1      -2.106  -0.341  -0.869  0.00  0.00    -0.082 A 
ATOM      7  C5  PXY d   1      -1.080   0.001  -0.061  0.00  0.00     0.003 A 
ATOM      8  C6  PXY d   1      -1.354   0.479   1.217  0.00  0.00     0.003 A 
ENDROOT
TORSDOF 0
ENDMDL
