MODEL 1
REMARK minimizedAffinity 17.1170673
REMARK minimizedRMSD -1
REMARK  0 active torsions:
REMARK  status: ('A' for Active; 'I' for Inactive)
ROOT
ATOM      1  C4' PXY d   1       5.424   3.568  -4.742  0.00  0.00     0.077 C 
ATOM      2  C1' PXY d   1      -0.257   4.581  -5.088  0.00  0.00     0.077 C 
ATOM      3  C1  PXY d   1       1.231   4.304  -5.002  0.00  0.00    -0.082 A 
ATOM      4  C2  PXY d   1       1.980   5.003  -4.165  0.00  0.00     0.003 A 
ATOM      5  C3  PXY d   1       3.332   4.787  -4.097  0.00  0.00     0.003 A 
ATOM      6  C4  PXY d   1       3.916   3.808  -4.856  0.00  0.00    -0.082 A 
ATOM      7  C5  PXY d   1       3.157   3.083  -5.705  0.00  0.00     0.003 A 
ATOM      8  C6  PXY d   1       1.793   3.346  -5.789  0.00  0.00     0.003 A 
ENDROOT
TORSDOF 0
ENDMDL
