MODEL 1
REMARK minimizedAffinity -0.0140751367
REMARK minimizedRMSD -1
REMARK  0 active torsions:
REMARK  status: ('A' for Active; 'I' for Inactive)
ROOT
ATOM      1  C4' PXY d   1       6.000   3.784  -5.233  0.00  0.00     0.077 C 
ATOM      2  C1' PXY d   1       1.781   3.491  -1.293  0.00  0.00     0.077 C 
ATOM      3  C1  PXY d   1       2.879   3.574  -2.334  0.00  0.00    -0.082 A 
ATOM      4  C2  PXY d   1       3.866   2.694  -2.315  0.00  0.00     0.003 A 
ATOM      5  C3  PXY d   1       4.885   2.774  -3.230  0.00  0.00     0.003 A 
ATOM      6  C4  PXY d   1       4.865   3.733  -4.207  0.00  0.00    -0.082 A 
ATOM      7  C5  PXY d   1       3.855   4.628  -4.240  0.00  0.00     0.003 A 
ATOM      8  C6  PXY d   1       2.852   4.555  -3.277  0.00  0.00     0.003 A 
ENDROOT
TORSDOF 0
ENDMDL
