MODEL 1
REMARK minimizedAffinity 4.1760025
REMARK minimizedRMSD -1
REMARK  0 active torsions:
REMARK  status: ('A' for Active; 'I' for Inactive)
ROOT
ATOM      1  C4' PXY d   1      -2.593   3.099   4.248  0.00  0.00     0.077 C 
ATOM      2  C1' PXY d   1      -0.061  -2.079   3.813  0.00  0.00     0.077 C 
ATOM      3  C1  PXY d   1      -0.713  -0.715   3.928  0.00  0.00    -0.082 A 
ATOM      4  C2  PXY d   1      -1.956  -0.620   4.373  0.00  0.00     0.003 A 
ATOM      5  C3  PXY d   1      -2.572   0.603   4.453  0.00  0.00     0.003 A 
ATOM      6  C4  PXY d   1      -1.891   1.744   4.124  0.00  0.00    -0.082 A 
ATOM      7  C5  PXY d   1      -0.620   1.656   3.679  0.00  0.00     0.003 A 
ATOM      8  C6  PXY d   1      -0.027   0.402   3.566  0.00  0.00     0.003 A 
ENDROOT
TORSDOF 0
ENDMDL
