MODEL 1
REMARK minimizedAffinity 3.72728086
REMARK minimizedRMSD -1
REMARK  0 active torsions:
REMARK  status: ('A' for Active; 'I' for Inactive)
ROOT
ATOM      1  C4' PXY d   1      -1.684  -0.202   2.817  0.00  0.00     0.077 C 
ATOM      2  C1' PXY d   1      -2.176  -1.322  -2.833  0.00  0.00     0.077 C 
ATOM      3  C1  PXY d   1      -2.055  -1.018  -1.353  0.00  0.00    -0.082 A 
ATOM      4  C2  PXY d   1      -0.997  -1.443  -0.682  0.00  0.00     0.003 A 
ATOM      5  C3  PXY d   1      -0.886  -1.205   0.664  0.00  0.00     0.003 A 
ATOM      6  C4  PXY d   1      -1.843  -0.477   1.319  0.00  0.00    -0.082 A 
ATOM      7  C5  PXY d   1      -2.921  -0.030   0.640  0.00  0.00     0.003 A 
ATOM      8  C6  PXY d   1      -3.034  -0.319  -0.717  0.00  0.00     0.003 A 
ENDROOT
TORSDOF 0
ENDMDL
