MODEL 1
REMARK minimizedAffinity 2.92833185
REMARK minimizedRMSD -1
REMARK  0 active torsions:
REMARK  status: ('A' for Active; 'I' for Inactive)
ROOT
ATOM      1  C4' PXY d   1      -0.809   0.194  -0.512  0.00  0.00     0.077 C 
ATOM      2  C1' PXY d   1      -2.119  -1.231   4.935  0.00  0.00     0.077 C 
ATOM      3  C1  PXY d   1      -1.764  -0.853   3.510  0.00  0.00    -0.082 A 
ATOM      4  C2  PXY d   1      -2.729  -0.617   2.636  0.00  0.00     0.003 A 
ATOM      5  C3  PXY d   1      -2.425  -0.306   1.335  0.00  0.00     0.003 A 
ATOM      6  C4  PXY d   1      -1.121  -0.181   0.939  0.00  0.00    -0.082 A 
ATOM      7  C5  PXY d   1      -0.131  -0.409   1.828  0.00  0.00     0.003 A 
ATOM      8  C6  PXY d   1      -0.460  -0.765   3.133  0.00  0.00     0.003 A 
ENDROOT
TORSDOF 0
ENDMDL
