MODEL 1
REMARK minimizedAffinity 9.60715294
REMARK minimizedRMSD -1
REMARK  0 active torsions:
REMARK  status: ('A' for Active; 'I' for Inactive)
ROOT
ATOM      1  C4' PXY d   1      -1.003   1.965   2.921  0.00  0.00     0.077 C 
ATOM      2  C1' PXY d   1       0.240  -3.675   3.187  0.00  0.00     0.077 C 
ATOM      3  C1  PXY d   1      -0.097  -2.198   3.111  0.00  0.00    -0.082 A 
ATOM      4  C2  PXY d   1       0.865  -1.300   3.249  0.00  0.00     0.003 A 
ATOM      5  C3  PXY d   1       0.573   0.039   3.214  0.00  0.00     0.003 A 
ATOM      6  C4  PXY d   1      -0.708   0.463   2.982  0.00  0.00    -0.082 A 
ATOM      7  C5  PXY d   1      -1.693  -0.447   2.830  0.00  0.00     0.003 A 
ATOM      8  C6  PXY d   1      -1.383  -1.801   2.909  0.00  0.00     0.003 A 
ENDROOT
TORSDOF 0
ENDMDL
