MODEL 1
REMARK minimizedAffinity 8.82362843
REMARK minimizedRMSD -1
REMARK  0 active torsions:
REMARK  status: ('A' for Active; 'I' for Inactive)
ROOT
ATOM      1  C4' PXY d   1      -1.840  -1.242   4.554  0.00  0.00     0.077 C 
ATOM      2  C1' PXY d   1      -1.088   0.499  -0.907  0.00  0.00     0.077 C 
ATOM      3  C1  PXY d   1      -1.273   0.046   0.528  0.00  0.00    -0.082 A 
ATOM      4  C2  PXY d   1      -2.213  -0.838   0.818  0.00  0.00     0.003 A 
ATOM      5  C3  PXY d   1      -2.415  -1.235   2.115  0.00  0.00     0.003 A 
ATOM      6  C4  PXY d   1      -1.612  -0.762   3.118  0.00  0.00    -0.082 A 
ATOM      7  C5  PXY d   1      -0.643   0.132   2.828  0.00  0.00     0.003 A 
ATOM      8  C6  PXY d   1      -0.481   0.553   1.511  0.00  0.00     0.003 A 
ENDROOT
TORSDOF 0
ENDMDL
