MODEL 1
REMARK minimizedAffinity 3.95846772
REMARK minimizedRMSD -1
REMARK  0 active torsions:
REMARK  status: ('A' for Active; 'I' for Inactive)
ROOT
ATOM      1  C4' PXY d   1      -0.943   0.542  -1.000  0.00  0.00     0.077 C 
ATOM      2  C1' PXY d   1      -1.774  -1.432   4.369  0.00  0.00     0.077 C 
ATOM      3  C1  PXY d   1      -1.549  -0.905   2.965  0.00  0.00    -0.082 A 
ATOM      4  C2  PXY d   1      -2.384  -1.244   1.997  0.00  0.00     0.003 A 
ATOM      5  C3  PXY d   1      -2.178  -0.802   0.716  0.00  0.00     0.003 A 
ATOM      6  C4  PXY d   1      -1.136   0.040   0.433  0.00  0.00    -0.082 A 
ATOM      7  C5  PXY d   1      -0.286   0.400   1.418  0.00  0.00     0.003 A 
ATOM      8  C6  PXY d   1      -0.489  -0.093   2.703  0.00  0.00     0.003 A 
ENDROOT
TORSDOF 0
ENDMDL
