MODEL 1
REMARK minimizedAffinity 6.84587002
REMARK minimizedRMSD -1
REMARK  0 active torsions:
REMARK  status: ('A' for Active; 'I' for Inactive)
ROOT
ATOM      1  C4' PXY d   1      -2.723   1.272   1.887  0.00  0.00     0.077 C 
ATOM      2  C1' PXY d   1       2.852  -0.075   1.172  0.00  0.00     0.077 C 
ATOM      3  C1  PXY d   1       1.390   0.272   1.371  0.00  0.00    -0.082 A 
ATOM      4  C2  PXY d   1       0.626   0.513   0.318  0.00  0.00     0.003 A 
ATOM      5  C3  PXY d   1      -0.691   0.859   0.481  0.00  0.00     0.003 A 
ATOM      6  C4  PXY d   1      -1.244   0.909   1.733  0.00  0.00    -0.082 A 
ATOM      7  C5  PXY d   1      -0.473   0.654   2.812  0.00  0.00     0.003 A 
ATOM      8  C6  PXY d   1       0.871   0.344   2.627  0.00  0.00     0.003 A 
ENDROOT
TORSDOF 0
ENDMDL
