MODEL 1
REMARK minimizedAffinity 11.2100868
REMARK minimizedRMSD -1
REMARK  0 active torsions:
REMARK  status: ('A' for Active; 'I' for Inactive)
ROOT
ATOM      1  C4' PXY d   1      -1.599   1.048   2.248  0.00  0.00     0.077 C 
ATOM      2  C1' PXY d   1       3.822   2.882   1.433  0.00  0.00     0.077 C 
ATOM      3  C1  PXY d   1       2.404   2.396   1.658  0.00  0.00    -0.082 A 
ATOM      4  C2  PXY d   1       1.613   2.181   0.619  0.00  0.00     0.003 A 
ATOM      5  C3  PXY d   1       0.318   1.772   0.806  0.00  0.00     0.003 A 
ATOM      6  C4  PXY d   1      -0.157   1.529   2.067  0.00  0.00    -0.082 A 
ATOM      7  C5  PXY d   1       0.647   1.736   3.132  0.00  0.00     0.003 A 
ATOM      8  C6  PXY d   1       1.946   2.190   2.923  0.00  0.00     0.003 A 
ENDROOT
TORSDOF 0
ENDMDL
