MODEL 1
REMARK minimizedAffinity -4.66258526
REMARK minimizedRMSD -1
REMARK  0 active torsions:
REMARK  status: ('A' for Active; 'I' for Inactive)
ROOT
ATOM      1  C   UNL d   1       0.934  -0.896   3.831  0.00  0.00     0.077 C 
ATOM      2  C1  UNL d   1       0.200  -0.342   2.646  0.00  0.00    -0.074 A 
ATOM      3  C2  UNL d   1      -0.879   0.532   2.813  0.00  0.00    -0.005 A 
ATOM      4  C3  UNL d   1      -1.545   1.047   1.700  0.00  0.00     0.006 A 
ATOM      5  C4  UNL d   1      -1.140   0.694   0.413  0.00  0.00    -0.005 A 
ATOM      6  C5  UNL d   1      -0.062  -0.178   0.227  0.00  0.00    -0.074 A 
ATOM      7  C6  UNL d   1       0.393  -0.560  -1.151  0.00  0.00     0.077 C 
ATOM      8  C7  UNL d   1       0.607  -0.686   1.349  0.00  0.00    -0.001 A 
ENDROOT
TORSDOF 0
ENDMDL
