MODEL 1
REMARK minimizedAffinity -2.66761327
REMARK minimizedRMSD -1
REMARK  0 active torsions:
REMARK  status: ('A' for Active; 'I' for Inactive)
ROOT
ATOM      1  C   UNL d   1       0.771   1.442  -3.030  0.00  0.00     0.077 C 
ATOM      2  C1  UNL d   1       0.240   0.686  -1.849  0.00  0.00    -0.074 A 
ATOM      3  C2  UNL d   1       0.542  -0.668  -1.667  0.00  0.00    -0.005 A 
ATOM      4  C3  UNL d   1       0.048  -1.356  -0.558  0.00  0.00     0.006 A 
ATOM      5  C4  UNL d   1      -0.752  -0.699   0.377  0.00  0.00    -0.005 A 
ATOM      6  C5  UNL d   1      -1.064   0.655   0.212  0.00  0.00    -0.074 A 
ATOM      7  C6  UNL d   1      -1.914   1.378   1.214  0.00  0.00     0.077 C 
ATOM      8  C7  UNL d   1      -0.558   1.341  -0.900  0.00  0.00    -0.001 A 
ENDROOT
TORSDOF 0
ENDMDL
