MODEL 1
REMARK minimizedAffinity -3.99758673
REMARK minimizedRMSD -1
REMARK  0 active torsions:
REMARK  status: ('A' for Active; 'I' for Inactive)
ROOT
ATOM      1  C   UNL d   1       1.120  -1.745  -2.021  0.00  0.00     0.077 C 
ATOM      2  C1  UNL d   1       0.398  -0.492  -1.622  0.00  0.00    -0.074 A 
ATOM      3  C2  UNL d   1       0.472   0.662  -2.409  0.00  0.00    -0.005 A 
ATOM      4  C3  UNL d   1      -0.212   1.817  -2.030  0.00  0.00     0.006 A 
ATOM      5  C4  UNL d   1      -0.977   1.829  -0.863  0.00  0.00    -0.005 A 
ATOM      6  C5  UNL d   1      -1.064   0.685  -0.064  0.00  0.00    -0.074 A 
ATOM      7  C6  UNL d   1      -1.889   0.678   1.188  0.00  0.00     0.077 C 
ATOM      8  C7  UNL d   1      -0.379  -0.474  -0.455  0.00  0.00    -0.001 A 
ENDROOT
TORSDOF 0
ENDMDL
