MODEL 1
REMARK minimizedAffinity -3.85678482
REMARK minimizedRMSD -1
REMARK  0 active torsions:
REMARK  status: ('A' for Active; 'I' for Inactive)
ROOT
ATOM      1  C   UNL d   1       0.625  -0.435   4.185  0.00  0.00     0.077 C 
ATOM      2  C1  UNL d   1       0.543  -0.570   2.694  0.00  0.00    -0.074 A 
ATOM      3  C2  UNL d   1       1.617  -1.082   1.958  0.00  0.00    -0.005 A 
ATOM      4  C3  UNL d   1       1.522  -1.210   0.573  0.00  0.00     0.006 A 
ATOM      5  C4  UNL d   1       0.355  -0.828  -0.090  0.00  0.00    -0.005 A 
ATOM      6  C5  UNL d   1      -0.729  -0.315   0.629  0.00  0.00    -0.074 A 
ATOM      7  C6  UNL d   1      -1.994   0.091  -0.067  0.00  0.00     0.077 C 
ATOM      8  C7  UNL d   1      -0.629  -0.196   2.021  0.00  0.00    -0.001 A 
ENDROOT
TORSDOF 0
ENDMDL
