MODEL 1
REMARK minimizedAffinity -3.07736063
REMARK minimizedRMSD -1
REMARK  0 active torsions:
REMARK  status: ('A' for Active; 'I' for Inactive)
ROOT
ATOM      1  C   UNL d   1      -1.511  -0.580  -0.759  0.00  0.00     0.077 C 
ATOM      2  C1  UNL d   1      -0.946   0.129   0.436  0.00  0.00    -0.074 A 
ATOM      3  C2  UNL d   1      -1.761   0.913   1.258  0.00  0.00    -0.005 A 
ATOM      4  C3  UNL d   1      -1.224   1.558   2.372  0.00  0.00     0.006 A 
ATOM      5  C4  UNL d   1       0.132   1.425   2.674  0.00  0.00    -0.005 A 
ATOM      6  C5  UNL d   1       0.962   0.644   1.864  0.00  0.00    -0.074 A 
ATOM      7  C6  UNL d   1       2.420   0.483   2.180  0.00  0.00     0.077 C 
ATOM      8  C7  UNL d   1       0.413  -0.006   0.751  0.00  0.00    -0.001 A 
ENDROOT
TORSDOF 0
ENDMDL
