MODEL 1
REMARK minimizedAffinity 1.41345584
REMARK minimizedRMSD -1
REMARK  0 active torsions:
REMARK  status: ('A' for Active; 'I' for Inactive)
ROOT
ATOM      1  C   UNL d   1       0.101  -0.845   2.130  0.00  0.00     0.077 C 
ATOM      2  C1  UNL d   1      -1.034  -0.014   1.609  0.00  0.00    -0.074 A 
ATOM      3  C2  UNL d   1      -1.417   1.166   2.256  0.00  0.00    -0.005 A 
ATOM      4  C3  UNL d   1      -2.468   1.933   1.754  0.00  0.00     0.006 A 
ATOM      5  C4  UNL d   1      -3.145   1.530   0.602  0.00  0.00    -0.005 A 
ATOM      6  C5  UNL d   1      -2.775   0.354  -0.059  0.00  0.00    -0.074 A 
ATOM      7  C6  UNL d   1      -3.486  -0.088  -1.303  0.00  0.00     0.077 C 
ATOM      8  C7  UNL d   1      -1.713  -0.408   0.448  0.00  0.00    -0.001 A 
ENDROOT
TORSDOF 0
ENDMDL
