MODEL 1
REMARK minimizedAffinity 5.31947994
REMARK minimizedRMSD -1
REMARK  0 active torsions:
REMARK  status: ('A' for Active; 'I' for Inactive)
ROOT
ATOM      1  C   UNL d   1      -3.361   4.377   5.993  0.00  0.00     0.172 C 
ATOM      2  N   UNL d   1      -3.796   3.162   5.346  0.00  0.00    -0.070 N 
ATOM      3  C1  UNL d   1      -4.090   3.028   4.015  0.00  0.00    -0.004 A 
ATOM      4  C2  UNL d   1      -4.465   1.719   3.796  0.00  0.00    -0.047 A 
ATOM      5  C3  UNL d   1      -4.393   1.045   5.037  0.00  0.00    -0.047 A 
ATOM      6  C4  UNL d   1      -3.977   1.961   5.980  0.00  0.00    -0.004 A 
ENDROOT
TORSDOF 0
ENDMDL
