MODEL 1
REMARK minimizedAffinity 1.92689741
REMARK minimizedRMSD -1
REMARK  0 active torsions:
REMARK  status: ('A' for Active; 'I' for Inactive)
ROOT
ATOM      1  C   UNL d   1       1.787  -5.050   0.171  0.00  0.00     0.172 C 
ATOM      2  N   UNL d   1       1.753  -3.684   0.636  0.00  0.00    -0.070 N 
ATOM      3  C1  UNL d   1       0.679  -2.838   0.552  0.00  0.00    -0.004 A 
ATOM      4  C2  UNL d   1       1.048  -1.631   1.105  0.00  0.00    -0.047 A 
ATOM      5  C3  UNL d   1       2.391  -1.755   1.536  0.00  0.00    -0.047 A 
ATOM      6  C4  UNL d   1       2.802  -3.036   1.233  0.00  0.00    -0.004 A 
ENDROOT
TORSDOF 0
ENDMDL
