MODEL 1
REMARK minimizedAffinity 4.69772816
REMARK minimizedRMSD -1
REMARK  0 active torsions:
REMARK  status: ('A' for Active; 'I' for Inactive)
ROOT
ATOM      1  C   UNL d   1       2.172  -4.621  -0.041  0.00  0.00     0.172 C 
ATOM      2  N   UNL d   1       1.884  -3.337   0.555  0.00  0.00    -0.070 N 
ATOM      3  C1  UNL d   1       0.650  -2.746   0.619  0.00  0.00    -0.004 A 
ATOM      4  C2  UNL d   1       0.795  -1.535   1.261  0.00  0.00    -0.047 A 
ATOM      5  C3  UNL d   1       2.163  -1.394   1.594  0.00  0.00    -0.047 A 
ATOM      6  C4  UNL d   1       2.814  -2.523   1.146  0.00  0.00    -0.004 A 
ENDROOT
TORSDOF 0
ENDMDL
