MODEL 1
REMARK minimizedAffinity 5.69402409
REMARK minimizedRMSD -1
REMARK  0 active torsions:
REMARK  status: ('A' for Active; 'I' for Inactive)
ROOT
ATOM      1  C   UNL d   1      -0.313  -1.392  -0.840  0.00  0.00     0.172 C 
ATOM      2  N   UNL d   1       0.817  -1.760  -0.020  0.00  0.00    -0.070 N 
ATOM      3  C1  UNL d   1       1.278  -3.035   0.178  0.00  0.00    -0.004 A 
ATOM      4  C2  UNL d   1       2.367  -2.964   1.020  0.00  0.00    -0.047 A 
ATOM      5  C3  UNL d   1       2.567  -1.600   1.339  0.00  0.00    -0.047 A 
ATOM      6  C4  UNL d   1       1.593  -0.877   0.682  0.00  0.00    -0.004 A 
ENDROOT
TORSDOF 0
ENDMDL
