MODEL 1
REMARK minimizedAffinity 7.177948
REMARK minimizedRMSD -1
REMARK  0 active torsions:
REMARK  status: ('A' for Active; 'I' for Inactive)
ROOT
ATOM      1  C   UNL d   1       3.527  -2.209   3.841  0.00  0.00     0.172 C 
ATOM      2  N   UNL d   1       2.736  -2.072   2.640  0.00  0.00    -0.070 N 
ATOM      3  C1  UNL d   1       1.466  -1.565   2.575  0.00  0.00    -0.004 A 
ATOM      4  C2  UNL d   1       1.063  -1.604   1.257  0.00  0.00    -0.047 A 
ATOM      5  C3  UNL d   1       2.129  -2.154   0.505  0.00  0.00    -0.047 A 
ATOM      6  C4  UNL d   1       3.151  -2.435   1.386  0.00  0.00    -0.004 A 
ENDROOT
TORSDOF 0
ENDMDL
