MODEL 1
REMARK minimizedAffinity 1.91856945
REMARK minimizedRMSD -1
REMARK  0 active torsions:
REMARK  status: ('A' for Active; 'I' for Inactive)
ROOT
ATOM      1  C   UNL d   1       2.204   4.364  -5.948  0.00  0.00     0.172 C 
ATOM      2  N   UNL d   1       3.604   4.717  -5.956  0.00  0.00    -0.070 N 
ATOM      3  C1  UNL d   1       4.650   3.834  -5.944  0.00  0.00    -0.004 A 
ATOM      4  C2  UNL d   1       5.819   4.564  -5.958  0.00  0.00    -0.047 A 
ATOM      5  C3  UNL d   1       5.463   5.933  -5.979  0.00  0.00    -0.047 A 
ATOM      6  C4  UNL d   1       4.086   5.999  -5.977  0.00  0.00    -0.004 A 
ENDROOT
TORSDOF 0
ENDMDL
