MODEL 1
REMARK minimizedAffinity 8.22461987
REMARK minimizedRMSD -1
REMARK  0 active torsions:
REMARK  status: ('A' for Active; 'I' for Inactive)
ROOT
ATOM      1  C   UNL d   1       2.131  -4.211   0.239  0.00  0.00     0.172 C 
ATOM      2  N   UNL d   1       1.736  -2.954   0.831  0.00  0.00    -0.070 N 
ATOM      3  C1  UNL d   1       0.470  -2.431   0.823  0.00  0.00    -0.004 A 
ATOM      4  C2  UNL d   1       0.508  -1.225   1.488  0.00  0.00    -0.047 A 
ATOM      5  C3  UNL d   1       1.842  -1.015   1.910  0.00  0.00    -0.047 A 
ATOM      6  C4  UNL d   1       2.581  -2.101   1.490  0.00  0.00    -0.004 A 
ENDROOT
TORSDOF 0
ENDMDL
