MODEL 1
REMARK minimizedAffinity -0.0287336912
REMARK minimizedRMSD -1
REMARK  0 active torsions:
REMARK  status: ('A' for Active; 'I' for Inactive)
ROOT
ATOM      1  C   UNL d   1       5.226   2.605  -4.756  0.00  0.00     0.172 C 
ATOM      2  N   UNL d   1       5.064   3.985  -5.149  0.00  0.00    -0.070 N 
ATOM      3  C1  UNL d   1       6.000   4.745  -5.797  0.00  0.00    -0.004 A 
ATOM      4  C2  UNL d   1       5.463   6.000  -5.992  0.00  0.00    -0.047 A 
ATOM      5  C3  UNL d   1       4.160   5.993  -5.441  0.00  0.00    -0.047 A 
ATOM      6  C4  UNL d   1       3.938   4.733  -4.926  0.00  0.00    -0.004 A 
ENDROOT
TORSDOF 0
ENDMDL
