MODEL 1
REMARK minimizedAffinity 1.18950355
REMARK minimizedRMSD -1
REMARK  0 active torsions:
REMARK  status: ('A' for Active; 'I' for Inactive)
ROOT
ATOM      1  C   UNL d   1       4.268  -5.652   5.992  0.00  0.00     0.172 C 
ATOM      2  N   UNL d   1       4.686  -4.270   5.961  0.00  0.00    -0.070 N 
ATOM      3  C1  UNL d   1       5.981  -3.827   5.999  0.00  0.00    -0.004 A 
ATOM      4  C2  UNL d   1       5.958  -2.450   5.949  0.00  0.00    -0.047 A 
ATOM      5  C3  UNL d   1       4.602  -2.052   5.878  0.00  0.00    -0.047 A 
ATOM      6  C4  UNL d   1       3.836  -3.199   5.887  0.00  0.00    -0.004 A 
ENDROOT
TORSDOF 0
ENDMDL
