MODEL 1
REMARK minimizedAffinity -2.35373521
REMARK minimizedRMSD -1
REMARK  0 active torsions:
REMARK  status: ('A' for Active; 'I' for Inactive)
ROOT
ATOM      1  C1  DEN d   1      -1.360   1.390   0.436  0.00  0.00     0.130 A 
ATOM      2  C2  DEN d   1      -0.226   2.179   0.909  0.00  0.00    -0.031 A 
ATOM      3  C3  DEN d   1       1.013   1.461   0.547  0.00  0.00     0.027 A 
ATOM      4  C4  DEN d   1       1.284  -0.782  -0.697  0.00  0.00     0.027 A 
ATOM      5  C5  DEN d   1       0.608  -1.828  -1.286  0.00  0.00    -0.003 A 
ATOM      6  C6  DEN d   1      -0.760  -1.891  -1.312  0.00  0.00     0.001 A 
ATOM      7  C7  DEN d   1      -1.497  -0.866  -0.778  0.00  0.00     0.017 A 
ATOM      8  C8  DEN d   1      -0.823   0.188  -0.176  0.00  0.00    -0.094 A 
ATOM      9  C9  DEN d   1       0.561   0.238  -0.170  0.00  0.00    -0.072 A 
ENDROOT
TORSDOF 0
ENDMDL
