MODEL 1
REMARK minimizedAffinity -2.29983115
REMARK minimizedRMSD -1
REMARK  0 active torsions:
REMARK  status: ('A' for Active; 'I' for Inactive)
ROOT
ATOM      1  C1  DEN d   1       0.838  -0.028  -0.834  0.00  0.00     0.130 A 
ATOM      2  C2  DEN d   1       0.254   0.168   0.490  0.00  0.00    -0.031 A 
ATOM      3  C3  DEN d   1      -1.182  -0.166   0.411  0.00  0.00     0.027 A 
ATOM      4  C4  DEN d   1      -2.551  -0.969  -1.623  0.00  0.00     0.027 A 
ATOM      5  C5  DEN d   1      -2.494  -1.273  -2.965  0.00  0.00    -0.003 A 
ATOM      6  C6  DEN d   1      -1.340  -1.153  -3.692  0.00  0.00     0.001 A 
ATOM      7  C7  DEN d   1      -0.184  -0.759  -3.071  0.00  0.00     0.017 A 
ATOM      8  C8  DEN d   1      -0.235  -0.443  -1.720  0.00  0.00    -0.094 A 
ATOM      9  C9  DEN d   1      -1.409  -0.584  -0.999  0.00  0.00    -0.072 A 
ENDROOT
TORSDOF 0
ENDMDL
