MODEL 1
REMARK minimizedAffinity -1.7306236
REMARK minimizedRMSD -1
REMARK  0 active torsions:
REMARK  status: ('A' for Active; 'I' for Inactive)
ROOT
ATOM      1  C1  DEN d   1      -0.084  -1.675   0.278  0.00  0.00     0.130 A 
ATOM      2  C2  DEN d   1      -0.445  -1.480  -1.123  0.00  0.00    -0.031 A 
ATOM      3  C3  DEN d   1      -0.479  -0.028  -1.389  0.00  0.00     0.027 A 
ATOM      4  C4  DEN d   1      -0.005   1.928   0.225  0.00  0.00     0.027 A 
ATOM      5  C5  DEN d   1       0.330   2.259   1.519  0.00  0.00    -0.003 A 
ATOM      6  C6  DEN d   1       0.515   1.312   2.491  0.00  0.00     0.001 A 
ATOM      7  C7  DEN d   1       0.411  -0.016   2.173  0.00  0.00     0.017 A 
ATOM      8  C8  DEN d   1       0.067  -0.358   0.871  0.00  0.00    -0.094 A 
ATOM      9  C9  DEN d   1      -0.104   0.614  -0.100  0.00  0.00    -0.072 A 
ENDROOT
TORSDOF 0
ENDMDL
