MODEL 1
REMARK minimizedAffinity -1.43417919
REMARK minimizedRMSD -1
REMARK  0 active torsions:
REMARK  status: ('A' for Active; 'I' for Inactive)
ROOT
ATOM      1  C1  DEN d   1       0.840   0.086  -0.853  0.00  0.00     0.130 A 
ATOM      2  C2  DEN d   1       0.511  -0.007   0.567  0.00  0.00    -0.031 A 
ATOM      3  C3  DEN d   1      -0.717  -0.817   0.699  0.00  0.00     0.027 A 
ATOM      4  C4  DEN d   1      -2.130  -1.934  -1.147  0.00  0.00     0.027 A 
ATOM      5  C5  DEN d   1      -2.253  -2.125  -2.505  0.00  0.00    -0.003 A 
ATOM      6  C6  DEN d   1      -1.381  -1.569  -3.403  0.00  0.00     0.001 A 
ATOM      7  C7  DEN d   1      -0.319  -0.831  -2.950  0.00  0.00     0.017 A 
ATOM      8  C8  DEN d   1      -0.193  -0.628  -1.582  0.00  0.00    -0.094 A 
ATOM      9  C9  DEN d   1      -1.078  -1.209  -0.690  0.00  0.00    -0.072 A 
ENDROOT
TORSDOF 0
ENDMDL
