MODEL 1
REMARK minimizedAffinity -1.87752473
REMARK minimizedRMSD -1
REMARK  0 active torsions:
REMARK  status: ('A' for Active; 'I' for Inactive)
ROOT
ATOM      1  C1  DEN d   1      -0.318   1.202   1.221  0.00  0.00     0.130 A 
ATOM      2  C2  DEN d   1       0.983   1.856   1.333  0.00  0.00    -0.031 A 
ATOM      3  C3  DEN d   1       1.905   1.205   0.381  0.00  0.00     0.027 A 
ATOM      4  C4  DEN d   1       1.446  -0.739  -1.251  0.00  0.00     0.027 A 
ATOM      5  C5  DEN d   1       0.494  -1.629  -1.698  0.00  0.00    -0.003 A 
ATOM      6  C6  DEN d   1      -0.775  -1.660  -1.183  0.00  0.00     0.001 A 
ATOM      7  C7  DEN d   1      -1.140  -0.754  -0.222  0.00  0.00     0.017 A 
ATOM      8  C8  DEN d   1      -0.184   0.141   0.238  0.00  0.00    -0.094 A 
ATOM      9  C9  DEN d   1       1.090   0.165  -0.303  0.00  0.00    -0.072 A 
ENDROOT
TORSDOF 0
ENDMDL
