MODEL 1
REMARK minimizedAffinity -3.31709766
REMARK minimizedRMSD -1
REMARK  0 active torsions:
REMARK  status: ('A' for Active; 'I' for Inactive)
ROOT
ATOM      1  C1  DEN d   1       1.549  -0.581  -0.776  0.00  0.00     0.130 A 
ATOM      2  C2  DEN d   1       0.601  -1.691  -0.759  0.00  0.00    -0.031 A 
ATOM      3  C3  DEN d   1      -0.601  -1.253  -0.021  0.00  0.00     0.027 A 
ATOM      4  C4  DEN d   1      -1.085   1.027   1.085  0.00  0.00     0.027 A 
ATOM      5  C5  DEN d   1      -0.575   2.280   1.343  0.00  0.00    -0.003 A 
ATOM      6  C6  DEN d   1       0.682   2.653   0.945  0.00  0.00     0.001 A 
ATOM      7  C7  DEN d   1       1.455   1.778   0.228  0.00  0.00     0.017 A 
ATOM      8  C8  DEN d   1       0.950   0.510  -0.029  0.00  0.00    -0.094 A 
ATOM      9  C9  DEN d   1      -0.327   0.156   0.371  0.00  0.00    -0.072 A 
ENDROOT
TORSDOF 0
ENDMDL
