MODEL 1
REMARK minimizedAffinity -5.32440758
REMARK minimizedRMSD -1
REMARK  0 active torsions:
REMARK  status: ('A' for Active; 'I' for Inactive)
ROOT
ATOM      1  C1  DEN d   1       1.597   0.903   1.441  0.00  0.00     0.130 A 
ATOM      2  C2  DEN d   1       1.105   1.922   2.365  0.00  0.00    -0.031 A 
ATOM      3  C3  DEN d   1      -0.332   2.128   2.095  0.00  0.00     0.027 A 
ATOM      4  C4  DEN d   1      -1.836   0.972   0.347  0.00  0.00     0.027 A 
ATOM      5  C5  DEN d   1      -1.865   0.047  -0.673  0.00  0.00    -0.003 A 
ATOM      6  C6  DEN d   1      -0.744  -0.628  -1.079  0.00  0.00     0.001 A 
ATOM      7  C7  DEN d   1       0.445  -0.420  -0.431  0.00  0.00     0.017 A 
ATOM      8  C8  DEN d   1       0.484   0.517   0.593  0.00  0.00    -0.094 A 
ATOM      9  C9  DEN d   1      -0.663   1.180   0.997  0.00  0.00    -0.072 A 
ENDROOT
TORSDOF 0
ENDMDL
