MODEL 1
REMARK minimizedAffinity -5.29475737
REMARK minimizedRMSD -1
REMARK  0 active torsions:
REMARK  status: ('A' for Active; 'I' for Inactive)
ROOT
ATOM      1  C1  DEN d   1      -0.833  -0.277   1.381  0.00  0.00     0.130 A 
ATOM      2  C2  DEN d   1      -1.137  -0.793   0.049  0.00  0.00    -0.031 A 
ATOM      3  C3  DEN d   1      -0.185  -0.186  -0.903  0.00  0.00     0.027 A 
ATOM      4  C4  DEN d   1       1.722   1.488  -0.446  0.00  0.00     0.027 A 
ATOM      5  C5  DEN d   1       2.360   2.226   0.528  0.00  0.00    -0.003 A 
ATOM      6  C6  DEN d   1       1.959   2.207   1.838  0.00  0.00     0.001 A 
ATOM      7  C7  DEN d   1       0.919   1.400   2.218  0.00  0.00     0.017 A 
ATOM      8  C8  DEN d   1       0.267   0.659   1.241  0.00  0.00    -0.094 A 
ATOM      9  C9  DEN d   1       0.695   0.682  -0.076  0.00  0.00    -0.072 A 
ENDROOT
TORSDOF 0
ENDMDL
