MODEL 1
REMARK minimizedAffinity 1.22466052
REMARK minimizedRMSD -1
REMARK  0 active torsions:
REMARK  status: ('A' for Active; 'I' for Inactive)
ROOT
ATOM      1  C1  DEN d   1      -0.549  -1.511  -1.104  0.00  0.00     0.130 A 
ATOM      2  C2  DEN d   1      -1.801  -1.320  -0.378  0.00  0.00    -0.031 A 
ATOM      3  C3  DEN d   1      -1.577  -0.289   0.655  0.00  0.00     0.027 A 
ATOM      4  C4  DEN d   1       0.575   1.026   1.195  0.00  0.00     0.027 A 
ATOM      5  C5  DEN d   1       1.899   1.201   0.856  0.00  0.00    -0.003 A 
ATOM      6  C6  DEN d   1       2.504   0.466  -0.129  0.00  0.00     0.001 A 
ATOM      7  C7  DEN d   1       1.771  -0.447  -0.841  0.00  0.00     0.017 A 
ATOM      8  C8  DEN d   1       0.438  -0.634  -0.500  0.00  0.00    -0.094 A 
ATOM      9  C9  DEN d   1      -0.158   0.128   0.491  0.00  0.00    -0.072 A 
ENDROOT
TORSDOF 0
ENDMDL
