MODEL 1
REMARK minimizedAffinity -3.00991797
REMARK minimizedRMSD -1
REMARK  0 active torsions:
REMARK  status: ('A' for Active; 'I' for Inactive)
ROOT
ATOM      1  C1  DEN d   1       0.974  -0.113  -1.045  0.00  0.00     0.130 A 
ATOM      2  C2  DEN d   1      -0.172  -1.018  -1.035  0.00  0.00    -0.031 A 
ATOM      3  C3  DEN d   1      -1.075  -0.600   0.056  0.00  0.00     0.027 A 
ATOM      4  C4  DEN d   1      -0.813   1.354   1.719  0.00  0.00     0.027 A 
ATOM      5  C5  DEN d   1       0.001   2.394   2.110  0.00  0.00    -0.003 A 
ATOM      6  C6  DEN d   1       1.203   2.649   1.503  0.00  0.00     0.001 A 
ATOM      7  C7  DEN d   1       1.604   1.880   0.443  0.00  0.00     0.017 A 
ATOM      8  C8  DEN d   1       0.792   0.825   0.048  0.00  0.00    -0.094 A 
ATOM      9  C9  DEN d   1      -0.425   0.592   0.665  0.00  0.00    -0.072 A 
ENDROOT
TORSDOF 0
ENDMDL
