MODEL 1
REMARK minimizedAffinity -4.74239159
REMARK minimizedRMSD -1
REMARK  0 active torsions:
REMARK  status: ('A' for Active; 'I' for Inactive)
ROOT
ATOM      1  C1  DEN d   1       2.178   1.772   0.142  0.00  0.00     0.130 A 
ATOM      2  C2  DEN d   1       1.553   2.575   1.189  0.00  0.00    -0.031 A 
ATOM      3  C3  DEN d   1       0.335   1.872   1.639  0.00  0.00     0.027 A 
ATOM      4  C4  DEN d   1      -0.636  -0.374   0.824  0.00  0.00     0.027 A 
ATOM      5  C5  DEN d   1      -0.463  -1.418  -0.058  0.00  0.00    -0.003 A 
ATOM      6  C6  DEN d   1       0.575  -1.455  -0.951  0.00  0.00     0.001 A 
ATOM      7  C7  DEN d   1       1.506  -0.450  -0.951  0.00  0.00     0.017 A 
ATOM      8  C8  DEN d   1       1.334   0.610  -0.070  0.00  0.00    -0.094 A 
ATOM      9  C9  DEN d   1       0.285   0.623   0.833  0.00  0.00    -0.072 A 
ENDROOT
TORSDOF 0
ENDMDL
