MODEL 1
REMARK minimizedAffinity -2.15633011
REMARK minimizedRMSD -1
REMARK  0 active torsions:
REMARK  status: ('A' for Active; 'I' for Inactive)
ROOT
ATOM      1  C1  DEN d   1       1.086   2.484   0.390  0.00  0.00     0.130 A 
ATOM      2  C2  DEN d   1       0.791   2.847   1.774  0.00  0.00    -0.031 A 
ATOM      3  C3  DEN d   1       0.048   1.730   2.390  0.00  0.00     0.027 A 
ATOM      4  C4  DEN d   1      -0.668  -0.516   1.343  0.00  0.00     0.027 A 
ATOM      5  C5  DEN d   1      -0.654  -1.274   0.193  0.00  0.00    -0.003 A 
ATOM      6  C6  DEN d   1      -0.094  -0.821  -0.972  0.00  0.00     0.001 A 
ATOM      7  C7  DEN d   1       0.516   0.405  -1.001  0.00  0.00     0.017 A 
ATOM      8  C8  DEN d   1       0.499   1.177   0.153  0.00  0.00    -0.094 A 
ATOM      9  C9  DEN d   1      -0.061   0.697   1.324  0.00  0.00    -0.072 A 
ENDROOT
TORSDOF 0
ENDMDL
