MODEL 1
REMARK minimizedAffinity -2.68406725
REMARK minimizedRMSD -1
REMARK  0 active torsions:
REMARK  status: ('A' for Active; 'I' for Inactive)
ROOT
ATOM      1  C1  DEN d   1      -0.964   1.191   1.494  0.00  0.00     0.130 A 
ATOM      2  C2  DEN d   1      -0.026   2.275   1.774  0.00  0.00    -0.031 A 
ATOM      3  C3  DEN d   1       1.211   2.016   1.011  0.00  0.00     0.027 A 
ATOM      4  C4  DEN d   1       1.762   0.054  -0.571  0.00  0.00     0.027 A 
ATOM      5  C5  DEN d   1       1.284  -1.118  -1.114  0.00  0.00    -0.003 A 
ATOM      6  C6  DEN d   1       0.047  -1.616  -0.802  0.00  0.00     0.001 A 
ATOM      7  C7  DEN d   1      -0.773  -0.916   0.043  0.00  0.00     0.017 A 
ATOM      8  C8  DEN d   1      -0.296   0.263   0.600  0.00  0.00    -0.094 A 
ATOM      9  C9  DEN d   1       0.953   0.756   0.263  0.00  0.00    -0.072 A 
ENDROOT
TORSDOF 0
ENDMDL
