MODEL 1
REMARK minimizedAffinity -5.08202553
REMARK minimizedRMSD -1
REMARK  0 active torsions:
REMARK  status: ('A' for Active; 'I' for Inactive)
ROOT
ATOM      1  C1  DEN d   1      -0.470   1.769   1.468  0.00  0.00     0.130 A 
ATOM      2  C2  DEN d   1       0.526   2.744   1.903  0.00  0.00    -0.031 A 
ATOM      3  C3  DEN d   1       1.812   2.400   1.263  0.00  0.00     0.027 A 
ATOM      4  C4  DEN d   1       2.353   0.465  -0.353  0.00  0.00     0.027 A 
ATOM      5  C5  DEN d   1       1.834  -0.631  -1.006  0.00  0.00    -0.003 A 
ATOM      6  C6  DEN d   1       0.530  -1.021  -0.854  0.00  0.00     0.001 A 
ATOM      7  C7  DEN d   1      -0.312  -0.282  -0.065  0.00  0.00     0.017 A 
ATOM      8  C8  DEN d   1       0.206   0.820   0.602  0.00  0.00    -0.094 A 
ATOM      9  C9  DEN d   1       1.524   1.205   0.426  0.00  0.00    -0.072 A 
ENDROOT
TORSDOF 0
ENDMDL
