MODEL 1
REMARK minimizedAffinity -3.78447032
REMARK minimizedRMSD -1
REMARK  0 active torsions:
REMARK  status: ('A' for Active; 'I' for Inactive)
ROOT
ATOM      1  C1  DEN d   1      -2.644  -0.126  -0.321  0.00  0.00     0.130 A 
ATOM      2  C2  DEN d   1      -3.243  -0.474   0.965  0.00  0.00    -0.031 A 
ATOM      3  C3  DEN d   1      -2.158  -0.569   1.962  0.00  0.00     0.027 A 
ATOM      4  C4  DEN d   1       0.376  -0.208   1.643  0.00  0.00     0.027 A 
ATOM      5  C5  DEN d   1       1.361   0.091   0.728  0.00  0.00    -0.003 A 
ATOM      6  C6  DEN d   1       1.086   0.303  -0.597  0.00  0.00     0.001 A 
ATOM      7  C7  DEN d   1      -0.211   0.264  -1.036  0.00  0.00     0.017 A 
ATOM      8  C8  DEN d   1      -1.209  -0.044  -0.120  0.00  0.00    -0.094 A 
ATOM      9  C9  DEN d   1      -0.912  -0.244   1.217  0.00  0.00    -0.072 A 
ENDROOT
TORSDOF 0
ENDMDL
