MODEL 1
REMARK minimizedAffinity 4.51671124
REMARK minimizedRMSD -1
REMARK  0 active torsions:
REMARK  status: ('A' for Active; 'I' for Inactive)
ROOT
ATOM      1  C1  DEN d   1       1.338  -0.778   0.834  0.00  0.00     0.130 A 
ATOM      2  C2  DEN d   1       1.640  -0.973  -0.582  0.00  0.00    -0.031 A 
ATOM      3  C3  DEN d   1       0.382  -0.828  -1.341  0.00  0.00     0.027 A 
ATOM      4  C4  DEN d   1      -1.991  -0.319  -0.467  0.00  0.00     0.027 A 
ATOM      5  C5  DEN d   1      -2.745  -0.085   0.661  0.00  0.00    -0.003 A 
ATOM      6  C6  DEN d   1      -2.202  -0.099   1.918  0.00  0.00     0.001 A 
ATOM      7  C7  DEN d   1      -0.858  -0.308   2.075  0.00  0.00     0.017 A 
ATOM      8  C8  DEN d   1      -0.092  -0.552   0.942  0.00  0.00    -0.094 A 
ATOM      9  C9  DEN d   1      -0.657  -0.521  -0.321  0.00  0.00    -0.072 A 
ENDROOT
TORSDOF 0
ENDMDL
