MODEL 1
REMARK minimizedAffinity 10.2158222
REMARK minimizedRMSD -1
REMARK  0 active torsions:
REMARK  status: ('A' for Active; 'I' for Inactive)
ROOT
ATOM      1  C1  DEN d   1      -2.035  -0.509   1.694  0.00  0.00     0.130 A 
ATOM      2  C2  DEN d   1      -2.106  -1.226   2.964  0.00  0.00    -0.031 A 
ATOM      3  C3  DEN d   1      -0.789  -1.845   3.213  0.00  0.00     0.027 A 
ATOM      4  C4  DEN d   1       1.344  -1.759   1.765  0.00  0.00     0.027 A 
ATOM      5  C5  DEN d   1       1.886  -1.281   0.593  0.00  0.00    -0.003 A 
ATOM      6  C6  DEN d   1       1.156  -0.547  -0.304  0.00  0.00     0.001 A 
ATOM      7  C7  DEN d   1      -0.147  -0.231  -0.021  0.00  0.00     0.017 A 
ATOM      8  C8  DEN d   1      -0.703  -0.715   1.156  0.00  0.00    -0.094 A 
ATOM      9  C9  DEN d   1       0.056  -1.446   2.055  0.00  0.00    -0.072 A 
ENDROOT
TORSDOF 0
ENDMDL
