MODEL 1
REMARK minimizedAffinity 3.46762419
REMARK minimizedRMSD -1
REMARK  0 active torsions:
REMARK  status: ('A' for Active; 'I' for Inactive)
ROOT
ATOM      1  C1  DEN d   1      -2.495  -0.582   1.876  0.00  0.00     0.130 A 
ATOM      2  C2  DEN d   1      -3.331  -0.489   0.683  0.00  0.00    -0.031 A 
ATOM      3  C3  DEN d   1      -2.447  -0.544  -0.499  0.00  0.00     0.027 A 
ATOM      4  C4  DEN d   1       0.121  -0.769  -0.595  0.00  0.00     0.027 A 
ATOM      5  C5  DEN d   1       1.268  -0.871   0.160  0.00  0.00    -0.003 A 
ATOM      6  C6  DEN d   1       1.244  -0.849   1.530  0.00  0.00     0.001 A 
ATOM      7  C7  DEN d   1       0.045  -0.768   2.187  0.00  0.00     0.017 A 
ATOM      8  C8  DEN d   1      -1.115  -0.658   1.432  0.00  0.00    -0.094 A 
ATOM      9  C9  DEN d   1      -1.072  -0.694   0.048  0.00  0.00    -0.072 A 
ENDROOT
TORSDOF 0
ENDMDL
