MODEL 1
REMARK minimizedAffinity 2.95206499
REMARK minimizedRMSD -1
REMARK  0 active torsions:
REMARK  status: ('A' for Active; 'I' for Inactive)
ROOT
ATOM      1  C1  DEN d   1       4.429   4.764   3.410  0.00  0.00     0.130 A 
ATOM      2  C2  DEN d   1       4.089   4.821   1.991  0.00  0.00    -0.031 A 
ATOM      3  C3  DEN d   1       2.689   5.277   1.876  0.00  0.00     0.027 A 
ATOM      4  C4  DEN d   1       1.026   5.901   3.746  0.00  0.00     0.027 A 
ATOM      5  C5  DEN d   1       0.855   5.999   5.109  0.00  0.00    -0.003 A 
ATOM      6  C6  DEN d   1       1.844   5.663   5.995  0.00  0.00     0.001 A 
ATOM      7  C7  DEN d   1       3.065   5.255   5.527  0.00  0.00     0.017 A 
ATOM      8  C8  DEN d   1       3.243   5.147   4.154  0.00  0.00    -0.094 A 
ATOM      9  C9  DEN d   1       2.235   5.503   3.274  0.00  0.00    -0.072 A 
ENDROOT
TORSDOF 0
ENDMDL
