MODEL 1
REMARK minimizedAffinity 1.51826215
REMARK minimizedRMSD -1
REMARK  0 active torsions:
REMARK  status: ('A' for Active; 'I' for Inactive)
ROOT
ATOM      1  C1  DEN d   1       0.644   4.818   4.677  0.00  0.00     0.130 A 
ATOM      2  C2  DEN d   1       0.864   5.429   5.985  0.00  0.00    -0.031 A 
ATOM      3  C3  DEN d   1       2.226   6.000   5.999  0.00  0.00     0.027 A 
ATOM      4  C4  DEN d   1       4.004   6.000   4.131  0.00  0.00     0.027 A 
ATOM      5  C5  DEN d   1       4.282   5.591   2.845  0.00  0.00    -0.003 A 
ATOM      6  C6  DEN d   1       3.386   4.872   2.098  0.00  0.00     0.001 A 
ATOM      7  C7  DEN d   1       2.152   4.579   2.615  0.00  0.00     0.017 A 
ATOM      8  C8  DEN d   1       1.868   4.981   3.914  0.00  0.00    -0.094 A 
ATOM      9  C9  DEN d   1       2.782   5.718   4.648  0.00  0.00    -0.072 A 
ENDROOT
TORSDOF 0
ENDMDL
