MODEL 1
REMARK minimizedAffinity -0.962064087
REMARK minimizedRMSD -1
REMARK  0 active torsions:
REMARK  status: ('A' for Active; 'I' for Inactive)
ROOT
ATOM      1  C1  DEN d   1       4.813   6.000   3.010  0.00  0.00     0.130 A 
ATOM      2  C2  DEN d   1       4.250   5.969   1.663  0.00  0.00    -0.031 A 
ATOM      3  C3  DEN d   1       2.778   5.954   1.784  0.00  0.00     0.027 A 
ATOM      4  C4  DEN d   1       1.325   5.982   3.915  0.00  0.00     0.027 A 
ATOM      5  C5  DEN d   1       1.352   5.997   5.292  0.00  0.00    -0.003 A 
ATOM      6  C6  DEN d   1       2.525   5.980   6.000  0.00  0.00     0.001 A 
ATOM      7  C7  DEN d   1       3.721   5.992   5.332  0.00  0.00     0.017 A 
ATOM      8  C8  DEN d   1       3.702   5.970   3.943  0.00  0.00    -0.094 A 
ATOM      9  C9  DEN d   1       2.506   6.000   3.246  0.00  0.00    -0.072 A 
ENDROOT
TORSDOF 0
ENDMDL
