MODEL 1
REMARK minimizedAffinity 1.25726259
REMARK minimizedRMSD -1
REMARK  0 active torsions:
REMARK  status: ('A' for Active; 'I' for Inactive)
ROOT
ATOM      1  C1  DEN d   1       2.107  -3.831   1.782  0.00  0.00     0.130 A 
ATOM      2  C2  DEN d   1       3.067  -4.199   0.744  0.00  0.00    -0.031 A 
ATOM      3  C3  DEN d   1       2.931  -3.235  -0.366  0.00  0.00     0.027 A 
ATOM      4  C4  DEN d   1       1.338  -1.217  -0.576  0.00  0.00     0.027 A 
ATOM      5  C5  DEN d   1       0.331  -0.512   0.046  0.00  0.00    -0.003 A 
ATOM      6  C6  DEN d   1      -0.174  -0.881   1.264  0.00  0.00     0.001 A 
ATOM      7  C7  DEN d   1       0.359  -1.959   1.921  0.00  0.00     0.017 A 
ATOM      8  C8  DEN d   1       1.369  -2.679   1.297  0.00  0.00    -0.094 A 
ATOM      9  C9  DEN d   1       1.874  -2.283   0.071  0.00  0.00    -0.072 A 
ENDROOT
TORSDOF 0
ENDMDL
