MODEL 1
REMARK minimizedAffinity -3.55403137
REMARK minimizedRMSD -1
REMARK  0 active torsions:
REMARK  status: ('A' for Active; 'I' for Inactive)
ROOT
ATOM      1  C2' OXE d   1      -0.634  -0.413   2.324  0.00  0.00     0.078 C 
ATOM      2  C1' OXE d   1      -2.316   1.678   1.502  0.00  0.00     0.078 C 
ATOM      3  C1  OXE d   1      -1.211   1.255   0.566  0.00  0.00    -0.078 A 
ATOM      4  C2  OXE d   1      -0.364   0.263   0.997  0.00  0.00    -0.078 A 
ATOM      5  C3  OXE d   1       0.639  -0.203   0.151  0.00  0.00     0.003 A 
ATOM      6  C4  OXE d   1       0.888   0.435  -1.071  0.00  0.00    -0.002 A 
ATOM      7  C5  OXE d   1       0.062   1.474  -1.511  0.00  0.00    -0.002 A 
ATOM      8  C6  OXE d   1      -1.016   1.867  -0.725  0.00  0.00     0.003 A 
ENDROOT
TORSDOF 0
ENDMDL
