MODEL 1
REMARK minimizedAffinity -4.27785826
REMARK minimizedRMSD -1
REMARK  0 active torsions:
REMARK  status: ('A' for Active; 'I' for Inactive)
ROOT
ATOM      1  C2' OXE d   1      -1.057   2.359  -1.262  0.00  0.00     0.078 C 
ATOM      2  C1' OXE d   1      -2.536   2.244   1.122  0.00  0.00     0.078 C 
ATOM      3  C1  OXE d   1      -1.417   1.249   0.939  0.00  0.00    -0.078 A 
ATOM      4  C2  OXE d   1      -0.729   1.282  -0.250  0.00  0.00    -0.078 A 
ATOM      5  C3  OXE d   1       0.347   0.423  -0.448  0.00  0.00     0.003 A 
ATOM      6  C4  OXE d   1       0.638  -0.577   0.488  0.00  0.00    -0.002 A 
ATOM      7  C5  OXE d   1      -0.076  -0.655   1.688  0.00  0.00    -0.002 A 
ATOM      8  C6  OXE d   1      -1.077   0.276   1.947  0.00  0.00     0.003 A 
ENDROOT
TORSDOF 0
ENDMDL
