MODEL 1
REMARK minimizedAffinity -4.43311691
REMARK minimizedRMSD -1
REMARK  0 active torsions:
REMARK  status: ('A' for Active; 'I' for Inactive)
ROOT
ATOM      1  C2' OXE d   1       0.547  -1.083   2.476  0.00  0.00     0.078 C 
ATOM      2  C1' OXE d   1       0.678  -1.269  -0.322  0.00  0.00     0.078 C 
ATOM      3  C1  OXE d   1      -0.186  -0.184   0.271  0.00  0.00    -0.078 A 
ATOM      4  C2  OXE d   1      -0.281  -0.130   1.641  0.00  0.00    -0.078 A 
ATOM      5  C3  OXE d   1      -1.020   0.885   2.241  0.00  0.00     0.003 A 
ATOM      6  C4  OXE d   1      -1.791   1.756   1.462  0.00  0.00    -0.002 A 
ATOM      7  C5  OXE d   1      -1.740   1.693   0.066  0.00  0.00    -0.002 A 
ATOM      8  C6  OXE d   1      -0.911   0.758  -0.544  0.00  0.00     0.003 A 
ENDROOT
TORSDOF 0
ENDMDL
