MODEL 1
REMARK minimizedAffinity -2.7571826
REMARK minimizedRMSD -1
REMARK  0 active torsions:
REMARK  status: ('A' for Active; 'I' for Inactive)
ROOT
ATOM      1  C2' OXE d   1      -2.499   1.819   1.361  0.00  0.00     0.078 C 
ATOM      2  C1' OXE d   1      -1.141   0.089   3.106  0.00  0.00     0.078 C 
ATOM      3  C1  OXE d   1      -0.578   0.274   1.719  0.00  0.00    -0.078 A 
ATOM      4  C2  OXE d   1      -1.274   1.086   0.856  0.00  0.00    -0.078 A 
ATOM      5  C3  OXE d   1      -0.769   1.334  -0.417  0.00  0.00     0.003 A 
ATOM      6  C4  OXE d   1       0.358   0.645  -0.879  0.00  0.00    -0.002 A 
ATOM      7  C5  OXE d   1       1.060  -0.217  -0.030  0.00  0.00    -0.002 A 
ATOM      8  C6  OXE d   1       0.631  -0.380   1.283  0.00  0.00     0.003 A 
ENDROOT
TORSDOF 0
ENDMDL
