MODEL 1
REMARK minimizedAffinity -4.33908463
REMARK minimizedRMSD -1
REMARK  0 active torsions:
REMARK  status: ('A' for Active; 'I' for Inactive)
ROOT
ATOM      1  C2' OXE d   1      -0.411   2.976  -1.262  0.00  0.00     0.078 C 
ATOM      2  C1' OXE d   1      -1.989   1.960   0.825  0.00  0.00     0.078 C 
ATOM      3  C1  OXE d   1      -0.954   1.047   0.217  0.00  0.00    -0.078 A 
ATOM      4  C2  OXE d   1      -0.218   1.537  -0.835  0.00  0.00    -0.078 A 
ATOM      5  C3  OXE d   1       0.788   0.755  -1.396  0.00  0.00     0.003 A 
ATOM      6  C4  OXE d   1       0.953  -0.578  -1.001  0.00  0.00    -0.002 A 
ATOM      7  C5  OXE d   1       0.187  -1.109   0.042  0.00  0.00    -0.002 A 
ATOM      8  C6  OXE d   1      -0.740  -0.299   0.689  0.00  0.00     0.003 A 
ENDROOT
TORSDOF 0
ENDMDL
