MODEL 1
REMARK minimizedAffinity -4.28661776
REMARK minimizedRMSD -1
REMARK  0 active torsions:
REMARK  status: ('A' for Active; 'I' for Inactive)
ROOT
ATOM      1  C2' OXE d   1       0.661  -0.945   2.276  0.00  0.00     0.078 C 
ATOM      2  C1' OXE d   1       0.823  -1.198  -0.515  0.00  0.00     0.078 C 
ATOM      3  C1  OXE d   1      -0.160  -0.201   0.045  0.00  0.00    -0.078 A 
ATOM      4  C2  OXE d   1      -0.266  -0.117   1.413  0.00  0.00    -0.078 A 
ATOM      5  C3  OXE d   1      -1.119   0.825   1.981  0.00  0.00     0.003 A 
ATOM      6  C4  OXE d   1      -1.980   1.580   1.176  0.00  0.00    -0.002 A 
ATOM      7  C5  OXE d   1      -1.916   1.481  -0.218  0.00  0.00    -0.002 A 
ATOM      8  C6  OXE d   1      -0.984   0.629  -0.799  0.00  0.00     0.003 A 
ENDROOT
TORSDOF 0
ENDMDL
