MODEL 1
REMARK minimizedAffinity -4.09733582
REMARK minimizedRMSD -1
REMARK  0 active torsions:
REMARK  status: ('A' for Active; 'I' for Inactive)
ROOT
ATOM      1  C2' OXE d   1       0.865  -0.711  -0.953  0.00  0.00     0.078 C 
ATOM      2  C1' OXE d   1      -0.034   1.931  -1.254  0.00  0.00     0.078 C 
ATOM      3  C1  OXE d   1      -0.382   1.211   0.025  0.00  0.00    -0.078 A 
ATOM      4  C2  OXE d   1       0.022  -0.097   0.144  0.00  0.00    -0.078 A 
ATOM      5  C3  OXE d   1      -0.225  -0.790   1.326  0.00  0.00     0.003 A 
ATOM      6  C4  OXE d   1      -1.014  -0.218   2.331  0.00  0.00    -0.002 A 
ATOM      7  C5  OXE d   1      -1.469   1.099   2.213  0.00  0.00    -0.002 A 
ATOM      8  C6  OXE d   1      -1.127   1.840   1.088  0.00  0.00     0.003 A 
ENDROOT
TORSDOF 0
ENDMDL
