MODEL 1
REMARK minimizedAffinity -3.92438912
REMARK minimizedRMSD -1
REMARK  0 active torsions:
REMARK  status: ('A' for Active; 'I' for Inactive)
ROOT
ATOM      1  C2' OXE d   1      -2.128   2.275   1.495  0.00  0.00     0.078 C 
ATOM      2  C1' OXE d   1      -1.099   0.394   3.306  0.00  0.00     0.078 C 
ATOM      3  C1  OXE d   1      -0.548   0.394   1.902  0.00  0.00    -0.078 A 
ATOM      4  C2  OXE d   1      -1.090   1.287   1.010  0.00  0.00    -0.078 A 
ATOM      5  C3  OXE d   1      -0.580   1.366  -0.283  0.00  0.00     0.003 A 
ATOM      6  C4  OXE d   1       0.373   0.441  -0.726  0.00  0.00    -0.002 A 
ATOM      7  C5  OXE d   1       0.911  -0.503   0.155  0.00  0.00    -0.002 A 
ATOM      8  C6  OXE d   1       0.493  -0.512   1.481  0.00  0.00     0.003 A 
ENDROOT
TORSDOF 0
ENDMDL
