MODEL 1
REMARK minimizedAffinity -4.31137419
REMARK minimizedRMSD -1
REMARK  0 active torsions:
REMARK  status: ('A' for Active; 'I' for Inactive)
ROOT
ATOM      1  C2' OXE d   1       0.526  -1.301   1.953  0.00  0.00     0.078 C 
ATOM      2  C1' OXE d   1       0.722  -0.536  -0.741  0.00  0.00     0.078 C 
ATOM      3  C1  OXE d   1      -0.034   0.374   0.196  0.00  0.00    -0.078 A 
ATOM      4  C2  OXE d   1      -0.164  -0.032   1.502  0.00  0.00    -0.078 A 
ATOM      5  C3  OXE d   1      -0.805   0.796   2.420  0.00  0.00     0.003 A 
ATOM      6  C4  OXE d   1      -1.449   1.963   1.993  0.00  0.00    -0.002 A 
ATOM      7  C5  OXE d   1      -1.362   2.374   0.659  0.00  0.00    -0.002 A 
ATOM      8  C6  OXE d   1      -0.624   1.614  -0.242  0.00  0.00     0.003 A 
ENDROOT
TORSDOF 0
ENDMDL
