MODEL 1
REMARK minimizedAffinity -2.67703271
REMARK minimizedRMSD -1
REMARK  0 active torsions:
REMARK  status: ('A' for Active; 'I' for Inactive)
ROOT
ATOM      1  C2' OXE d   1       1.109   0.972  -1.487  0.00  0.00     0.078 C 
ATOM      2  C1' OXE d   1       0.011   0.040   0.923  0.00  0.00     0.078 C 
ATOM      3  C1  OXE d   1       0.187  -0.951  -0.200  0.00  0.00    -0.078 A 
ATOM      4  C2  OXE d   1       0.681  -0.477  -1.391  0.00  0.00    -0.078 A 
ATOM      5  C3  OXE d   1       0.914  -1.359  -2.442  0.00  0.00     0.003 A 
ATOM      6  C4  OXE d   1       0.506  -2.696  -2.349  0.00  0.00    -0.002 A 
ATOM      7  C5  OXE d   1      -0.037  -3.191  -1.158  0.00  0.00    -0.002 A 
ATOM      8  C6  OXE d   1      -0.163  -2.344  -0.063  0.00  0.00     0.003 A 
ENDROOT
TORSDOF 0
ENDMDL
