MODEL 1
REMARK minimizedAffinity -2.67747879
REMARK minimizedRMSD -1
REMARK  0 active torsions:
REMARK  status: ('A' for Active; 'I' for Inactive)
ROOT
ATOM      1  C2' OXE d   1       0.638  -0.710   1.946  0.00  0.00     0.078 C 
ATOM      2  C1' OXE d   1       0.719  -0.190  -0.812  0.00  0.00     0.078 C 
ATOM      3  C1  OXE d   1      -0.346   0.501   0.003  0.00  0.00    -0.078 A 
ATOM      4  C2  OXE d   1      -0.408   0.204   1.344  0.00  0.00    -0.078 A 
ATOM      5  C3  OXE d   1      -1.335   0.855   2.152  0.00  0.00     0.003 A 
ATOM      6  C4  OXE d   1      -2.305   1.692   1.586  0.00  0.00    -0.002 A 
ATOM      7  C5  OXE d   1      -2.285   1.977   0.216  0.00  0.00    -0.002 A 
ATOM      8  C6  OXE d   1      -1.288   1.424  -0.580  0.00  0.00     0.003 A 
ENDROOT
TORSDOF 0
ENDMDL
