MODEL 1
REMARK minimizedAffinity -2.8112464
REMARK minimizedRMSD -1
REMARK  0 active torsions:
REMARK  status: ('A' for Active; 'I' for Inactive)
ROOT
ATOM      1  C2' OXE d   1      -1.731   1.271   1.819  0.00  0.00     0.078 C 
ATOM      2  C1' OXE d   1      -0.624  -1.132   2.758  0.00  0.00     0.078 C 
ATOM      3  C1  OXE d   1      -0.261  -0.688   1.364  0.00  0.00    -0.078 A 
ATOM      4  C2  OXE d   1      -0.844   0.465   0.895  0.00  0.00    -0.078 A 
ATOM      5  C3  OXE d   1      -0.500   0.948  -0.364  0.00  0.00     0.003 A 
ATOM      6  C4  OXE d   1       0.314   0.192  -1.216  0.00  0.00    -0.002 A 
ATOM      7  C5  OXE d   1       0.886  -1.005  -0.773  0.00  0.00    -0.002 A 
ATOM      8  C6  OXE d   1       0.644  -1.436   0.526  0.00  0.00     0.003 A 
ENDROOT
TORSDOF 0
ENDMDL
