MODEL 1
REMARK minimizedAffinity -3.7367034
REMARK minimizedRMSD -1
REMARK  0 active torsions:
REMARK  status: ('A' for Active; 'I' for Inactive)
ROOT
ATOM      1  C2' OXE d   1      -2.641   1.400   1.480  0.00  0.00     0.078 C 
ATOM      2  C1' OXE d   1      -1.067   0.261   3.507  0.00  0.00     0.078 C 
ATOM      3  C1  OXE d   1      -0.549   0.194   2.092  0.00  0.00    -0.078 A 
ATOM      4  C2  OXE d   1      -1.347   0.713   1.101  0.00  0.00    -0.078 A 
ATOM      5  C3  OXE d   1      -0.891   0.727  -0.214  0.00  0.00     0.003 A 
ATOM      6  C4  OXE d   1       0.302   0.080  -0.558  0.00  0.00    -0.002 A 
ATOM      7  C5  OXE d   1       1.111  -0.490   0.431  0.00  0.00    -0.002 A 
ATOM      8  C6  OXE d   1       0.722  -0.404   1.763  0.00  0.00     0.003 A 
ENDROOT
TORSDOF 0
ENDMDL
