MODEL 1
REMARK minimizedAffinity -4.57317734
REMARK minimizedRMSD -1
REMARK  0 active torsions:
REMARK  status: ('A' for Active; 'I' for Inactive)
ROOT
ATOM      1  C2' OXE d   1      -1.434   0.233   3.076  0.00  0.00     0.078 C 
ATOM      2  C1' OXE d   1      -2.558   2.069   1.273  0.00  0.00     0.078 C 
ATOM      3  C1  OXE d   1      -1.386   1.246   0.800  0.00  0.00    -0.078 A 
ATOM      4  C2  OXE d   1      -0.813   0.384   1.704  0.00  0.00    -0.078 A 
ATOM      5  C3  OXE d   1       0.236  -0.439   1.303  0.00  0.00     0.003 A 
ATOM      6  C4  OXE d   1       0.812  -0.286   0.035  0.00  0.00    -0.002 A 
ATOM      7  C5  OXE d   1       0.268   0.614  -0.887  0.00  0.00    -0.002 A 
ATOM      8  C6  OXE d   1      -0.854   1.355  -0.536  0.00  0.00     0.003 A 
ENDROOT
TORSDOF 0
ENDMDL
