MODEL 1
REMARK minimizedAffinity -3.50869036
REMARK minimizedRMSD -1
REMARK  0 active torsions:
REMARK  status: ('A' for Active; 'I' for Inactive)
ROOT
ATOM      1  C2' OXE d   1      -0.093  -0.004   1.221  0.00  0.00     0.078 C 
ATOM      2  C1' OXE d   1       1.090   0.803  -1.194  0.00  0.00     0.078 C 
ATOM      3  C1  OXE d   1       0.929  -0.677  -0.949  0.00  0.00    -0.078 A 
ATOM      4  C2  OXE d   1       0.392  -1.064   0.255  0.00  0.00    -0.078 A 
ATOM      5  C3  OXE d   1       0.171  -2.415   0.509  0.00  0.00     0.003 A 
ATOM      6  C4  OXE d   1       0.632  -3.388  -0.386  0.00  0.00    -0.002 A 
ATOM      7  C5  OXE d   1       1.218  -3.017  -1.600  0.00  0.00    -0.002 A 
ATOM      8  C6  OXE d   1       1.335  -1.667  -1.916  0.00  0.00     0.003 A 
ENDROOT
TORSDOF 0
ENDMDL
