MODEL 1
REMARK minimizedAffinity -5.20644236
REMARK minimizedRMSD -1
REMARK  0 active torsions:
REMARK  status: ('A' for Active; 'I' for Inactive)
ROOT
ATOM      1  C2' OXE d   1      -0.629   2.674  -1.008  0.00  0.00     0.078 C 
ATOM      2  C1' OXE d   1      -2.276   2.862   1.257  0.00  0.00     0.078 C 
ATOM      3  C1  OXE d   1      -1.418   1.630   1.112  0.00  0.00    -0.078 A 
ATOM      4  C2  OXE d   1      -0.651   1.525  -0.023  0.00  0.00    -0.078 A 
ATOM      5  C3  OXE d   1       0.200   0.434  -0.181  0.00  0.00     0.003 A 
ATOM      6  C4  OXE d   1       0.167  -0.629   0.730  0.00  0.00    -0.002 A 
ATOM      7  C5  OXE d   1      -0.638  -0.560   1.872  0.00  0.00    -0.002 A 
ATOM      8  C6  OXE d   1      -1.403   0.579   2.099  0.00  0.00     0.003 A 
ENDROOT
TORSDOF 0
ENDMDL
