MODEL 1
REMARK minimizedAffinity -4.18304253
REMARK minimizedRMSD -1
REMARK  0 active torsions:
REMARK  status: ('A' for Active; 'I' for Inactive)
ROOT
ATOM      1  C2' OXE d   1      -0.090  -1.124   2.547  0.00  0.00     0.078 C 
ATOM      2  C1' OXE d   1       0.219  -0.849  -0.229  0.00  0.00     0.078 C 
ATOM      3  C1  OXE d   1      -0.617   0.180   0.491  0.00  0.00    -0.078 A 
ATOM      4  C2  OXE d   1      -0.801   0.011   1.842  0.00  0.00    -0.078 A 
ATOM      5  C3  OXE d   1      -1.518   0.961   2.564  0.00  0.00     0.003 A 
ATOM      6  C4  OXE d   1      -2.181   2.002   1.903  0.00  0.00    -0.002 A 
ATOM      7  C5  OXE d   1      -2.039   2.169   0.522  0.00  0.00    -0.002 A 
ATOM      8  C6  OXE d   1      -1.227   1.294  -0.191  0.00  0.00     0.003 A 
ENDROOT
TORSDOF 0
ENDMDL
