MODEL 1
REMARK minimizedAffinity -3.20402408
REMARK minimizedRMSD -1
REMARK  0 active torsions:
REMARK  status: ('A' for Active; 'I' for Inactive)
ROOT
ATOM      1  C2' OXE d   1       0.495  -1.075   2.496  0.00  0.00     0.078 C 
ATOM      2  C1' OXE d   1       0.586  -0.833  -0.299  0.00  0.00     0.078 C 
ATOM      3  C1  OXE d   1      -0.341   0.086   0.457  0.00  0.00    -0.078 A 
ATOM      4  C2  OXE d   1      -0.413  -0.071   1.820  0.00  0.00    -0.078 A 
ATOM      5  C3  OXE d   1      -1.211   0.787   2.572  0.00  0.00     0.003 A 
ATOM      6  C4  OXE d   1      -2.056   1.707   1.938  0.00  0.00    -0.002 A 
ATOM      7  C5  OXE d   1      -2.027   1.856   0.547  0.00  0.00    -0.002 A 
ATOM      8  C6  OXE d   1      -1.146   1.085  -0.202  0.00  0.00     0.003 A 
ENDROOT
TORSDOF 0
ENDMDL
