MODEL 1
REMARK minimizedAffinity -1.74583972
REMARK minimizedRMSD -1
REMARK  0 active torsions:
REMARK  status: ('A' for Active; 'I' for Inactive)
ROOT
ATOM      1  C   UNL d   1      -3.929  -1.595  -4.971  0.00  0.00     0.023 A 
ATOM      2  C1  UNL d   1      -4.388  -1.118  -3.744  0.00  0.00     0.003 A 
ATOM      3  C2  UNL d   1      -4.114   0.195  -3.356  0.00  0.00     0.048 A 
ATOM      4  C3  UNL d   1      -3.380   1.027  -4.202  0.00  0.00     0.023 A 
ATOM      5  C4  UNL d   1      -2.919   0.554  -5.432  0.00  0.00     0.048 A 
ATOM      6  C5  UNL d   1      -3.195  -0.760  -5.814  0.00  0.00     0.003 A 
ATOM      7  I   UNL d   1      -2.971   2.982  -3.628  0.00  0.00    -0.146 I 
ENDROOT
TORSDOF 0
ENDMDL
