MODEL 1
REMARK minimizedAffinity 4.59818792
REMARK minimizedRMSD -1
REMARK  0 active torsions:
REMARK  status: ('A' for Active; 'I' for Inactive)
ROOT
ATOM      1  C   UNL d   1      -5.751   1.442  -4.959  0.00  0.00     0.023 A 
ATOM      2  C1  UNL d   1      -4.442   1.910  -5.071  0.00  0.00     0.003 A 
ATOM      3  C2  UNL d   1      -3.373   1.012  -5.032  0.00  0.00     0.048 A 
ATOM      4  C3  UNL d   1      -3.620  -0.352  -4.882  0.00  0.00     0.023 A 
ATOM      5  C4  UNL d   1      -4.929  -0.824  -4.770  0.00  0.00     0.048 A 
ATOM      6  C5  UNL d   1      -5.994   0.077  -4.808  0.00  0.00     0.003 A 
ATOM      7  I   UNL d   1      -2.030  -1.689  -4.824  0.00  0.00    -0.146 I 
ENDROOT
TORSDOF 0
ENDMDL
