MODEL 1
REMARK minimizedAffinity 1.50298381
REMARK minimizedRMSD -1
REMARK  0 active torsions:
REMARK  status: ('A' for Active; 'I' for Inactive)
ROOT
ATOM      1  C   UNL d   1      -3.750  -1.946  -2.280  0.00  0.00     0.023 A 
ATOM      2  C1  UNL d   1      -2.769  -1.017  -2.625  0.00  0.00     0.003 A 
ATOM      3  C2  UNL d   1      -2.977  -0.141  -3.692  0.00  0.00     0.048 A 
ATOM      4  C3  UNL d   1      -4.171  -0.199  -4.410  0.00  0.00     0.023 A 
ATOM      5  C4  UNL d   1      -5.157  -1.127  -4.069  0.00  0.00     0.048 A 
ATOM      6  C5  UNL d   1      -4.943  -2.001  -3.002  0.00  0.00     0.003 A 
ATOM      7  I   UNL d   1      -4.485   1.103  -5.999  0.00  0.00    -0.146 I 
ENDROOT
TORSDOF 0
ENDMDL
