MODEL 1
REMARK minimizedAffinity 4.71583176
REMARK minimizedRMSD -1
REMARK  0 active torsions:
REMARK  status: ('A' for Active; 'I' for Inactive)
ROOT
ATOM      1  C   UNL d   1       1.602  -1.142   0.563  0.00  0.00     0.023 A 
ATOM      2  C1  UNL d   1       2.856  -0.757   0.089  0.00  0.00     0.003 A 
ATOM      3  C2  UNL d   1       3.930  -1.647   0.148  0.00  0.00     0.048 A 
ATOM      4  C3  UNL d   1       3.743  -2.921   0.681  0.00  0.00     0.023 A 
ATOM      5  C4  UNL d   1       2.490  -3.312   1.157  0.00  0.00     0.048 A 
ATOM      6  C5  UNL d   1       1.419  -2.418   1.097  0.00  0.00     0.003 A 
ATOM      7  I   UNL d   1       5.340  -4.248   0.770  0.00  0.00    -0.146 I 
ENDROOT
TORSDOF 0
ENDMDL
