MODEL 1
REMARK minimizedAffinity 9.19664001
REMARK minimizedRMSD -1
REMARK  0 active torsions:
REMARK  status: ('A' for Active; 'I' for Inactive)
ROOT
ATOM      1  C   UNL d   1      -4.236  -0.967  -4.908  0.00  0.00     0.023 A 
ATOM      2  C1  UNL d   1      -3.965   0.016  -5.860  0.00  0.00     0.003 A 
ATOM      3  C2  UNL d   1      -3.612   1.304  -5.453  0.00  0.00     0.048 A 
ATOM      4  C3  UNL d   1      -3.529   1.602  -4.094  0.00  0.00     0.023 A 
ATOM      5  C4  UNL d   1      -3.798   0.621  -3.138  0.00  0.00     0.048 A 
ATOM      6  C5  UNL d   1      -4.152  -0.665  -3.549  0.00  0.00     0.003 A 
ATOM      7  I   UNL d   1      -3.002   3.519  -3.486  0.00  0.00    -0.146 I 
ENDROOT
TORSDOF 0
ENDMDL
