MODEL 1
REMARK minimizedAffinity 3.63311338
REMARK minimizedRMSD -1
REMARK  0 active torsions:
REMARK  status: ('A' for Active; 'I' for Inactive)
ROOT
ATOM      1  C   UNL d   1      -4.930   4.600  -5.358  0.00  0.00     0.023 A 
ATOM      2  C1  UNL d   1      -4.374   5.805  -5.787  0.00  0.00     0.003 A 
ATOM      3  C2  UNL d   1      -2.994   5.912  -5.971  0.00  0.00     0.048 A 
ATOM      4  C3  UNL d   1      -2.176   4.809  -5.726  0.00  0.00     0.023 A 
ATOM      5  C4  UNL d   1      -2.729   3.601  -5.298  0.00  0.00     0.048 A 
ATOM      6  C5  UNL d   1      -4.109   3.499  -5.114  0.00  0.00     0.003 A 
ATOM      7  I   UNL d   1      -0.122   4.965  -6.000  0.00  0.00    -0.146 I 
ENDROOT
TORSDOF 0
ENDMDL
