MODEL 1
REMARK minimizedAffinity -2.85546565
REMARK minimizedRMSD -1
REMARK  0 active torsions:
REMARK  status: ('A' for Active; 'I' for Inactive)
ROOT
ATOM      1  C   UNL d   1       1.947  -1.588   0.703  0.00  0.00     0.023 A 
ATOM      2  C1  UNL d   1       1.536  -1.569   2.036  0.00  0.00     0.003 A 
ATOM      3  C2  UNL d   1       2.319  -2.179   3.018  0.00  0.00     0.048 A 
ATOM      4  C3  UNL d   1       3.512  -2.807   2.660  0.00  0.00     0.023 A 
ATOM      5  C4  UNL d   1       3.927  -2.828   1.328  0.00  0.00     0.048 A 
ATOM      6  C5  UNL d   1       3.141  -2.217   0.349  0.00  0.00     0.003 A 
ATOM      7  I   UNL d   1       4.679  -3.716   4.120  0.00  0.00    -0.146 I 
ENDROOT
TORSDOF 0
ENDMDL
