MODEL 1
REMARK minimizedAffinity 5.34468365
REMARK minimizedRMSD -1
REMARK  0 active torsions:
REMARK  status: ('A' for Active; 'I' for Inactive)
ROOT
ATOM      1  C   UNL d   1      -1.979  -1.635  -3.685  0.00  0.00     0.023 A 
ATOM      2  C1  UNL d   1      -2.939  -1.041  -2.865  0.00  0.00     0.003 A 
ATOM      3  C2  UNL d   1      -3.830  -0.106  -3.395  0.00  0.00     0.048 A 
ATOM      4  C3  UNL d   1      -3.757   0.230  -4.747  0.00  0.00     0.023 A 
ATOM      5  C4  UNL d   1      -2.800  -0.363  -5.571  0.00  0.00     0.048 A 
ATOM      6  C5  UNL d   1      -1.910  -1.297  -5.036  0.00  0.00     0.003 A 
ATOM      7  I   UNL d   1      -5.083   1.621  -5.539  0.00  0.00    -0.146 I 
ENDROOT
TORSDOF 0
ENDMDL
