MODEL 1
REMARK minimizedAffinity 12.3491058
REMARK minimizedRMSD -1
REMARK  0 active torsions:
REMARK  status: ('A' for Active; 'I' for Inactive)
ROOT
ATOM      1  C   UNL d   1       2.290  -0.756   1.236  0.00  0.00    -0.002 A 
ATOM      2  C1  UNL d   1       1.683  -0.841  -0.010  0.00  0.00     0.010 A 
ATOM      3  C2  UNL d   1       0.347  -0.472  -0.175  0.00  0.00     0.041 A 
ATOM      4  C3  UNL d   1      -0.376  -0.009   0.942  0.00  0.00    -0.075 A 
ATOM      5  S   UNL d   1      -2.023   0.499   0.977  0.00  0.00     0.015 SA
ATOM      6  C4  UNL d   1      -1.960   0.842   2.645  0.00  0.00     0.022 A 
ATOM      7  C5  UNL d   1      -0.720   0.581   3.178  0.00  0.00     0.026 A 
ATOM      8  C6  UNL d   1       0.214   0.086   2.206  0.00  0.00    -0.082 A 
ATOM      9  C7  UNL d   1       1.570  -0.297   2.341  0.00  0.00     0.045 A 
ENDROOT
TORSDOF 0
ENDMDL
