MODEL 1
REMARK minimizedAffinity -1.39498949
REMARK minimizedRMSD -1
REMARK  0 active torsions:
REMARK  status: ('A' for Active; 'I' for Inactive)
ROOT
ATOM      1  C   UNL d   1      -4.650   1.509  -0.889  0.00  0.00    -0.002 A 
ATOM      2  C1  UNL d   1      -5.884   2.100  -1.119  0.00  0.00     0.010 A 
ATOM      3  C2  UNL d   1      -5.999   3.488  -1.218  0.00  0.00     0.041 A 
ATOM      4  C3  UNL d   1      -4.841   4.280  -1.083  0.00  0.00    -0.075 A 
ATOM      5  S   UNL d   1      -4.741   5.999  -1.168  0.00  0.00     0.015 SA
ATOM      6  C4  UNL d   1      -3.058   5.989  -0.903  0.00  0.00     0.022 A 
ATOM      7  C5  UNL d   1      -2.568   4.713  -0.751  0.00  0.00     0.026 A 
ATOM      8  C6  UNL d   1      -3.587   3.707  -0.852  0.00  0.00    -0.082 A 
ATOM      9  C7  UNL d   1      -3.503   2.297  -0.756  0.00  0.00     0.045 A 
ENDROOT
TORSDOF 0
ENDMDL
