MODEL 1
REMARK minimizedAffinity 13.754405
REMARK minimizedRMSD -1
REMARK  0 active torsions:
REMARK  status: ('A' for Active; 'I' for Inactive)
ROOT
ATOM      1  C   UNL d   1      -1.694   0.224   2.520  0.00  0.00    -0.002 A 
ATOM      2  C1  UNL d   1      -1.935  -0.128   1.200  0.00  0.00     0.010 A 
ATOM      3  C2  UNL d   1      -0.889  -0.538   0.371  0.00  0.00     0.041 A 
ATOM      4  C3  UNL d   1       0.416  -0.592   0.897  0.00  0.00    -0.075 A 
ATOM      5  S   UNL d   1       1.853  -1.065   0.069  0.00  0.00     0.015 SA
ATOM      6  C4  UNL d   1       2.821  -0.813   1.449  0.00  0.00     0.022 A 
ATOM      7  C5  UNL d   1       2.083  -0.378   2.524  0.00  0.00     0.026 A 
ATOM      8  C6  UNL d   1       0.685  -0.244   2.224  0.00  0.00    -0.082 A 
ATOM      9  C7  UNL d   1      -0.397   0.169   3.039  0.00  0.00     0.045 A 
ENDROOT
TORSDOF 0
ENDMDL
