MODEL 1
REMARK minimizedAffinity 8.34942722
REMARK minimizedRMSD -1
REMARK  0 active torsions:
REMARK  status: ('A' for Active; 'I' for Inactive)
ROOT
ATOM      1  C   UNL d   1      -1.584   0.192   2.373  0.00  0.00    -0.002 A 
ATOM      2  C1  UNL d   1      -0.308   0.447   2.857  0.00  0.00     0.010 A 
ATOM      3  C2  UNL d   1       0.816  -0.027   2.179  0.00  0.00     0.041 A 
ATOM      4  C3  UNL d   1       0.636  -0.766   0.993  0.00  0.00    -0.075 A 
ATOM      5  S   UNL d   1       1.866  -1.444  -0.006  0.00  0.00     0.015 SA
ATOM      6  C4  UNL d   1       0.728  -2.087  -1.100  0.00  0.00     0.022 A 
ATOM      7  C5  UNL d   1      -0.564  -1.801  -0.727  0.00  0.00     0.026 A 
ATOM      8  C6  UNL d   1      -0.638  -1.034   0.485  0.00  0.00    -0.082 A 
ATOM      9  C7  UNL d   1      -1.759  -0.541   1.196  0.00  0.00     0.045 A 
ENDROOT
TORSDOF 0
ENDMDL
