MODEL 1
REMARK minimizedAffinity 6.58310652
REMARK minimizedRMSD -1
REMARK  0 active torsions:
REMARK  status: ('A' for Active; 'I' for Inactive)
ROOT
ATOM      1  C   UNL d   1       3.338  -0.658   1.790  0.00  0.00    -0.002 A 
ATOM      2  C1  UNL d   1       2.821  -0.448   0.520  0.00  0.00     0.010 A 
ATOM      3  C2  UNL d   1       1.559   0.127   0.353  0.00  0.00     0.041 A 
ATOM      4  C3  UNL d   1       0.820   0.492   1.495  0.00  0.00    -0.075 A 
ATOM      5  S   UNL d   1      -0.746   1.212   1.534  0.00  0.00     0.015 SA
ATOM      6  C4  UNL d   1      -0.765   1.258   3.237  0.00  0.00     0.022 A 
ATOM      7  C5  UNL d   1       0.387   0.740   3.780  0.00  0.00     0.026 A 
ATOM      8  C6  UNL d   1       1.320   0.291   2.785  0.00  0.00    -0.082 A 
ATOM      9  C7  UNL d   1       2.602  -0.295   2.921  0.00  0.00     0.045 A 
ENDROOT
TORSDOF 0
ENDMDL
