MODEL 1
REMARK minimizedAffinity -1.99527895
REMARK minimizedRMSD -1
REMARK  0 active torsions:
REMARK  status: ('A' for Active; 'I' for Inactive)
ROOT
ATOM      1  C   UNL d   1      -0.342  -3.804  -2.006  0.00  0.00     0.023 A 
ATOM      2  C1  UNL d   1       0.893  -3.187  -1.810  0.00  0.00     0.003 A 
ATOM      3  C2  UNL d   1       0.991  -2.064  -0.987  0.00  0.00     0.048 A 
ATOM      4  C3  UNL d   1      -0.150  -1.563  -0.361  0.00  0.00     0.023 A 
ATOM      5  C4  UNL d   1      -1.389  -2.178  -0.554  0.00  0.00     0.048 A 
ATOM      6  C5  UNL d   1      -1.482  -3.300  -1.379  0.00  0.00     0.003 A 
ATOM      7  I   UNL d   1      -0.007   0.109   0.865  0.00  0.00    -0.146 I 
ENDROOT
TORSDOF 0
ENDMDL
