MODEL 1
REMARK minimizedAffinity -5.82013369
REMARK minimizedRMSD -1
REMARK  0 active torsions:
REMARK  status: ('A' for Active; 'I' for Inactive)
ROOT
ATOM      1  C   UNL d   1      -1.438   3.249   1.365  0.00  0.00     0.023 A 
ATOM      2  C1  UNL d   1      -1.358   3.285  -0.027  0.00  0.00     0.003 A 
ATOM      3  C2  UNL d   1      -0.904   2.167  -0.730  0.00  0.00     0.048 A 
ATOM      4  C3  UNL d   1      -0.533   1.017  -0.036  0.00  0.00     0.023 A 
ATOM      5  C4  UNL d   1      -0.612   0.976   1.357  0.00  0.00     0.048 A 
ATOM      6  C5  UNL d   1      -1.066   2.096   2.057  0.00  0.00     0.003 A 
ATOM      7  I   UNL d   1       0.143  -0.648  -1.081  0.00  0.00    -0.146 I 
ENDROOT
TORSDOF 0
ENDMDL
