MODEL 1
REMARK minimizedAffinity -4.52767992
REMARK minimizedRMSD -1
REMARK  0 active torsions:
REMARK  status: ('A' for Active; 'I' for Inactive)
ROOT
ATOM      1  C   UNL d   1      -1.179   2.988   1.012  0.00  0.00     0.023 A 
ATOM      2  C1  UNL d   1      -0.721   2.001   1.885  0.00  0.00     0.003 A 
ATOM      3  C2  UNL d   1      -0.206   0.805   1.381  0.00  0.00     0.048 A 
ATOM      4  C3  UNL d   1      -0.152   0.602   0.003  0.00  0.00     0.023 A 
ATOM      5  C4  UNL d   1      -0.608   1.587  -0.875  0.00  0.00     0.048 A 
ATOM      6  C5  UNL d   1      -1.123   2.781  -0.366  0.00  0.00     0.003 A 
ATOM      7  I   UNL d   1       0.614  -1.177  -0.750  0.00  0.00    -0.146 I 
ENDROOT
TORSDOF 0
ENDMDL
