MODEL 1
REMARK minimizedAffinity -4.25190783
REMARK minimizedRMSD -1
REMARK  0 active torsions:
REMARK  status: ('A' for Active; 'I' for Inactive)
ROOT
ATOM      1  C   UNL d   1      -1.147   3.119   0.610  0.00  0.00     0.023 A 
ATOM      2  C1  UNL d   1      -0.954   2.773  -0.728  0.00  0.00     0.003 A 
ATOM      3  C2  UNL d   1      -0.564   1.475  -1.065  0.00  0.00     0.048 A 
ATOM      4  C3  UNL d   1      -0.370   0.528  -0.060  0.00  0.00     0.023 A 
ATOM      5  C4  UNL d   1      -0.564   0.870   1.280  0.00  0.00     0.048 A 
ATOM      6  C5  UNL d   1      -0.952   2.169   1.612  0.00  0.00     0.003 A 
ATOM      7  I   UNL d   1       0.209  -1.404  -0.560  0.00  0.00    -0.146 I 
ENDROOT
TORSDOF 0
ENDMDL
