MODEL 1
REMARK minimizedAffinity -0.828513801
REMARK minimizedRMSD -1
REMARK  0 active torsions:
REMARK  status: ('A' for Active; 'I' for Inactive)
ROOT
ATOM      1  C   UNL d   1       0.456   0.921   1.191  0.00  0.00     0.023 A 
ATOM      2  C1  UNL d   1       0.225   1.322  -0.125  0.00  0.00     0.003 A 
ATOM      3  C2  UNL d   1       0.120   2.679  -0.435  0.00  0.00     0.048 A 
ATOM      4  C3  UNL d   1       0.248   3.631   0.576  0.00  0.00     0.023 A 
ATOM      5  C4  UNL d   1       0.480   3.235   1.894  0.00  0.00     0.048 A 
ATOM      6  C5  UNL d   1       0.584   1.877   2.199  0.00  0.00     0.003 A 
ATOM      7  I   UNL d   1       0.092   5.652   0.117  0.00  0.00    -0.146 I 
ENDROOT
TORSDOF 0
ENDMDL
