MODEL 1
REMARK minimizedAffinity 8.00158787
REMARK minimizedRMSD -1
REMARK  0 active torsions:
REMARK  status: ('A' for Active; 'I' for Inactive)
ROOT
ATOM      1  C   UNL d   1       5.742  -4.464   1.899  0.00  0.00     0.078 C 
ATOM      2  C1  UNL d   1       4.545  -3.745   2.444  0.00  0.00    -0.077 A 
ATOM      3  C2  UNL d   1       3.823  -2.843   1.654  0.00  0.00    -0.001 A 
ATOM      4  C3  UNL d   1       2.716  -2.173   2.178  0.00  0.00     0.003 A 
ATOM      5  C4  UNL d   1       2.322  -2.398   3.495  0.00  0.00    -0.005 A 
ATOM      6  C5  UNL d   1       3.035  -3.292   4.291  0.00  0.00     0.003 A 
ATOM      7  C6  UNL d   1       4.142  -3.962   3.768  0.00  0.00    -0.001 A 
ENDROOT
TORSDOF 0
ENDMDL
