MODEL 1
REMARK minimizedAffinity -0.355924428
REMARK minimizedRMSD -1
REMARK  0 active torsions:
REMARK  status: ('A' for Active; 'I' for Inactive)
ROOT
ATOM      1  C   UNL d   1       4.159  -3.619   1.413  0.00  0.00     0.078 C 
ATOM      2  C1  UNL d   1       3.051  -4.126   0.539  0.00  0.00    -0.077 A 
ATOM      3  C2  UNL d   1       2.662  -5.471   0.575  0.00  0.00    -0.001 A 
ATOM      4  C3  UNL d   1       1.635  -5.931  -0.251  0.00  0.00     0.003 A 
ATOM      5  C4  UNL d   1       0.989  -5.053  -1.120  0.00  0.00    -0.005 A 
ATOM      6  C5  UNL d   1       1.371  -3.714  -1.164  0.00  0.00     0.003 A 
ATOM      7  C6  UNL d   1       2.397  -3.252  -0.339  0.00  0.00    -0.001 A 
ENDROOT
TORSDOF 0
ENDMDL
