MODEL 1
REMARK minimizedAffinity 6.54203558
REMARK minimizedRMSD -1
REMARK  0 active torsions:
REMARK  status: ('A' for Active; 'I' for Inactive)
ROOT
ATOM      1  C   UNL d   1       0.680  -5.977   0.136  0.00  0.00     0.078 C 
ATOM      2  C1  UNL d   1       0.748  -4.804  -0.797  0.00  0.00    -0.077 A 
ATOM      3  C2  UNL d   1       0.528  -3.501  -0.334  0.00  0.00    -0.001 A 
ATOM      4  C3  UNL d   1       0.585  -2.420  -1.215  0.00  0.00     0.003 A 
ATOM      5  C4  UNL d   1       0.860  -2.631  -2.564  0.00  0.00    -0.005 A 
ATOM      6  C5  UNL d   1       1.078  -3.925  -3.035  0.00  0.00     0.003 A 
ATOM      7  C6  UNL d   1       1.021  -5.007  -2.155  0.00  0.00    -0.001 A 
ENDROOT
TORSDOF 0
ENDMDL
