MODEL 1
REMARK minimizedAffinity 2.39569664
REMARK minimizedRMSD -1
REMARK  0 active torsions:
REMARK  status: ('A' for Active; 'I' for Inactive)
ROOT
ATOM      1  C   UNL d   1       3.414  -2.353  -4.550  0.00  0.00     0.078 C 
ATOM      2  C1  UNL d   1       4.182  -3.603  -4.864  0.00  0.00    -0.077 A 
ATOM      3  C2  UNL d   1       5.301  -3.570  -5.705  0.00  0.00    -0.001 A 
ATOM      4  C3  UNL d   1       6.000  -4.742  -5.997  0.00  0.00     0.003 A 
ATOM      5  C4  UNL d   1       5.587  -5.957  -5.452  0.00  0.00    -0.005 A 
ATOM      6  C5  UNL d   1       4.473  -6.000  -4.616  0.00  0.00     0.003 A 
ATOM      7  C6  UNL d   1       3.773  -4.828  -4.323  0.00  0.00    -0.001 A 
ENDROOT
TORSDOF 0
ENDMDL
