MODEL 1
REMARK minimizedAffinity 3.049896
REMARK minimizedRMSD -1
REMARK  0 active torsions:
REMARK  status: ('A' for Active; 'I' for Inactive)
ROOT
ATOM      1  C   UNL d   1       3.019  -2.622  -4.126  0.00  0.00     0.078 C 
ATOM      2  C1  UNL d   1       3.961  -3.643  -4.689  0.00  0.00    -0.077 A 
ATOM      3  C2  UNL d   1       5.060  -3.259  -5.466  0.00  0.00    -0.001 A 
ATOM      4  C3  UNL d   1       5.924  -4.222  -5.992  0.00  0.00     0.003 A 
ATOM      5  C4  UNL d   1       5.696  -5.574  -5.748  0.00  0.00    -0.005 A 
ATOM      6  C5  UNL d   1       4.603  -5.966  -4.977  0.00  0.00     0.003 A 
ATOM      7  C6  UNL d   1       3.739  -5.005  -4.450  0.00  0.00    -0.001 A 
ENDROOT
TORSDOF 0
ENDMDL
