MODEL 1
REMARK minimizedAffinity 4.90152359
REMARK minimizedRMSD -1
REMARK  0 active torsions:
REMARK  status: ('A' for Active; 'I' for Inactive)
ROOT
ATOM      1  C   UNL d   1       1.934  -2.053   4.944  0.00  0.00     0.078 C 
ATOM      2  C1  UNL d   1       2.751  -2.439   3.748  0.00  0.00    -0.077 A 
ATOM      3  C2  UNL d   1       2.738  -1.660   2.584  0.00  0.00    -0.001 A 
ATOM      4  C3  UNL d   1       3.497  -2.037   1.475  0.00  0.00     0.003 A 
ATOM      5  C4  UNL d   1       4.273  -3.193   1.518  0.00  0.00    -0.005 A 
ATOM      6  C5  UNL d   1       4.291  -3.975   2.671  0.00  0.00     0.003 A 
ATOM      7  C6  UNL d   1       3.533  -3.600   3.781  0.00  0.00    -0.001 A 
ENDROOT
TORSDOF 0
ENDMDL
