MODEL 1
REMARK minimizedAffinity 0.183062762
REMARK minimizedRMSD -1
REMARK  0 active torsions:
REMARK  status: ('A' for Active; 'I' for Inactive)
ROOT
ATOM      1  C   UNL d   1       0.394  -6.000  -0.834  0.00  0.00     0.078 C 
ATOM      2  C1  UNL d   1      -0.528  -4.924  -0.343  0.00  0.00    -0.077 A 
ATOM      3  C2  UNL d   1      -1.714  -5.242   0.330  0.00  0.00    -0.001 A 
ATOM      4  C3  UNL d   1      -2.567  -4.230   0.773  0.00  0.00     0.003 A 
ATOM      5  C4  UNL d   1      -2.244  -2.894   0.547  0.00  0.00    -0.005 A 
ATOM      6  C5  UNL d   1      -1.067  -2.567  -0.124  0.00  0.00     0.003 A 
ATOM      7  C6  UNL d   1      -0.213  -3.578  -0.567  0.00  0.00    -0.001 A 
ENDROOT
TORSDOF 0
ENDMDL
