MODEL 1
REMARK minimizedAffinity 7.83460093
REMARK minimizedRMSD -1
REMARK  0 active torsions:
REMARK  status: ('A' for Active; 'I' for Inactive)
ROOT
ATOM      1  C   UNL d   1      -2.878   0.018  -3.070  0.00  0.00     0.078 C 
ATOM      2  C1  UNL d   1      -3.365   1.436  -3.103  0.00  0.00    -0.077 A 
ATOM      3  C2  UNL d   1      -3.690   2.114  -1.922  0.00  0.00    -0.001 A 
ATOM      4  C3  UNL d   1      -4.152   3.430  -1.968  0.00  0.00     0.003 A 
ATOM      5  C4  UNL d   1      -4.295   4.079  -3.193  0.00  0.00    -0.005 A 
ATOM      6  C5  UNL d   1      -3.976   3.411  -4.374  0.00  0.00     0.003 A 
ATOM      7  C6  UNL d   1      -3.514   2.095  -4.329  0.00  0.00    -0.001 A 
ENDROOT
TORSDOF 0
ENDMDL
