MODEL 1
REMARK minimizedAffinity -2.30843329
REMARK minimizedRMSD -1
REMARK  0 active torsions:
REMARK  status: ('A' for Active; 'I' for Inactive)
ROOT
ATOM      1  C   UNL d   1       5.996   3.367  -4.487  0.00  0.00     0.078 C 
ATOM      2  C1  UNL d   1       5.294   4.155  -3.422  0.00  0.00    -0.077 A 
ATOM      3  C2  UNL d   1       3.964   3.881  -3.080  0.00  0.00    -0.001 A 
ATOM      4  C3  UNL d   1       3.320   4.630  -2.093  0.00  0.00     0.003 A 
ATOM      5  C4  UNL d   1       3.998   5.658  -1.442  0.00  0.00    -0.005 A 
ATOM      6  C5  UNL d   1       5.321   5.940  -1.776  0.00  0.00     0.003 A 
ATOM      7  C6  UNL d   1       5.966   5.192  -2.763  0.00  0.00    -0.001 A 
ENDROOT
TORSDOF 0
ENDMDL
