MODEL 1
REMARK minimizedAffinity -0.0629113168
REMARK minimizedRMSD -1
REMARK  3 active torsions:
REMARK  status: ('A' for Active; 'I' for Inactive)
REMARK    1  A    between atoms: C3'_2  and  C2'_3 
REMARK    2  A    between atoms: C2'_3  and  C1'_4 
REMARK    3  A    between atoms: C1'_4  and  C1_5 
ROOT
ATOM      1  C1  N4B d   1      -0.511  -1.211  -1.981  0.00  0.00    -0.075 A 
ATOM      2  C2  N4B d   1      -0.872  -0.689  -3.243  0.00  0.00     0.002 A 
ATOM      3  C3  N4B d   1      -2.126  -0.926  -3.750  0.00  0.00     0.002 A 
ATOM      4  C4  N4B d   1      -3.025  -1.695  -3.026  0.00  0.00    -0.004 A 
ATOM      5  C5  N4B d   1      -2.677  -2.174  -1.797  0.00  0.00     0.002 A 
ATOM      6  C6  N4B d   1      -1.422  -1.940  -1.273  0.00  0.00     0.002 A 
ENDROOT
BRANCH   1   7
ATOM      7  C1' N4B d   1       0.877  -1.051  -1.423  0.00  0.00     0.057 C 
BRANCH   7   8
ATOM      8  C2' N4B d   1       0.783  -0.626   0.039  0.00  0.00     0.009 C 
BRANCH   8   9
ATOM      9  C3' N4B d   1       1.406   0.739   0.276  0.00  0.00     0.004 C 
ATOM     10  C4' N4B d   1       1.029   1.327   1.603  0.00  0.00     0.003 C 
ENDBRANCH   8   9
ENDBRANCH   7   8
ENDBRANCH   1   7
TORSDOF 3
ENDMDL
