MODEL 1
REMARK minimizedAffinity -1.1530813
REMARK minimizedRMSD -1
REMARK  3 active torsions:
REMARK  status: ('A' for Active; 'I' for Inactive)
REMARK    1  A    between atoms: C3'_2  and  C2'_3 
REMARK    2  A    between atoms: C2'_3  and  C1'_4 
REMARK    3  A    between atoms: C1'_4  and  C1_5 
ROOT
ATOM      1  C1  N4B d   1       2.480   1.831   2.230  0.00  0.00    -0.075 A 
ATOM      2  C2  N4B d   1       3.247   1.035   1.351  0.00  0.00     0.002 A 
ATOM      3  C3  N4B d   1       4.618   1.122   1.364  0.00  0.00     0.002 A 
ATOM      4  C4  N4B d   1       5.240   2.008   2.230  0.00  0.00    -0.004 A 
ATOM      5  C5  N4B d   1       4.493   2.755   3.094  0.00  0.00     0.002 A 
ATOM      6  C6  N4B d   1       3.115   2.675   3.094  0.00  0.00     0.002 A 
ENDROOT
BRANCH   1   7
ATOM      7  C1' N4B d   1       0.977   1.833   2.192  0.00  0.00     0.057 C 
BRANCH   7   8
ATOM      8  C2' N4B d   1       0.511   1.548   0.767  0.00  0.00     0.009 C 
BRANCH   8   9
ATOM      9  C3' N4B d   1      -0.298   0.265   0.679  0.00  0.00     0.004 C 
ATOM     10  C4' N4B d   1       0.416  -0.821  -0.069  0.00  0.00     0.003 C 
ENDBRANCH   8   9
ENDBRANCH   7   8
ENDBRANCH   1   7
TORSDOF 3
ENDMDL
