MODEL 1
REMARK minimizedAffinity 2.18880486
REMARK minimizedRMSD -1
REMARK  3 active torsions:
REMARK  status: ('A' for Active; 'I' for Inactive)
REMARK    1  A    between atoms: C3'_2  and  C2'_3 
REMARK    2  A    between atoms: C2'_3  and  C1'_4 
REMARK    3  A    between atoms: C1'_4  and  C1_5 
ROOT
ATOM      1  C1  N4B d   1      -1.122  -3.314   1.048  0.00  0.00    -0.075 A 
ATOM      2  C2  N4B d   1      -2.367  -3.441   0.393  0.00  0.00     0.002 A 
ATOM      3  C3  N4B d   1      -3.059  -4.626   0.460  0.00  0.00     0.002 A 
ATOM      4  C4  N4B d   1      -2.520  -5.697   1.156  0.00  0.00    -0.004 A 
ATOM      5  C5  N4B d   1      -1.330  -5.557   1.807  0.00  0.00     0.002 A 
ATOM      6  C6  N4B d   1      -0.625  -4.372   1.752  0.00  0.00     0.002 A 
ENDROOT
BRANCH   1   7
ATOM      7  C1' N4B d   1      -0.288  -2.067   0.932  0.00  0.00     0.057 C 
BRANCH   7   8
ATOM      8  C2' N4B d   1       0.917  -2.352   0.041  0.00  0.00     0.009 C 
BRANCH   8   9
ATOM      9  C3' N4B d   1       1.152  -1.242  -0.969  0.00  0.00     0.004 C 
ATOM     10  C4' N4B d   1       2.308  -0.359  -0.603  0.00  0.00     0.003 C 
ENDBRANCH   8   9
ENDBRANCH   7   8
ENDBRANCH   1   7
TORSDOF 3
ENDMDL
