MODEL 1
REMARK minimizedAffinity -1.79000723
REMARK minimizedRMSD -1
REMARK  3 active torsions:
REMARK  status: ('A' for Active; 'I' for Inactive)
REMARK    1  A    between atoms: C3'_2  and  C2'_3 
REMARK    2  A    between atoms: C2'_3  and  C1'_4 
REMARK    3  A    between atoms: C1'_4  and  C1_5 
ROOT
ATOM      1  C1  N4B d   1       0.371  -0.015  -2.498  0.00  0.00    -0.075 A 
ATOM      2  C2  N4B d   1       0.838   1.316  -2.428  0.00  0.00     0.002 A 
ATOM      3  C3  N4B d   1       1.738   1.677  -1.455  0.00  0.00     0.002 A 
ATOM      4  C4  N4B d   1       2.167   0.734  -0.534  0.00  0.00    -0.004 A 
ATOM      5  C5  N4B d   1       1.731  -0.555  -0.624  0.00  0.00     0.002 A 
ATOM      6  C6  N4B d   1       0.830  -0.934  -1.600  0.00  0.00     0.002 A 
ENDROOT
BRANCH   1   7
ATOM      7  C1' N4B d   1      -0.678  -0.437  -3.491  0.00  0.00     0.057 C 
BRANCH   7   8
ATOM      8  C2' N4B d   1      -0.552  -1.936  -3.746  0.00  0.00     0.009 C 
BRANCH   8   9
ATOM      9  C3' N4B d   1      -1.909  -2.611  -3.852  0.00  0.00     0.004 C 
ATOM     10  C4' N4B d   1      -2.976  -1.892  -3.082  0.00  0.00     0.003 C 
ENDBRANCH   8   9
ENDBRANCH   7   8
ENDBRANCH   1   7
TORSDOF 3
ENDMDL
