MODEL 1
REMARK minimizedAffinity 5.70721722
REMARK minimizedRMSD -1
REMARK  3 active torsions:
REMARK  status: ('A' for Active; 'I' for Inactive)
REMARK    1  A    between atoms: C3'_2  and  C2'_3 
REMARK    2  A    between atoms: C2'_3  and  C1'_4 
REMARK    3  A    between atoms: C1'_4  and  C1_5 
ROOT
ATOM      1  C1  N4B d   1      -1.523  -0.411   0.376  0.00  0.00    -0.075 A 
ATOM      2  C2  N4B d   1      -0.159  -0.571   0.705  0.00  0.00     0.002 A 
ATOM      3  C3  N4B d   1       0.478   0.373   1.472  0.00  0.00     0.002 A 
ATOM      4  C4  N4B d   1      -0.220   1.490   1.904  0.00  0.00    -0.004 A 
ATOM      5  C5  N4B d   1      -1.544   1.625   1.603  0.00  0.00     0.002 A 
ATOM      6  C6  N4B d   1      -2.198   0.682   0.837  0.00  0.00     0.002 A 
ENDROOT
BRANCH   1   7
ATOM      7  C1' N4B d   1      -2.239  -1.373  -0.531  0.00  0.00     0.057 C 
BRANCH   7   8
ATOM      8  C2' N4B d   1      -1.988  -0.975  -1.983  0.00  0.00     0.009 C 
BRANCH   8   9
ATOM      9  C3' N4B d   1      -2.899  -1.721  -2.943  0.00  0.00     0.004 C 
ATOM     10  C4' N4B d   1      -4.064  -2.366  -2.254  0.00  0.00     0.003 C 
ENDBRANCH   8   9
ENDBRANCH   7   8
ENDBRANCH   1   7
TORSDOF 3
ENDMDL
