MODEL 1
REMARK minimizedAffinity 1.57734799
REMARK minimizedRMSD -1
REMARK  3 active torsions:
REMARK  status: ('A' for Active; 'I' for Inactive)
REMARK    1  A    between atoms: C3'_2  and  C2'_3 
REMARK    2  A    between atoms: C2'_3  and  C1'_4 
REMARK    3  A    between atoms: C1'_4  and  C1_5 
ROOT
ATOM      1  C1  N4B d   1      -3.246  -4.602  -1.193  0.00  0.00    -0.075 A 
ATOM      2  C2  N4B d   1      -4.340  -5.495  -1.193  0.00  0.00     0.002 A 
ATOM      3  C3  N4B d   1      -5.488  -5.174  -1.874  0.00  0.00     0.002 A 
ATOM      4  C4  N4B d   1      -5.573  -3.962  -2.543  0.00  0.00    -0.004 A 
ATOM      5  C5  N4B d   1      -4.503  -3.116  -2.559  0.00  0.00     0.002 A 
ATOM      6  C6  N4B d   1      -3.341  -3.428  -1.883  0.00  0.00     0.002 A 
ENDROOT
BRANCH   1   7
ATOM      7  C1' N4B d   1      -2.001  -4.871  -0.393  0.00  0.00     0.057 C 
BRANCH   7   8
ATOM      8  C2' N4B d   1      -2.069  -4.091   0.917  0.00  0.00     0.009 C 
BRANCH   8   9
ATOM      9  C3' N4B d   1      -0.700  -3.610   1.364  0.00  0.00     0.004 C 
ATOM     10  C4' N4B d   1      -0.254  -2.374   0.642  0.00  0.00     0.003 C 
ENDBRANCH   8   9
ENDBRANCH   7   8
ENDBRANCH   1   7
TORSDOF 3
ENDMDL
