MODEL 1
REMARK minimizedAffinity 10.560358
REMARK minimizedRMSD -1
REMARK  3 active torsions:
REMARK  status: ('A' for Active; 'I' for Inactive)
REMARK    1  A    between atoms: C3'_2  and  C2'_3 
REMARK    2  A    between atoms: C2'_3  and  C1'_4 
REMARK    3  A    between atoms: C1'_4  and  C1_5 
ROOT
ATOM      1  C1  N4B d   1      -1.629   2.731   1.044  0.00  0.00    -0.075 A 
ATOM      2  C2  N4B d   1      -0.358   3.272   1.336  0.00  0.00     0.002 A 
ATOM      3  C3  N4B d   1       0.450   2.664   2.265  0.00  0.00     0.002 A 
ATOM      4  C4  N4B d   1       0.002   1.531   2.927  0.00  0.00    -0.004 A 
ATOM      5  C5  N4B d   1      -1.216   1.000   2.621  0.00  0.00     0.002 A 
ATOM      6  C6  N4B d   1      -2.037   1.598   1.686  0.00  0.00     0.002 A 
ENDROOT
BRANCH   1   7
ATOM      7  C1' N4B d   1      -2.583   3.408   0.099  0.00  0.00     0.057 C 
BRANCH   7   8
ATOM      8  C2' N4B d   1      -1.819   3.866  -1.140  0.00  0.00     0.009 C 
BRANCH   8   9
ATOM      9  C3' N4B d   1      -1.723   5.380  -1.221  0.00  0.00     0.004 C 
ATOM     10  C4' N4B d   1      -2.893   6.000  -1.925  0.00  0.00     0.003 C 
ENDBRANCH   8   9
ENDBRANCH   7   8
ENDBRANCH   1   7
TORSDOF 3
ENDMDL
