MODEL 1
REMARK minimizedAffinity 3.08467174
REMARK minimizedRMSD -1
REMARK  3 active torsions:
REMARK  status: ('A' for Active; 'I' for Inactive)
REMARK    1  A    between atoms: C3'_2  and  C2'_3 
REMARK    2  A    between atoms: C2'_3  and  C1'_4 
REMARK    3  A    between atoms: C1'_4  and  C1_5 
ROOT
ATOM      1  C1  N4B d   1       1.538   0.097  -0.644  0.00  0.00    -0.075 A 
ATOM      2  C2  N4B d   1       0.508   0.489  -1.527  0.00  0.00     0.002 A 
ATOM      3  C3  N4B d   1       0.663   0.321  -2.881  0.00  0.00     0.002 A 
ATOM      4  C4  N4B d   1       1.842  -0.218  -3.375  0.00  0.00    -0.004 A 
ATOM      5  C5  N4B d   1       2.822  -0.617  -2.514  0.00  0.00     0.002 A 
ATOM      6  C6  N4B d   1       2.678  -0.458  -1.150  0.00  0.00     0.002 A 
ENDROOT
BRANCH   1   7
ATOM      7  C1' N4B d   1       1.449   0.340   0.838  0.00  0.00     0.057 C 
BRANCH   7   8
ATOM      8  C2' N4B d   1       1.484   1.843   1.101  0.00  0.00     0.009 C 
BRANCH   8   9
ATOM      9  C3' N4B d   1       0.154   2.360   1.622  0.00  0.00     0.004 C 
ATOM     10  C4' N4B d   1      -0.346   1.587   2.806  0.00  0.00     0.003 C 
ENDBRANCH   8   9
ENDBRANCH   7   8
ENDBRANCH   1   7
TORSDOF 3
ENDMDL
