MODEL 1
REMARK minimizedAffinity 4.96819115
REMARK minimizedRMSD -1
REMARK  3 active torsions:
REMARK  status: ('A' for Active; 'I' for Inactive)
REMARK    1  A    between atoms: C3'_2  and  C2'_3 
REMARK    2  A    between atoms: C2'_3  and  C1'_4 
REMARK    3  A    between atoms: C1'_4  and  C1_5 
ROOT
ATOM      1  C1  N4B d   1       0.797   1.266   1.551  0.00  0.00    -0.075 A 
ATOM      2  C2  N4B d   1       0.066   2.473   1.592  0.00  0.00     0.002 A 
ATOM      3  C3  N4B d   1      -1.224   2.479   2.065  0.00  0.00     0.002 A 
ATOM      4  C4  N4B d   1      -1.807   1.292   2.482  0.00  0.00    -0.004 A 
ATOM      5  C5  N4B d   1      -1.085   0.134   2.463  0.00  0.00     0.002 A 
ATOM      6  C6  N4B d   1       0.213   0.114   1.994  0.00  0.00     0.002 A 
ENDROOT
BRANCH   1   7
ATOM      7  C1' N4B d   1       2.180   1.194   0.963  0.00  0.00     0.057 C 
BRANCH   7   8
ATOM      8  C2' N4B d   1       2.072   0.999  -0.547  0.00  0.00     0.009 C 
BRANCH   8   9
ATOM      9  C3' N4B d   1       2.726  -0.294  -1.001  0.00  0.00     0.004 C 
ATOM     10  C4' N4B d   1       1.729  -1.361  -1.341  0.00  0.00     0.003 C 
ENDBRANCH   8   9
ENDBRANCH   7   8
ENDBRANCH   1   7
TORSDOF 3
ENDMDL
