MODEL 1
REMARK minimizedAffinity 7.77421904
REMARK minimizedRMSD -1
REMARK  3 active torsions:
REMARK  status: ('A' for Active; 'I' for Inactive)
REMARK    1  A    between atoms: C3'_2  and  C2'_3 
REMARK    2  A    between atoms: C2'_3  and  C1'_4 
REMARK    3  A    between atoms: C1'_4  and  C1_5 
ROOT
ATOM      1  C1  N4B d   1       1.961   0.776   0.852  0.00  0.00    -0.075 A 
ATOM      2  C2  N4B d   1       1.245  -0.382   0.479  0.00  0.00     0.002 A 
ATOM      3  C3  N4B d   1       1.683  -1.152  -0.571  0.00  0.00     0.002 A 
ATOM      4  C4  N4B d   1       2.819  -0.774  -1.271  0.00  0.00    -0.004 A 
ATOM      5  C5  N4B d   1       3.519   0.332  -0.889  0.00  0.00     0.002 A 
ATOM      6  C6  N4B d   1       3.093   1.113   0.166  0.00  0.00     0.002 A 
ENDROOT
BRANCH   1   7
ATOM      7  C1' N4B d   1       1.474   1.696   1.937  0.00  0.00     0.057 C 
BRANCH   7   8
ATOM      8  C2' N4B d   1      -0.014   1.450   2.172  0.00  0.00     0.009 C 
BRANCH   8   9
ATOM      9  C3' N4B d   1      -0.854   2.663   1.810  0.00  0.00     0.004 C 
ATOM     10  C4' N4B d   1      -2.292   2.513   2.207  0.00  0.00     0.003 C 
ENDBRANCH   8   9
ENDBRANCH   7   8
ENDBRANCH   1   7
TORSDOF 3
ENDMDL
