MODEL 1
REMARK minimizedAffinity 0.789141417
REMARK minimizedRMSD -1
REMARK  3 active torsions:
REMARK  status: ('A' for Active; 'I' for Inactive)
REMARK    1  A    between atoms: C3'_2  and  C2'_3 
REMARK    2  A    between atoms: C2'_3  and  C1'_4 
REMARK    3  A    between atoms: C1'_4  and  C1_5 
ROOT
ATOM      1  C1  N4B d   1      -1.071   1.496   1.297  0.00  0.00    -0.075 A 
ATOM      2  C2  N4B d   1      -0.460   2.736   1.587  0.00  0.00     0.002 A 
ATOM      3  C3  N4B d   1       0.838   2.968   1.204  0.00  0.00     0.002 A 
ATOM      4  C4  N4B d   1       1.548   1.972   0.550  0.00  0.00    -0.004 A 
ATOM      5  C5  N4B d   1       0.943   0.787   0.251  0.00  0.00     0.002 A 
ATOM      6  C6  N4B d   1      -0.363   0.542   0.627  0.00  0.00     0.002 A 
ENDROOT
BRANCH   1   7
ATOM      7  C1' N4B d   1      -2.460   1.165   1.772  0.00  0.00     0.057 C 
BRANCH   7   8
ATOM      8  C2' N4B d   1      -3.253   2.458   1.942  0.00  0.00     0.009 C 
BRANCH   8   9
ATOM      9  C3' N4B d   1      -4.428   2.283   2.888  0.00  0.00     0.004 C 
ATOM     10  C4' N4B d   1      -4.837   3.566   3.549  0.00  0.00     0.003 C 
ENDBRANCH   8   9
ENDBRANCH   7   8
ENDBRANCH   1   7
TORSDOF 3
ENDMDL
