MODEL 1
REMARK minimizedAffinity -2.43212056
REMARK minimizedRMSD -1
REMARK  3 active torsions:
REMARK  status: ('A' for Active; 'I' for Inactive)
REMARK    1  A    between atoms: C3'_2  and  C2'_3 
REMARK    2  A    between atoms: C2'_3  and  C1'_4 
REMARK    3  A    between atoms: C1'_4  and  C1_5 
ROOT
ATOM      1  C1  N4B d   1      -1.754   1.138   2.072  0.00  0.00    -0.075 A 
ATOM      2  C2  N4B d   1      -1.285   0.092   1.248  0.00  0.00     0.002 A 
ATOM      3  C3  N4B d   1       0.049   0.013   0.931  0.00  0.00     0.002 A 
ATOM      4  C4  N4B d   1       0.926   0.975   1.409  0.00  0.00    -0.004 A 
ATOM      5  C5  N4B d   1       0.469   1.968   2.226  0.00  0.00     0.002 A 
ATOM      6  C6  N4B d   1      -0.869   2.057   2.556  0.00  0.00     0.002 A 
ENDROOT
BRANCH   1   7
ATOM      7  C1' N4B d   1      -3.217   1.315   2.376  0.00  0.00     0.057 C 
BRANCH   7   8
ATOM      8  C2' N4B d   1      -3.373   2.295   3.534  0.00  0.00     0.009 C 
BRANCH   8   9
ATOM      9  C3' N4B d   1      -4.620   3.151   3.390  0.00  0.00     0.004 C 
ATOM     10  C4' N4B d   1      -4.730   4.201   4.455  0.00  0.00     0.003 C 
ENDBRANCH   8   9
ENDBRANCH   7   8
ENDBRANCH   1   7
TORSDOF 3
ENDMDL
