MODEL 1
REMARK minimizedAffinity 7.5813756
REMARK minimizedRMSD -1
REMARK  0 active torsions:
REMARK  status: ('A' for Active; 'I' for Inactive)
ROOT
ATOM      1  C1  DEN d   1       0.736   3.789  -0.571  0.00  0.00     0.130 A 
ATOM      2  C2  DEN d   1      -0.347   3.365   0.312  0.00  0.00    -0.031 A 
ATOM      3  C3  DEN d   1      -1.613   3.899  -0.230  0.00  0.00     0.027 A 
ATOM      4  C4  DEN d   1      -1.999   5.330  -2.341  0.00  0.00     0.027 A 
ATOM      5  C5  DEN d   1      -1.381   5.951  -3.404  0.00  0.00    -0.003 A 
ATOM      6  C6  DEN d   1      -0.023   5.925  -3.577  0.00  0.00     0.001 A 
ATOM      7  C7  DEN d   1       0.760   5.224  -2.698  0.00  0.00     0.017 A 
ATOM      8  C8  DEN d   1       0.145   4.601  -1.619  0.00  0.00    -0.094 A 
ATOM      9  C9  DEN d   1      -1.231   4.630  -1.468  0.00  0.00    -0.072 A 
ENDROOT
TORSDOF 0
ENDMDL
