MODEL 1
REMARK minimizedAffinity 1.76625621
REMARK minimizedRMSD -1
REMARK  0 active torsions:
REMARK  status: ('A' for Active; 'I' for Inactive)
ROOT
ATOM      1  C1  DEN d   1      -5.502   2.308  -4.892  0.00  0.00     0.130 A 
ATOM      2  C2  DEN d   1      -6.000   1.582  -3.727  0.00  0.00    -0.031 A 
ATOM      3  C3  DEN d   1      -5.958   2.496  -2.568  0.00  0.00     0.027 A 
ATOM      4  C4  DEN d   1      -5.181   4.953  -2.465  0.00  0.00     0.027 A 
ATOM      5  C5  DEN d   1      -4.663   5.998  -3.199  0.00  0.00    -0.003 A 
ATOM      6  C6  DEN d   1      -4.360   5.877  -4.529  0.00  0.00     0.001 A 
ATOM      7  C7  DEN d   1      -4.614   4.698  -5.178  0.00  0.00     0.017 A 
ATOM      8  C8  DEN d   1      -5.129   3.638  -4.444  0.00  0.00    -0.094 A 
ATOM      9  C9  DEN d   1      -5.440   3.784  -3.103  0.00  0.00    -0.072 A 
ENDROOT
TORSDOF 0
ENDMDL
