MODEL 1
REMARK minimizedAffinity 8.01786613
REMARK minimizedRMSD -1
REMARK  0 active torsions:
REMARK  status: ('A' for Active; 'I' for Inactive)
ROOT
ATOM      1  C1  DEN d   1       1.052   3.841  -0.470  0.00  0.00     0.130 A 
ATOM      2  C2  DEN d   1      -0.305   4.007  -0.983  0.00  0.00    -0.031 A 
ATOM      3  C3  DEN d   1      -1.245   3.523   0.048  0.00  0.00     0.027 A 
ATOM      4  C4  DEN d   1      -0.732   2.544   2.379  0.00  0.00     0.027 A 
ATOM      5  C5  DEN d   1       0.273   2.195   3.254  0.00  0.00    -0.003 A 
ATOM      6  C6  DEN d   1       1.598   2.339   2.938  0.00  0.00     0.001 A 
ATOM      7  C7  DEN d   1       1.953   2.886   1.734  0.00  0.00     0.017 A 
ATOM      8  C8  DEN d   1       0.946   3.232   0.843  0.00  0.00    -0.094 A 
ATOM      9  C9  DEN d   1      -0.388   3.091   1.186  0.00  0.00    -0.072 A 
ENDROOT
TORSDOF 0
ENDMDL
