MODEL 1
REMARK minimizedAffinity 6.28064346
REMARK minimizedRMSD -1
REMARK  0 active torsions:
REMARK  status: ('A' for Active; 'I' for Inactive)
ROOT
ATOM      1  C1  DEN d   1      -5.948   0.568   4.424  0.00  0.00     0.130 A 
ATOM      2  C2  DEN d   1      -5.031   1.056   3.397  0.00  0.00    -0.031 A 
ATOM      3  C3  DEN d   1      -4.003   0.020   3.172  0.00  0.00     0.027 A 
ATOM      4  C4  DEN d   1      -3.747  -2.284   4.303  0.00  0.00     0.027 A 
ATOM      5  C5  DEN d   1      -4.277  -3.137   5.246  0.00  0.00    -0.003 A 
ATOM      6  C6  DEN d   1      -5.372  -2.804   5.998  0.00  0.00     0.001 A 
ATOM      7  C7  DEN d   1      -6.000  -1.604   5.789  0.00  0.00     0.017 A 
ATOM      8  C8  DEN d   1      -5.467  -0.736   4.846  0.00  0.00    -0.094 A 
ATOM      9  C9  DEN d   1      -4.366  -1.096   4.087  0.00  0.00    -0.072 A 
ENDROOT
TORSDOF 0
ENDMDL
