MODEL 1
REMARK minimizedAffinity 2.9737916
REMARK minimizedRMSD -1
REMARK  0 active torsions:
REMARK  status: ('A' for Active; 'I' for Inactive)
ROOT
ATOM      1  C1  DEN d   1      -5.260   2.645  -5.490  0.00  0.00     0.130 A 
ATOM      2  C2  DEN d   1      -5.642   1.238  -5.408  0.00  0.00    -0.031 A 
ATOM      3  C3  DEN d   1      -5.999   0.943  -4.006  0.00  0.00     0.027 A 
ATOM      4  C4  DEN d   1      -6.000   2.520  -1.965  0.00  0.00     0.027 A 
ATOM      5  C5  DEN d   1      -5.739   3.804  -1.538  0.00  0.00    -0.003 A 
ATOM      6  C6  DEN d   1      -5.272   4.774  -2.385  0.00  0.00     0.001 A 
ATOM      7  C7  DEN d   1      -5.094   4.488  -3.712  0.00  0.00     0.017 A 
ATOM      8  C8  DEN d   1      -5.347   3.194  -4.149  0.00  0.00    -0.094 A 
ATOM      9  C9  DEN d   1      -5.831   2.231  -3.280  0.00  0.00    -0.072 A 
ENDROOT
TORSDOF 0
ENDMDL
