MODEL 1
REMARK minimizedAffinity 4.98298216
REMARK minimizedRMSD -1
REMARK  0 active torsions:
REMARK  status: ('A' for Active; 'I' for Inactive)
ROOT
ATOM      1  C1  DEN d   1       0.074   3.759   1.572  0.00  0.00     0.130 A 
ATOM      2  C2  DEN d   1       0.053   2.309   1.398  0.00  0.00    -0.031 A 
ATOM      3  C3  DEN d   1      -0.405   2.020   0.024  0.00  0.00     0.027 A 
ATOM      4  C4  DEN d   1      -1.074   3.668  -1.843  0.00  0.00     0.027 A 
ATOM      5  C5  DEN d   1      -1.228   4.999  -2.164  0.00  0.00    -0.003 A 
ATOM      6  C6  DEN d   1      -0.994   6.000  -1.259  0.00  0.00     0.001 A 
ATOM      7  C7  DEN d   1      -0.549   5.688  -0.002  0.00  0.00     0.017 A 
ATOM      8  C8  DEN d   1      -0.398   4.348   0.331  0.00  0.00    -0.094 A 
ATOM      9  C9  DEN d   1      -0.628   3.351  -0.602  0.00  0.00    -0.072 A 
ENDROOT
TORSDOF 0
ENDMDL
