MODEL 1
REMARK minimizedAffinity -2.9004302
REMARK minimizedRMSD -1
REMARK  0 active torsions:
REMARK  status: ('A' for Active; 'I' for Inactive)
ROOT
ATOM      1  C1  DEN d   1       0.463   3.382   0.419  0.00  0.00     0.130 A 
ATOM      2  C2  DEN d   1       0.535   4.545  -0.462  0.00  0.00    -0.031 A 
ATOM      3  C3  DEN d   1      -0.034   4.163  -1.770  0.00  0.00     0.027 A 
ATOM      4  C4  DEN d   1      -1.018   1.898  -2.512  0.00  0.00     0.027 A 
ATOM      5  C5  DEN d   1      -1.285   0.606  -2.115  0.00  0.00    -0.003 A 
ATOM      6  C6  DEN d   1      -0.960   0.143  -0.868  0.00  0.00     0.001 A 
ATOM      7  C7  DEN d   1      -0.390   0.992   0.043  0.00  0.00     0.017 A 
ATOM      8  C8  DEN d   1      -0.111   2.293  -0.351  0.00  0.00    -0.094 A 
ATOM      9  C9  DEN d   1      -0.458   2.746  -1.613  0.00  0.00    -0.072 A 
ENDROOT
TORSDOF 0
ENDMDL
