MODEL 1
REMARK minimizedAffinity 7.42397642
REMARK minimizedRMSD -1
REMARK  1 active torsions:
REMARK  status: ('A' for Active; 'I' for Inactive)
REMARK    1  A    between atoms: C1_2  and  C2_3 
ROOT
ATOM      1  C2  UNL d   1       3.380  -3.142   3.310  0.00  0.00    -0.076 A 
ATOM      2  C3  UNL d   1       3.364  -2.099   2.368  0.00  0.00     0.004 A 
ATOM      3  C4  UNL d   1       2.201  -1.371   2.124  0.00  0.00    -0.003 A 
ATOM      4  C5  UNL d   1       1.035  -1.674   2.818  0.00  0.00     0.000 A 
ATOM      5  C6  UNL d   1       1.037  -2.694   3.769  0.00  0.00     0.000 A 
ATOM      6  C7  UNL d   1       2.206  -3.427   4.039  0.00  0.00    -0.073 A 
ATOM      7  C8  UNL d   1       2.150  -4.521   5.070  0.00  0.00     0.078 C 
ENDROOT
BRANCH   1   8
ATOM      8  C1  UNL d   1       4.664  -3.915   3.512  0.00  0.00     0.053 C 
ATOM      9  C   UNL d   1       5.854  -3.008   3.785  0.00  0.00     0.018 C 
ENDBRANCH   1   8
TORSDOF 1
ENDMDL
