MODEL 1
REMARK minimizedAffinity 7.16023016
REMARK minimizedRMSD -1
REMARK  1 active torsions:
REMARK  status: ('A' for Active; 'I' for Inactive)
REMARK    1  A    between atoms: C1_2  and  C2_3 
ROOT
ATOM      1  C2  UNL d   1       2.190  -4.140   4.563  0.00  0.00    -0.076 A 
ATOM      2  C3  UNL d   1       1.500  -4.404   3.367  0.00  0.00     0.004 A 
ATOM      3  C4  UNL d   1       1.359  -3.422   2.389  0.00  0.00    -0.003 A 
ATOM      4  C5  UNL d   1       1.905  -2.159   2.589  0.00  0.00     0.000 A 
ATOM      5  C6  UNL d   1       2.608  -1.885   3.762  0.00  0.00     0.000 A 
ATOM      6  C7  UNL d   1       2.774  -2.869   4.752  0.00  0.00    -0.073 A 
ATOM      7  C8  UNL d   1       3.536  -2.516   6.000  0.00  0.00     0.078 C 
ENDROOT
BRANCH   1   8
ATOM      8  C1  UNL d   1       2.288  -5.235   5.600  0.00  0.00     0.053 C 
ATOM      9  C   UNL d   1       0.927  -5.785   5.998  0.00  0.00     0.018 C 
ENDBRANCH   1   8
TORSDOF 1
ENDMDL
