MODEL 1
REMARK minimizedAffinity 10.9868841
REMARK minimizedRMSD -1
REMARK  1 active torsions:
REMARK  status: ('A' for Active; 'I' for Inactive)
REMARK    1  A    between atoms: C1_2  and  C2_3 
ROOT
ATOM      1  C2  UNL d   1      -3.913   0.717  -3.679  0.00  0.00    -0.076 A 
ATOM      2  C3  UNL d   1      -4.232  -0.551  -4.195  0.00  0.00     0.004 A 
ATOM      3  C4  UNL d   1      -3.885  -1.713  -3.509  0.00  0.00    -0.003 A 
ATOM      4  C5  UNL d   1      -3.213  -1.626  -2.294  0.00  0.00     0.000 A 
ATOM      5  C6  UNL d   1      -2.904  -0.376  -1.759  0.00  0.00     0.000 A 
ATOM      6  C7  UNL d   1      -3.261   0.806  -2.430  0.00  0.00    -0.073 A 
ATOM      7  C8  UNL d   1      -2.898   2.127  -1.809  0.00  0.00     0.078 C 
ENDROOT
BRANCH   1   8
ATOM      8  C1  UNL d   1      -4.291   1.942  -4.481  0.00  0.00     0.053 C 
ATOM      9  C   UNL d   1      -4.537   1.625  -5.948  0.00  0.00     0.018 C 
ENDBRANCH   1   8
TORSDOF 1
ENDMDL
