MODEL 1
REMARK minimizedAffinity 7.6261797
REMARK minimizedRMSD -1
REMARK  1 active torsions:
REMARK  status: ('A' for Active; 'I' for Inactive)
REMARK    1  A    between atoms: C1_2  and  C2_3 
ROOT
ATOM      1  C2  UNL d   1       2.503  -2.069   2.709  0.00  0.00    -0.076 A 
ATOM      2  C3  UNL d   1       2.979  -1.309   1.626  0.00  0.00     0.004 A 
ATOM      3  C4  UNL d   1       2.370  -0.107   1.271  0.00  0.00    -0.003 A 
ATOM      4  C5  UNL d   1       1.275   0.355   1.993  0.00  0.00     0.000 A 
ATOM      5  C6  UNL d   1       0.801  -0.377   3.081  0.00  0.00     0.000 A 
ATOM      6  C7  UNL d   1       1.414  -1.582   3.463  0.00  0.00    -0.073 A 
ATOM      7  C8  UNL d   1       0.857  -2.334   4.641  0.00  0.00     0.078 C 
ENDROOT
BRANCH   1   8
ATOM      8  C1  UNL d   1       3.188  -3.378   3.031  0.00  0.00     0.053 C 
ATOM      9  C   UNL d   1       2.521  -4.566   2.354  0.00  0.00     0.018 C 
ENDBRANCH   1   8
TORSDOF 1
ENDMDL
