MODEL 1
REMARK minimizedAffinity -4.44188499
REMARK minimizedRMSD -1
REMARK  1 active torsions:
REMARK  status: ('A' for Active; 'I' for Inactive)
REMARK    1  A    between atoms: C1_2  and  C2_3 
ROOT
ATOM      1  C2  UNL d   1      -0.223   1.402  -0.313  0.00  0.00    -0.077 A 
ATOM      2  C3  UNL d   1      -0.038   2.643  -0.939  0.00  0.00     0.002 A 
ATOM      3  C4  UNL d   1      -0.653   3.789  -0.431  0.00  0.00     0.002 A 
ATOM      4  C5  UNL d   1      -1.454   3.706   0.706  0.00  0.00    -0.004 A 
ATOM      5  C6  UNL d   1      -1.645   2.476   1.335  0.00  0.00     0.002 A 
ATOM      6  C7  UNL d   1      -1.032   1.330   0.828  0.00  0.00     0.002 A 
ENDROOT
BRANCH   1   7
ATOM      7  C1  UNL d   1       0.479   0.174  -0.831  0.00  0.00     0.055 C 
ATOM      8  C   UNL d   1       0.637  -0.874   0.261  0.00  0.00     0.019 C 
ENDBRANCH   1   7
TORSDOF 1
ENDMDL
