MODEL 1
REMARK minimizedAffinity -5.73884201
REMARK minimizedRMSD -1
REMARK  1 active torsions:
REMARK  status: ('A' for Active; 'I' for Inactive)
REMARK    1  A    between atoms: C1_2  and  C2_3 
ROOT
ATOM      1  C2  UNL d   1      -0.873   1.223   0.091  0.00  0.00    -0.077 A 
ATOM      2  C3  UNL d   1      -0.314   2.194  -0.752  0.00  0.00     0.002 A 
ATOM      3  C4  UNL d   1      -0.902   3.455  -0.863  0.00  0.00     0.002 A 
ATOM      4  C5  UNL d   1      -2.048   3.758  -0.130  0.00  0.00    -0.004 A 
ATOM      5  C6  UNL d   1      -2.612   2.799   0.709  0.00  0.00     0.002 A 
ATOM      6  C7  UNL d   1      -2.027   1.537   0.820  0.00  0.00     0.002 A 
ENDROOT
BRANCH   1   7
ATOM      7  C1  UNL d   1      -0.212  -0.122   0.249  0.00  0.00     0.055 C 
ATOM      8  C   UNL d   1      -0.127  -0.528   1.713  0.00  0.00     0.019 C 
ENDBRANCH   1   7
TORSDOF 1
ENDMDL
