MODEL 1
REMARK minimizedAffinity -5.78519058
REMARK minimizedRMSD -1
REMARK  1 active torsions:
REMARK  status: ('A' for Active; 'I' for Inactive)
REMARK    1  A    between atoms: C1_2  and  C2_3 
ROOT
ATOM      1  C2  UNL d   1      -0.903   0.824   0.889  0.00  0.00    -0.077 A 
ATOM      2  C3  UNL d   1      -0.349   1.579  -0.155  0.00  0.00     0.002 A 
ATOM      3  C4  UNL d   1      -0.723   2.911  -0.339  0.00  0.00     0.002 A 
ATOM      4  C5  UNL d   1      -1.650   3.501   0.518  0.00  0.00    -0.004 A 
ATOM      5  C6  UNL d   1      -2.208   2.758   1.558  0.00  0.00     0.002 A 
ATOM      6  C7  UNL d   1      -1.836   1.426   1.743  0.00  0.00     0.002 A 
ENDROOT
BRANCH   1   7
ATOM      7  C1  UNL d   1      -0.464  -0.598   1.119  0.00  0.00     0.055 C 
ATOM      8  C   UNL d   1       0.732  -0.956   0.249  0.00  0.00     0.019 C 
ENDBRANCH   1   7
TORSDOF 1
ENDMDL
