MODEL 1
REMARK minimizedAffinity -5.53698444
REMARK minimizedRMSD -1
REMARK  1 active torsions:
REMARK  status: ('A' for Active; 'I' for Inactive)
REMARK    1  A    between atoms: C1_2  and  C2_3 
ROOT
ATOM      1  C2  UNL d   1      -0.811   2.043   0.604  0.00  0.00    -0.077 A 
ATOM      2  C3  UNL d   1      -1.563   1.771   1.756  0.00  0.00     0.002 A 
ATOM      3  C4  UNL d   1      -1.570   0.489   2.308  0.00  0.00     0.002 A 
ATOM      4  C5  UNL d   1      -0.823  -0.529   1.719  0.00  0.00    -0.004 A 
ATOM      5  C6  UNL d   1      -0.074  -0.269   0.572  0.00  0.00     0.002 A 
ATOM      6  C7  UNL d   1      -0.067   1.011   0.018  0.00  0.00     0.002 A 
ENDROOT
BRANCH   1   7
ATOM      7  C1  UNL d   1      -0.764   3.437   0.035  0.00  0.00     0.055 C 
ATOM      8  C   UNL d   1       0.253   3.541  -1.092  0.00  0.00     0.019 C 
ENDBRANCH   1   7
TORSDOF 1
ENDMDL
