MODEL 1
REMARK minimizedAffinity 0.0382035486
REMARK minimizedRMSD -1
REMARK  1 active torsions:
REMARK  status: ('A' for Active; 'I' for Inactive)
REMARK    1  A    between atoms: C1_2  and  C2_3 
ROOT
ATOM      1  C2  UNL d   1       0.668  -1.367  -0.831  0.00  0.00    -0.077 A 
ATOM      2  C3  UNL d   1       0.871  -1.116  -2.195  0.00  0.00     0.002 A 
ATOM      3  C4  UNL d   1       0.842  -2.163  -3.119  0.00  0.00     0.002 A 
ATOM      4  C5  UNL d   1       0.606  -3.467  -2.689  0.00  0.00    -0.004 A 
ATOM      5  C6  UNL d   1       0.405  -3.728  -1.334  0.00  0.00     0.002 A 
ATOM      6  C7  UNL d   1       0.435  -2.683  -0.409  0.00  0.00     0.002 A 
ENDROOT
BRANCH   1   7
ATOM      7  C1  UNL d   1       0.650  -0.233   0.160  0.00  0.00     0.055 C 
ATOM      8  C   UNL d   1      -0.333  -0.501   1.290  0.00  0.00     0.019 C 
ENDBRANCH   1   7
TORSDOF 1
ENDMDL
