MODEL 1
REMARK minimizedAffinity -2.77278423
REMARK minimizedRMSD -1
REMARK  1 active torsions:
REMARK  status: ('A' for Active; 'I' for Inactive)
REMARK    1  A    between atoms: C1_2  and  C2_3 
ROOT
ATOM      1  C2  UNL d   1       0.383  -1.358  -0.825  0.00  0.00    -0.077 A 
ATOM      2  C3  UNL d   1      -0.493  -2.435  -0.628  0.00  0.00     0.002 A 
ATOM      3  C4  UNL d   1      -0.434  -3.554  -1.460  0.00  0.00     0.002 A 
ATOM      4  C5  UNL d   1       0.501  -3.610  -2.491  0.00  0.00    -0.004 A 
ATOM      5  C6  UNL d   1       1.376  -2.543  -2.697  0.00  0.00     0.002 A 
ATOM      6  C7  UNL d   1       1.318  -1.423  -1.867  0.00  0.00     0.002 A 
ENDROOT
BRANCH   1   7
ATOM      7  C1  UNL d   1       0.355  -0.171   0.102  0.00  0.00     0.055 C 
ATOM      8  C   UNL d   1      -0.570  -0.415   1.286  0.00  0.00     0.019 C 
ENDBRANCH   1   7
TORSDOF 1
ENDMDL
