MODEL 1
REMARK minimizedAffinity -6.13333511
REMARK minimizedRMSD -1
REMARK  1 active torsions:
REMARK  status: ('A' for Active; 'I' for Inactive)
REMARK    1  A    between atoms: C1_2  and  C2_3 
ROOT
ATOM      1  C2  UNL d   1      -0.952   2.132   0.588  0.00  0.00    -0.077 A 
ATOM      2  C3  UNL d   1      -1.779   1.807   1.672  0.00  0.00     0.002 A 
ATOM      3  C4  UNL d   1      -1.720   0.538   2.252  0.00  0.00     0.002 A 
ATOM      4  C5  UNL d   1      -0.831  -0.414   1.757  0.00  0.00    -0.004 A 
ATOM      5  C6  UNL d   1      -0.005  -0.102   0.678  0.00  0.00     0.002 A 
ATOM      6  C7  UNL d   1      -0.065   1.166   0.097  0.00  0.00     0.002 A 
ENDROOT
BRANCH   1   7
ATOM      7  C1  UNL d   1      -0.980   3.515  -0.006  0.00  0.00     0.055 C 
ATOM      8  C   UNL d   1       0.259   3.781  -0.849  0.00  0.00     0.019 C 
ENDBRANCH   1   7
TORSDOF 1
ENDMDL
