MODEL 1
REMARK minimizedAffinity -2.08806872
REMARK minimizedRMSD -1
REMARK  1 active torsions:
REMARK  status: ('A' for Active; 'I' for Inactive)
REMARK    1  A    between atoms: C1_2  and  C2_3 
ROOT
ATOM      1  C2  UNL d   1       0.809  -1.828  -1.494  0.00  0.00    -0.077 A 
ATOM      2  C3  UNL d   1       0.018  -1.619  -2.632  0.00  0.00     0.002 A 
ATOM      3  C4  UNL d   1      -0.398  -2.700  -3.412  0.00  0.00     0.002 A 
ATOM      4  C5  UNL d   1      -0.030  -3.997  -3.060  0.00  0.00    -0.004 A 
ATOM      5  C6  UNL d   1       0.759  -4.215  -1.931  0.00  0.00     0.002 A 
ATOM      6  C7  UNL d   1       1.176  -3.136  -1.151  0.00  0.00     0.002 A 
ENDROOT
BRANCH   1   7
ATOM      7  C1  UNL d   1       1.217  -0.668  -0.624  0.00  0.00     0.055 C 
ATOM      8  C   UNL d   1       0.112  -0.293   0.352  0.00  0.00     0.019 C 
ENDBRANCH   1   7
TORSDOF 1
ENDMDL
