MODEL 1
REMARK minimizedAffinity -6.32290745
REMARK minimizedRMSD -1
REMARK  1 active torsions:
REMARK  status: ('A' for Active; 'I' for Inactive)
REMARK    1  A    between atoms: C1_2  and  C2_3 
ROOT
ATOM      1  C2  UNL d   1      -0.598   1.035   0.671  0.00  0.00    -0.077 A 
ATOM      2  C3  UNL d   1       0.069   1.938  -0.169  0.00  0.00     0.002 A 
ATOM      3  C4  UNL d   1      -0.388   3.251  -0.298  0.00  0.00     0.002 A 
ATOM      4  C5  UNL d   1      -1.509   3.674   0.412  0.00  0.00    -0.004 A 
ATOM      5  C6  UNL d   1      -2.180   2.783   1.249  0.00  0.00     0.002 A 
ATOM      6  C7  UNL d   1      -1.726   1.470   1.379  0.00  0.00     0.002 A 
ENDROOT
BRANCH   1   7
ATOM      7  C1  UNL d   1      -0.079  -0.367   0.850  0.00  0.00     0.055 C 
ATOM      8  C   UNL d   1       0.013  -0.740   2.323  0.00  0.00     0.019 C 
ENDBRANCH   1   7
TORSDOF 1
ENDMDL
