MODEL 1
REMARK minimizedAffinity -5.71955919
REMARK minimizedRMSD -1
REMARK  1 active torsions:
REMARK  status: ('A' for Active; 'I' for Inactive)
REMARK    1  A    between atoms: C1_2  and  C2_3 
ROOT
ATOM      1  C2  UNL d   1       0.033   1.403  -0.018  0.00  0.00    -0.077 A 
ATOM      2  C3  UNL d   1      -1.048   0.952   0.754  0.00  0.00     0.002 A 
ATOM      3  C4  UNL d   1      -2.093   1.819   1.079  0.00  0.00     0.002 A 
ATOM      4  C5  UNL d   1      -2.070   3.139   0.634  0.00  0.00    -0.004 A 
ATOM      5  C6  UNL d   1      -0.999   3.597  -0.132  0.00  0.00     0.002 A 
ATOM      6  C7  UNL d   1       0.047   2.732  -0.458  0.00  0.00     0.002 A 
ENDROOT
BRANCH   1   7
ATOM      7  C1  UNL d   1       1.137   0.456  -0.412  0.00  0.00     0.055 C 
ATOM      8  C   UNL d   1       0.587  -0.917  -0.770  0.00  0.00     0.019 C 
ENDBRANCH   1   7
TORSDOF 1
ENDMDL
