MODEL 1
REMARK minimizedAffinity -2.91837001
REMARK minimizedRMSD -1
REMARK  1 active torsions:
REMARK  status: ('A' for Active; 'I' for Inactive)
REMARK    1  A    between atoms: C1_2  and  C2_3 
ROOT
ATOM      1  C2  UNL d   1      -1.279   0.991  -1.726  0.00  0.00    -0.081 A 
ATOM      2  C3  UNL d   1      -1.045   1.511  -0.448  0.00  0.00     0.006 A 
ATOM      3  C4  UNL d   1       0.064   1.096   0.294  0.00  0.00     0.002 A 
ATOM      4  C5  UNL d   1       0.961   0.161  -0.234  0.00  0.00    -0.080 A 
ATOM      5  C6  UNL d   1       2.172  -0.270   0.539  0.00  0.00     0.076 C 
ATOM      6  C7  UNL d   1       0.718  -0.372  -1.504  0.00  0.00     0.002 A 
ATOM      7  C8  UNL d   1      -0.391   0.042  -2.246  0.00  0.00     0.006 A 
ENDROOT
BRANCH   1   8
ATOM      8  C1  UNL d   1      -2.438   1.484  -2.554  0.00  0.00     0.054 C 
ATOM      9  C   UNL d   1      -1.977   2.463  -3.624  0.00  0.00     0.018 C 
ENDBRANCH   1   8
TORSDOF 1
ENDMDL
