MODEL 1
REMARK minimizedAffinity -6.01874876
REMARK minimizedRMSD -1
REMARK  1 active torsions:
REMARK  status: ('A' for Active; 'I' for Inactive)
REMARK    1  A    between atoms: C1_2  and  C2_3 
ROOT
ATOM      1  C2  UNL d   1      -0.466   0.512  -0.371  0.00  0.00    -0.081 A 
ATOM      2  C3  UNL d   1       0.799   0.162  -0.860  0.00  0.00     0.006 A 
ATOM      3  C4  UNL d   1       1.492  -0.923  -0.319  0.00  0.00     0.002 A 
ATOM      4  C5  UNL d   1       0.929  -1.682   0.713  0.00  0.00    -0.080 A 
ATOM      5  C6  UNL d   1       1.649  -2.868   1.282  0.00  0.00     0.076 C 
ATOM      6  C7  UNL d   1      -0.327  -1.322   1.214  0.00  0.00     0.002 A 
ATOM      7  C8  UNL d   1      -1.020  -0.236   0.674  0.00  0.00     0.006 A 
ENDROOT
BRANCH   1   8
ATOM      8  C1  UNL d   1      -1.243   1.642  -0.995  0.00  0.00     0.054 C 
ATOM      9  C   UNL d   1      -1.798   1.247  -2.356  0.00  0.00     0.018 C 
ENDBRANCH   1   8
TORSDOF 1
ENDMDL
