MODEL 1
REMARK minimizedAffinity -4.2466197
REMARK minimizedRMSD -1
REMARK  1 active torsions:
REMARK  status: ('A' for Active; 'I' for Inactive)
REMARK    1  A    between atoms: C1_2  and  C2_3 
ROOT
ATOM      1  C2  UNL d   1      -0.430   0.486  -0.146  0.00  0.00    -0.081 A 
ATOM      2  C3  UNL d   1       0.648  -0.056  -0.857  0.00  0.00     0.006 A 
ATOM      3  C4  UNL d   1       1.252  -1.242  -0.432  0.00  0.00     0.002 A 
ATOM      4  C5  UNL d   1       0.784  -1.909   0.705  0.00  0.00    -0.080 A 
ATOM      5  C6  UNL d   1       1.404  -3.199   1.155  0.00  0.00     0.076 C 
ATOM      6  C7  UNL d   1      -0.281  -1.358   1.426  0.00  0.00     0.002 A 
ATOM      7  C8  UNL d   1      -0.885  -0.172   1.002  0.00  0.00     0.006 A 
ENDROOT
BRANCH   1   8
ATOM      8  C1  UNL d   1      -1.125   1.729  -0.638  0.00  0.00     0.054 C 
ATOM      9  C   UNL d   1      -1.728   1.517  -2.019  0.00  0.00     0.018 C 
ENDBRANCH   1   8
TORSDOF 1
ENDMDL
