MODEL 1
REMARK minimizedAffinity -2.10410523
REMARK minimizedRMSD -1
REMARK  1 active torsions:
REMARK  status: ('A' for Active; 'I' for Inactive)
REMARK    1  A    between atoms: C1_2  and  C2_3 
ROOT
ATOM      1  C2  UNL d   1       0.559   0.131  -0.363  0.00  0.00    -0.081 A 
ATOM      2  C3  UNL d   1      -0.701   0.537   0.093  0.00  0.00     0.006 A 
ATOM      3  C4  UNL d   1      -1.675   0.968  -0.810  0.00  0.00     0.002 A 
ATOM      4  C5  UNL d   1      -1.409   0.993  -2.183  0.00  0.00    -0.080 A 
ATOM      5  C6  UNL d   1      -2.457   1.426  -3.166  0.00  0.00     0.076 C 
ATOM      6  C7  UNL d   1      -0.144   0.604  -2.637  0.00  0.00     0.002 A 
ATOM      7  C8  UNL d   1       0.831   0.174  -1.735  0.00  0.00     0.006 A 
ENDROOT
BRANCH   1   8
ATOM      8  C1  UNL d   1       1.590  -0.396   0.602  0.00  0.00     0.054 C 
ATOM      9  C   UNL d   1       2.476  -1.446  -0.053  0.00  0.00     0.018 C 
ENDBRANCH   1   8
TORSDOF 1
ENDMDL
