MODEL 1
REMARK minimizedAffinity -4.03597832
REMARK minimizedRMSD -1
REMARK  1 active torsions:
REMARK  status: ('A' for Active; 'I' for Inactive)
REMARK    1  A    between atoms: C1_2  and  C2_3 
ROOT
ATOM      1  C2  UNL d   1      -0.060   0.753  -0.203  0.00  0.00    -0.081 A 
ATOM      2  C3  UNL d   1      -0.250  -0.622  -0.023  0.00  0.00     0.006 A 
ATOM      3  C4  UNL d   1       0.800  -1.431   0.418  0.00  0.00     0.002 A 
ATOM      4  C5  UNL d   1       2.055  -0.877   0.694  0.00  0.00    -0.080 A 
ATOM      5  C6  UNL d   1       3.182  -1.729   1.197  0.00  0.00     0.076 C 
ATOM      6  C7  UNL d   1       2.250   0.495   0.498  0.00  0.00     0.002 A 
ATOM      7  C8  UNL d   1       1.201   1.303   0.056  0.00  0.00     0.006 A 
ENDROOT
BRANCH   1   8
ATOM      8  C1  UNL d   1      -1.208   1.638  -0.617  0.00  0.00     0.054 C 
ATOM      9  C   UNL d   1      -1.577   1.419  -2.077  0.00  0.00     0.018 C 
ENDBRANCH   1   8
TORSDOF 1
ENDMDL
