MODEL 1
REMARK minimizedAffinity -2.0884788
REMARK minimizedRMSD -1
REMARK  1 active torsions:
REMARK  status: ('A' for Active; 'I' for Inactive)
REMARK    1  A    between atoms: C1_2  and  C2_3 
ROOT
ATOM      1  C2  UNL d   1       2.442  -0.764   0.649  0.00  0.00    -0.081 A 
ATOM      2  C3  UNL d   1       2.520  -0.968  -0.734  0.00  0.00     0.006 A 
ATOM      3  C4  UNL d   1       1.426  -0.682  -1.554  0.00  0.00     0.002 A 
ATOM      4  C5  UNL d   1       0.240  -0.182  -1.007  0.00  0.00    -0.080 A 
ATOM      5  C6  UNL d   1      -0.932   0.156  -1.881  0.00  0.00     0.076 C 
ATOM      6  C7  UNL d   1       0.156   0.004   0.377  0.00  0.00     0.002 A 
ATOM      7  C8  UNL d   1       1.249  -0.281   1.198  0.00  0.00     0.006 A 
ENDROOT
BRANCH   1   8
ATOM      8  C1  UNL d   1       3.641  -1.010   1.529  0.00  0.00     0.054 C 
ATOM      9  C   UNL d   1       3.939   0.197   2.407  0.00  0.00     0.018 C 
ENDBRANCH   1   8
TORSDOF 1
ENDMDL
