MODEL 1
REMARK minimizedAffinity -4.79410505
REMARK minimizedRMSD -1
REMARK  1 active torsions:
REMARK  status: ('A' for Active; 'I' for Inactive)
REMARK    1  A    between atoms: C1_2  and  C2_3 
ROOT
ATOM      1  C2  UNL d   1      -0.569   0.477  -1.010  0.00  0.00    -0.081 A 
ATOM      2  C3  UNL d   1       0.568  -0.025  -1.656  0.00  0.00     0.006 A 
ATOM      3  C4  UNL d   1       1.417  -0.921  -1.001  0.00  0.00     0.002 A 
ATOM      4  C5  UNL d   1       1.139  -1.335   0.306  0.00  0.00    -0.080 A 
ATOM      5  C6  UNL d   1       2.026  -2.320   1.009  0.00  0.00     0.076 C 
ATOM      6  C7  UNL d   1       0.013  -0.821   0.957  0.00  0.00     0.002 A 
ATOM      7  C8  UNL d   1      -0.836   0.075   0.303  0.00  0.00     0.006 A 
ENDROOT
BRANCH   1   8
ATOM      8  C1  UNL d   1      -1.521   1.392  -1.737  0.00  0.00     0.054 C 
ATOM      9  C   UNL d   1      -2.335   0.633  -2.775  0.00  0.00     0.018 C 
ENDBRANCH   1   8
TORSDOF 1
ENDMDL
