MODEL 1
REMARK minimizedAffinity -4.30131865
REMARK minimizedRMSD -1
REMARK  1 active torsions:
REMARK  status: ('A' for Active; 'I' for Inactive)
REMARK    1  A    between atoms: C1_2  and  C2_3 
ROOT
ATOM      1  C2  UNL d   1      -0.367   0.719  -0.162  0.00  0.00    -0.081 A 
ATOM      2  C3  UNL d   1       0.960   0.507  -0.556  0.00  0.00     0.006 A 
ATOM      3  C4  UNL d   1       1.649  -0.633  -0.137  0.00  0.00     0.002 A 
ATOM      4  C5  UNL d   1       1.022  -1.584   0.675  0.00  0.00    -0.080 A 
ATOM      5  C6  UNL d   1       1.741  -2.827   1.106  0.00  0.00     0.076 C 
ATOM      6  C7  UNL d   1      -0.298  -1.364   1.083  0.00  0.00     0.002 A 
ATOM      7  C8  UNL d   1      -0.988  -0.224   0.665  0.00  0.00     0.006 A 
ENDROOT
BRANCH   1   8
ATOM      8  C1  UNL d   1      -1.134   1.915  -0.664  0.00  0.00     0.054 C 
ATOM      9  C   UNL d   1      -1.842   1.607  -1.977  0.00  0.00     0.018 C 
ENDBRANCH   1   8
TORSDOF 1
ENDMDL
