MODEL 1
REMARK minimizedAffinity -3.47664046
REMARK minimizedRMSD -1
REMARK  1 active torsions:
REMARK  status: ('A' for Active; 'I' for Inactive)
REMARK    1  A    between atoms: C1_2  and  C2_3 
ROOT
ATOM      1  C2  UNL d   1      -0.063   0.636  -0.153  0.00  0.00    -0.081 A 
ATOM      2  C3  UNL d   1       1.273   0.622   0.268  0.00  0.00     0.006 A 
ATOM      3  C4  UNL d   1       1.882  -0.576   0.650  0.00  0.00     0.002 A 
ATOM      4  C5  UNL d   1       1.170  -1.779   0.610  0.00  0.00    -0.080 A 
ATOM      5  C6  UNL d   1       1.821  -3.076   0.989  0.00  0.00     0.076 C 
ATOM      6  C7  UNL d   1      -0.170  -1.762   0.206  0.00  0.00     0.002 A 
ATOM      7  C8  UNL d   1      -0.780  -0.565  -0.175  0.00  0.00     0.006 A 
ENDROOT
BRANCH   1   8
ATOM      8  C1  UNL d   1      -0.703   1.915  -0.627  0.00  0.00     0.054 C 
ATOM      9  C   UNL d   1      -1.362   1.734  -1.987  0.00  0.00     0.018 C 
ENDBRANCH   1   8
TORSDOF 1
ENDMDL
