MODEL 1
REMARK minimizedAffinity -5.2097168
REMARK minimizedRMSD -1
REMARK  1 active torsions:
REMARK  status: ('A' for Active; 'I' for Inactive)
REMARK    1  A    between atoms: C1_2  and  C2_3 
ROOT
ATOM      1  C2  UNL d   1      -0.290   0.785   0.023  0.00  0.00    -0.081 A 
ATOM      2  C3  UNL d   1       0.950   0.305  -0.414  0.00  0.00     0.006 A 
ATOM      3  C4  UNL d   1       1.606  -0.708   0.290  0.00  0.00     0.002 A 
ATOM      4  C5  UNL d   1       1.029  -1.263   1.438  0.00  0.00    -0.080 A 
ATOM      5  C6  UNL d   1       1.707  -2.372   2.185  0.00  0.00     0.076 C 
ATOM      6  C7  UNL d   1      -0.203  -0.771   1.884  0.00  0.00     0.002 A 
ATOM      7  C8  UNL d   1      -0.858   0.242   1.181  0.00  0.00     0.006 A 
ENDROOT
BRANCH   1   8
ATOM      8  C1  UNL d   1      -1.030   1.832  -0.770  0.00  0.00     0.054 C 
ATOM      9  C   UNL d   1      -0.968   1.541  -2.263  0.00  0.00     0.018 C 
ENDBRANCH   1   8
TORSDOF 1
ENDMDL
