MODEL 1
REMARK minimizedAffinity -5.05657387
REMARK minimizedRMSD -1
REMARK  1 active torsions:
REMARK  status: ('A' for Active; 'I' for Inactive)
REMARK    1  A    between atoms: C1_2  and  C2_3 
ROOT
ATOM      1  C2  UNL d   1      -0.635   0.352  -0.427  0.00  0.00    -0.081 A 
ATOM      2  C3  UNL d   1       0.745   0.202  -0.616  0.00  0.00     0.006 A 
ATOM      3  C4  UNL d   1       1.451  -0.784   0.076  0.00  0.00     0.002 A 
ATOM      4  C5  UNL d   1       0.789  -1.641   0.962  0.00  0.00    -0.080 A 
ATOM      5  C6  UNL d   1       1.531  -2.724   1.689  0.00  0.00     0.076 C 
ATOM      6  C7  UNL d   1      -0.585  -1.480   1.164  0.00  0.00     0.002 A 
ATOM      7  C8  UNL d   1      -1.292  -0.493   0.473  0.00  0.00     0.006 A 
ENDROOT
BRANCH   1   8
ATOM      8  C1  UNL d   1      -1.410   1.372  -1.221  0.00  0.00     0.054 C 
ATOM      9  C   UNL d   1      -1.278   1.127  -2.717  0.00  0.00     0.018 C 
ENDBRANCH   1   8
TORSDOF 1
ENDMDL
