MODEL 1
REMARK minimizedAffinity -4.3642664
REMARK minimizedRMSD -1
REMARK  1 active torsions:
REMARK  status: ('A' for Active; 'I' for Inactive)
REMARK    1  A    between atoms: C1_2  and  C2_3 
ROOT
ATOM      1  C2  UNL d   1      -0.633   0.628  -0.351  0.00  0.00    -0.081 A 
ATOM      2  C3  UNL d   1       0.706   0.435  -0.711  0.00  0.00     0.006 A 
ATOM      3  C4  UNL d   1       1.425  -0.652  -0.210  0.00  0.00     0.002 A 
ATOM      4  C5  UNL d   1       0.816  -1.569   0.653  0.00  0.00    -0.080 A 
ATOM      5  C6  UNL d   1       1.568  -2.758   1.174  0.00  0.00     0.076 C 
ATOM      6  C7  UNL d   1      -0.517  -1.367   1.028  0.00  0.00     0.002 A 
ATOM      7  C8  UNL d   1      -1.236  -0.279   0.527  0.00  0.00     0.006 A 
ENDROOT
BRANCH   1   8
ATOM      8  C1  UNL d   1      -1.430   1.763  -0.940  0.00  0.00     0.054 C 
ATOM      9  C   UNL d   1      -1.766   1.503  -2.402  0.00  0.00     0.018 C 
ENDBRANCH   1   8
TORSDOF 1
ENDMDL
