MODEL 1
REMARK minimizedAffinity -3.50757408
REMARK minimizedRMSD -1
REMARK  1 active torsions:
REMARK  status: ('A' for Active; 'I' for Inactive)
REMARK    1  A    between atoms: C1_2  and  C2_3 
ROOT
ATOM      1  C2  UNL d   1       1.295  -0.182   0.264  0.00  0.00    -0.081 A 
ATOM      2  C3  UNL d   1       0.417  -0.868  -0.583  0.00  0.00     0.006 A 
ATOM      3  C4  UNL d   1      -0.553  -0.173  -1.311  0.00  0.00     0.002 A 
ATOM      4  C5  UNL d   1      -0.654   1.218  -1.210  0.00  0.00    -0.080 A 
ATOM      5  C6  UNL d   1      -1.670   1.979  -2.009  0.00  0.00     0.076 C 
ATOM      6  C7  UNL d   1       0.212   1.902  -0.350  0.00  0.00     0.002 A 
ATOM      7  C8  UNL d   1       1.181   1.208   0.378  0.00  0.00     0.006 A 
ENDROOT
BRANCH   1   8
ATOM      8  C1  UNL d   1       2.384  -0.921   1.000  0.00  0.00     0.054 C 
ATOM      9  C   UNL d   1       2.224  -2.428   0.857  0.00  0.00     0.018 C 
ENDBRANCH   1   8
TORSDOF 1
ENDMDL
