MODEL 1
REMARK minimizedAffinity -4.76061773
REMARK minimizedRMSD -1
REMARK  1 active torsions:
REMARK  status: ('A' for Active; 'I' for Inactive)
REMARK    1  A    between atoms: C1_2  and  C2_3 
ROOT
ATOM      1  C2  UNL d   1      -0.528   0.554  -0.015  0.00  0.00    -0.081 A 
ATOM      2  C3  UNL d   1       0.746   0.356  -0.560  0.00  0.00     0.006 A 
ATOM      3  C4  UNL d   1       1.502  -0.764  -0.205  0.00  0.00     0.002 A 
ATOM      4  C5  UNL d   1       0.994  -1.707   0.696  0.00  0.00    -0.080 A 
ATOM      5  C6  UNL d   1       1.783  -2.928   1.063  0.00  0.00     0.076 C 
ATOM      6  C7  UNL d   1      -0.272  -1.499   1.254  0.00  0.00     0.002 A 
ATOM      7  C8  UNL d   1      -1.028  -0.380   0.899  0.00  0.00     0.006 A 
ENDROOT
BRANCH   1   8
ATOM      8  C1  UNL d   1      -1.372   1.727  -0.446  0.00  0.00     0.054 C 
ATOM      9  C   UNL d   1      -2.054   1.457  -1.779  0.00  0.00     0.018 C 
ENDBRANCH   1   8
TORSDOF 1
ENDMDL
