MODEL 1
REMARK minimizedAffinity 2.49378276
REMARK minimizedRMSD -1
REMARK  1 active torsions:
REMARK  status: ('A' for Active; 'I' for Inactive)
REMARK    1  A    between atoms: N_2  and  C1_3 
ROOT
ATOM      1  C1  UNL d   1      -1.665  -3.816  -5.962  0.00  0.00     0.143 A 
ATOM      2  C2  UNL d   1      -1.656  -5.212  -5.876  0.00  0.00    -0.057 A 
ATOM      3  C3  UNL d   1      -2.848  -5.947  -5.877  0.00  0.00     0.033 A 
ATOM      4  C4  UNL d   1      -4.075  -5.294  -5.933  0.00  0.00    -0.042 A 
ATOM      5  C5  UNL d   1      -4.108  -3.906  -5.994  0.00  0.00     0.033 A 
ATOM      6  C6  UNL d   1      -2.915  -3.178  -6.000  0.00  0.00    -0.057 A 
ENDROOT
BRANCH   1   7
ATOM      7  N   UNL d   1      -0.518  -3.024  -5.867  0.00  0.00    -0.732 N 
ATOM      8  C   UNL d   1       0.791  -3.632  -5.766  0.00  0.00     0.284 C 
ATOM      9  H3  UNL d   1      -0.554  -2.213  -6.481  0.00  0.00     0.395 HD
ENDBRANCH   1   7
TORSDOF 1
ENDMDL
