MODEL 1
REMARK minimizedAffinity 5.20561743
REMARK minimizedRMSD -1
REMARK  1 active torsions:
REMARK  status: ('A' for Active; 'I' for Inactive)
REMARK    1  A    between atoms: N_2  and  C1_3 
ROOT
ATOM      1  C1  UNL d   1      -0.119   2.486   0.607  0.00  0.00     0.143 A 
ATOM      2  C2  UNL d   1       0.912   1.921   1.365  0.00  0.00    -0.057 A 
ATOM      3  C3  UNL d   1       0.649   1.272   2.578  0.00  0.00     0.033 A 
ATOM      4  C4  UNL d   1      -0.650   1.202   3.069  0.00  0.00    -0.042 A 
ATOM      5  C5  UNL d   1      -1.687   1.779   2.344  0.00  0.00     0.033 A 
ATOM      6  C6  UNL d   1      -1.420   2.419   1.131  0.00  0.00    -0.057 A 
ENDROOT
BRANCH   1   7
ATOM      7  N   UNL d   1       0.089   3.230  -0.557  0.00  0.00    -0.732 N 
ATOM      8  C   UNL d   1      -0.615   2.901  -1.778  0.00  0.00     0.284 C 
ATOM      9  H3  UNL d   1       0.159   4.228  -0.373  0.00  0.00     0.395 HD
ENDBRANCH   1   7
TORSDOF 1
ENDMDL
