MODEL 1
REMARK minimizedAffinity 0.366923094
REMARK minimizedRMSD -1
REMARK  1 active torsions:
REMARK  status: ('A' for Active; 'I' for Inactive)
REMARK    1  A    between atoms: N_2  and  C1_3 
ROOT
ATOM      1  C1  UNL d   1      -4.965  -0.567   2.354  0.00  0.00     0.143 A 
ATOM      2  C2  UNL d   1      -4.204  -1.734   2.474  0.00  0.00    -0.057 A 
ATOM      3  C3  UNL d   1      -4.354  -2.589   3.572  0.00  0.00     0.033 A 
ATOM      4  C4  UNL d   1      -5.250  -2.276   4.588  0.00  0.00    -0.042 A 
ATOM      5  C5  UNL d   1      -6.000  -1.108   4.503  0.00  0.00     0.033 A 
ATOM      6  C6  UNL d   1      -5.850  -0.261   3.400  0.00  0.00    -0.057 A 
ENDROOT
BRANCH   1   7
ATOM      7  N   UNL d   1      -4.792   0.374   1.336  0.00  0.00    -0.732 N 
ATOM      8  C   UNL d   1      -4.100   0.020   0.115  0.00  0.00     0.284 C 
ATOM      9  H3  UNL d   1      -5.620   0.948   1.193  0.00  0.00     0.395 HD
ENDBRANCH   1   7
TORSDOF 1
ENDMDL
