MODEL 1
REMARK minimizedAffinity 6.89909458
REMARK minimizedRMSD -1
REMARK  1 active torsions:
REMARK  status: ('A' for Active; 'I' for Inactive)
REMARK    1  A    between atoms: N_2  and  C1_3 
ROOT
ATOM      1  C1  UNL d   1      -5.924  -1.094   3.545  0.00  0.00     0.143 A 
ATOM      2  C2  UNL d   1      -5.976  -0.733   4.896  0.00  0.00    -0.057 A 
ATOM      3  C3  UNL d   1      -5.999  -1.702   5.906  0.00  0.00     0.033 A 
ATOM      4  C4  UNL d   1      -6.000  -3.055   5.581  0.00  0.00    -0.042 A 
ATOM      5  C5  UNL d   1      -5.974  -3.436   4.244  0.00  0.00     0.033 A 
ATOM      6  C6  UNL d   1      -5.944  -2.464   3.240  0.00  0.00    -0.057 A 
ENDROOT
BRANCH   1   7
ATOM      7  N   UNL d   1      -5.998  -0.178   2.492  0.00  0.00    -0.732 N 
ATOM      8  C   UNL d   1      -5.319  -0.437   1.241  0.00  0.00     0.284 C 
ATOM      9  H3  UNL d   1      -6.930   0.216   2.386  0.00  0.00     0.395 HD
ENDBRANCH   1   7
TORSDOF 1
ENDMDL
