MODEL 1
REMARK minimizedAffinity 1.20001996
REMARK minimizedRMSD -1
REMARK  1 active torsions:
REMARK  status: ('A' for Active; 'I' for Inactive)
REMARK    1  A    between atoms: N_2  and  C1_3 
ROOT
ATOM      1  C1  UNL d   1      -4.978   0.020   2.094  0.00  0.00     0.143 A 
ATOM      2  C2  UNL d   1      -5.936   0.089   3.111  0.00  0.00    -0.057 A 
ATOM      3  C3  UNL d   1      -6.000  -0.883   4.116  0.00  0.00     0.033 A 
ATOM      4  C4  UNL d   1      -5.121  -1.961   4.106  0.00  0.00    -0.042 A 
ATOM      5  C5  UNL d   1      -4.177  -2.064   3.090  0.00  0.00     0.033 A 
ATOM      6  C6  UNL d   1      -4.114  -1.086   2.093  0.00  0.00    -0.057 A 
ENDROOT
BRANCH   1   7
ATOM      7  N   UNL d   1      -4.927   0.902   1.012  0.00  0.00    -0.732 N 
ATOM      8  C   UNL d   1      -4.911   0.402  -0.346  0.00  0.00     0.284 C 
ATOM      9  H3  UNL d   1      -5.520   1.718   1.147  0.00  0.00     0.395 HD
ENDBRANCH   1   7
TORSDOF 1
ENDMDL
