MODEL 1
REMARK minimizedAffinity 0.665945113
REMARK minimizedRMSD -1
REMARK  1 active torsions:
REMARK  status: ('A' for Active; 'I' for Inactive)
REMARK    1  A    between atoms: N_2  and  C1_3 
ROOT
ATOM      1  C1  UNL d   1      -2.083  -3.670  -5.861  0.00  0.00     0.143 A 
ATOM      2  C2  UNL d   1      -3.424  -3.288  -5.976  0.00  0.00    -0.057 A 
ATOM      3  C3  UNL d   1      -4.452  -4.238  -5.994  0.00  0.00     0.033 A 
ATOM      4  C4  UNL d   1      -4.153  -5.595  -5.928  0.00  0.00    -0.042 A 
ATOM      5  C5  UNL d   1      -2.826  -6.000  -5.839  0.00  0.00     0.033 A 
ATOM      6  C6  UNL d   1      -1.805  -5.045  -5.814  0.00  0.00    -0.057 A 
ENDROOT
BRANCH   1   7
ATOM      7  N   UNL d   1      -1.011  -2.778  -5.937  0.00  0.00    -0.732 N 
ATOM      8  C   UNL d   1       0.353  -3.264  -5.947  0.00  0.00     0.284 C 
ATOM      9  H3  UNL d   1      -1.185  -2.015  -6.587  0.00  0.00     0.395 HD
ENDBRANCH   1   7
TORSDOF 1
ENDMDL
