MODEL 1
REMARK minimizedAffinity 6.78997993
REMARK minimizedRMSD -1
REMARK  1 active torsions:
REMARK  status: ('A' for Active; 'I' for Inactive)
REMARK    1  A    between atoms: N_2  and  C1_3 
ROOT
ATOM      1  C1  UNL d   1      -3.721   0.696   3.203  0.00  0.00     0.143 A 
ATOM      2  C2  UNL d   1      -3.349  -0.648   3.324  0.00  0.00    -0.057 A 
ATOM      3  C3  UNL d   1      -4.288  -1.634   3.650  0.00  0.00     0.033 A 
ATOM      4  C4  UNL d   1      -5.614  -1.288   3.892  0.00  0.00    -0.042 A 
ATOM      5  C5  UNL d   1      -6.000   0.044   3.803  0.00  0.00     0.033 A 
ATOM      6  C6  UNL d   1      -5.059   1.024   3.469  0.00  0.00    -0.057 A 
ENDROOT
BRANCH   1   7
ATOM      7  N   UNL d   1      -2.815   1.736   2.978  0.00  0.00    -0.732 N 
ATOM      8  C   UNL d   1      -1.393   1.475   2.915  0.00  0.00     0.284 C 
ATOM      9  H3  UNL d   1      -3.148   2.396   2.279  0.00  0.00     0.395 HD
ENDBRANCH   1   7
TORSDOF 1
ENDMDL
