MODEL 1
REMARK minimizedAffinity 4.43989182
REMARK minimizedRMSD -1
REMARK  1 active torsions:
REMARK  status: ('A' for Active; 'I' for Inactive)
REMARK    1  A    between atoms: N_2  and  C1_3 
ROOT
ATOM      1  C1  UNL d   1      -5.152  -1.758   3.829  0.00  0.00     0.143 A 
ATOM      2  C2  UNL d   1      -4.080  -1.615   2.942  0.00  0.00    -0.057 A 
ATOM      3  C3  UNL d   1      -3.835  -0.401   2.288  0.00  0.00     0.033 A 
ATOM      4  C4  UNL d   1      -4.678   0.686   2.490  0.00  0.00    -0.042 A 
ATOM      5  C5  UNL d   1      -5.765   0.560   3.348  0.00  0.00     0.033 A 
ATOM      6  C6  UNL d   1      -6.000  -0.653   4.003  0.00  0.00    -0.057 A 
ENDROOT
BRANCH   1   7
ATOM      7  N   UNL d   1      -5.505  -2.967   4.433  0.00  0.00    -0.732 N 
ATOM      8  C   UNL d   1      -5.988  -2.996   5.797  0.00  0.00     0.284 C 
ATOM      9  H3  UNL d   1      -6.009  -3.585   3.800  0.00  0.00     0.395 HD
ENDBRANCH   1   7
TORSDOF 1
ENDMDL
