MODEL 1
REMARK minimizedAffinity 2.36228347
REMARK minimizedRMSD -1
REMARK  1 active torsions:
REMARK  status: ('A' for Active; 'I' for Inactive)
REMARK    1  A    between atoms: N_2  and  C1_3 
ROOT
ATOM      1  C1  UNL d   1      -2.335   5.479  -4.571  0.00  0.00     0.143 A 
ATOM      2  C2  UNL d   1      -2.636   4.839  -5.778  0.00  0.00    -0.057 A 
ATOM      3  C3  UNL d   1      -3.887   4.247  -5.993  0.00  0.00     0.033 A 
ATOM      4  C4  UNL d   1      -4.851   4.259  -4.991  0.00  0.00    -0.042 A 
ATOM      5  C5  UNL d   1      -4.564   4.868  -3.774  0.00  0.00     0.033 A 
ATOM      6  C6  UNL d   1      -3.316   5.463  -3.567  0.00  0.00    -0.057 A 
ENDROOT
BRANCH   1   7
ATOM      7  N   UNL d   1      -1.076   6.000  -4.260  0.00  0.00    -0.732 N 
ATOM      8  C   UNL d   1      -0.015   6.000  -5.244  0.00  0.00     0.284 C 
ATOM      9  H3  UNL d   1      -1.135   6.855  -3.711  0.00  0.00     0.395 HD
ENDBRANCH   1   7
TORSDOF 1
ENDMDL
