MODEL 1
REMARK minimizedAffinity -3.72939467
REMARK minimizedRMSD -1
REMARK  0 active torsions:
REMARK  status: ('A' for Active; 'I' for Inactive)
ROOT
ATOM      1  C4' PXY d   1      -2.598   0.232  -0.484  0.00  0.00     0.077 C 
ATOM      2  C1' PXY d   1       2.954   0.439   1.112  0.00  0.00     0.077 C 
ATOM      3  C1  PXY d   1       1.498   0.372   0.693  0.00  0.00    -0.082 A 
ATOM      4  C2  PXY d   1       0.937   1.418   0.108  0.00  0.00     0.003 A 
ATOM      5  C3  PXY d   1      -0.387   1.385  -0.248  0.00  0.00     0.003 A 
ATOM      6  C4  PXY d   1      -1.129   0.252  -0.053  0.00  0.00    -0.082 A 
ATOM      7  C5  PXY d   1      -0.561  -0.823   0.533  0.00  0.00     0.003 A 
ATOM      8  C6  PXY d   1       0.773  -0.756   0.925  0.00  0.00     0.003 A 
ENDROOT
TORSDOF 0
ENDMDL
