MODEL 1
REMARK minimizedAffinity -5.42598915
REMARK minimizedRMSD -1
REMARK  0 active torsions:
REMARK  status: ('A' for Active; 'I' for Inactive)
ROOT
ATOM      1  C4' PXY d   1       2.968  -1.454   1.945  0.00  0.00     0.077 C 
ATOM      2  C1' PXY d   1      -2.000   0.193  -0.510  0.00  0.00     0.077 C 
ATOM      3  C1  PXY d   1      -0.704  -0.245   0.143  0.00  0.00    -0.082 A 
ATOM      4  C2  PXY d   1       0.414   0.414  -0.116  0.00  0.00     0.003 A 
ATOM      5  C3  PXY d   1       1.601   0.012   0.442  0.00  0.00     0.003 A 
ATOM      6  C4  PXY d   1       1.634  -1.042   1.315  0.00  0.00    -0.082 A 
ATOM      7  C5  PXY d   1       0.496  -1.712   1.592  0.00  0.00     0.003 A 
ATOM      8  C6  PXY d   1      -0.691  -1.314   0.984  0.00  0.00     0.003 A 
ENDROOT
TORSDOF 0
ENDMDL
