MODEL 1
REMARK minimizedAffinity -4.65798378
REMARK minimizedRMSD -1
REMARK  0 active torsions:
REMARK  status: ('A' for Active; 'I' for Inactive)
ROOT
ATOM      1  C4' PXY d   1       1.946  -2.215   3.074  0.00  0.00     0.077 C 
ATOM      2  C1' PXY d   1       1.858   1.809  -1.075  0.00  0.00     0.077 C 
ATOM      3  C1  PXY d   1       1.894   0.752   0.011  0.00  0.00    -0.082 A 
ATOM      4  C2  PXY d   1       0.798   0.065   0.292  0.00  0.00     0.003 A 
ATOM      5  C3  PXY d   1       0.805  -0.872   1.293  0.00  0.00     0.003 A 
ATOM      6  C4  PXY d   1       1.958  -1.145   1.979  0.00  0.00    -0.082 A 
ATOM      7  C5  PXY d   1       3.083  -0.456   1.691  0.00  0.00     0.003 A 
ATOM      8  C6  PXY d   1       3.045   0.519   0.699  0.00  0.00     0.003 A 
ENDROOT
TORSDOF 0
ENDMDL
