MODEL 1
REMARK minimizedAffinity -0.120632023
REMARK minimizedRMSD -1
REMARK  0 active torsions:
REMARK  status: ('A' for Active; 'I' for Inactive)
ROOT
ATOM      1  C4' PXY d   1       3.737  -0.479   1.130  0.00  0.00     0.077 C 
ATOM      2  C1' PXY d   1      -1.866   0.296  -0.062  0.00  0.00     0.077 C 
ATOM      3  C1  PXY d   1      -0.399   0.081   0.256  0.00  0.00    -0.082 A 
ATOM      4  C2  PXY d   1       0.412   1.124   0.337  0.00  0.00     0.003 A 
ATOM      5  C3  PXY d   1       1.747   0.945   0.592  0.00  0.00     0.003 A 
ATOM      6  C4  PXY d   1       2.248  -0.309   0.820  0.00  0.00    -0.082 A 
ATOM      7  C5  PXY d   1       1.424  -1.376   0.750  0.00  0.00     0.003 A 
ATOM      8  C6  PXY d   1       0.080  -1.178   0.449  0.00  0.00     0.003 A 
ENDROOT
TORSDOF 0
ENDMDL
