MODEL 1
REMARK minimizedAffinity -2.73693466
REMARK minimizedRMSD -1
REMARK  0 active torsions:
REMARK  status: ('A' for Active; 'I' for Inactive)
ROOT
ATOM      1  C4' PXY d   1      -1.937  -0.724   1.598  0.00  0.00     0.077 C 
ATOM      2  C1' PXY d   1       3.621  -0.193   0.102  0.00  0.00     0.077 C 
ATOM      3  C1  PXY d   1       2.163  -0.320   0.499  0.00  0.00    -0.082 A 
ATOM      4  C2  PXY d   1       1.662  -1.513   0.774  0.00  0.00     0.003 A 
ATOM      5  C3  PXY d   1       0.337  -1.649   1.103  0.00  0.00     0.003 A 
ATOM      6  C4  PXY d   1      -0.469  -0.547   1.203  0.00  0.00    -0.082 A 
ATOM      7  C5  PXY d   1       0.038   0.675   0.934  0.00  0.00     0.003 A 
ATOM      8  C6  PXY d   1       1.375   0.787   0.562  0.00  0.00     0.003 A 
ENDROOT
TORSDOF 0
ENDMDL
