MODEL 1
REMARK minimizedAffinity -4.5695715
REMARK minimizedRMSD -1
REMARK  0 active torsions:
REMARK  status: ('A' for Active; 'I' for Inactive)
ROOT
ATOM      1  C4' PXY d   1      -2.018   0.622  -0.940  0.00  0.00     0.077 C 
ATOM      2  C1' PXY d   1       3.367  -0.149   1.015  0.00  0.00     0.077 C 
ATOM      3  C1  PXY d   1       1.955   0.040   0.499  0.00  0.00    -0.082 A 
ATOM      4  C2  PXY d   1       1.545   1.247   0.143  0.00  0.00     0.003 A 
ATOM      5  C3  PXY d   1       0.261   1.442  -0.296  0.00  0.00     0.003 A 
ATOM      6  C4  PXY d   1      -0.597   0.382  -0.422  0.00  0.00    -0.082 A 
ATOM      7  C5  PXY d   1      -0.183  -0.854  -0.070  0.00  0.00     0.003 A 
ATOM      8  C6  PXY d   1       1.112  -1.024   0.412  0.00  0.00     0.003 A 
ENDROOT
TORSDOF 0
ENDMDL
