MODEL 1
REMARK minimizedAffinity -5.3326745
REMARK minimizedRMSD -1
REMARK  0 active torsions:
REMARK  status: ('A' for Active; 'I' for Inactive)
ROOT
ATOM      1  C4' PXY d   1       0.817   2.697   0.148  0.00  0.00     0.077 C 
ATOM      2  C1' PXY d   1       1.981  -2.688   1.897  0.00  0.00     0.077 C 
ATOM      3  C1  PXY d   1       1.664  -1.280   1.434  0.00  0.00    -0.082 A 
ATOM      4  C2  PXY d   1       2.652  -0.446   1.153  0.00  0.00     0.003 A 
ATOM      5  C3  PXY d   1       2.383   0.842   0.764  0.00  0.00     0.003 A 
ATOM      6  C4  PXY d   1       1.090   1.263   0.609  0.00  0.00    -0.082 A 
ATOM      7  C5  PXY d   1       0.076   0.414   0.883  0.00  0.00     0.003 A 
ATOM      8  C6  PXY d   1       0.370  -0.875   1.317  0.00  0.00     0.003 A 
ENDROOT
TORSDOF 0
ENDMDL
