MODEL 1
REMARK minimizedAffinity -4.79531479
REMARK minimizedRMSD -1
REMARK  0 active torsions:
REMARK  status: ('A' for Active; 'I' for Inactive)
ROOT
ATOM      1  C4' PXY d   1       3.632  -0.644   1.030  0.00  0.00     0.077 C 
ATOM      2  C1' PXY d   1      -1.746   0.781  -0.541  0.00  0.00     0.077 C 
ATOM      3  C1  PXY d   1      -0.331   0.416  -0.138  0.00  0.00    -0.082 A 
ATOM      4  C2  PXY d   1      -0.095  -0.755   0.432  0.00  0.00     0.003 A 
ATOM      5  C3  PXY d   1       1.174  -1.088   0.832  0.00  0.00     0.003 A 
ATOM      6  C4  PXY d   1       2.220  -0.237   0.598  0.00  0.00    -0.082 A 
ATOM      7  C5  PXY d   1       1.989   0.955   0.007  0.00  0.00     0.003 A 
ATOM      8  C6  PXY d   1       0.688   1.292  -0.354  0.00  0.00     0.003 A 
ENDROOT
TORSDOF 0
ENDMDL
