MODEL 1
REMARK minimizedAffinity -2.98717308
REMARK minimizedRMSD -1
REMARK  0 active torsions:
REMARK  status: ('A' for Active; 'I' for Inactive)
ROOT
ATOM      1  C4' PXY d   1       1.177  -2.747   2.227  0.00  0.00     0.077 C 
ATOM      2  C1' PXY d   1       1.412   2.294  -0.594  0.00  0.00     0.077 C 
ATOM      3  C1  PXY d   1       1.363   0.971   0.145  0.00  0.00    -0.082 A 
ATOM      4  C2  PXY d   1       0.256   0.246   0.117  0.00  0.00     0.003 A 
ATOM      5  C3  PXY d   1       0.184  -0.937   0.806  0.00  0.00     0.003 A 
ATOM      6  C4  PXY d   1       1.274  -1.409   1.488  0.00  0.00    -0.082 A 
ATOM      7  C5  PXY d   1       2.410  -0.681   1.512  0.00  0.00     0.003 A 
ATOM      8  C6  PXY d   1       2.450   0.537   0.840  0.00  0.00     0.003 A 
ENDROOT
TORSDOF 0
ENDMDL
