MODEL 1
REMARK minimizedAffinity -5.04700232
REMARK minimizedRMSD -1
REMARK  0 active torsions:
REMARK  status: ('A' for Active; 'I' for Inactive)
ROOT
ATOM      1  C4' PXY d   1       2.617   2.898   3.199  0.00  0.00     0.077 C 
ATOM      2  C1' PXY d   1       0.704  -0.850  -0.765  0.00  0.00     0.077 C 
ATOM      3  C1  PXY d   1       1.213   0.124   0.280  0.00  0.00    -0.082 A 
ATOM      4  C2  PXY d   1       0.511   1.211   0.558  0.00  0.00     0.003 A 
ATOM      5  C3  PXY d   1       0.972   2.118   1.477  0.00  0.00     0.003 A 
ATOM      6  C4  PXY d   1       2.137   1.883   2.158  0.00  0.00    -0.082 A 
ATOM      7  C5  PXY d   1       2.853   0.771   1.887  0.00  0.00     0.003 A 
ATOM      8  C6  PXY d   1       2.389  -0.116   0.921  0.00  0.00     0.003 A 
ENDROOT
TORSDOF 0
ENDMDL
