MODEL 1
REMARK minimizedAffinity -4.14396572
REMARK minimizedRMSD -1
REMARK  0 active torsions:
REMARK  status: ('A' for Active; 'I' for Inactive)
ROOT
ATOM      1  C4' PXY d   1      -2.173   0.415  -0.323  0.00  0.00     0.077 C 
ATOM      2  C1' PXY d   1       3.394  -0.322   1.049  0.00  0.00     0.077 C 
ATOM      3  C1  PXY d   1       1.933  -0.142   0.688  0.00  0.00    -0.082 A 
ATOM      4  C2  PXY d   1       1.514   1.023   0.220  0.00  0.00     0.003 A 
ATOM      5  C3  PXY d   1       0.190   1.213  -0.082  0.00  0.00     0.003 A 
ATOM      6  C4  PXY d   1      -0.705   0.185   0.046  0.00  0.00    -0.082 A 
ATOM      7  C5  PXY d   1      -0.283  -1.010   0.513  0.00  0.00     0.003 A 
ATOM      8  C6  PXY d   1       1.057  -1.170   0.852  0.00  0.00     0.003 A 
ENDROOT
TORSDOF 0
ENDMDL
