MODEL 1
REMARK minimizedAffinity -4.33960485
REMARK minimizedRMSD -1
REMARK  1 active torsions:
REMARK  status: ('A' for Active; 'I' for Inactive)
REMARK    1  A    between atoms: C3_4  and  O_7 
ROOT
ATOM      1  C   UNL d   1      -0.730   0.751   0.690  0.00  0.00    -0.033 A 
ATOM      2  C1  UNL d   1       0.399   0.623  -0.122  0.00  0.00     0.039 A 
ATOM      3  C2  UNL d   1       1.148  -0.555  -0.098  0.00  0.00    -0.080 A 
ATOM      4  C3  UNL d   1       0.757  -1.596   0.739  0.00  0.00     0.150 A 
ATOM      5  C4  UNL d   1      -0.368  -1.477   1.548  0.00  0.00    -0.007 A 
ATOM      6  C5  UNL d   1      -1.114  -0.300   1.523  0.00  0.00     0.039 A 
ENDROOT
BRANCH   4   7
ATOM      7  O   UNL d   1       1.459  -2.763   0.800  0.00  0.00    -0.526 OA
ATOM      8  H5  UNL d   1       2.228  -2.692   0.209  0.00  0.00     0.418 HD
ENDBRANCH   4   7
TORSDOF 1
ENDMDL
