MODEL 1
REMARK minimizedAffinity -3.38834429
REMARK minimizedRMSD -1
REMARK  1 active torsions:
REMARK  status: ('A' for Active; 'I' for Inactive)
REMARK    1  A    between atoms: C3_4  and  O_7 
ROOT
ATOM      1  C   UNL d   1      -0.239   0.013   0.357  0.00  0.00    -0.033 A 
ATOM      2  C1  UNL d   1      -0.932  -0.961   1.080  0.00  0.00     0.039 A 
ATOM      3  C2  UNL d   1      -0.303  -2.161   1.418  0.00  0.00    -0.080 A 
ATOM      4  C3  UNL d   1       1.016  -2.374   1.028  0.00  0.00     0.150 A 
ATOM      5  C4  UNL d   1       1.713  -1.407   0.311  0.00  0.00    -0.007 A 
ATOM      6  C5  UNL d   1       1.084  -0.210  -0.026  0.00  0.00     0.039 A 
ENDROOT
BRANCH   4   7
ATOM      7  O   UNL d   1       1.670  -3.532   1.330  0.00  0.00    -0.526 OA
ATOM      8  H5  UNL d   1       1.055  -4.118   1.802  0.00  0.00     0.418 HD
ENDBRANCH   4   7
TORSDOF 1
ENDMDL
