MODEL 1
REMARK minimizedAffinity -3.17627025
REMARK minimizedRMSD -1
REMARK  1 active torsions:
REMARK  status: ('A' for Active; 'I' for Inactive)
REMARK    1  A    between atoms: C3_4  and  O_7 
ROOT
ATOM      1  C   UNL d   1      -0.698   0.455   0.040  0.00  0.00    -0.033 A 
ATOM      2  C1  UNL d   1      -1.109  -0.515   0.957  0.00  0.00     0.039 A 
ATOM      3  C2  UNL d   1      -0.289  -1.611   1.231  0.00  0.00    -0.080 A 
ATOM      4  C3  UNL d   1       0.939  -1.725   0.584  0.00  0.00     0.150 A 
ATOM      5  C4  UNL d   1       1.356  -0.760  -0.327  0.00  0.00    -0.007 A 
ATOM      6  C5  UNL d   1       0.535   0.333  -0.601  0.00  0.00     0.039 A 
ENDROOT
BRANCH   4   7
ATOM      7  O   UNL d   1       1.772  -2.779   0.816  0.00  0.00    -0.526 OA
ATOM      8  H5  UNL d   1       1.340  -3.380   1.446  0.00  0.00     0.418 HD
ENDBRANCH   4   7
TORSDOF 1
ENDMDL
