MODEL 1
REMARK minimizedAffinity -1.84622931
REMARK minimizedRMSD -1
REMARK  1 active torsions:
REMARK  status: ('A' for Active; 'I' for Inactive)
REMARK    1  A    between atoms: C3_4  and  O_7 
ROOT
ATOM      1  C   UNL d   1      -1.196   0.983   0.705  0.00  0.00    -0.033 A 
ATOM      2  C1  UNL d   1      -0.541   0.479  -0.420  0.00  0.00     0.039 A 
ATOM      3  C2  UNL d   1      -0.099  -0.845  -0.438  0.00  0.00    -0.080 A 
ATOM      4  C3  UNL d   1      -0.318  -1.654   0.673  0.00  0.00     0.150 A 
ATOM      5  C4  UNL d   1      -0.973  -1.159   1.796  0.00  0.00    -0.007 A 
ATOM      6  C5  UNL d   1      -1.413   0.164   1.813  0.00  0.00     0.039 A 
ENDROOT
BRANCH   4   7
ATOM      7  O   UNL d   1       0.099  -2.951   0.704  0.00  0.00    -0.526 OA
ATOM      8  H5  UNL d   1       0.561  -3.146  -0.128  0.00  0.00     0.418 HD
ENDBRANCH   4   7
TORSDOF 1
ENDMDL
