MODEL 1
REMARK minimizedAffinity -2.46998858
REMARK minimizedRMSD -1
REMARK  1 active torsions:
REMARK  status: ('A' for Active; 'I' for Inactive)
REMARK    1  A    between atoms: C3_4  and  O_7 
ROOT
ATOM      1  C   UNL d   1      -0.455   0.015   0.253  0.00  0.00    -0.033 A 
ATOM      2  C1  UNL d   1      -0.994  -1.030   1.005  0.00  0.00     0.039 A 
ATOM      3  C2  UNL d   1      -0.257  -2.198   1.210  0.00  0.00    -0.080 A 
ATOM      4  C3  UNL d   1       1.016  -2.308   0.658  0.00  0.00     0.150 A 
ATOM      5  C4  UNL d   1       1.561  -1.269  -0.089  0.00  0.00    -0.007 A 
ATOM      6  C5  UNL d   1       0.823  -0.103  -0.293  0.00  0.00     0.039 A 
ENDROOT
BRANCH   4   7
ATOM      7  O   UNL d   1       1.772  -3.430   0.826  0.00  0.00    -0.526 OA
ATOM      8  H5  UNL d   1       1.256  -4.074   1.339  0.00  0.00     0.418 HD
ENDBRANCH   4   7
TORSDOF 1
ENDMDL
