MODEL 1
REMARK minimizedAffinity -2.31850672
REMARK minimizedRMSD -1
REMARK  1 active torsions:
REMARK  status: ('A' for Active; 'I' for Inactive)
REMARK    1  A    between atoms: C3_4  and  O_7 
ROOT
ATOM      1  C   UNL d   1       2.981   4.100   0.151  0.00  0.00    -0.033 A 
ATOM      2  C1  UNL d   1       3.614   2.869  -0.031  0.00  0.00     0.039 A 
ATOM      3  C2  UNL d   1       2.882   1.684   0.067  0.00  0.00    -0.080 A 
ATOM      4  C3  UNL d   1       1.520   1.744   0.345  0.00  0.00     0.150 A 
ATOM      5  C4  UNL d   1       0.881   2.967   0.523  0.00  0.00    -0.007 A 
ATOM      6  C5  UNL d   1       1.614   4.149   0.426  0.00  0.00     0.039 A 
ENDROOT
BRANCH   4   7
ATOM      7  O   UNL d   1       0.765   0.614   0.455  0.00  0.00    -0.526 OA
ATOM      8  H5  UNL d   1       1.345  -0.157   0.336  0.00  0.00     0.418 HD
ENDBRANCH   4   7
TORSDOF 1
ENDMDL
