MODEL 1
REMARK minimizedAffinity -2.95340943
REMARK minimizedRMSD -1
REMARK  1 active torsions:
REMARK  status: ('A' for Active; 'I' for Inactive)
REMARK    1  A    between atoms: C3_4  and  O_7 
ROOT
ATOM      1  C   UNL d   1      -0.581   0.259   0.004  0.00  0.00    -0.033 A 
ATOM      2  C1  UNL d   1      -1.251  -0.703   0.763  0.00  0.00     0.039 A 
ATOM      3  C2  UNL d   1      -0.592  -1.870   1.154  0.00  0.00    -0.080 A 
ATOM      4  C3  UNL d   1       0.735  -2.062   0.780  0.00  0.00     0.150 A 
ATOM      5  C4  UNL d   1       1.410  -1.106   0.027  0.00  0.00    -0.007 A 
ATOM      6  C5  UNL d   1       0.749   0.058  -0.362  0.00  0.00     0.039 A 
ENDROOT
BRANCH   4   7
ATOM      7  O   UNL d   1       1.419  -3.188   1.133  0.00  0.00    -0.526 OA
ATOM      8  H5  UNL d   1       0.818  -3.771   1.626  0.00  0.00     0.418 HD
ENDBRANCH   4   7
TORSDOF 1
ENDMDL
