MODEL 1
REMARK minimizedAffinity -5.11115503
REMARK minimizedRMSD -1
REMARK  1 active torsions:
REMARK  status: ('A' for Active; 'I' for Inactive)
REMARK    1  A    between atoms: C3_4  and  O_7 
ROOT
ATOM      1  C   UNL d   1      -0.764  -0.081   0.796  0.00  0.00    -0.033 A 
ATOM      2  C1  UNL d   1       0.415   0.031   0.056  0.00  0.00     0.039 A 
ATOM      3  C2  UNL d   1       1.303  -1.045  -0.011  0.00  0.00    -0.080 A 
ATOM      4  C3  UNL d   1       1.001  -2.224   0.664  0.00  0.00     0.150 A 
ATOM      5  C4  UNL d   1      -0.174  -2.343   1.400  0.00  0.00    -0.007 A 
ATOM      6  C5  UNL d   1      -1.059  -1.268   1.467  0.00  0.00     0.039 A 
ENDROOT
BRANCH   4   7
ATOM      7  O   UNL d   1       1.839  -3.299   0.631  0.00  0.00    -0.526 OA
ATOM      8  H5  UNL d   1       2.623  -3.062   0.109  0.00  0.00     0.418 HD
ENDBRANCH   4   7
TORSDOF 1
ENDMDL
