MODEL 1
REMARK minimizedAffinity -3.4755733
REMARK minimizedRMSD -1
REMARK  1 active torsions:
REMARK  status: ('A' for Active; 'I' for Inactive)
REMARK    1  A    between atoms: C3_4  and  O_7 
ROOT
ATOM      1  C   UNL d   1      -0.644   0.385   0.155  0.00  0.00    -0.033 A 
ATOM      2  C1  UNL d   1      -1.335  -0.566   0.909  0.00  0.00     0.039 A 
ATOM      3  C2  UNL d   1      -0.766  -1.818   1.148  0.00  0.00    -0.080 A 
ATOM      4  C3  UNL d   1       0.494  -2.106   0.630  0.00  0.00     0.150 A 
ATOM      5  C4  UNL d   1       1.189  -1.163  -0.119  0.00  0.00    -0.007 A 
ATOM      6  C5  UNL d   1       0.619   0.087  -0.358  0.00  0.00     0.039 A 
ENDROOT
BRANCH   4   7
ATOM      7  O   UNL d   1       1.088  -3.316   0.833  0.00  0.00    -0.526 OA
ATOM      8  H5  UNL d   1       0.479  -3.876   1.342  0.00  0.00     0.418 HD
ENDBRANCH   4   7
TORSDOF 1
ENDMDL
