MODEL 1
REMARK minimizedAffinity -1.32936502
REMARK minimizedRMSD -1
REMARK  1 active torsions:
REMARK  status: ('A' for Active; 'I' for Inactive)
REMARK    1  A    between atoms: C3_4  and  O_7 
ROOT
ATOM      1  C   UNL d   1       2.562   3.502   0.228  0.00  0.00    -0.033 A 
ATOM      2  C1  UNL d   1       1.335   3.894  -0.309  0.00  0.00     0.039 A 
ATOM      3  C2  UNL d   1       0.341   2.944  -0.552  0.00  0.00    -0.080 A 
ATOM      4  C3  UNL d   1       0.587   1.607  -0.253  0.00  0.00     0.150 A 
ATOM      5  C4  UNL d   1       1.806   1.209   0.286  0.00  0.00    -0.007 A 
ATOM      6  C5  UNL d   1       2.797   2.159   0.527  0.00  0.00     0.039 A 
ENDROOT
BRANCH   4   7
ATOM      7  O   UNL d   1      -0.351   0.642  -0.477  0.00  0.00    -0.526 OA
ATOM      8  H5  UNL d   1      -1.131   1.060  -0.879  0.00  0.00     0.418 HD
ENDBRANCH   4   7
TORSDOF 1
ENDMDL
