MODEL 1
REMARK minimizedAffinity -2.21942163
REMARK minimizedRMSD -1
REMARK  1 active torsions:
REMARK  status: ('A' for Active; 'I' for Inactive)
REMARK    1  A    between atoms: C3_4  and  O_7 
ROOT
ATOM      1  C   UNL d   1       0.055  -0.085   0.281  0.00  0.00    -0.033 A 
ATOM      2  C1  UNL d   1       1.451  -0.044   0.257  0.00  0.00     0.039 A 
ATOM      3  C2  UNL d   1       2.116   1.183   0.304  0.00  0.00    -0.080 A 
ATOM      4  C3  UNL d   1       1.375   2.360   0.376  0.00  0.00     0.150 A 
ATOM      5  C4  UNL d   1      -0.015   2.326   0.405  0.00  0.00    -0.007 A 
ATOM      6  C5  UNL d   1      -0.677   1.100   0.357  0.00  0.00     0.039 A 
ENDROOT
BRANCH   4   7
ATOM      7  O   UNL d   1       1.980   3.581   0.420  0.00  0.00    -0.526 OA
ATOM      8  H5  UNL d   1       2.941   3.450   0.364  0.00  0.00     0.418 HD
ENDBRANCH   4   7
TORSDOF 1
ENDMDL
