MODEL 1
REMARK minimizedAffinity -3.1507473
REMARK minimizedRMSD -1
REMARK  1 active torsions:
REMARK  status: ('A' for Active; 'I' for Inactive)
REMARK    1  A    between atoms: C3_4  and  O_7 
ROOT
ATOM      1  C   UNL d   1      -0.508   0.405   0.687  0.00  0.00    -0.033 A 
ATOM      2  C1  UNL d   1      -1.020  -0.509   1.610  0.00  0.00     0.039 A 
ATOM      3  C2  UNL d   1      -0.324  -1.687   1.889  0.00  0.00    -0.080 A 
ATOM      4  C3  UNL d   1       0.881  -1.938   1.240  0.00  0.00     0.150 A 
ATOM      5  C4  UNL d   1       1.399  -1.030   0.322  0.00  0.00    -0.007 A 
ATOM      6  C5  UNL d   1       0.703   0.145   0.044  0.00  0.00     0.039 A 
ENDROOT
BRANCH   4   7
ATOM      7  O   UNL d   1       1.594  -3.076   1.476  0.00  0.00    -0.526 OA
ATOM      8  H5  UNL d   1       1.101  -3.622   2.110  0.00  0.00     0.418 HD
ENDBRANCH   4   7
TORSDOF 1
ENDMDL
