MODEL 1
REMARK minimizedAffinity -2.0376668
REMARK minimizedRMSD -1
REMARK  1 active torsions:
REMARK  status: ('A' for Active; 'I' for Inactive)
REMARK    1  A    between atoms: C3_4  and  O_7 
ROOT
ATOM      1  C   UNL d   1      -0.114  -0.056   0.013  0.00  0.00    -0.033 A 
ATOM      2  C1  UNL d   1      -0.830  -0.983   0.773  0.00  0.00     0.039 A 
ATOM      3  C2  UNL d   1      -0.208  -2.151   1.219  0.00  0.00    -0.080 A 
ATOM      4  C3  UNL d   1       1.128  -2.379   0.901  0.00  0.00     0.150 A 
ATOM      5  C4  UNL d   1       1.848  -1.457   0.148  0.00  0.00    -0.007 A 
ATOM      6  C5  UNL d   1       1.226  -0.292  -0.298  0.00  0.00     0.039 A 
ENDROOT
BRANCH   4   7
ATOM      7  O   UNL d   1       1.776  -3.506   1.311  0.00  0.00    -0.526 OA
ATOM      8  H5  UNL d   1       1.146  -4.064   1.797  0.00  0.00     0.418 HD
ENDBRANCH   4   7
TORSDOF 1
ENDMDL
