MODEL 1
REMARK minimizedAffinity -3.50496054
REMARK minimizedRMSD -1
REMARK  1 active torsions:
REMARK  status: ('A' for Active; 'I' for Inactive)
REMARK    1  A    between atoms: C3_4  and  O_7 
ROOT
ATOM      1  C   UNL d   1       1.580  -2.784   1.299  0.00  0.00    -0.033 A 
ATOM      2  C1  UNL d   1       0.203  -2.861   1.080  0.00  0.00     0.039 A 
ATOM      3  C2  UNL d   1      -0.505  -1.729   0.670  0.00  0.00    -0.080 A 
ATOM      4  C3  UNL d   1       0.175  -0.529   0.483  0.00  0.00     0.150 A 
ATOM      5  C4  UNL d   1       1.547  -0.446   0.695  0.00  0.00    -0.007 A 
ATOM      6  C5  UNL d   1       2.252  -1.576   1.105  0.00  0.00     0.039 A 
ENDROOT
BRANCH   4   7
ATOM      7  O   UNL d   1      -0.474   0.603   0.088  0.00  0.00    -0.526 OA
ATOM      8  H5  UNL d   1      -1.422   0.403   0.008  0.00  0.00     0.418 HD
ENDBRANCH   4   7
TORSDOF 1
ENDMDL
