MODEL 1
REMARK minimizedAffinity -4.09625101
REMARK minimizedRMSD -1
REMARK  1 active torsions:
REMARK  status: ('A' for Active; 'I' for Inactive)
REMARK    1  A    between atoms: C3_4  and  O_7 
ROOT
ATOM      1  C   UNL d   1       0.033   0.022   0.102  0.00  0.00    -0.033 A 
ATOM      2  C1  UNL d   1       1.418   0.065   0.267  0.00  0.00     0.039 A 
ATOM      3  C2  UNL d   1       2.109  -1.073   0.687  0.00  0.00    -0.080 A 
ATOM      4  C3  UNL d   1       1.404  -2.247   0.937  0.00  0.00     0.150 A 
ATOM      5  C4  UNL d   1       0.024  -2.299   0.770  0.00  0.00    -0.007 A 
ATOM      6  C5  UNL d   1      -0.664  -1.161   0.351  0.00  0.00     0.039 A 
ENDROOT
BRANCH   4   7
ATOM      7  O   UNL d   1       2.034  -3.382   1.353  0.00  0.00    -0.526 OA
ATOM      8  H5  UNL d   1       2.981  -3.190   1.452  0.00  0.00     0.418 HD
ENDBRANCH   4   7
TORSDOF 1
ENDMDL
