MODEL 1
REMARK minimizedAffinity 5.77885246
REMARK minimizedRMSD -1
REMARK  0 active torsions:
REMARK  status: ('A' for Active; 'I' for Inactive)
ROOT
ATOM      1  C4' PXY d   1       1.382  -1.943   2.531  0.00  0.00     0.077 C 
ATOM      2  C1' PXY d   1      -1.654   2.474   0.364  0.00  0.00     0.077 C 
ATOM      3  C1  PXY d   1      -0.869   1.310   0.937  0.00  0.00    -0.082 A 
ATOM      4  C2  PXY d   1       0.414   1.464   1.223  0.00  0.00     0.003 A 
ATOM      5  C3  PXY d   1       1.146   0.413   1.712  0.00  0.00     0.003 A 
ATOM      6  C4  PXY d   1       0.548  -0.793   1.960  0.00  0.00    -0.082 A 
ATOM      7  C5  PXY d   1      -0.763  -0.955   1.680  0.00  0.00     0.003 A 
ATOM      8  C6  PXY d   1      -1.480   0.112   1.146  0.00  0.00     0.003 A 
ENDROOT
TORSDOF 0
ENDMDL
