MODEL 1
REMARK minimizedAffinity 8.65798378
REMARK minimizedRMSD -1
REMARK  0 active torsions:
REMARK  status: ('A' for Active; 'I' for Inactive)
ROOT
ATOM      1  C4' PXY d   1      -5.996   5.142  -4.235  0.00  0.00     0.077 C 
ATOM      2  C1' PXY d   1      -5.852   2.466   0.887  0.00  0.00     0.077 C 
ATOM      3  C1  PXY d   1      -5.885   3.157  -0.462  0.00  0.00    -0.082 A 
ATOM      4  C2  PXY d   1      -5.831   4.478  -0.522  0.00  0.00     0.003 A 
ATOM      5  C3  PXY d   1      -5.892   5.120  -1.732  0.00  0.00     0.003 A 
ATOM      6  C4  PXY d   1      -5.955   4.401  -2.896  0.00  0.00    -0.082 A 
ATOM      7  C5  PXY d   1      -6.000   3.053  -2.843  0.00  0.00     0.003 A 
ATOM      8  C6  PXY d   1      -5.978   2.422  -1.603  0.00  0.00     0.003 A 
ENDROOT
TORSDOF 0
ENDMDL
