MODEL 1
REMARK minimizedAffinity 1.91026556
REMARK minimizedRMSD -1
REMARK  0 active torsions:
REMARK  status: ('A' for Active; 'I' for Inactive)
ROOT
ATOM      1  C4' PXY d   1      -2.383  -3.992  -0.045  0.00  0.00     0.077 C 
ATOM      2  C1' PXY d   1       1.714  -0.453   1.983  0.00  0.00     0.077 C 
ATOM      3  C1  PXY d   1       0.648  -1.387   1.444  0.00  0.00    -0.082 A 
ATOM      4  C2  PXY d   1      -0.618  -1.003   1.442  0.00  0.00     0.003 A 
ATOM      5  C3  PXY d   1      -1.598  -1.848   0.988  0.00  0.00     0.003 A 
ATOM      6  C4  PXY d   1      -1.272  -3.078   0.481  0.00  0.00    -0.082 A 
ATOM      7  C5  PXY d   1       0.018  -3.472   0.470  0.00  0.00     0.003 A 
ATOM      8  C6  PXY d   1       0.994  -2.616   0.973  0.00  0.00     0.003 A 
ENDROOT
TORSDOF 0
ENDMDL
