MODEL 1
REMARK minimizedAffinity -0.10553994
REMARK minimizedRMSD -1
REMARK  0 active torsions:
REMARK  status: ('A' for Active; 'I' for Inactive)
ROOT
ATOM      1  C4' PXY d   1      -2.930  -3.324   0.067  0.00  0.00     0.077 C 
ATOM      2  C1' PXY d   1       1.547  -0.571   2.476  0.00  0.00     0.077 C 
ATOM      3  C1  PXY d   1       0.381  -1.300   1.837  0.00  0.00    -0.082 A 
ATOM      4  C2  PXY d   1      -0.813  -0.731   1.815  0.00  0.00     0.003 A 
ATOM      5  C3  PXY d   1      -1.885  -1.390   1.270  0.00  0.00     0.003 A 
ATOM      6  C4  PXY d   1      -1.722  -2.621   0.693  0.00  0.00    -0.082 A 
ATOM      7  C5  PXY d   1      -0.504  -3.203   0.702  0.00  0.00     0.003 A 
ATOM      8  C6  PXY d   1       0.562  -2.536   1.297  0.00  0.00     0.003 A 
ENDROOT
TORSDOF 0
ENDMDL
