MODEL 1
REMARK minimizedAffinity 9.41473961
REMARK minimizedRMSD -1
REMARK  0 active torsions:
REMARK  status: ('A' for Active; 'I' for Inactive)
ROOT
ATOM      1  C4' PXY d   1      -1.771  -3.412   0.408  0.00  0.00     0.077 C 
ATOM      2  C1' PXY d   1      -3.426  -1.136  -4.641  0.00  0.00     0.077 C 
ATOM      3  C1  PXY d   1      -2.992  -1.744  -3.322  0.00  0.00    -0.082 A 
ATOM      4  C2  PXY d   1      -3.204  -1.083  -2.196  0.00  0.00     0.003 A 
ATOM      5  C3  PXY d   1      -2.789  -1.605  -0.997  0.00  0.00     0.003 A 
ATOM      6  C4  PXY d   1      -2.200  -2.840  -0.946  0.00  0.00    -0.082 A 
ATOM      7  C5  PXY d   1      -1.991  -3.525  -2.090  0.00  0.00     0.003 A 
ATOM      8  C6  PXY d   1      -2.382  -2.960  -3.300  0.00  0.00     0.003 A 
ENDROOT
TORSDOF 0
ENDMDL
