MODEL 1
REMARK minimizedAffinity 12.5578003
REMARK minimizedRMSD -1
REMARK  0 active torsions:
REMARK  status: ('A' for Active; 'I' for Inactive)
ROOT
ATOM      1  C4' PXY d   1       1.848  -0.128   1.304  0.00  0.00     0.077 C 
ATOM      2  C1' PXY d   1       1.744  -3.499   6.000  0.00  0.00     0.077 C 
ATOM      3  C1  PXY d   1       1.780  -2.623   4.763  0.00  0.00    -0.082 A 
ATOM      4  C2  PXY d   1       1.437  -1.348   4.854  0.00  0.00     0.003 A 
ATOM      5  C3  PXY d   1       1.433  -0.550   3.739  0.00  0.00     0.003 A 
ATOM      6  C4  PXY d   1       1.835  -1.048   2.529  0.00  0.00    -0.082 A 
ATOM      7  C5  PXY d   1       2.197  -2.344   2.430  0.00  0.00     0.003 A 
ATOM      8  C6  PXY d   1       2.155  -3.149   3.565  0.00  0.00     0.003 A 
ENDROOT
TORSDOF 0
ENDMDL
