MODEL 1
REMARK minimizedAffinity 3.61913919
REMARK minimizedRMSD -1
REMARK  0 active torsions:
REMARK  status: ('A' for Active; 'I' for Inactive)
ROOT
ATOM      1  C4' PXY d   1       2.266  -5.440  -2.441  0.00  0.00     0.077 C 
ATOM      2  C1' PXY d   1      -2.854  -3.776  -0.336  0.00  0.00     0.077 C 
ATOM      3  C1  PXY d   1      -1.505  -4.210  -0.877  0.00  0.00    -0.082 A 
ATOM      4  C2  PXY d   1      -1.294  -4.211  -2.183  0.00  0.00     0.003 A 
ATOM      5  C3  PXY d   1      -0.091  -4.630  -2.691  0.00  0.00     0.003 A 
ATOM      6  C4  PXY d   1       0.924  -5.002  -1.850  0.00  0.00    -0.082 A 
ATOM      7  C5  PXY d   1       0.720  -4.993  -0.516  0.00  0.00     0.003 A 
ATOM      8  C6  PXY d   1      -0.522  -4.603  -0.022  0.00  0.00     0.003 A 
ENDROOT
TORSDOF 0
ENDMDL
