MODEL 1
REMARK minimizedAffinity 8.01832962
REMARK minimizedRMSD -1
REMARK  0 active torsions:
REMARK  status: ('A' for Active; 'I' for Inactive)
ROOT
ATOM      1  C4' PXY d   1       1.507  -4.213   6.000  0.00  0.00     0.077 C 
ATOM      2  C1' PXY d   1       1.694  -0.613   1.481  0.00  0.00     0.077 C 
ATOM      3  C1  PXY d   1       1.647  -1.567   2.658  0.00  0.00    -0.082 A 
ATOM      4  C2  PXY d   1       0.977  -1.229   3.748  0.00  0.00     0.003 A 
ATOM      5  C3  PXY d   1       0.951  -2.066   4.834  0.00  0.00     0.003 A 
ATOM      6  C4  PXY d   1       1.573  -3.285   4.784  0.00  0.00    -0.082 A 
ATOM      7  C5  PXY d   1       2.250  -3.642   3.671  0.00  0.00     0.003 A 
ATOM      8  C6  PXY d   1       2.299  -2.760   2.595  0.00  0.00     0.003 A 
ENDROOT
TORSDOF 0
ENDMDL
