MODEL 1
REMARK minimizedAffinity 3.23229337
REMARK minimizedRMSD -1
REMARK  0 active torsions:
REMARK  status: ('A' for Active; 'I' for Inactive)
ROOT
ATOM      1  C4' PXY d   1       0.048  -0.001   1.152  0.00  0.00     0.077 C 
ATOM      2  C1' PXY d   1       2.284  -2.218   6.000  0.00  0.00     0.077 C 
ATOM      3  C1  PXY d   1       1.707  -1.643   4.722  0.00  0.00    -0.082 A 
ATOM      4  C2  PXY d   1       1.011  -0.519   4.766  0.00  0.00     0.003 A 
ATOM      5  C3  PXY d   1       0.455  -0.002   3.625  0.00  0.00     0.003 A 
ATOM      6  C4  PXY d   1       0.657  -0.614   2.417  0.00  0.00    -0.082 A 
ATOM      7  C5  PXY d   1       1.375  -1.755   2.361  0.00  0.00     0.003 A 
ATOM      8  C6  PXY d   1       1.897  -2.286   3.538  0.00  0.00     0.003 A 
ENDROOT
TORSDOF 0
ENDMDL
