MODEL 1
REMARK minimizedAffinity 1.74698448
REMARK minimizedRMSD -1
REMARK  0 active torsions:
REMARK  status: ('A' for Active; 'I' for Inactive)
ROOT
ATOM      1  C4' PXY d   1       5.984   3.358  -5.600  0.00  0.00     0.077 C 
ATOM      2  C1' PXY d   1       3.420   3.792  -0.437  0.00  0.00     0.077 C 
ATOM      3  C1  PXY d   1       4.082   3.670  -1.795  0.00  0.00    -0.082 A 
ATOM      4  C2  PXY d   1       5.389   3.848  -1.904  0.00  0.00     0.003 A 
ATOM      5  C3  PXY d   1       6.000   3.773  -3.129  0.00  0.00     0.003 A 
ATOM      6  C4  PXY d   1       5.274   3.461  -4.247  0.00  0.00    -0.082 A 
ATOM      7  C5  PXY d   1       3.942   3.268  -4.143  0.00  0.00     0.003 A 
ATOM      8  C6  PXY d   1       3.334   3.389  -2.897  0.00  0.00     0.003 A 
ENDROOT
TORSDOF 0
ENDMDL
