MODEL 1
REMARK minimizedAffinity 2.01695967
REMARK minimizedRMSD -1
REMARK  0 active torsions:
REMARK  status: ('A' for Active; 'I' for Inactive)
ROOT
ATOM      1  C4' PXY d   1       1.692  -2.504   3.471  0.00  0.00     0.077 C 
ATOM      2  C1' PXY d   1       2.965   3.130   3.690  0.00  0.00     0.077 C 
ATOM      3  C1  PXY d   1       2.629   1.653   3.620  0.00  0.00    -0.082 A 
ATOM      4  C2  PXY d   1       2.200   1.028   4.704  0.00  0.00     0.003 A 
ATOM      5  C3  PXY d   1       1.922  -0.314   4.666  0.00  0.00     0.003 A 
ATOM      6  C4  PXY d   1       2.034  -1.012   3.493  0.00  0.00    -0.082 A 
ATOM      7  C5  PXY d   1       2.461  -0.379   2.380  0.00  0.00     0.003 A 
ATOM      8  C6  PXY d   1       2.777   0.975   2.449  0.00  0.00     0.003 A 
ENDROOT
TORSDOF 0
ENDMDL
