MODEL 1
REMARK minimizedAffinity -1.16830134
REMARK minimizedRMSD -1
REMARK  0 active torsions:
REMARK  status: ('A' for Active; 'I' for Inactive)
ROOT
ATOM      1  C4' PXY d   1       4.902  -5.123  -5.923  0.00  0.00     0.077 C 
ATOM      2  C1' PXY d   1       4.668   0.652  -6.000  0.00  0.00     0.077 C 
ATOM      3  C1  PXY d   1       4.718  -0.863  -5.974  0.00  0.00    -0.082 A 
ATOM      4  C2  PXY d   1       5.889  -1.479  -5.973  0.00  0.00     0.003 A 
ATOM      5  C3  PXY d   1       5.952  -2.849  -5.983  0.00  0.00     0.003 A 
ATOM      6  C4  PXY d   1       4.805  -3.595  -5.939  0.00  0.00    -0.082 A 
ATOM      7  C5  PXY d   1       3.606  -2.974  -5.929  0.00  0.00     0.003 A 
ATOM      8  C6  PXY d   1       3.563  -1.583  -5.961  0.00  0.00     0.003 A 
ENDROOT
TORSDOF 0
ENDMDL
