MODEL 1
REMARK minimizedAffinity 2.01705337
REMARK minimizedRMSD -1
REMARK  0 active torsions:
REMARK  status: ('A' for Active; 'I' for Inactive)
ROOT
ATOM      1  C4' PXY d   1       1.609  -3.300   3.836  0.00  0.00     0.077 C 
ATOM      2  C1' PXY d   1       0.530   1.020   0.150  0.00  0.00     0.077 C 
ATOM      3  C1  PXY d   1       0.824  -0.106   1.121  0.00  0.00    -0.082 A 
ATOM      4  C2  PXY d   1       0.396  -1.329   0.853  0.00  0.00     0.003 A 
ATOM      5  C3  PXY d   1       0.625  -2.353   1.736  0.00  0.00     0.003 A 
ATOM      6  C4  PXY d   1       1.345  -2.134   2.879  0.00  0.00    -0.082 A 
ATOM      7  C5  PXY d   1       1.793  -0.891   3.155  0.00  0.00     0.003 A 
ATOM      8  C6  PXY d   1       1.515   0.143   2.266  0.00  0.00     0.003 A 
ENDROOT
TORSDOF 0
ENDMDL
