MODEL 1
REMARK minimizedAffinity 12.3490248
REMARK minimizedRMSD -1
REMARK  2 active torsions:
REMARK  status: ('A' for Active; 'I' for Inactive)
REMARK    1  A    between atoms: C1_2  and  C2_3 
REMARK    2  A    between atoms: C2_3  and  C3_4 
ROOT
ATOM      1  C3  UNL d   1       3.280  -0.456   2.187  0.00  0.00    -0.075 A 
ATOM      2  C4  UNL d   1       3.651   0.650   1.408  0.00  0.00     0.002 A 
ATOM      3  C5  UNL d   1       3.091   1.905   1.648  0.00  0.00     0.002 A 
ATOM      4  C6  UNL d   1       2.147   2.069   2.659  0.00  0.00    -0.004 A 
ATOM      5  C7  UNL d   1       1.759   0.974   3.428  0.00  0.00     0.002 A 
ATOM      6  C8  UNL d   1       2.321  -0.282   3.194  0.00  0.00     0.002 A 
ENDROOT
BRANCH   1   7
ATOM      7  C2  UNL d   1       3.904  -1.810   1.953  0.00  0.00     0.056 C 
BRANCH   7   8
ATOM      8  C1  UNL d   1       5.436  -1.809   2.005  0.00  0.00     0.007 C 
ATOM      9  C   UNL d   1       6.000  -2.678   3.121  0.00  0.00     0.009 C 
ENDBRANCH   7   8
ENDBRANCH   1   7
TORSDOF 2
ENDMDL
