MODEL 1
REMARK minimizedAffinity 1.48354173
REMARK minimizedRMSD -1
REMARK  2 active torsions:
REMARK  status: ('A' for Active; 'I' for Inactive)
REMARK    1  A    between atoms: C1_2  and  C2_3 
REMARK    2  A    between atoms: C2_3  and  C3_4 
ROOT
ATOM      1  C3  UNL d   1       2.259  -2.299   3.132  0.00  0.00    -0.075 A 
ATOM      2  C4  UNL d   1       3.101  -2.051   4.226  0.00  0.00     0.002 A 
ATOM      3  C5  UNL d   1       3.693  -3.107   4.919  0.00  0.00     0.002 A 
ATOM      4  C6  UNL d   1       3.442  -4.423   4.536  0.00  0.00    -0.004 A 
ATOM      5  C7  UNL d   1       2.594  -4.682   3.461  0.00  0.00     0.002 A 
ATOM      6  C8  UNL d   1       2.004  -3.627   2.763  0.00  0.00     0.002 A 
ENDROOT
BRANCH   1   7
ATOM      7  C2  UNL d   1       1.640  -1.160   2.360  0.00  0.00     0.056 C 
BRANCH   7   8
ATOM      8  C1  UNL d   1       2.458   0.135   2.394  0.00  0.00     0.007 C 
ATOM      9  C   UNL d   1       3.182   0.423   1.086  0.00  0.00     0.009 C 
ENDBRANCH   7   8
ENDBRANCH   1   7
TORSDOF 2
ENDMDL
