MODEL 1
REMARK minimizedAffinity -0.408890814
REMARK minimizedRMSD -1
REMARK  2 active torsions:
REMARK  status: ('A' for Active; 'I' for Inactive)
REMARK    1  A    between atoms: C1_2  and  C2_3 
REMARK    2  A    between atoms: C2_3  and  C3_4 
ROOT
ATOM      1  C3  UNL d   1       2.252  -5.968  -1.989  0.00  0.00    -0.075 A 
ATOM      2  C4  UNL d   1       2.668  -5.917  -0.651  0.00  0.00     0.002 A 
ATOM      3  C5  UNL d   1       1.731  -5.922   0.383  0.00  0.00     0.002 A 
ATOM      4  C6  UNL d   1       0.369  -5.966   0.093  0.00  0.00    -0.004 A 
ATOM      5  C7  UNL d   1      -0.056  -6.000  -1.234  0.00  0.00     0.002 A 
ATOM      6  C8  UNL d   1       0.879  -6.000  -2.270  0.00  0.00     0.002 A 
ENDROOT
BRANCH   1   7
ATOM      7  C2  UNL d   1       3.262  -5.993  -3.112  0.00  0.00     0.056 C 
BRANCH   7   8
ATOM      8  C1  UNL d   1       2.654  -5.782  -4.503  0.00  0.00     0.007 C 
ATOM      9  C   UNL d   1       3.654  -5.985  -5.632  0.00  0.00     0.009 C 
ENDBRANCH   7   8
ENDBRANCH   1   7
TORSDOF 2
ENDMDL
