MODEL 1
REMARK minimizedAffinity 9.8990612
REMARK minimizedRMSD -1
REMARK  2 active torsions:
REMARK  status: ('A' for Active; 'I' for Inactive)
REMARK    1  A    between atoms: C1_2  and  C2_3 
REMARK    2  A    between atoms: C2_3  and  C3_4 
ROOT
ATOM      1  C3  UNL d   1       2.961  -5.724  -1.534  0.00  0.00    -0.075 A 
ATOM      2  C4  UNL d   1       4.095  -5.940  -0.737  0.00  0.00     0.002 A 
ATOM      3  C5  UNL d   1       5.364  -6.000  -1.312  0.00  0.00     0.002 A 
ATOM      4  C6  UNL d   1       5.516  -5.856  -2.690  0.00  0.00    -0.004 A 
ATOM      5  C7  UNL d   1       4.395  -5.658  -3.493  0.00  0.00     0.002 A 
ATOM      6  C8  UNL d   1       3.124  -5.593  -2.919  0.00  0.00     0.002 A 
ENDROOT
BRANCH   1   7
ATOM      7  C2  UNL d   1       1.588  -5.629  -0.914  0.00  0.00     0.056 C 
BRANCH   7   8
ATOM      8  C1  UNL d   1       1.599  -5.264   0.575  0.00  0.00     0.007 C 
ATOM      9  C   UNL d   1       0.386  -5.788   1.331  0.00  0.00     0.009 C 
ENDBRANCH   7   8
ENDBRANCH   1   7
TORSDOF 2
ENDMDL
