MODEL 1
REMARK minimizedAffinity 6.40433502
REMARK minimizedRMSD -1
REMARK  2 active torsions:
REMARK  status: ('A' for Active; 'I' for Inactive)
REMARK    1  A    between atoms: C1_2  and  C2_3 
REMARK    2  A    between atoms: C2_3  and  C3_4 
ROOT
ATOM      1  C3  UNL d   1       2.238  -2.928   1.608  0.00  0.00    -0.075 A 
ATOM      2  C4  UNL d   1       1.899  -2.680   2.946  0.00  0.00     0.002 A 
ATOM      3  C5  UNL d   1       1.552  -1.395   3.363  0.00  0.00     0.002 A 
ATOM      4  C6  UNL d   1       1.550  -0.341   2.452  0.00  0.00    -0.004 A 
ATOM      5  C7  UNL d   1       1.900  -0.572   1.123  0.00  0.00     0.002 A 
ATOM      6  C8  UNL d   1       2.244  -1.858   0.703  0.00  0.00     0.002 A 
ENDROOT
BRANCH   1   7
ATOM      7  C2  UNL d   1       2.586  -4.322   1.144  0.00  0.00     0.056 C 
BRANCH   7   8
ATOM      8  C1  UNL d   1       1.474  -5.351   1.373  0.00  0.00     0.007 C 
ATOM      9  C   UNL d   1       0.981  -5.999   0.086  0.00  0.00     0.009 C 
ENDBRANCH   7   8
ENDBRANCH   1   7
TORSDOF 2
ENDMDL
