MODEL 1
REMARK minimizedAffinity 4.90214729
REMARK minimizedRMSD -1
REMARK  2 active torsions:
REMARK  status: ('A' for Active; 'I' for Inactive)
REMARK    1  A    between atoms: C1_2  and  C2_3 
REMARK    2  A    between atoms: C2_3  and  C3_4 
ROOT
ATOM      1  C3  UNL d   1      -3.959   2.279  -0.525  0.00  0.00    -0.075 A 
ATOM      2  C4  UNL d   1      -5.301   2.274  -0.118  0.00  0.00     0.002 A 
ATOM      3  C5  UNL d   1      -5.672   2.821   1.110  0.00  0.00     0.002 A 
ATOM      4  C6  UNL d   1      -4.706   3.371   1.951  0.00  0.00    -0.004 A 
ATOM      5  C7  UNL d   1      -3.368   3.367   1.565  0.00  0.00     0.002 A 
ATOM      6  C8  UNL d   1      -2.994   2.824   0.334  0.00  0.00     0.002 A 
ENDROOT
BRANCH   1   7
ATOM      7  C2  UNL d   1      -3.555   1.714  -1.866  0.00  0.00     0.056 C 
BRANCH   7   8
ATOM      8  C1  UNL d   1      -3.601   2.732  -3.010  0.00  0.00     0.007 C 
ATOM      9  C   UNL d   1      -4.973   2.841  -3.662  0.00  0.00     0.009 C 
ENDBRANCH   7   8
ENDBRANCH   1   7
TORSDOF 2
ENDMDL
