MODEL 1
REMARK minimizedAffinity 1.5369314
REMARK minimizedRMSD -1
REMARK  2 active torsions:
REMARK  status: ('A' for Active; 'I' for Inactive)
REMARK    1  A    between atoms: C1_2  and  C2_3 
REMARK    2  A    between atoms: C2_3  and  C3_4 
ROOT
ATOM      1  C3  UNL d   1       2.118  -3.286   2.110  0.00  0.00    -0.075 A 
ATOM      2  C4  UNL d   1       2.147  -3.781   3.422  0.00  0.00     0.002 A 
ATOM      3  C5  UNL d   1       1.773  -2.969   4.493  0.00  0.00     0.002 A 
ATOM      4  C6  UNL d   1       1.377  -1.653   4.268  0.00  0.00    -0.004 A 
ATOM      5  C7  UNL d   1       1.361  -1.146   2.971  0.00  0.00     0.002 A 
ATOM      6  C8  UNL d   1       1.730  -1.957   1.896  0.00  0.00     0.002 A 
ENDROOT
BRANCH   1   7
ATOM      7  C2  UNL d   1       2.493  -4.169   0.943  0.00  0.00     0.056 C 
BRANCH   7   8
ATOM      8  C1  UNL d   1       1.534  -5.342   0.715  0.00  0.00     0.007 C 
ATOM      9  C   UNL d   1       1.700  -5.996  -0.651  0.00  0.00     0.009 C 
ENDBRANCH   7   8
ENDBRANCH   1   7
TORSDOF 2
ENDMDL
