MODEL 1
REMARK minimizedAffinity -2.58908176
REMARK minimizedRMSD -1
REMARK  1 active torsions:
REMARK  status: ('A' for Active; 'I' for Inactive)
REMARK    1  A    between atoms: C3_4  and  O_7 
ROOT
ATOM      1  C   UNL d   1      -0.720   0.138   1.031  0.00  0.00    -0.033 A 
ATOM      2  C1  UNL d   1      -0.627   0.485  -0.318  0.00  0.00     0.039 A 
ATOM      3  C2  UNL d   1       0.290  -0.165  -1.146  0.00  0.00    -0.080 A 
ATOM      4  C3  UNL d   1       1.106  -1.159  -0.614  0.00  0.00     0.150 A 
ATOM      5  C4  UNL d   1       1.016  -1.513   0.728  0.00  0.00    -0.007 A 
ATOM      6  C5  UNL d   1       0.100  -0.862   1.554  0.00  0.00     0.039 A 
ENDROOT
BRANCH   4   7
ATOM      7  O   UNL d   1       2.020  -1.818  -1.382  0.00  0.00    -0.526 OA
ATOM      8  H5  UNL d   1       1.990  -1.449  -2.280  0.00  0.00     0.418 HD
ENDBRANCH   4   7
TORSDOF 1
ENDMDL
