MODEL 1
REMARK minimizedAffinity -3.00480819
REMARK minimizedRMSD -1
REMARK  1 active torsions:
REMARK  status: ('A' for Active; 'I' for Inactive)
REMARK    1  A    between atoms: C3_4  and  O_7 
ROOT
ATOM      1  C   UNL d   1       2.111  -1.261  -1.454  0.00  0.00    -0.033 A 
ATOM      2  C1  UNL d   1       1.220  -0.271  -1.873  0.00  0.00     0.039 A 
ATOM      3  C2  UNL d   1       0.244   0.208  -0.998  0.00  0.00    -0.080 A 
ATOM      4  C3  UNL d   1       0.171  -0.308   0.293  0.00  0.00     0.150 A 
ATOM      5  C4  UNL d   1       1.058  -1.291   0.719  0.00  0.00    -0.007 A 
ATOM      6  C5  UNL d   1       2.031  -1.769  -0.157  0.00  0.00     0.039 A 
ENDROOT
BRANCH   4   7
ATOM      7  O   UNL d   1      -0.768   0.126   1.182  0.00  0.00    -0.526 OA
ATOM      8  H5  UNL d   1      -1.329   0.785   0.740  0.00  0.00     0.418 HD
ENDBRANCH   4   7
TORSDOF 1
ENDMDL
