MODEL 1
REMARK minimizedAffinity -3.93438697
REMARK minimizedRMSD -1
REMARK  1 active torsions:
REMARK  status: ('A' for Active; 'I' for Inactive)
REMARK    1  A    between atoms: C3_4  and  O_7 
ROOT
ATOM      1  C   UNL d   1       0.365  -1.503   0.205  0.00  0.00    -0.033 A 
ATOM      2  C1  UNL d   1      -0.410  -0.343   0.172  0.00  0.00     0.039 A 
ATOM      3  C2  UNL d   1      -0.070   0.702  -0.690  0.00  0.00    -0.080 A 
ATOM      4  C3  UNL d   1       1.045   0.572  -1.513  0.00  0.00     0.150 A 
ATOM      5  C4  UNL d   1       1.819  -0.583  -1.488  0.00  0.00    -0.007 A 
ATOM      6  C5  UNL d   1       1.479  -1.624  -0.626  0.00  0.00     0.039 A 
ENDROOT
BRANCH   4   7
ATOM      7  O   UNL d   1       1.419   1.567  -2.368  0.00  0.00    -0.526 OA
ATOM      8  H5  UNL d   1       0.808   2.314  -2.256  0.00  0.00     0.418 HD
ENDBRANCH   4   7
TORSDOF 1
ENDMDL
