MODEL 1
REMARK minimizedAffinity -2.96366191
REMARK minimizedRMSD -1
REMARK  1 active torsions:
REMARK  status: ('A' for Active; 'I' for Inactive)
REMARK    1  A    between atoms: C3_4  and  O_7 
ROOT
ATOM      1  C   UNL d   1       1.798  -1.145  -1.085  0.00  0.00    -0.033 A 
ATOM      2  C1  UNL d   1       1.702  -1.685   0.199  0.00  0.00     0.039 A 
ATOM      3  C2  UNL d   1       0.755  -1.190   1.097  0.00  0.00    -0.080 A 
ATOM      4  C3  UNL d   1      -0.090  -0.157   0.699  0.00  0.00     0.150 A 
ATOM      5  C4  UNL d   1      -0.002   0.383  -0.580  0.00  0.00    -0.007 A 
ATOM      6  C5  UNL d   1       0.945  -0.112  -1.475  0.00  0.00     0.039 A 
ENDROOT
BRANCH   4   7
ATOM      7  O   UNL d   1      -1.027   0.362   1.542  0.00  0.00    -0.526 OA
ATOM      8  H5  UNL d   1      -0.953  -0.089   2.400  0.00  0.00     0.418 HD
ENDBRANCH   4   7
TORSDOF 1
ENDMDL
