MODEL 1
REMARK minimizedAffinity -2.09941745
REMARK minimizedRMSD -1
REMARK  1 active torsions:
REMARK  status: ('A' for Active; 'I' for Inactive)
REMARK    1  A    between atoms: C3_4  and  O_7 
ROOT
ATOM      1  C   UNL d   1      -2.096   0.795   3.278  0.00  0.00    -0.033 A 
ATOM      2  C1  UNL d   1      -0.833   1.380   3.164  0.00  0.00     0.039 A 
ATOM      3  C2  UNL d   1      -0.135   1.309   1.957  0.00  0.00    -0.080 A 
ATOM      4  C3  UNL d   1      -0.711   0.652   0.873  0.00  0.00     0.150 A 
ATOM      5  C4  UNL d   1      -1.970   0.071   0.978  0.00  0.00    -0.007 A 
ATOM      6  C5  UNL d   1      -2.665   0.142   2.184  0.00  0.00     0.039 A 
ENDROOT
BRANCH   4   7
ATOM      7  O   UNL d   1      -0.066   0.553  -0.324  0.00  0.00    -0.526 OA
ATOM      8  H5  UNL d   1       0.805   0.976  -0.241  0.00  0.00     0.418 HD
ENDBRANCH   4   7
TORSDOF 1
ENDMDL
