MODEL 1
REMARK minimizedAffinity -1.37522531
REMARK minimizedRMSD -1
REMARK  1 active torsions:
REMARK  status: ('A' for Active; 'I' for Inactive)
REMARK    1  A    between atoms: C3_4  and  O_7 
ROOT
ATOM      1  C   UNL d   1      -2.357   1.284   3.901  0.00  0.00    -0.033 A 
ATOM      2  C1  UNL d   1      -2.807   0.082   3.351  0.00  0.00     0.039 A 
ATOM      3  C2  UNL d   1      -2.634  -0.171   1.989  0.00  0.00    -0.080 A 
ATOM      4  C3  UNL d   1      -2.010   0.782   1.190  0.00  0.00     0.150 A 
ATOM      5  C4  UNL d   1      -1.556   1.980   1.732  0.00  0.00    -0.007 A 
ATOM      6  C5  UNL d   1      -1.730   2.232   3.092  0.00  0.00     0.039 A 
ENDROOT
BRANCH   4   7
ATOM      7  O   UNL d   1      -1.823   0.582  -0.146  0.00  0.00    -0.526 OA
ATOM      8  H5  UNL d   1      -2.213  -0.276  -0.385  0.00  0.00     0.418 HD
ENDBRANCH   4   7
TORSDOF 1
ENDMDL
