MODEL 1
REMARK minimizedAffinity -3.04689169
REMARK minimizedRMSD -1
REMARK  1 active torsions:
REMARK  status: ('A' for Active; 'I' for Inactive)
REMARK    1  A    between atoms: C3_4  and  O_7 
ROOT
ATOM      1  C   UNL d   1       2.352   0.030  -2.633  0.00  0.00    -0.033 A 
ATOM      2  C1  UNL d   1       1.525   1.148  -2.510  0.00  0.00     0.039 A 
ATOM      3  C2  UNL d   1       0.607   1.228  -1.461  0.00  0.00    -0.080 A 
ATOM      4  C3  UNL d   1       0.526   0.185  -0.543  0.00  0.00     0.150 A 
ATOM      5  C4  UNL d   1       1.349  -0.931  -0.658  0.00  0.00    -0.007 A 
ATOM      6  C5  UNL d   1       2.264  -1.009  -1.706  0.00  0.00     0.039 A 
ENDROOT
BRANCH   4   7
ATOM      7  O   UNL d   1      -0.358   0.216   0.494  0.00  0.00    -0.526 OA
ATOM      8  H5  UNL d   1      -0.880   1.033   0.430  0.00  0.00     0.418 HD
ENDBRANCH   4   7
TORSDOF 1
ENDMDL
