MODEL 1
REMARK minimizedAffinity -3.49760199
REMARK minimizedRMSD -1
REMARK  1 active torsions:
REMARK  status: ('A' for Active; 'I' for Inactive)
REMARK    1  A    between atoms: C3_4  and  O_7 
ROOT
ATOM      1  C   UNL d   1      -1.305   0.889   1.667  0.00  0.00    -0.033 A 
ATOM      2  C1  UNL d   1      -0.277   0.181   2.294  0.00  0.00     0.039 A 
ATOM      3  C2  UNL d   1       0.489  -0.732   1.567  0.00  0.00    -0.080 A 
ATOM      4  C3  UNL d   1       0.218  -0.928   0.215  0.00  0.00     0.150 A 
ATOM      5  C4  UNL d   1      -0.802  -0.224  -0.417  0.00  0.00    -0.007 A 
ATOM      6  C5  UNL d   1      -1.566   0.687   0.311  0.00  0.00     0.039 A 
ENDROOT
BRANCH   4   7
ATOM      7  O   UNL d   1       0.935  -1.813  -0.534  0.00  0.00    -0.526 OA
ATOM      8  H5  UNL d   1       1.587  -2.247   0.042  0.00  0.00     0.418 HD
ENDBRANCH   4   7
TORSDOF 1
ENDMDL
