MODEL 1
REMARK minimizedAffinity -3.51784134
REMARK minimizedRMSD -1
REMARK  1 active torsions:
REMARK  status: ('A' for Active; 'I' for Inactive)
REMARK    1  A    between atoms: C3_4  and  O_7 
ROOT
ATOM      1  C   UNL d   1       0.647  -1.715   0.086  0.00  0.00    -0.033 A 
ATOM      2  C1  UNL d   1      -0.267  -0.690   0.339  0.00  0.00     0.039 A 
ATOM      3  C2  UNL d   1      -0.264   0.462  -0.450  0.00  0.00    -0.080 A 
ATOM      4  C3  UNL d   1       0.657   0.576  -1.487  0.00  0.00     0.150 A 
ATOM      5  C4  UNL d   1       1.568  -0.442  -1.747  0.00  0.00    -0.007 A 
ATOM      6  C5  UNL d   1       1.564  -1.591  -0.958  0.00  0.00     0.039 A 
ENDROOT
BRANCH   4   7
ATOM      7  O   UNL d   1       0.702   1.684  -2.281  0.00  0.00    -0.526 OA
ATOM      8  H5  UNL d   1       0.034   2.315  -1.966  0.00  0.00     0.418 HD
ENDBRANCH   4   7
TORSDOF 1
ENDMDL
