MODEL 1
REMARK minimizedAffinity -3.32725501
REMARK minimizedRMSD -1
REMARK  1 active torsions:
REMARK  status: ('A' for Active; 'I' for Inactive)
REMARK    1  A    between atoms: C3_4  and  O_7 
ROOT
ATOM      1  C   UNL d   1       1.689  -0.166  -2.035  0.00  0.00    -0.033 A 
ATOM      2  C1  UNL d   1       1.458  -1.137  -1.058  0.00  0.00     0.039 A 
ATOM      3  C2  UNL d   1       0.505  -0.914  -0.062  0.00  0.00    -0.080 A 
ATOM      4  C3  UNL d   1      -0.209   0.281  -0.055  0.00  0.00     0.150 A 
ATOM      5  C4  UNL d   1       0.013   1.250  -1.028  0.00  0.00    -0.007 A 
ATOM      6  C5  UNL d   1       0.965   1.026  -2.021  0.00  0.00     0.039 A 
ENDROOT
BRANCH   4   7
ATOM      7  O   UNL d   1      -1.146   0.546   0.900  0.00  0.00    -0.526 OA
ATOM      8  H5  UNL d   1      -1.171  -0.201   1.521  0.00  0.00     0.418 HD
ENDBRANCH   4   7
TORSDOF 1
ENDMDL
