MODEL 1
REMARK minimizedAffinity -2.00470757
REMARK minimizedRMSD -1
REMARK  1 active torsions:
REMARK  status: ('A' for Active; 'I' for Inactive)
REMARK    1  A    between atoms: C3_4  and  O_7 
ROOT
ATOM      1  C   UNL d   1      -0.542  -0.096  -0.282  0.00  0.00    -0.033 A 
ATOM      2  C1  UNL d   1       0.311  -0.114   0.823  0.00  0.00     0.039 A 
ATOM      3  C2  UNL d   1      -0.173   0.231   2.086  0.00  0.00    -0.080 A 
ATOM      4  C3  UNL d   1      -1.510   0.590   2.231  0.00  0.00     0.150 A 
ATOM      5  C4  UNL d   1      -2.366   0.606   1.135  0.00  0.00    -0.007 A 
ATOM      6  C5  UNL d   1      -1.881   0.262  -0.126  0.00  0.00     0.039 A 
ENDROOT
BRANCH   4   7
ATOM      7  O   UNL d   1      -2.027   0.940   3.443  0.00  0.00    -0.526 OA
ATOM      8  H5  UNL d   1      -1.313   0.910   4.102  0.00  0.00     0.418 HD
ENDBRANCH   4   7
TORSDOF 1
ENDMDL
