MODEL 1
REMARK minimizedAffinity -3.8673923
REMARK minimizedRMSD -1
REMARK  1 active torsions:
REMARK  status: ('A' for Active; 'I' for Inactive)
REMARK    1  A    between atoms: C3_4  and  O_7 
ROOT
ATOM      1  C   UNL d   1       0.630  -1.171  -0.555  0.00  0.00    -0.033 A 
ATOM      2  C1  UNL d   1       1.635  -1.107  -1.523  0.00  0.00     0.039 A 
ATOM      3  C2  UNL d   1       1.640  -0.070  -2.458  0.00  0.00    -0.080 A 
ATOM      4  C3  UNL d   1       0.638   0.896  -2.413  0.00  0.00     0.150 A 
ATOM      5  C4  UNL d   1      -0.364   0.839  -1.450  0.00  0.00    -0.007 A 
ATOM      6  C5  UNL d   1      -0.368  -0.198  -0.518  0.00  0.00     0.039 A 
ENDROOT
BRANCH   4   7
ATOM      7  O   UNL d   1       0.599   1.924  -3.307  0.00  0.00    -0.526 OA
ATOM      8  H5  UNL d   1       1.336   1.818  -3.931  0.00  0.00     0.418 HD
ENDBRANCH   4   7
TORSDOF 1
ENDMDL
