MODEL 1
REMARK minimizedAffinity -2.40100884
REMARK minimizedRMSD -1
REMARK  1 active torsions:
REMARK  status: ('A' for Active; 'I' for Inactive)
REMARK    1  A    between atoms: C3_4  and  O_7 
ROOT
ATOM      1  C   UNL d   1      -1.036  -0.895   0.695  0.00  0.00    -0.033 A 
ATOM      2  C1  UNL d   1       0.212  -1.106   0.104  0.00  0.00     0.039 A 
ATOM      3  C2  UNL d   1       0.736  -0.161  -0.780  0.00  0.00    -0.080 A 
ATOM      4  C3  UNL d   1       0.005   0.989  -1.064  0.00  0.00     0.150 A 
ATOM      5  C4  UNL d   1      -1.237   1.207  -0.476  0.00  0.00    -0.007 A 
ATOM      6  C5  UNL d   1      -1.759   0.262   0.406  0.00  0.00     0.039 A 
ENDROOT
BRANCH   4   7
ATOM      7  O   UNL d   1       0.473   1.937  -1.925  0.00  0.00    -0.526 OA
ATOM      8  H5  UNL d   1       1.329   1.637  -2.276  0.00  0.00     0.418 HD
ENDBRANCH   4   7
TORSDOF 1
ENDMDL
