MODEL 1
REMARK minimizedAffinity -2.55182791
REMARK minimizedRMSD -1
REMARK  1 active torsions:
REMARK  status: ('A' for Active; 'I' for Inactive)
REMARK    1  A    between atoms: C3_4  and  O_7 
ROOT
ATOM      1  C   UNL d   1       2.159  -0.823  -1.567  0.00  0.00    -0.033 A 
ATOM      2  C1  UNL d   1       2.117  -1.464  -0.327  0.00  0.00     0.039 A 
ATOM      3  C2  UNL d   1       1.144  -1.111   0.610  0.00  0.00    -0.080 A 
ATOM      4  C3  UNL d   1       0.220  -0.119   0.296  0.00  0.00     0.150 A 
ATOM      5  C4  UNL d   1       0.253   0.521  -0.939  0.00  0.00    -0.007 A 
ATOM      6  C5  UNL d   1       1.227   0.169  -1.873  0.00  0.00     0.039 A 
ENDROOT
BRANCH   4   7
ATOM      7  O   UNL d   1      -0.746   0.262   1.180  0.00  0.00    -0.526 OA
ATOM      8  H5  UNL d   1      -0.629  -0.245   2.000  0.00  0.00     0.418 HD
ENDBRANCH   4   7
TORSDOF 1
ENDMDL
