MODEL 1
REMARK minimizedAffinity -2.83040881
REMARK minimizedRMSD -1
REMARK  1 active torsions:
REMARK  status: ('A' for Active; 'I' for Inactive)
REMARK    1  A    between atoms: C3_4  and  O_7 
ROOT
ATOM      1  C   UNL d   1      -0.876   0.289   0.641  0.00  0.00    -0.033 A 
ATOM      2  C1  UNL d   1      -0.583   0.730  -0.651  0.00  0.00     0.039 A 
ATOM      3  C2  UNL d   1       0.308   0.012  -1.450  0.00  0.00    -0.080 A 
ATOM      4  C3  UNL d   1       0.897  -1.145  -0.948  0.00  0.00     0.150 A 
ATOM      5  C4  UNL d   1       0.607  -1.593   0.337  0.00  0.00    -0.007 A 
ATOM      6  C5  UNL d   1      -0.283  -0.874   1.134  0.00  0.00     0.039 A 
ENDROOT
BRANCH   4   7
ATOM      7  O   UNL d   1       1.777  -1.877  -1.689  0.00  0.00    -0.526 OA
ATOM      8  H5  UNL d   1       1.903  -1.432  -2.544  0.00  0.00     0.418 HD
ENDBRANCH   4   7
TORSDOF 1
ENDMDL
