MODEL 1
REMARK minimizedAffinity -2.80841184
REMARK minimizedRMSD -1
REMARK  1 active torsions:
REMARK  status: ('A' for Active; 'I' for Inactive)
REMARK    1  A    between atoms: C1_2  and  C2_3 
ROOT
ATOM      1  C2  UNL d   1      -0.153  -0.903   0.258  0.00  0.00    -0.073 A 
ATOM      2  C3  UNL d   1      -0.746  -0.685   1.507  0.00  0.00    -0.002 A 
ATOM      3  C4  UNL d   1      -1.414   0.511   1.770  0.00  0.00     0.004 A 
ATOM      4  C5  UNL d   1      -1.503   1.497   0.787  0.00  0.00    -0.004 A 
ATOM      5  C6  UNL d   1      -0.927   1.293  -0.471  0.00  0.00    -0.075 A 
ATOM      6  C7  UNL d   1      -1.012   2.344  -1.538  0.00  0.00     0.076 C 
ATOM      7  C8  UNL d   1      -0.255   0.090  -0.727  0.00  0.00     0.001 A 
ENDROOT
BRANCH   1   8
ATOM      8  C1  UNL d   1       0.564  -2.196  -0.034  0.00  0.00     0.053 C 
ATOM      9  C   UNL d   1       1.770  -2.396   0.871  0.00  0.00     0.018 C 
ENDBRANCH   1   8
TORSDOF 1
ENDMDL
