MODEL 1
REMARK minimizedAffinity -4.5143261
REMARK minimizedRMSD -1
REMARK  1 active torsions:
REMARK  status: ('A' for Active; 'I' for Inactive)
REMARK    1  A    between atoms: C1_2  and  C2_3 
ROOT
ATOM      1  C2  UNL d   1       0.094   0.292   0.094  0.00  0.00    -0.073 A 
ATOM      2  C3  UNL d   1       1.101   0.549  -0.844  0.00  0.00    -0.002 A 
ATOM      3  C4  UNL d   1       2.161  -0.343  -1.002  0.00  0.00     0.004 A 
ATOM      4  C5  UNL d   1       2.223  -1.504  -0.231  0.00  0.00    -0.004 A 
ATOM      5  C6  UNL d   1       1.220  -1.785   0.702  0.00  0.00    -0.075 A 
ATOM      6  C7  UNL d   1       1.273  -3.028   1.541  0.00  0.00     0.076 C 
ATOM      7  C8  UNL d   1       0.159  -0.882   0.857  0.00  0.00     0.001 A 
ENDROOT
BRANCH   1   8
ATOM      8  C1  UNL d   1      -1.057   1.250   0.263  0.00  0.00     0.053 C 
ATOM      9  C   UNL d   1      -1.529   1.816  -1.067  0.00  0.00     0.018 C 
ENDBRANCH   1   8
TORSDOF 1
ENDMDL
