MODEL 1
REMARK minimizedAffinity -5.44870424
REMARK minimizedRMSD -1
REMARK  1 active torsions:
REMARK  status: ('A' for Active; 'I' for Inactive)
REMARK    1  A    between atoms: C1_2  and  C2_3 
ROOT
ATOM      1  C2  UNL d   1       0.872  -0.738   0.330  0.00  0.00    -0.073 A 
ATOM      2  C3  UNL d   1       1.945  -1.556   0.703  0.00  0.00    -0.002 A 
ATOM      3  C4  UNL d   1       1.847  -2.381   1.824  0.00  0.00     0.004 A 
ATOM      4  C5  UNL d   1       0.674  -2.402   2.579  0.00  0.00    -0.004 A 
ATOM      5  C6  UNL d   1      -0.413  -1.600   2.217  0.00  0.00    -0.075 A 
ATOM      6  C7  UNL d   1      -1.681  -1.610   3.020  0.00  0.00     0.076 C 
ATOM      7  C8  UNL d   1      -0.306  -0.773   1.091  0.00  0.00     0.001 A 
ENDROOT
BRANCH   1   8
ATOM      8  C1  UNL d   1       0.971   0.149  -0.883  0.00  0.00     0.053 C 
ATOM      9  C   UNL d   1      -0.180   1.140  -0.961  0.00  0.00     0.018 C 
ENDBRANCH   1   8
TORSDOF 1
ENDMDL
