MODEL 1
REMARK minimizedAffinity -4.63863373
REMARK minimizedRMSD -1
REMARK  1 active torsions:
REMARK  status: ('A' for Active; 'I' for Inactive)
REMARK    1  A    between atoms: C1_2  and  C2_3 
ROOT
ATOM      1  C2  UNL d   1       0.417   0.258   0.359  0.00  0.00    -0.073 A 
ATOM      2  C3  UNL d   1       1.491  -0.481  -0.149  0.00  0.00    -0.002 A 
ATOM      3  C4  UNL d   1       1.817  -1.721   0.402  0.00  0.00     0.004 A 
ATOM      4  C5  UNL d   1       1.070  -2.237   1.461  0.00  0.00    -0.004 A 
ATOM      5  C6  UNL d   1      -0.014  -1.518   1.975  0.00  0.00    -0.075 A 
ATOM      6  C7  UNL d   1      -0.827  -2.058   3.115  0.00  0.00     0.076 C 
ATOM      7  C8  UNL d   1      -0.334  -0.272   1.418  0.00  0.00     0.001 A 
ENDROOT
BRANCH   1   8
ATOM      8  C1  UNL d   1       0.057   1.595  -0.237  0.00  0.00     0.053 C 
ATOM      9  C   UNL d   1      -1.264   1.546  -0.989  0.00  0.00     0.018 C 
ENDBRANCH   1   8
TORSDOF 1
ENDMDL
