MODEL 1
REMARK minimizedAffinity -4.90255213
REMARK minimizedRMSD -1
REMARK  1 active torsions:
REMARK  status: ('A' for Active; 'I' for Inactive)
REMARK    1  A    between atoms: C1_2  and  C2_3 
ROOT
ATOM      1  C2  UNL d   1       0.576  -1.790   1.752  0.00  0.00    -0.073 A 
ATOM      2  C3  UNL d   1       1.819  -2.139   1.213  0.00  0.00    -0.002 A 
ATOM      3  C4  UNL d   1       2.310  -1.478   0.087  0.00  0.00     0.004 A 
ATOM      4  C5  UNL d   1       1.568  -0.457  -0.507  0.00  0.00    -0.004 A 
ATOM      5  C6  UNL d   1       0.329  -0.085   0.024  0.00  0.00    -0.075 A 
ATOM      6  C7  UNL d   1      -0.483   1.009  -0.604  0.00  0.00     0.076 C 
ATOM      7  C8  UNL d   1      -0.159  -0.756   1.154  0.00  0.00     0.001 A 
ENDROOT
BRANCH   1   8
ATOM      8  C1  UNL d   1       0.044  -2.497   2.972  0.00  0.00     0.053 C 
ATOM      9  C   UNL d   1      -1.187  -1.808   3.539  0.00  0.00     0.018 C 
ENDBRANCH   1   8
TORSDOF 1
ENDMDL
