MODEL 1
REMARK minimizedAffinity -4.29658318
REMARK minimizedRMSD -1
REMARK  1 active torsions:
REMARK  status: ('A' for Active; 'I' for Inactive)
REMARK    1  A    between atoms: C1_2  and  C2_3 
ROOT
ATOM      1  C2  UNL d   1      -0.256  -0.070  -0.025  0.00  0.00    -0.073 A 
ATOM      2  C3  UNL d   1       0.909   0.550  -0.491  0.00  0.00    -0.002 A 
ATOM      3  C4  UNL d   1       2.139  -0.105  -0.404  0.00  0.00     0.004 A 
ATOM      4  C5  UNL d   1       2.215  -1.386   0.142  0.00  0.00    -0.004 A 
ATOM      5  C6  UNL d   1       1.060  -2.026   0.603  0.00  0.00    -0.075 A 
ATOM      6  C7  UNL d   1       1.125  -3.403   1.195  0.00  0.00     0.076 C 
ATOM      7  C8  UNL d   1      -0.171  -1.361   0.514  0.00  0.00     0.001 A 
ENDROOT
BRANCH   1   8
ATOM      8  C1  UNL d   1      -1.587   0.631  -0.123  0.00  0.00     0.053 C 
ATOM      9  C   UNL d   1      -1.932   1.001  -1.557  0.00  0.00     0.018 C 
ENDBRANCH   1   8
TORSDOF 1
ENDMDL
