MODEL 1
REMARK minimizedAffinity -3.53216457
REMARK minimizedRMSD -1
REMARK  1 active torsions:
REMARK  status: ('A' for Active; 'I' for Inactive)
REMARK    1  A    between atoms: C1_2  and  C2_3 
ROOT
ATOM      1  C2  UNL d   1      -0.086   0.208   0.342  0.00  0.00    -0.073 A 
ATOM      2  C3  UNL d   1       1.113   0.787  -0.090  0.00  0.00    -0.002 A 
ATOM      3  C4  UNL d   1       2.286   0.032  -0.130  0.00  0.00     0.004 A 
ATOM      4  C5  UNL d   1       2.271  -1.309   0.254  0.00  0.00    -0.004 A 
ATOM      5  C6  UNL d   1       1.080  -1.909   0.677  0.00  0.00    -0.075 A 
ATOM      6  C7  UNL d   1       1.048  -3.350   1.095  0.00  0.00     0.076 C 
ATOM      7  C8  UNL d   1      -0.093  -1.143   0.717  0.00  0.00     0.001 A 
ENDROOT
BRANCH   1   8
ATOM      8  C1  UNL d   1      -1.356   1.017   0.381  0.00  0.00     0.053 C 
ATOM      9  C   UNL d   1      -1.530   1.866  -0.869  0.00  0.00     0.018 C 
ENDBRANCH   1   8
TORSDOF 1
ENDMDL
