MODEL 1
REMARK minimizedAffinity 6.31817579
REMARK minimizedRMSD -1
REMARK  1 active torsions:
REMARK  status: ('A' for Active; 'I' for Inactive)
REMARK    1  A    between atoms: C1_2  and  C2_3 
ROOT
ATOM      1  C2  UNL d   1      -0.838   0.112   1.898  0.00  0.00    -0.076 A 
ATOM      2  C3  UNL d   1      -1.696  -0.160   2.977  0.00  0.00     0.004 A 
ATOM      3  C4  UNL d   1      -1.227  -0.799   4.124  0.00  0.00    -0.003 A 
ATOM      4  C5  UNL d   1       0.109  -1.174   4.210  0.00  0.00     0.000 A 
ATOM      5  C6  UNL d   1       0.979  -0.896   3.156  0.00  0.00     0.000 A 
ATOM      6  C7  UNL d   1       0.525  -0.239   2.000  0.00  0.00    -0.073 A 
ATOM      7  C8  UNL d   1       1.506   0.031   0.891  0.00  0.00     0.078 C 
ENDROOT
BRANCH   1   8
ATOM      8  C1  UNL d   1      -1.409   0.783   0.669  0.00  0.00     0.053 C 
ATOM      9  C   UNL d   1      -1.926  -0.218  -0.353  0.00  0.00     0.018 C 
ENDBRANCH   1   8
TORSDOF 1
ENDMDL
