MODEL 1
REMARK minimizedAffinity 1.04576457
REMARK minimizedRMSD -1
REMARK  1 active torsions:
REMARK  status: ('A' for Active; 'I' for Inactive)
REMARK    1  A    between atoms: C1_2  and  C2_3 
ROOT
ATOM      1  C2  UNL d   1       0.362  -0.197   2.132  0.00  0.00    -0.076 A 
ATOM      2  C3  UNL d   1      -0.904   0.099   1.599  0.00  0.00     0.004 A 
ATOM      3  C4  UNL d   1      -2.068  -0.186   2.312  0.00  0.00    -0.003 A 
ATOM      4  C5  UNL d   1      -1.983  -0.772   3.570  0.00  0.00     0.000 A 
ATOM      5  C6  UNL d   1      -0.735  -1.057   4.122  0.00  0.00     0.000 A 
ATOM      6  C7  UNL d   1       0.448  -0.760   3.423  0.00  0.00    -0.073 A 
ATOM      7  C8  UNL d   1       1.768  -1.094   4.064  0.00  0.00     0.078 C 
ENDROOT
BRANCH   1   8
ATOM      8  C1  UNL d   1       1.587   0.109   1.301  0.00  0.00     0.053 C 
ATOM      9  C   UNL d   1       1.574  -0.603  -0.042  0.00  0.00     0.018 C 
ENDBRANCH   1   8
TORSDOF 1
ENDMDL
