MODEL 1
REMARK minimizedAffinity 0.14925693
REMARK minimizedRMSD -1
REMARK  1 active torsions:
REMARK  status: ('A' for Active; 'I' for Inactive)
REMARK    1  A    between atoms: C1_2  and  C2_3 
ROOT
ATOM      1  C2  UNL d   1       0.309  -0.529   2.736  0.00  0.00    -0.076 A 
ATOM      2  C3  UNL d   1      -1.041  -0.260   2.454  0.00  0.00     0.004 A 
ATOM      3  C4  UNL d   1      -2.048  -0.631   3.345  0.00  0.00    -0.003 A 
ATOM      4  C5  UNL d   1      -1.719  -1.276   4.532  0.00  0.00     0.000 A 
ATOM      5  C6  UNL d   1      -0.383  -1.535   4.836  0.00  0.00     0.000 A 
ATOM      6  C7  UNL d   1       0.645  -1.153   3.957  0.00  0.00    -0.073 A 
ATOM      7  C8  UNL d   1       2.068  -1.463   4.332  0.00  0.00     0.078 C 
ENDROOT
BRANCH   1   8
ATOM      8  C1  UNL d   1       1.355  -0.128   1.720  0.00  0.00     0.053 C 
ATOM      9  C   UNL d   1       0.924  -0.426   0.292  0.00  0.00     0.018 C 
ENDBRANCH   1   8
TORSDOF 1
ENDMDL
