MODEL 1
REMARK minimizedAffinity 1.17556286
REMARK minimizedRMSD -1
REMARK  1 active torsions:
REMARK  status: ('A' for Active; 'I' for Inactive)
REMARK    1  A    between atoms: C1_2  and  C2_3 
ROOT
ATOM      1  C2  UNL d   1      -0.650   0.213   1.717  0.00  0.00    -0.076 A 
ATOM      2  C3  UNL d   1      -1.519   0.112   2.817  0.00  0.00     0.004 A 
ATOM      3  C4  UNL d   1      -1.088  -0.438   4.023  0.00  0.00    -0.003 A 
ATOM      4  C5  UNL d   1       0.219  -0.895   4.149  0.00  0.00     0.000 A 
ATOM      5  C6  UNL d   1       1.099  -0.787   3.073  0.00  0.00     0.000 A 
ATOM      6  C7  UNL d   1       0.686  -0.220   1.856  0.00  0.00    -0.073 A 
ATOM      7  C8  UNL d   1       1.676  -0.133   0.727  0.00  0.00     0.078 C 
ENDROOT
BRANCH   1   8
ATOM      8  C1  UNL d   1      -1.180   0.794   0.425  0.00  0.00     0.053 C 
ATOM      9  C   UNL d   1      -1.552  -0.279  -0.587  0.00  0.00     0.018 C 
ENDBRANCH   1   8
TORSDOF 1
ENDMDL
