MODEL 1
REMARK minimizedAffinity 4.23808336
REMARK minimizedRMSD -1
REMARK  1 active torsions:
REMARK  status: ('A' for Active; 'I' for Inactive)
REMARK    1  A    between atoms: C1_2  and  C2_3 
ROOT
ATOM      1  C2  UNL d   1      -0.870   0.284   1.911  0.00  0.00    -0.076 A 
ATOM      2  C3  UNL d   1      -1.475   0.065   3.161  0.00  0.00     0.004 A 
ATOM      3  C4  UNL d   1      -0.748  -0.463   4.227  0.00  0.00    -0.003 A 
ATOM      4  C5  UNL d   1       0.595  -0.781   4.060  0.00  0.00     0.000 A 
ATOM      5  C6  UNL d   1       1.216  -0.554   2.832  0.00  0.00     0.000 A 
ATOM      6  C7  UNL d   1       0.501  -0.007   1.752  0.00  0.00    -0.073 A 
ATOM      7  C8  UNL d   1       1.219   0.211   0.449  0.00  0.00     0.078 C 
ENDROOT
BRANCH   1   8
ATOM      8  C1  UNL d   1      -1.715   0.833   0.784  0.00  0.00     0.053 C 
ATOM      9  C   UNL d   1      -2.219  -0.255  -0.150  0.00  0.00     0.018 C 
ENDBRANCH   1   8
TORSDOF 1
ENDMDL
