MODEL 1
REMARK minimizedAffinity 4.34840536
REMARK minimizedRMSD -1
REMARK  0 active torsions:
REMARK  status: ('A' for Active; 'I' for Inactive)
ROOT
ATOM      1  C   UNL d   1       1.766   2.072   1.466  0.00  0.00     0.020 A 
ATOM      2  C1  UNL d   1       1.932   2.810   2.638  0.00  0.00     0.020 A 
ATOM      3  C2  UNL d   1       0.815   3.287   3.327  0.00  0.00     0.034 A 
ATOM      4  C3  UNL d   1      -0.473   3.027   2.845  0.00  0.00     0.017 A 
ATOM      5  C4  UNL d   1      -0.639   2.287   1.669  0.00  0.00     0.017 A 
ATOM      6  C5  UNL d   1       0.483   1.812   0.983  0.00  0.00     0.034 A 
ATOM      7 Cl   UNL d   1      -2.196   1.927   1.012  0.00  0.00    -0.070 Cl
ATOM      8 Cl1  UNL d   1      -1.809   3.648   3.748  0.00  0.00    -0.070 Cl
ENDROOT
TORSDOF 0
ENDMDL
