MODEL 1
REMARK minimizedAffinity -3.64884019
REMARK minimizedRMSD -1
REMARK  0 active torsions:
REMARK  status: ('A' for Active; 'I' for Inactive)
ROOT
ATOM      1  C   UNL d   1      -5.449   4.213  -5.999  0.00  0.00     0.020 A 
ATOM      2  C1  UNL d   1      -5.359   5.514  -5.503  0.00  0.00     0.020 A 
ATOM      3  C2  UNL d   1      -4.143   5.990  -5.009  0.00  0.00     0.034 A 
ATOM      4  C3  UNL d   1      -3.012   5.165  -5.008  0.00  0.00     0.017 A 
ATOM      5  C4  UNL d   1      -3.104   3.860  -5.506  0.00  0.00     0.017 A 
ATOM      6  C5  UNL d   1      -4.324   3.389  -6.000  0.00  0.00     0.034 A 
ATOM      7 Cl   UNL d   1      -1.752   2.784  -5.538  0.00  0.00    -0.070 Cl
ATOM      8 Cl1  UNL d   1      -1.541   5.819  -4.382  0.00  0.00    -0.070 Cl
ENDROOT
TORSDOF 0
ENDMDL
