MODEL 1
REMARK minimizedAffinity 4.33588266
REMARK minimizedRMSD -1
REMARK  0 active torsions:
REMARK  status: ('A' for Active; 'I' for Inactive)
ROOT
ATOM      1  C   UNL d   1      -1.938   2.050   1.855  0.00  0.00     0.020 A 
ATOM      2  C1  UNL d   1      -1.896   1.019   0.918  0.00  0.00     0.020 A 
ATOM      3  C2  UNL d   1      -0.675   0.622   0.370  0.00  0.00     0.034 A 
ATOM      4  C3  UNL d   1       0.510   1.257   0.759  0.00  0.00     0.017 A 
ATOM      5  C4  UNL d   1       0.468   2.292   1.700  0.00  0.00     0.017 A 
ATOM      6  C5  UNL d   1      -0.758   2.685   2.245  0.00  0.00     0.034 A 
ATOM      7 Cl   UNL d   1       1.888   3.123   2.229  0.00  0.00    -0.070 Cl
ATOM      8 Cl1  UNL d   1       1.986   0.715   0.041  0.00  0.00    -0.070 Cl
ENDROOT
TORSDOF 0
ENDMDL
