MODEL 1
REMARK minimizedAffinity 2.06012797
REMARK minimizedRMSD -1
REMARK  0 active torsions:
REMARK  status: ('A' for Active; 'I' for Inactive)
ROOT
ATOM      1  C   UNL d   1       0.811   1.640   0.802  0.00  0.00     0.020 A 
ATOM      2  C1  UNL d   1      -0.060   2.645   1.221  0.00  0.00     0.020 A 
ATOM      3  C2  UNL d   1      -1.416   2.365   1.398  0.00  0.00     0.034 A 
ATOM      4  C3  UNL d   1      -1.906   1.077   1.156  0.00  0.00     0.017 A 
ATOM      5  C4  UNL d   1      -1.032   0.068   0.737  0.00  0.00     0.017 A 
ATOM      6  C5  UNL d   1       0.326   0.354   0.561  0.00  0.00     0.034 A 
ATOM      7 Cl   UNL d   1      -1.562  -1.546   0.419  0.00  0.00    -0.070 Cl
ATOM      8 Cl1  UNL d   1      -3.595   0.802   1.396  0.00  0.00    -0.070 Cl
ENDROOT
TORSDOF 0
ENDMDL
