MODEL 1
REMARK minimizedAffinity 7.68911695
REMARK minimizedRMSD -1
REMARK  0 active torsions:
REMARK  status: ('A' for Active; 'I' for Inactive)
ROOT
ATOM      1  C   UNL d   1      -0.204   3.845   4.429  0.00  0.00     0.020 A 
ATOM      2  C1  UNL d   1      -1.281   3.396   3.666  0.00  0.00     0.020 A 
ATOM      3  C2  UNL d   1      -1.052   2.737   2.456  0.00  0.00     0.034 A 
ATOM      4  C3  UNL d   1       0.256   2.526   2.006  0.00  0.00     0.017 A 
ATOM      5  C4  UNL d   1       1.336   2.978   2.772  0.00  0.00     0.017 A 
ATOM      6  C5  UNL d   1       1.101   3.637   3.983  0.00  0.00     0.034 A 
ATOM      7 Cl   UNL d   1       2.978   2.755   2.282  0.00  0.00    -0.070 Cl
ATOM      8 Cl1  UNL d   1       0.465   1.704   0.500  0.00  0.00    -0.070 Cl
ENDROOT
TORSDOF 0
ENDMDL
