MODEL 1
REMARK minimizedAffinity 3.78645968
REMARK minimizedRMSD -1
REMARK  0 active torsions:
REMARK  status: ('A' for Active; 'I' for Inactive)
ROOT
ATOM      1  C   UNL d   1      -2.091   5.974  -5.998  0.00  0.00     0.020 A 
ATOM      2  C1  UNL d   1      -1.106   4.988  -5.997  0.00  0.00     0.020 A 
ATOM      3  C2  UNL d   1      -1.467   3.639  -5.996  0.00  0.00     0.034 A 
ATOM      4  C3  UNL d   1      -2.818   3.272  -5.996  0.00  0.00     0.017 A 
ATOM      5  C4  UNL d   1      -3.807   4.263  -5.997  0.00  0.00     0.017 A 
ATOM      6  C5  UNL d   1      -3.439   5.612  -5.998  0.00  0.00     0.034 A 
ATOM      7 Cl   UNL d   1      -5.494   3.888  -5.997  0.00  0.00    -0.070 Cl
ATOM      8 Cl1  UNL d   1      -3.193   1.586  -5.995  0.00  0.00    -0.070 Cl
ENDROOT
TORSDOF 0
ENDMDL
