MODEL 1
REMARK minimizedAffinity 0.506529689
REMARK minimizedRMSD -1
REMARK  0 active torsions:
REMARK  status: ('A' for Active; 'I' for Inactive)
ROOT
ATOM      1  C   UNL d   1       1.919   3.468   2.730  0.00  0.00     0.020 A 
ATOM      2  C1  UNL d   1       3.040   2.911   2.116  0.00  0.00     0.020 A 
ATOM      3  C2  UNL d   1       2.885   2.050   1.028  0.00  0.00     0.034 A 
ATOM      4  C3  UNL d   1       1.605   1.742   0.550  0.00  0.00     0.017 A 
ATOM      5  C4  UNL d   1       0.481   2.302   1.167  0.00  0.00     0.017 A 
ATOM      6  C5  UNL d   1       0.642   3.164   2.256  0.00  0.00     0.034 A 
ATOM      7 Cl   UNL d   1      -1.130   1.970   0.635  0.00  0.00    -0.070 Cl
ATOM      8 Cl1  UNL d   1       1.488   0.670  -0.799  0.00  0.00    -0.070 Cl
ENDROOT
TORSDOF 0
ENDMDL
