MODEL 1
REMARK minimizedAffinity -0.274345845
REMARK minimizedRMSD -1
REMARK  0 active torsions:
REMARK  status: ('A' for Active; 'I' for Inactive)
ROOT
ATOM      1  C   UNL d   1      -4.921   5.285  -5.926  0.00  0.00     0.020 A 
ATOM      2  C1  UNL d   1      -5.000   3.895  -5.999  0.00  0.00     0.020 A 
ATOM      3  C2  UNL d   1      -3.833   3.128  -5.991  0.00  0.00     0.034 A 
ATOM      4  C3  UNL d   1      -2.582   3.750  -5.911  0.00  0.00     0.017 A 
ATOM      5  C4  UNL d   1      -2.504   5.146  -5.839  0.00  0.00     0.017 A 
ATOM      6  C5  UNL d   1      -3.675   5.909  -5.847  0.00  0.00     0.034 A 
ATOM      7 Cl   UNL d   1      -0.996   5.986  -5.738  0.00  0.00    -0.070 Cl
ATOM      8 Cl1  UNL d   1      -1.180   2.740  -5.907  0.00  0.00    -0.070 Cl
ENDROOT
TORSDOF 0
ENDMDL
