MODEL 1
REMARK minimizedAffinity 6.57558918
REMARK minimizedRMSD -1
REMARK  0 active torsions:
REMARK  status: ('A' for Active; 'I' for Inactive)
ROOT
ATOM      1  C   UNL d   1      -1.808  -0.281   0.783  0.00  0.00     0.020 A 
ATOM      2  C1  UNL d   1      -0.619  -1.003   0.686  0.00  0.00     0.020 A 
ATOM      3  C2  UNL d   1       0.608  -0.341   0.765  0.00  0.00     0.034 A 
ATOM      4  C3  UNL d   1       0.648   1.047   0.941  0.00  0.00     0.017 A 
ATOM      5  C4  UNL d   1      -0.546   1.771   1.037  0.00  0.00     0.017 A 
ATOM      6  C5  UNL d   1      -1.772   1.102   0.958  0.00  0.00     0.034 A 
ATOM      7 Cl   UNL d   1      -0.576   3.485   1.255  0.00  0.00    -0.070 Cl
ATOM      8 Cl1  UNL d   1       2.200   1.801   1.030  0.00  0.00    -0.070 Cl
ENDROOT
TORSDOF 0
ENDMDL
