MODEL 1
REMARK minimizedAffinity 0.333471805
REMARK minimizedRMSD -1
REMARK  0 active torsions:
REMARK  status: ('A' for Active; 'I' for Inactive)
ROOT
ATOM      1  C   UNL d   1      -5.657   5.407  -5.975  0.00  0.00     0.020 A 
ATOM      2  C1  UNL d   1      -5.778   4.018  -5.987  0.00  0.00     0.020 A 
ATOM      3  C2  UNL d   1      -4.633   3.218  -5.993  0.00  0.00     0.034 A 
ATOM      4  C3  UNL d   1      -3.363   3.806  -5.988  0.00  0.00     0.017 A 
ATOM      5  C4  UNL d   1      -3.243   5.200  -5.976  0.00  0.00     0.017 A 
ATOM      6  C5  UNL d   1      -4.392   5.997  -5.970  0.00  0.00     0.034 A 
ATOM      7 Cl   UNL d   1      -1.710   5.999  -5.969  0.00  0.00    -0.070 Cl
ATOM      8 Cl1  UNL d   1      -1.991   2.755  -5.996  0.00  0.00    -0.070 Cl
ENDROOT
TORSDOF 0
ENDMDL
