MODEL 1
REMARK minimizedAffinity 4.62388277
REMARK minimizedRMSD -1
REMARK  0 active torsions:
REMARK  status: ('A' for Active; 'I' for Inactive)
ROOT
ATOM      1  C   UNL d   1      -1.938   2.619  -5.863  0.00  0.00     0.020 A 
ATOM      2  C1  UNL d   1      -1.543   3.954  -5.944  0.00  0.00     0.020 A 
ATOM      3  C2  UNL d   1      -2.504   4.966  -5.982  0.00  0.00     0.034 A 
ATOM      4  C3  UNL d   1      -3.866   4.645  -5.940  0.00  0.00     0.017 A 
ATOM      5  C4  UNL d   1      -4.262   3.306  -5.859  0.00  0.00     0.017 A 
ATOM      6  C5  UNL d   1      -3.295   2.296  -5.820  0.00  0.00     0.034 A 
ATOM      7 Cl   UNL d   1      -5.923   2.832  -5.803  0.00  0.00    -0.070 Cl
ATOM      8 Cl1  UNL d   1      -5.000   5.948  -5.992  0.00  0.00    -0.070 Cl
ENDROOT
TORSDOF 0
ENDMDL
