MODEL 1
REMARK minimizedAffinity 2.8898108
REMARK minimizedRMSD -1
REMARK  0 active torsions:
REMARK  status: ('A' for Active; 'I' for Inactive)
ROOT
ATOM      1  C   UNL d   1      -1.027  -3.313  -1.730  0.00  0.00     0.020 A 
ATOM      2  C1  UNL d   1      -1.403  -2.843  -0.472  0.00  0.00     0.020 A 
ATOM      3  C2  UNL d   1      -0.634  -1.867   0.166  0.00  0.00     0.034 A 
ATOM      4  C3  UNL d   1       0.514  -1.359  -0.453  0.00  0.00     0.017 A 
ATOM      5  C4  UNL d   1       0.890  -1.832  -1.715  0.00  0.00     0.017 A 
ATOM      6  C5  UNL d   1       0.117  -2.809  -2.350  0.00  0.00     0.034 A 
ATOM      7 Cl   UNL d   1       2.293  -1.254  -2.542  0.00  0.00    -0.070 Cl
ATOM      8 Cl1  UNL d   1       1.417  -0.154   0.394  0.00  0.00    -0.070 Cl
ENDROOT
TORSDOF 0
ENDMDL
