MODEL 1
REMARK minimizedAffinity 5.95315218
REMARK minimizedRMSD -1
REMARK  0 active torsions:
REMARK  status: ('A' for Active; 'I' for Inactive)
ROOT
ATOM      1  C   UNL d   1      -1.364   3.254   1.942  0.00  0.00     0.020 A 
ATOM      2  C1  UNL d   1      -1.700   2.232   1.054  0.00  0.00     0.020 A 
ATOM      3  C2  UNL d   1      -0.705   1.393   0.548  0.00  0.00     0.034 A 
ATOM      4  C3  UNL d   1       0.629   1.573   0.929  0.00  0.00     0.017 A 
ATOM      5  C4  UNL d   1       0.965   2.598   1.820  0.00  0.00     0.017 A 
ATOM      6  C5  UNL d   1      -0.034   3.436   2.324  0.00  0.00     0.034 A 
ATOM      7 Cl   UNL d   1       2.590   2.882   2.337  0.00  0.00    -0.070 Cl
ATOM      8 Cl1  UNL d   1       1.807   0.497   0.265  0.00  0.00    -0.070 Cl
ENDROOT
TORSDOF 0
ENDMDL
