MODEL 1
REMARK minimizedAffinity -2.95994711
REMARK minimizedRMSD -1
REMARK  0 active torsions:
REMARK  status: ('A' for Active; 'I' for Inactive)
ROOT
ATOM      1  C   UNL d   1      -3.306   1.544   0.408  0.00  0.00     0.020 A 
ATOM      2  C1  UNL d   1      -2.343   2.457   0.836  0.00  0.00     0.020 A 
ATOM      3  C2  UNL d   1      -0.992   2.104   0.823  0.00  0.00     0.034 A 
ATOM      4  C3  UNL d   1      -0.600   0.834   0.382  0.00  0.00     0.017 A 
ATOM      5  C4  UNL d   1      -1.568  -0.081  -0.048  0.00  0.00     0.017 A 
ATOM      6  C5  UNL d   1      -2.919   0.278  -0.033  0.00  0.00     0.034 A 
ATOM      7 Cl   UNL d   1      -1.162  -1.665  -0.607  0.00  0.00    -0.070 Cl
ATOM      8 Cl1  UNL d   1       1.088   0.465   0.392  0.00  0.00    -0.070 Cl
ENDROOT
TORSDOF 0
ENDMDL
