MODEL 1
REMARK minimizedAffinity 4.96265602
REMARK minimizedRMSD -1
REMARK  0 active torsions:
REMARK  status: ('A' for Active; 'I' for Inactive)
ROOT
ATOM      1  C   UNL d   1       3.703   2.365  -3.006  0.00  0.00     0.020 A 
ATOM      2  C1  UNL d   1       3.464   2.830  -4.299  0.00  0.00     0.020 A 
ATOM      3  C2  UNL d   1       2.760   2.035  -5.207  0.00  0.00     0.034 A 
ATOM      4  C3  UNL d   1       2.294   0.772  -4.824  0.00  0.00     0.017 A 
ATOM      5  C4  UNL d   1       2.535   0.307  -3.526  0.00  0.00     0.017 A 
ATOM      6  C5  UNL d   1       3.240   1.107  -2.621  0.00  0.00     0.034 A 
ATOM      7 Cl   UNL d   1       1.991  -1.240  -2.980  0.00  0.00    -0.070 Cl
ATOM      8 Cl1  UNL d   1       1.432  -0.156  -5.998  0.00  0.00    -0.070 Cl
ENDROOT
TORSDOF 0
ENDMDL
