MODEL 1
REMARK minimizedAffinity -1.12346518
REMARK minimizedRMSD -1
REMARK  0 active torsions:
REMARK  status: ('A' for Active; 'I' for Inactive)
ROOT
ATOM      1  C   UNL d   1      -5.608   4.022  -5.994  0.00  0.00     0.020 A 
ATOM      2  C1  UNL d   1      -5.432   5.406  -5.991  0.00  0.00     0.020 A 
ATOM      3  C2  UNL d   1      -4.144   5.946  -5.991  0.00  0.00     0.034 A 
ATOM      4  C3  UNL d   1      -3.028   5.102  -5.993  0.00  0.00     0.017 A 
ATOM      5  C4  UNL d   1      -3.205   3.714  -5.996  0.00  0.00     0.017 A 
ATOM      6  C5  UNL d   1      -4.497   3.179  -5.996  0.00  0.00     0.034 A 
ATOM      7 Cl   UNL d   1      -1.876   2.609  -5.999  0.00  0.00    -0.070 Cl
ATOM      8 Cl1  UNL d   1      -1.465   5.839  -5.993  0.00  0.00    -0.070 Cl
ENDROOT
TORSDOF 0
ENDMDL
