MODEL 1
REMARK minimizedAffinity 3.34006023
REMARK minimizedRMSD -1
REMARK  0 active torsions:
REMARK  status: ('A' for Active; 'I' for Inactive)
ROOT
ATOM      1  C   UNL d   1      -1.764   2.428   1.370  0.00  0.00     0.020 A 
ATOM      2  C1  UNL d   1      -1.740   1.220   0.675  0.00  0.00     0.020 A 
ATOM      3  C2  UNL d   1      -0.520   0.657   0.294  0.00  0.00     0.034 A 
ATOM      4  C3  UNL d   1       0.681   1.303   0.608  0.00  0.00     0.017 A 
ATOM      5  C4  UNL d   1       0.656   2.516   1.306  0.00  0.00     0.017 A 
ATOM      6  C5  UNL d   1      -0.569   3.075   1.685  0.00  0.00     0.034 A 
ATOM      7 Cl   UNL d   1       2.097   3.372   1.729  0.00  0.00    -0.070 Cl
ATOM      8 Cl1  UNL d   1       2.153   0.551   0.107  0.00  0.00    -0.070 Cl
ENDROOT
TORSDOF 0
ENDMDL
