MODEL 1
REMARK minimizedAffinity 3.10598373
REMARK minimizedRMSD -1
REMARK  0 active torsions:
REMARK  status: ('A' for Active; 'I' for Inactive)
ROOT
ATOM      1  C   UNL d   1      -1.881  -2.882  -0.827  0.00  0.00     0.020 A 
ATOM      2  C1  UNL d   1      -1.422  -3.113  -2.123  0.00  0.00     0.020 A 
ATOM      3  C2  UNL d   1      -0.246  -2.504  -2.566  0.00  0.00     0.034 A 
ATOM      4  C3  UNL d   1       0.475  -1.661  -1.712  0.00  0.00     0.017 A 
ATOM      5  C4  UNL d   1       0.013  -1.430  -0.411  0.00  0.00     0.017 A 
ATOM      6  C5  UNL d   1      -1.165  -2.042   0.027  0.00  0.00     0.034 A 
ATOM      7 Cl   UNL d   1       0.848  -0.403   0.700  0.00  0.00    -0.070 Cl
ATOM      8 Cl1  UNL d   1       1.921  -0.941  -2.326  0.00  0.00    -0.070 Cl
ENDROOT
TORSDOF 0
ENDMDL
