MODEL 1
REMARK minimizedAffinity 5.19797897
REMARK minimizedRMSD -1
REMARK  0 active torsions:
REMARK  status: ('A' for Active; 'I' for Inactive)
ROOT
ATOM      1  C   UNL d   1      -1.365   3.023   1.582  0.00  0.00     0.020 A 
ATOM      2  C1  UNL d   1      -1.737   1.917   0.818  0.00  0.00     0.020 A 
ATOM      3  C2  UNL d   1      -0.774   0.986   0.424  0.00  0.00     0.034 A 
ATOM      4  C3  UNL d   1       0.565   1.158   0.793  0.00  0.00     0.017 A 
ATOM      5  C4  UNL d   1       0.937   2.268   1.560  0.00  0.00     0.017 A 
ATOM      6  C5  UNL d   1      -0.031   3.198   1.952  0.00  0.00     0.034 A 
ATOM      7 Cl   UNL d   1       2.569   2.548   2.054  0.00  0.00    -0.070 Cl
ATOM      8 Cl1  UNL d   1       1.702  -0.034   0.271  0.00  0.00    -0.070 Cl
ENDROOT
TORSDOF 0
ENDMDL
