MODEL 1
REMARK minimizedAffinity 6.76725197
REMARK minimizedRMSD -1
REMARK  0 active torsions:
REMARK  status: ('A' for Active; 'I' for Inactive)
ROOT
ATOM      1  N1  IND d   1       0.829   4.061  -2.787  0.00  0.00    -0.196 N 
ATOM      2  C2  IND d   1       2.069   3.754  -3.273  0.00  0.00     0.054 A 
ATOM      3  C3  IND d   1       2.195   4.188  -4.548  0.00  0.00    -0.031 A 
ATOM      4  C4  IND d   1       0.530   5.513  -5.996  0.00  0.00     0.051 A 
ATOM      5  C5  IND d   1      -0.749   5.996  -5.999  0.00  0.00    -0.031 A 
ATOM      6  C6  IND d   1      -1.583   5.857  -4.909  0.00  0.00     0.015 A 
ATOM      7  C7  IND d   1      -1.163   5.239  -3.765  0.00  0.00    -0.016 A 
ATOM      8  C8  IND d   1       0.132   4.741  -3.761  0.00  0.00    -0.047 A 
ATOM      9  C9  IND d   1       0.969   4.841  -4.880  0.00  0.00    -0.096 A 
ATOM     10  HN1 IND d   1       0.534   3.862  -2.004  0.00  0.00     0.298 HD
ENDROOT
TORSDOF 0
ENDMDL
