MODEL 1
REMARK minimizedAffinity 9.76833916
REMARK minimizedRMSD -1
REMARK  0 active torsions:
REMARK  status: ('A' for Active; 'I' for Inactive)
ROOT
ATOM      1  N1  IND d   1       2.130   4.121  -3.448  0.00  0.00    -0.196 N 
ATOM      2  C2  IND d   1       1.486   3.273  -2.591  0.00  0.00     0.054 A 
ATOM      3  C3  IND d   1       0.157   3.273  -2.839  0.00  0.00    -0.031 A 
ATOM      4  C4  IND d   1      -1.165   4.509  -4.669  0.00  0.00     0.051 A 
ATOM      5  C5  IND d   1      -1.018   5.429  -5.669  0.00  0.00    -0.031 A 
ATOM      6  C6  IND d   1       0.211   5.969  -5.988  0.00  0.00     0.015 A 
ATOM      7  C7  IND d   1       1.346   5.599  -5.323  0.00  0.00    -0.016 A 
ATOM      8  C8  IND d   1       1.199   4.670  -4.303  0.00  0.00    -0.047 A 
ATOM      9  C9  IND d   1      -0.052   4.150  -3.946  0.00  0.00    -0.096 A 
ATOM     10  HN1 IND d   1       2.974   4.284  -3.453  0.00  0.00     0.298 HD
ENDROOT
TORSDOF 0
ENDMDL
