MODEL 1
REMARK minimizedAffinity 4.0661869
REMARK minimizedRMSD -1
REMARK  0 active torsions:
REMARK  status: ('A' for Active; 'I' for Inactive)
ROOT
ATOM      1  N1  IND d   1      -5.297   3.712  -2.645  0.00  0.00    -0.196 N 
ATOM      2  C2  IND d   1      -5.999   2.585  -2.317  0.00  0.00     0.054 A 
ATOM      3  C3  IND d   1      -6.000   2.404  -0.977  0.00  0.00    -0.031 A 
ATOM      4  C4  IND d   1      -5.001   3.888   0.874  0.00  0.00     0.051 A 
ATOM      5  C5  IND d   1      -4.235   5.004   1.064  0.00  0.00    -0.031 A 
ATOM      6  C6  IND d   1      -3.777   5.763   0.006  0.00  0.00     0.015 A 
ATOM      7  C7  IND d   1      -4.079   5.439  -1.286  0.00  0.00    -0.016 A 
ATOM      8  C8  IND d   1      -4.851   4.303  -1.483  0.00  0.00    -0.047 A 
ATOM      9  C9  IND d   1      -5.282   3.505  -0.416  0.00  0.00    -0.096 A 
ATOM     10  HN1 IND d   1      -5.158   4.002  -3.442  0.00  0.00     0.298 HD
ENDROOT
TORSDOF 0
ENDMDL
