MODEL 1
REMARK minimizedAffinity -1.28678286
REMARK minimizedRMSD -1
REMARK  0 active torsions:
REMARK  status: ('A' for Active; 'I' for Inactive)
ROOT
ATOM      1  N1  IND d   1      -4.294   0.244   2.344  0.00  0.00    -0.196 N 
ATOM      2  C2  IND d   1      -5.111  -0.445   1.492  0.00  0.00     0.054 A 
ATOM      3  C3  IND d   1      -4.480  -1.545   1.022  0.00  0.00    -0.031 A 
ATOM      4  C4  IND d   1      -2.143  -2.460   1.596  0.00  0.00     0.051 A 
ATOM      5  C5  IND d   1      -1.010  -2.157   2.298  0.00  0.00    -0.031 A 
ATOM      6  C6  IND d   1      -0.913  -1.016   3.068  0.00  0.00     0.015 A 
ATOM      7  C7  IND d   1      -1.954  -0.138   3.175  0.00  0.00    -0.016 A 
ATOM      8  C8  IND d   1      -3.103  -0.439   2.459  0.00  0.00    -0.047 A 
ATOM      9  C9  IND d   1      -3.193  -1.573   1.642  0.00  0.00    -0.096 A 
ATOM     10  HN1 IND d   1      -4.491   0.981   2.741  0.00  0.00     0.298 HD
ENDROOT
TORSDOF 0
ENDMDL
