MODEL 1
REMARK minimizedAffinity 3.70852995
REMARK minimizedRMSD -1
REMARK  0 active torsions:
REMARK  status: ('A' for Active; 'I' for Inactive)
ROOT
ATOM      1  N1  IND d   1       0.427   3.779  -2.597  0.00  0.00    -0.196 N 
ATOM      2  C2  IND d   1       1.709   3.314  -2.697  0.00  0.00     0.054 A 
ATOM      3  C3  IND d   1       2.283   3.759  -3.838  0.00  0.00    -0.031 A 
ATOM      4  C4  IND d   1       1.338   5.341  -5.635  0.00  0.00     0.051 A 
ATOM      5  C5  IND d   1       0.196   5.998  -6.000  0.00  0.00    -0.031 A 
ATOM      6  C6  IND d   1      -0.949   5.950  -5.231  0.00  0.00     0.015 A 
ATOM      7  C7  IND d   1      -0.992   5.249  -4.059  0.00  0.00    -0.016 A 
ATOM      8  C8  IND d   1       0.163   4.576  -3.690  0.00  0.00    -0.047 A 
ATOM      9  C9  IND d   1       1.315   4.586  -4.487  0.00  0.00    -0.096 A 
ATOM     10  HN1 IND d   1      -0.122   3.604  -1.959  0.00  0.00     0.298 HD
ENDROOT
TORSDOF 0
ENDMDL
