MODEL 1
REMARK minimizedAffinity 8.06246853
REMARK minimizedRMSD -1
REMARK  0 active torsions:
REMARK  status: ('A' for Active; 'I' for Inactive)
ROOT
ATOM      1  N1  IND d   1      -4.393  -6.000   1.882  0.00  0.00    -0.196 N 
ATOM      2  C2  IND d   1      -5.215  -5.390   2.788  0.00  0.00     0.054 A 
ATOM      3  C3  IND d   1      -4.821  -4.114   2.997  0.00  0.00    -0.031 A 
ATOM      4  C4  IND d   1      -2.917  -2.788   1.882  0.00  0.00     0.051 A 
ATOM      5  C5  IND d   1      -1.868  -2.929   1.017  0.00  0.00    -0.031 A 
ATOM      6  C6  IND d   1      -1.604  -4.125   0.381  0.00  0.00     0.015 A 
ATOM      7  C7  IND d   1      -2.389  -5.225   0.579  0.00  0.00    -0.016 A 
ATOM      8  C8  IND d   1      -3.450  -5.087   1.462  0.00  0.00    -0.047 A 
ATOM      9  C9  IND d   1      -3.698  -3.889   2.143  0.00  0.00    -0.096 A 
ATOM     10  HN1 IND d   1      -4.454  -6.816   1.618  0.00  0.00     0.298 HD
ENDROOT
TORSDOF 0
ENDMDL
