MODEL 1
REMARK minimizedAffinity 2.25446224
REMARK minimizedRMSD -1
REMARK  0 active torsions:
REMARK  status: ('A' for Active; 'I' for Inactive)
ROOT
ATOM      1  N1  IND d   1      -0.811   5.005  -5.031  0.00  0.00    -0.196 N 
ATOM      2  C2  IND d   1      -0.183   5.739  -5.998  0.00  0.00     0.054 A 
ATOM      3  C3  IND d   1       1.145   5.803  -5.752  0.00  0.00    -0.031 A 
ATOM      4  C4  IND d   1       2.517   4.693  -3.878  0.00  0.00     0.051 A 
ATOM      5  C5  IND d   1       2.380   3.954  -2.736  0.00  0.00    -0.031 A 
ATOM      6  C6  IND d   1       1.149   3.516  -2.294  0.00  0.00     0.015 A 
ATOM      7  C7  IND d   1       0.004   3.793  -2.986  0.00  0.00    -0.016 A 
ATOM      8  C8  IND d   1       0.138   4.549  -4.142  0.00  0.00    -0.047 A 
ATOM      9  C9  IND d   1       1.380   5.032  -4.573  0.00  0.00    -0.096 A 
ATOM     10  HN1 IND d   1      -1.656   4.853  -4.986  0.00  0.00     0.298 HD
ENDROOT
TORSDOF 0
ENDMDL
