MODEL 1
REMARK minimizedAffinity 1.12080073
REMARK minimizedRMSD -1
REMARK  0 active torsions:
REMARK  status: ('A' for Active; 'I' for Inactive)
ROOT
ATOM      1  N1  IND d   1       2.172   4.131  -3.541  0.00  0.00    -0.196 N 
ATOM      2  C2  IND d   1       1.682   3.295  -2.577  0.00  0.00     0.054 A 
ATOM      3  C3  IND d   1       0.342   3.169  -2.700  0.00  0.00    -0.031 A 
ATOM      4  C4  IND d   1      -1.238   4.165  -4.473  0.00  0.00     0.051 A 
ATOM      5  C5  IND d   1      -1.259   5.023  -5.536  0.00  0.00    -0.031 A 
ATOM      6  C6  IND d   1      -0.114   5.638  -6.000  0.00  0.00     0.015 A 
ATOM      7  C7  IND d   1       1.102   5.408  -5.422  0.00  0.00    -0.016 A 
ATOM      8  C8  IND d   1       1.126   4.543  -4.337  0.00  0.00    -0.047 A 
ATOM      9  C9  IND d   1      -0.039   3.949  -3.836  0.00  0.00    -0.096 A 
ATOM     10  HN1 IND d   1       2.995   4.362  -3.633  0.00  0.00     0.298 HD
ENDROOT
TORSDOF 0
ENDMDL
