MODEL 1
REMARK minimizedAffinity 8.42968845
REMARK minimizedRMSD -1
REMARK  0 active torsions:
REMARK  status: ('A' for Active; 'I' for Inactive)
ROOT
ATOM      1  N1  IND d   1      -5.711   2.961  -3.581  0.00  0.00    -0.196 N 
ATOM      2  C2  IND d   1      -5.694   2.693  -2.240  0.00  0.00     0.054 A 
ATOM      3  C3  IND d   1      -5.803   1.363  -2.025  0.00  0.00    -0.031 A 
ATOM      4  C4  IND d   1      -5.916  -0.566  -3.725  0.00  0.00     0.051 A 
ATOM      5  C5  IND d   1      -6.000  -0.816  -5.066  0.00  0.00    -0.031 A 
ATOM      6  C6  IND d   1      -5.988   0.200  -6.000  0.00  0.00     0.015 A 
ATOM      7  C7  IND d   1      -5.881   1.510  -5.626  0.00  0.00    -0.016 A 
ATOM      8  C8  IND d   1      -5.803   1.768  -4.265  0.00  0.00    -0.047 A 
ATOM      9  C9  IND d   1      -5.857   0.744  -3.311  0.00  0.00    -0.096 A 
ATOM     10  HN1 IND d   1      -5.670   3.742  -3.937  0.00  0.00     0.298 HD
ENDROOT
TORSDOF 0
ENDMDL
