MODEL 1
REMARK minimizedAffinity -0.673392057
REMARK minimizedRMSD -1
REMARK  0 active torsions:
REMARK  status: ('A' for Active; 'I' for Inactive)
ROOT
ATOM      1  N1  IND d   1      -5.965   1.254  -5.364  0.00  0.00    -0.196 N 
ATOM      2  C2  IND d   1      -5.926  -0.026  -5.841  0.00  0.00     0.054 A 
ATOM      3  C3  IND d   1      -5.891  -0.908  -4.816  0.00  0.00    -0.031 A 
ATOM      4  C4  IND d   1      -5.993  -0.475  -2.281  0.00  0.00     0.051 A 
ATOM      5  C5  IND d   1      -5.999   0.535  -1.360  0.00  0.00    -0.031 A 
ATOM      6  C6  IND d   1      -5.996   1.863  -1.735  0.00  0.00     0.015 A 
ATOM      7  C7  IND d   1      -6.000   2.232  -3.050  0.00  0.00    -0.016 A 
ATOM      8  C8  IND d   1      -5.987   1.210  -3.988  0.00  0.00    -0.047 A 
ATOM      9  C9  IND d   1      -5.946  -0.140  -3.613  0.00  0.00    -0.096 A 
ATOM     10  HN1 IND d   1      -5.975   1.968  -5.844  0.00  0.00     0.298 HD
ENDROOT
TORSDOF 0
ENDMDL
