MODEL 1
REMARK minimizedAffinity 6.52724791
REMARK minimizedRMSD -1
REMARK  0 active torsions:
REMARK  status: ('A' for Active; 'I' for Inactive)
ROOT
ATOM      1  N1  IND d   1      -5.254  -0.366   2.196  0.00  0.00    -0.196 N 
ATOM      2  C2  IND d   1      -4.929  -0.882   0.972  0.00  0.00     0.054 A 
ATOM      3  C3  IND d   1      -3.605  -1.148   0.911  0.00  0.00    -0.031 A 
ATOM      4  C4  IND d   1      -1.802  -0.909   2.733  0.00  0.00     0.051 A 
ATOM      5  C5  IND d   1      -1.610  -0.446   4.004  0.00  0.00    -0.031 A 
ATOM      6  C6  IND d   1      -2.645   0.076   4.754  0.00  0.00     0.015 A 
ATOM      7  C7  IND d   1      -3.918   0.143   4.262  0.00  0.00    -0.016 A 
ATOM      8  C8  IND d   1      -4.115  -0.320   2.969  0.00  0.00    -0.047 A 
ATOM      9  C9  IND d   1      -3.061  -0.811   2.188  0.00  0.00    -0.096 A 
ATOM     10  HN1 IND d   1      -6.038  -0.113   2.441  0.00  0.00     0.298 HD
ENDROOT
TORSDOF 0
ENDMDL
