MODEL 1
REMARK minimizedAffinity 6.87796545
REMARK minimizedRMSD -1
REMARK  0 active torsions:
REMARK  status: ('A' for Active; 'I' for Inactive)
ROOT
ATOM      1  N1  IND d   1      -5.850   0.006  -4.946  0.00  0.00    -0.196 N 
ATOM      2  C2  IND d   1      -5.887   0.876  -5.999  0.00  0.00     0.054 A 
ATOM      3  C3  IND d   1      -5.979   2.150  -5.555  0.00  0.00    -0.031 A 
ATOM      4  C4  IND d   1      -5.981   3.043  -3.140  0.00  0.00     0.051 A 
ATOM      5  C5  IND d   1      -6.000   2.628  -1.838  0.00  0.00    -0.031 A 
ATOM      6  C6  IND d   1      -5.967   1.291  -1.499  0.00  0.00     0.015 A 
ATOM      7  C7  IND d   1      -5.901   0.315  -2.453  0.00  0.00    -0.016 A 
ATOM      8  C8  IND d   1      -5.889   0.732  -3.776  0.00  0.00    -0.047 A 
ATOM      9  C9  IND d   1      -5.965   2.086  -4.128  0.00  0.00    -0.096 A 
ATOM     10  HN1 IND d   1      -5.809  -0.851  -5.004  0.00  0.00     0.298 HD
ENDROOT
TORSDOF 0
ENDMDL
