MODEL 1
REMARK minimizedAffinity 4.04280472
REMARK minimizedRMSD -1
REMARK  0 active torsions:
REMARK  status: ('A' for Active; 'I' for Inactive)
ROOT
ATOM      1  N1  IND d   1       0.743   6.000  -5.418  0.00  0.00    -0.196 N 
ATOM      2  C2  IND d   1      -0.496   5.895  -5.986  0.00  0.00     0.054 A 
ATOM      3  C3  IND d   1      -1.166   4.844  -5.463  0.00  0.00    -0.031 A 
ATOM      4  C4  IND d   1      -0.460   3.220  -3.594  0.00  0.00     0.051 A 
ATOM      5  C5  IND d   1       0.599   2.894  -2.794  0.00  0.00    -0.031 A 
ATOM      6  C6  IND d   1       1.783   3.602  -2.827  0.00  0.00     0.015 A 
ATOM      7  C7  IND d   1       1.949   4.675  -3.656  0.00  0.00    -0.016 A 
ATOM      8  C8  IND d   1       0.878   5.005  -4.475  0.00  0.00    -0.047 A 
ATOM      9  C9  IND d   1      -0.311   4.264  -4.477  0.00  0.00    -0.096 A 
ATOM     10  HN1 IND d   1       1.338   6.588  -5.617  0.00  0.00     0.298 HD
ENDROOT
TORSDOF 0
ENDMDL
