MODEL 1
REMARK minimizedAffinity 6.86922693
REMARK minimizedRMSD -1
REMARK  0 active torsions:
REMARK  status: ('A' for Active; 'I' for Inactive)
ROOT
ATOM      1  N1  IND d   1      -5.536  -0.255   0.392  0.00  0.00    -0.196 N 
ATOM      2  C2  IND d   1      -6.000   0.786   1.146  0.00  0.00     0.054 A 
ATOM      3  C3  IND d   1      -5.315   0.866   2.309  0.00  0.00    -0.031 A 
ATOM      4  C4  IND d   1      -3.327  -0.545   3.137  0.00  0.00     0.051 A 
ATOM      5  C5  IND d   1      -2.571  -1.636   2.811  0.00  0.00    -0.031 A 
ATOM      6  C6  IND d   1      -2.766  -2.335   1.637  0.00  0.00     0.015 A 
ATOM      7  C7  IND d   1      -3.722  -1.960   0.736  0.00  0.00    -0.016 A 
ATOM      8  C8  IND d   1      -4.497  -0.857   1.067  0.00  0.00    -0.047 A 
ATOM      9  C9  IND d   1      -4.331  -0.170   2.276  0.00  0.00    -0.096 A 
ATOM     10  HN1 IND d   1      -5.842  -0.494  -0.376  0.00  0.00     0.298 HD
ENDROOT
TORSDOF 0
ENDMDL
