MODEL 1
REMARK minimizedAffinity 10.3069868
REMARK minimizedRMSD -1
REMARK  0 active torsions:
REMARK  status: ('A' for Active; 'I' for Inactive)
ROOT
ATOM      1  N1  IND d   1       2.963   0.030   2.326  0.00  0.00    -0.196 N 
ATOM      2  C2  IND d   1       3.606  -1.152   2.086  0.00  0.00     0.054 A 
ATOM      3  C3  IND d   1       3.550  -1.460   0.770  0.00  0.00    -0.031 A 
ATOM      4  C4  IND d   1       2.543  -0.117  -1.182  0.00  0.00     0.051 A 
ATOM      5  C5  IND d   1       1.816   1.008  -1.453  0.00  0.00    -0.031 A 
ATOM      6  C6  IND d   1       1.429   1.884  -0.460  0.00  0.00     0.015 A 
ATOM      7  C7  IND d   1       1.765   1.672   0.847  0.00  0.00    -0.016 A 
ATOM      8  C8  IND d   1       2.497   0.527   1.128  0.00  0.00    -0.047 A 
ATOM      9  C9  IND d   1       2.857  -0.387   0.129  0.00  0.00    -0.096 A 
ATOM     10  HN1 IND d   1       2.865   0.401   3.095  0.00  0.00     0.298 HD
ENDROOT
TORSDOF 0
ENDMDL
