MODEL 1
REMARK minimizedAffinity 8.91030788
REMARK minimizedRMSD -1
REMARK  0 active torsions:
REMARK  status: ('A' for Active; 'I' for Inactive)
ROOT
ATOM      1  N1  IND d   1      -5.944   1.666  -2.284  0.00  0.00    -0.196 N 
ATOM      2  C2  IND d   1      -5.920   2.967  -2.701  0.00  0.00     0.054 A 
ATOM      3  C3  IND d   1      -5.898   3.028  -4.052  0.00  0.00    -0.031 A 
ATOM      4  C4  IND d   1      -5.998   1.119  -5.776  0.00  0.00     0.051 A 
ATOM      5  C5  IND d   1      -5.992  -0.244  -5.876  0.00  0.00    -0.031 A 
ATOM      6  C6  IND d   1      -5.972  -1.057  -4.761  0.00  0.00     0.015 A 
ATOM      7  C7  IND d   1      -5.969  -0.534  -3.499  0.00  0.00    -0.016 A 
ATOM      8  C8  IND d   1      -5.968   0.850  -3.394  0.00  0.00    -0.047 A 
ATOM      9  C9  IND d   1      -5.945   1.680  -4.522  0.00  0.00    -0.096 A 
ATOM     10  HN1 IND d   1      -5.944   1.401  -1.466  0.00  0.00     0.298 HD
ENDROOT
TORSDOF 0
ENDMDL
