MODEL 1
REMARK minimizedAffinity 2.86515832
REMARK minimizedRMSD -1
REMARK  0 active torsions:
REMARK  status: ('A' for Active; 'I' for Inactive)
ROOT
ATOM      1  N1  IND d   1      -5.722   2.254  -3.487  0.00  0.00    -0.196 N 
ATOM      2  C2  IND d   1      -6.000   0.925  -3.325  0.00  0.00     0.054 A 
ATOM      3  C3  IND d   1      -5.999   0.602  -2.012  0.00  0.00    -0.031 A 
ATOM      4  C4  IND d   1      -5.667   2.113   0.045  0.00  0.00     0.051 A 
ATOM      5  C5  IND d   1      -5.349   3.394   0.401  0.00  0.00    -0.031 A 
ATOM      6  C6  IND d   1      -5.137   4.381  -0.540  0.00  0.00     0.015 A 
ATOM      7  C7  IND d   1      -5.247   4.125  -1.878  0.00  0.00    -0.016 A 
ATOM      8  C8  IND d   1      -5.563   2.824  -2.243  0.00  0.00    -0.047 A 
ATOM      9  C9  IND d   1      -5.738   1.808  -1.294  0.00  0.00    -0.096 A 
ATOM     10  HN1 IND d   1      -5.656   2.665  -4.240  0.00  0.00     0.298 HD
ENDROOT
TORSDOF 0
ENDMDL
