MODEL 1
REMARK minimizedAffinity -1.01450205
REMARK minimizedRMSD -1
REMARK  0 active torsions:
REMARK  status: ('A' for Active; 'I' for Inactive)
ROOT
ATOM      1  C   UNL d   1       0.754   5.991  -5.955  0.00  0.00     0.077 C 
ATOM      2  C1  UNL d   1      -0.029   5.987  -4.676  0.00  0.00    -0.074 A 
ATOM      3  C2  UNL d   1       0.618   5.994  -3.436  0.00  0.00    -0.005 A 
ATOM      4  C3  UNL d   1      -0.123   5.999  -2.255  0.00  0.00     0.006 A 
ATOM      5  C4  UNL d   1      -1.518   5.997  -2.301  0.00  0.00    -0.005 A 
ATOM      6  C5  UNL d   1      -2.183   5.991  -3.531  0.00  0.00    -0.074 A 
ATOM      7  C6  UNL d   1      -3.681   5.999  -3.598  0.00  0.00     0.077 C 
ATOM      8  C7  UNL d   1      -1.431   5.993  -4.714  0.00  0.00    -0.001 A 
ENDROOT
TORSDOF 0
ENDMDL
