MODEL 1
REMARK minimizedAffinity 2.90052032
REMARK minimizedRMSD -1
REMARK  0 active torsions:
REMARK  status: ('A' for Active; 'I' for Inactive)
ROOT
ATOM      1  C   UNL d   1       1.341  -1.433  -2.264  0.00  0.00     0.077 C 
ATOM      2  C1  UNL d   1      -0.000  -1.319  -2.926  0.00  0.00    -0.074 A 
ATOM      3  C2  UNL d   1      -0.106  -1.029  -4.290  0.00  0.00    -0.005 A 
ATOM      4  C3  UNL d   1      -1.360  -0.935  -4.894  0.00  0.00     0.006 A 
ATOM      5  C4  UNL d   1      -2.519  -1.131  -4.142  0.00  0.00    -0.005 A 
ATOM      6  C5  UNL d   1      -2.432  -1.423  -2.777  0.00  0.00    -0.074 A 
ATOM      7  C6  UNL d   1      -3.667  -1.646  -1.955  0.00  0.00     0.077 C 
ATOM      8  C7  UNL d   1      -1.169  -1.522  -2.179  0.00  0.00    -0.001 A 
ENDROOT
TORSDOF 0
ENDMDL
