MODEL 1
REMARK minimizedAffinity 5.57691765
REMARK minimizedRMSD -1
REMARK  0 active torsions:
REMARK  status: ('A' for Active; 'I' for Inactive)
ROOT
ATOM      1  C   UNL d   1       4.771   2.596  -4.187  0.00  0.00     0.077 C 
ATOM      2  C1  UNL d   1       4.092   3.778  -4.813  0.00  0.00    -0.074 A 
ATOM      3  C2  UNL d   1       4.821   4.912  -5.185  0.00  0.00    -0.005 A 
ATOM      4  C3  UNL d   1       4.177   5.999  -5.776  0.00  0.00     0.006 A 
ATOM      5  C4  UNL d   1       2.800   5.964  -6.000  0.00  0.00    -0.005 A 
ATOM      6  C5  UNL d   1       2.055   4.838  -5.635  0.00  0.00    -0.074 A 
ATOM      7  C6  UNL d   1       0.576   4.779  -5.878  0.00  0.00     0.077 C 
ATOM      8  C7  UNL d   1       2.710   3.746  -5.049  0.00  0.00    -0.001 A 
ENDROOT
TORSDOF 0
ENDMDL
