MODEL 1
REMARK minimizedAffinity 7.92238092
REMARK minimizedRMSD -1
REMARK  0 active torsions:
REMARK  status: ('A' for Active; 'I' for Inactive)
ROOT
ATOM      1  C   UNL d   1       0.384   0.068   4.115  0.00  0.00     0.077 C 
ATOM      2  C1  UNL d   1       0.043   0.183   2.659  0.00  0.00    -0.074 A 
ATOM      3  C2  UNL d   1      -0.918  -0.650   2.077  0.00  0.00    -0.005 A 
ATOM      4  C3  UNL d   1      -1.231  -0.526   0.724  0.00  0.00     0.006 A 
ATOM      5  C4  UNL d   1      -0.587   0.432  -0.061  0.00  0.00    -0.005 A 
ATOM      6  C5  UNL d   1       0.376   1.274   0.503  0.00  0.00    -0.074 A 
ATOM      7  C6  UNL d   1       1.071   2.315  -0.324  0.00  0.00     0.077 C 
ATOM      8  C7  UNL d   1       0.680   1.148   1.866  0.00  0.00    -0.001 A 
ENDROOT
TORSDOF 0
ENDMDL
