MODEL 1
REMARK minimizedAffinity 1.56304765
REMARK minimizedRMSD -1
REMARK  0 active torsions:
REMARK  status: ('A' for Active; 'I' for Inactive)
ROOT
ATOM      1  C   UNL d   1       1.577   3.135   0.405  0.00  0.00     0.077 C 
ATOM      2  C1  UNL d   1       1.227   1.681   0.286  0.00  0.00    -0.074 A 
ATOM      3  C2  UNL d   1       0.502   1.032   1.290  0.00  0.00    -0.005 A 
ATOM      4  C3  UNL d   1       0.176  -0.318   1.160  0.00  0.00     0.006 A 
ATOM      5  C4  UNL d   1       0.571  -1.031   0.027  0.00  0.00    -0.005 A 
ATOM      6  C5  UNL d   1       1.296  -0.398  -0.987  0.00  0.00    -0.074 A 
ATOM      7  C6  UNL d   1       1.720  -1.147  -2.216  0.00  0.00     0.077 C 
ATOM      8  C7  UNL d   1       1.614   0.961  -0.853  0.00  0.00    -0.001 A 
ENDROOT
TORSDOF 0
ENDMDL
