MODEL 1
REMARK minimizedAffinity -2.03649306
REMARK minimizedRMSD -1
REMARK  0 active torsions:
REMARK  status: ('A' for Active; 'I' for Inactive)
ROOT
ATOM      1  C   UNL d   1       0.702   5.983  -4.482  0.00  0.00     0.077 C 
ATOM      2  C1  UNL d   1      -0.597   5.995  -3.732  0.00  0.00    -0.074 A 
ATOM      3  C2  UNL d   1      -1.820   5.994  -4.412  0.00  0.00    -0.005 A 
ATOM      4  C3  UNL d   1      -3.020   5.997  -3.701  0.00  0.00     0.006 A 
ATOM      5  C4  UNL d   1      -3.010   6.000  -2.306  0.00  0.00    -0.005 A 
ATOM      6  C5  UNL d   1      -1.798   6.000  -1.609  0.00  0.00    -0.074 A 
ATOM      7  C6  UNL d   1      -1.769   5.993  -0.109  0.00  0.00     0.077 C 
ATOM      8  C7  UNL d   1      -0.596   5.991  -2.330  0.00  0.00    -0.001 A 
ENDROOT
TORSDOF 0
ENDMDL
