MODEL 1
REMARK minimizedAffinity 0.89835453
REMARK minimizedRMSD -1
REMARK  0 active torsions:
REMARK  status: ('A' for Active; 'I' for Inactive)
ROOT
ATOM      1  C   UNL d   1       1.847   3.376   0.332  0.00  0.00     0.077 C 
ATOM      2  C1  UNL d   1       1.191   2.226   1.037  0.00  0.00    -0.074 A 
ATOM      3  C2  UNL d   1       0.752   2.349   2.359  0.00  0.00    -0.005 A 
ATOM      4  C3  UNL d   1       0.136   1.274   2.999  0.00  0.00     0.006 A 
ATOM      5  C4  UNL d   1      -0.048   0.066   2.324  0.00  0.00    -0.005 A 
ATOM      6  C5  UNL d   1       0.384  -0.076   1.001  0.00  0.00    -0.074 A 
ATOM      7  C6  UNL d   1       0.186  -1.364   0.259  0.00  0.00     0.077 C 
ATOM      8  C7  UNL d   1       0.997   1.012   0.363  0.00  0.00    -0.001 A 
ENDROOT
TORSDOF 0
ENDMDL
