MODEL 1
REMARK minimizedAffinity 1.3735131
REMARK minimizedRMSD -1
REMARK  0 active torsions:
REMARK  status: ('A' for Active; 'I' for Inactive)
ROOT
ATOM      1  C   UNL d   1      -0.463   5.998  -3.918  0.00  0.00     0.077 C 
ATOM      2  C1  UNL d   1      -1.143   5.989  -2.581  0.00  0.00    -0.074 A 
ATOM      3  C2  UNL d   1      -0.399   5.993  -1.397  0.00  0.00    -0.005 A 
ATOM      4  C3  UNL d   1      -1.045   5.995  -0.161  0.00  0.00     0.006 A 
ATOM      5  C4  UNL d   1      -2.439   5.992  -0.096  0.00  0.00    -0.005 A 
ATOM      6  C5  UNL d   1      -3.199   5.988  -1.270  0.00  0.00    -0.074 A 
ATOM      7  C6  UNL d   1      -4.698   5.994  -1.219  0.00  0.00     0.077 C 
ATOM      8  C7  UNL d   1      -2.543   5.994  -2.508  0.00  0.00    -0.001 A 
ENDROOT
TORSDOF 0
ENDMDL
