MODEL 1
REMARK minimizedAffinity -0.458905756
REMARK minimizedRMSD -1
REMARK  0 active torsions:
REMARK  status: ('A' for Active; 'I' for Inactive)
ROOT
ATOM      1  C   UNL d   1      -1.145   5.998  -1.796  0.00  0.00     0.077 C 
ATOM      2  C1  UNL d   1      -0.818   5.990  -3.260  0.00  0.00    -0.074 A 
ATOM      3  C2  UNL d   1      -1.832   5.997  -4.223  0.00  0.00    -0.005 A 
ATOM      4  C3  UNL d   1      -1.512   6.000  -5.581  0.00  0.00     0.006 A 
ATOM      5  C4  UNL d   1      -0.177   5.995  -5.988  0.00  0.00    -0.005 A 
ATOM      6  C5  UNL d   1       0.850   5.989  -5.039  0.00  0.00    -0.074 A 
ATOM      7  C6  UNL d   1       2.290   5.994  -5.460  0.00  0.00     0.077 C 
ATOM      8  C7  UNL d   1       0.521   5.994  -3.677  0.00  0.00    -0.001 A 
ENDROOT
TORSDOF 0
ENDMDL
