MODEL 1
REMARK minimizedAffinity 1.77086711
REMARK minimizedRMSD -1
REMARK  0 active torsions:
REMARK  status: ('A' for Active; 'I' for Inactive)
ROOT
ATOM      1  C   UNL d   1       1.438   3.153   0.278  0.00  0.00     0.077 C 
ATOM      2  C1  UNL d   1       0.917   1.920   0.954  0.00  0.00    -0.074 A 
ATOM      3  C2  UNL d   1       1.233   0.647   0.471  0.00  0.00    -0.005 A 
ATOM      4  C3  UNL d   1       0.749  -0.491   1.116  0.00  0.00     0.006 A 
ATOM      5  C4  UNL d   1      -0.055  -0.367   2.250  0.00  0.00    -0.005 A 
ATOM      6  C5  UNL d   1      -0.382   0.898   2.748  0.00  0.00    -0.074 A 
ATOM      7  C6  UNL d   1      -1.237   1.049   3.971  0.00  0.00     0.077 C 
ATOM      8  C7  UNL d   1       0.114   2.036   2.098  0.00  0.00    -0.001 A 
ENDROOT
TORSDOF 0
ENDMDL
