MODEL 1
REMARK minimizedAffinity 2.88877869
REMARK minimizedRMSD -1
REMARK  0 active torsions:
REMARK  status: ('A' for Active; 'I' for Inactive)
ROOT
ATOM      1  C   UNL d   1       1.451   0.695   5.258  0.00  0.00     0.077 C 
ATOM      2  C1  UNL d   1       1.156   0.582   3.791  0.00  0.00    -0.074 A 
ATOM      3  C2  UNL d   1       2.186   0.398   2.863  0.00  0.00    -0.005 A 
ATOM      4  C3  UNL d   1       1.895   0.285   1.504  0.00  0.00     0.006 A 
ATOM      5  C4  UNL d   1       0.574   0.354   1.059  0.00  0.00    -0.005 A 
ATOM      6  C5  UNL d   1      -0.469   0.537   1.973  0.00  0.00    -0.074 A 
ATOM      7  C6  UNL d   1      -1.895   0.604   1.514  0.00  0.00     0.077 C 
ATOM      8  C7  UNL d   1      -0.169   0.643   3.338  0.00  0.00    -0.001 A 
ENDROOT
TORSDOF 0
ENDMDL
