MODEL 1
REMARK minimizedAffinity 4.08179569
REMARK minimizedRMSD -1
REMARK  0 active torsions:
REMARK  status: ('A' for Active; 'I' for Inactive)
ROOT
ATOM      1  C   UNL d   1      -5.270   6.000  -3.324  0.00  0.00     0.077 C 
ATOM      2  C1  UNL d   1      -3.835   5.998  -2.889  0.00  0.00    -0.074 A 
ATOM      3  C2  UNL d   1      -3.495   6.000  -1.533  0.00  0.00    -0.005 A 
ATOM      4  C3  UNL d   1      -2.155   5.988  -1.144  0.00  0.00     0.006 A 
ATOM      5  C4  UNL d   1      -1.144   5.975  -2.105  0.00  0.00    -0.005 A 
ATOM      6  C5  UNL d   1      -1.465   5.972  -3.466  0.00  0.00    -0.074 A 
ATOM      7  C6  UNL d   1      -0.391   5.948  -4.513  0.00  0.00     0.077 C 
ATOM      8  C7  UNL d   1      -2.813   5.977  -3.849  0.00  0.00    -0.001 A 
ENDROOT
TORSDOF 0
ENDMDL
