MODEL 1
REMARK minimizedAffinity 5.42160797
REMARK minimizedRMSD -1
REMARK  0 active torsions:
REMARK  status: ('A' for Active; 'I' for Inactive)
ROOT
ATOM      1  C   UNL d   1      -1.940   6.000  -3.119  0.00  0.00     0.077 C 
ATOM      2  C1  UNL d   1      -0.883   5.239  -3.861  0.00  0.00    -0.074 A 
ATOM      3  C2  UNL d   1      -0.921   3.842  -3.936  0.00  0.00    -0.005 A 
ATOM      4  C3  UNL d   1       0.064   3.149  -4.638  0.00  0.00     0.006 A 
ATOM      5  C4  UNL d   1       1.096   3.842  -5.272  0.00  0.00    -0.005 A 
ATOM      6  C5  UNL d   1       1.150   5.238  -5.208  0.00  0.00    -0.074 A 
ATOM      7  C6  UNL d   1       2.247   6.000  -5.892  0.00  0.00     0.077 C 
ATOM      8  C7  UNL d   1       0.153   5.929  -4.507  0.00  0.00    -0.001 A 
ENDROOT
TORSDOF 0
ENDMDL
