MODEL 1
REMARK minimizedAffinity 0.310187548
REMARK minimizedRMSD -1
REMARK  0 active torsions:
REMARK  status: ('A' for Active; 'I' for Inactive)
ROOT
ATOM      1  C   UNL d   1       1.690   5.049  -5.238  0.00  0.00     0.077 C 
ATOM      2  C1  UNL d   1       3.188   5.088  -5.185  0.00  0.00    -0.074 A 
ATOM      3  C2  UNL d   1       3.914   5.967  -5.996  0.00  0.00    -0.005 A 
ATOM      4  C3  UNL d   1       5.306   5.998  -5.928  0.00  0.00     0.006 A 
ATOM      5  C4  UNL d   1       5.987   5.153  -5.051  0.00  0.00    -0.005 A 
ATOM      6  C5  UNL d   1       5.278   4.268  -4.231  0.00  0.00    -0.074 A 
ATOM      7  C6  UNL d   1       5.993   3.360  -3.275  0.00  0.00     0.077 C 
ATOM      8  C7  UNL d   1       3.878   4.248  -4.300  0.00  0.00    -0.001 A 
ENDROOT
TORSDOF 0
ENDMDL
