MODEL 1
REMARK minimizedAffinity 1.35622644
REMARK minimizedRMSD -1
REMARK  0 active torsions:
REMARK  status: ('A' for Active; 'I' for Inactive)
ROOT
ATOM      1  C   UNL d   1       3.183   5.985  -5.221  0.00  0.00     0.077 C 
ATOM      2  C1  UNL d   1       1.718   5.994  -4.902  0.00  0.00    -0.074 A 
ATOM      3  C2  UNL d   1       0.761   5.987  -5.922  0.00  0.00    -0.005 A 
ATOM      4  C3  UNL d   1      -0.599   5.986  -5.610  0.00  0.00     0.006 A 
ATOM      5  C4  UNL d   1      -1.014   5.993  -4.277  0.00  0.00    -0.005 A 
ATOM      6  C5  UNL d   1      -0.071   6.000  -3.245  0.00  0.00    -0.074 A 
ATOM      7  C6  UNL d   1      -0.501   5.997  -1.807  0.00  0.00     0.077 C 
ATOM      8  C7  UNL d   1       1.293   5.993  -3.566  0.00  0.00    -0.001 A 
ENDROOT
TORSDOF 0
ENDMDL
