MODEL 1
REMARK minimizedAffinity 1.05618286
REMARK minimizedRMSD -1
REMARK  0 active torsions:
REMARK  status: ('A' for Active; 'I' for Inactive)
ROOT
ATOM      1  C   UNL d   1       1.995   3.537   0.334  0.00  0.00     0.077 C 
ATOM      2  C1  UNL d   1       1.598   2.099   0.180  0.00  0.00    -0.074 A 
ATOM      3  C2  UNL d   1       1.026   1.394   1.244  0.00  0.00    -0.005 A 
ATOM      4  C3  UNL d   1       0.653   0.060   1.083  0.00  0.00     0.006 A 
ATOM      5  C4  UNL d   1       0.847  -0.582  -0.140  0.00  0.00    -0.005 A 
ATOM      6  C5  UNL d   1       1.417   0.107  -1.215  0.00  0.00    -0.074 A 
ATOM      7  C6  UNL d   1       1.624  -0.565  -2.540  0.00  0.00     0.077 C 
ATOM      8  C7  UNL d   1       1.783   1.450  -1.048  0.00  0.00    -0.001 A 
ENDROOT
TORSDOF 0
ENDMDL
