MODEL 1
REMARK minimizedAffinity -3.80188918
REMARK minimizedRMSD -1
REMARK  0 active torsions:
REMARK  status: ('A' for Active; 'I' for Inactive)
ROOT
ATOM      1  C   UNL d   1      -3.187   1.895   0.742  0.00  0.00     0.077 C 
ATOM      2  C1  UNL d   1      -1.720   1.587   0.783  0.00  0.00    -0.074 A 
ATOM      3  C2  UNL d   1      -1.258   0.272   0.661  0.00  0.00    -0.005 A 
ATOM      4  C3  UNL d   1       0.110   0.002   0.692  0.00  0.00     0.006 A 
ATOM      5  C4  UNL d   1       1.028   1.041   0.844  0.00  0.00    -0.005 A 
ATOM      6  C5  UNL d   1       0.585   2.362   0.966  0.00  0.00    -0.074 A 
ATOM      7  C6  UNL d   1       1.559   3.492   1.121  0.00  0.00     0.077 C 
ATOM      8  C7  UNL d   1      -0.791   2.626   0.928  0.00  0.00    -0.001 A 
ENDROOT
TORSDOF 0
ENDMDL
