MODEL 1
REMARK minimizedAffinity 7.1833477
REMARK minimizedRMSD -1
REMARK  0 active torsions:
REMARK  status: ('A' for Active; 'I' for Inactive)
ROOT
ATOM      1  C   UNL d   1      -4.513   1.464  -0.402  0.00  0.00     0.077 C 
ATOM      2  C1  UNL d   1      -3.158   1.524   0.240  0.00  0.00    -0.074 A 
ATOM      3  C2  UNL d   1      -2.635   2.735   0.704  0.00  0.00    -0.005 A 
ATOM      4  C3  UNL d   1      -1.378   2.774   1.307  0.00  0.00     0.006 A 
ATOM      5  C4  UNL d   1      -0.632   1.603   1.451  0.00  0.00    -0.005 A 
ATOM      6  C5  UNL d   1      -1.139   0.383   0.993  0.00  0.00    -0.074 A 
ATOM      7  C6  UNL d   1      -0.354  -0.886   1.150  0.00  0.00     0.077 C 
ATOM      8  C7  UNL d   1      -2.406   0.351   0.395  0.00  0.00    -0.001 A 
ENDROOT
TORSDOF 0
ENDMDL
