MODEL 1
REMARK minimizedAffinity 6.92429113
REMARK minimizedRMSD -1
REMARK  0 active torsions:
REMARK  status: ('A' for Active; 'I' for Inactive)
ROOT
ATOM      1  C   UNL d   1      -0.780   0.385   1.228  0.00  0.00     0.077 C 
ATOM      2  C1  UNL d   1       0.532  -0.161   0.748  0.00  0.00    -0.074 A 
ATOM      3  C2  UNL d   1       1.068  -1.330   1.296  0.00  0.00    -0.005 A 
ATOM      4  C3  UNL d   1       2.284  -1.831   0.833  0.00  0.00     0.006 A 
ATOM      5  C4  UNL d   1       2.976  -1.168  -0.182  0.00  0.00    -0.005 A 
ATOM      6  C5  UNL d   1       2.456   0.002  -0.742  0.00  0.00    -0.074 A 
ATOM      7  C6  UNL d   1       3.182   0.722  -1.840  0.00  0.00     0.077 C 
ATOM      8  C7  UNL d   1       1.229   0.495  -0.276  0.00  0.00    -0.001 A 
ENDROOT
TORSDOF 0
ENDMDL
