MODEL 1
REMARK minimizedAffinity 2.6490221
REMARK minimizedRMSD -1
REMARK  0 active torsions:
REMARK  status: ('A' for Active; 'I' for Inactive)
ROOT
ATOM      1  C   UNL d   1      -2.534  -1.048   0.675  0.00  0.00     0.077 C 
ATOM      2  C1  UNL d   1      -2.131   0.381   0.890  0.00  0.00    -0.074 A 
ATOM      3  C2  UNL d   1      -1.979   1.256  -0.191  0.00  0.00    -0.005 A 
ATOM      4  C3  UNL d   1      -1.613   2.584   0.025  0.00  0.00     0.006 A 
ATOM      5  C4  UNL d   1      -1.396   3.051   1.322  0.00  0.00    -0.005 A 
ATOM      6  C5  UNL d   1      -1.544   2.191   2.415  0.00  0.00    -0.074 A 
ATOM      7  C6  UNL d   1      -1.324   2.679   3.816  0.00  0.00     0.077 C 
ATOM      8  C7  UNL d   1      -1.919   0.860   2.190  0.00  0.00    -0.001 A 
ENDROOT
TORSDOF 0
ENDMDL
