MODEL 1
REMARK minimizedAffinity 6.93072653
REMARK minimizedRMSD -1
REMARK  0 active torsions:
REMARK  status: ('A' for Active; 'I' for Inactive)
ROOT
ATOM      1  C   UNL d   1       5.949   5.834   5.425  0.00  0.00     0.077 C 
ATOM      2  C1  UNL d   1       4.502   5.870   5.031  0.00  0.00    -0.074 A 
ATOM      3  C2  UNL d   1       3.496   5.958   5.998  0.00  0.00    -0.005 A 
ATOM      4  C3  UNL d   1       2.155   5.999   5.616  0.00  0.00     0.006 A 
ATOM      5  C4  UNL d   1       1.807   5.954   4.265  0.00  0.00    -0.005 A 
ATOM      6  C5  UNL d   1       2.800   5.867   3.284  0.00  0.00    -0.074 A 
ATOM      7  C6  UNL d   1       2.444   5.827   1.828  0.00  0.00     0.077 C 
ATOM      8  C7  UNL d   1       4.145   5.833   3.676  0.00  0.00    -0.001 A 
ENDROOT
TORSDOF 0
ENDMDL
