MODEL 1
REMARK minimizedAffinity 14.9383698
REMARK minimizedRMSD -1
REMARK  0 active torsions:
REMARK  status: ('A' for Active; 'I' for Inactive)
ROOT
ATOM      1  C   UNL d   1      -0.866   1.029  -5.632  0.00  0.00     0.077 C 
ATOM      2  C1  UNL d   1      -1.911   2.101  -5.734  0.00  0.00    -0.074 A 
ATOM      3  C2  UNL d   1      -3.272   1.780  -5.742  0.00  0.00    -0.005 A 
ATOM      4  C3  UNL d   1      -4.232   2.788  -5.828  0.00  0.00     0.006 A 
ATOM      5  C4  UNL d   1      -3.841   4.125  -5.906  0.00  0.00    -0.005 A 
ATOM      6  C5  UNL d   1      -2.485   4.466  -5.898  0.00  0.00    -0.074 A 
ATOM      7  C6  UNL d   1      -2.048   5.899  -5.972  0.00  0.00     0.077 C 
ATOM      8  C7  UNL d   1      -1.526   3.447  -5.805  0.00  0.00    -0.001 A 
ENDROOT
TORSDOF 0
ENDMDL
