MODEL 1
REMARK minimizedAffinity -3.46844149
REMARK minimizedRMSD -1
REMARK  0 active torsions:
REMARK  status: ('A' for Active; 'I' for Inactive)
ROOT
ATOM      1  C   UNL d   1      -0.219  -1.031  -0.615  0.00  0.00     0.077 C 
ATOM      2  C1  UNL d   1      -0.396   0.170   0.266  0.00  0.00    -0.074 A 
ATOM      3  C2  UNL d   1      -1.402   0.208   1.237  0.00  0.00    -0.005 A 
ATOM      4  C3  UNL d   1      -1.549   1.328   2.055  0.00  0.00     0.006 A 
ATOM      5  C4  UNL d   1      -0.691   2.419   1.912  0.00  0.00    -0.005 A 
ATOM      6  C5  UNL d   1       0.321   2.399   0.948  0.00  0.00    -0.074 A 
ATOM      7  C6  UNL d   1       1.257   3.560   0.788  0.00  0.00     0.077 C 
ATOM      8  C7  UNL d   1       0.466   1.268   0.134  0.00  0.00    -0.001 A 
ENDROOT
TORSDOF 0
ENDMDL
