MODEL 1
REMARK minimizedAffinity -4.6529665
REMARK minimizedRMSD -1
REMARK  0 active torsions:
REMARK  status: ('A' for Active; 'I' for Inactive)
ROOT
ATOM      1  C   UNL d   1      -0.420  -1.698   0.013  0.00  0.00     0.077 C 
ATOM      2  C1  UNL d   1      -0.152  -0.256   0.323  0.00  0.00    -0.074 A 
ATOM      3  C2  UNL d   1      -1.178   0.693   0.273  0.00  0.00    -0.005 A 
ATOM      4  C3  UNL d   1      -0.916   2.030   0.573  0.00  0.00     0.006 A 
ATOM      5  C4  UNL d   1       0.374   2.430   0.926  0.00  0.00    -0.005 A 
ATOM      6  C5  UNL d   1       1.412   1.495   0.983  0.00  0.00    -0.074 A 
ATOM      7  C6  UNL d   1       2.801   1.907   1.371  0.00  0.00     0.077 C 
ATOM      8  C7  UNL d   1       1.139   0.153   0.687  0.00  0.00    -0.001 A 
ENDROOT
TORSDOF 0
ENDMDL
