MODEL 1
REMARK minimizedAffinity 8.42601967
REMARK minimizedRMSD -1
REMARK  0 active torsions:
REMARK  status: ('A' for Active; 'I' for Inactive)
ROOT
ATOM      1  C   UNL d   1       3.466   2.409   2.488  0.00  0.00     0.077 C 
ATOM      2  C1  UNL d   1       2.287   1.745   1.842  0.00  0.00    -0.074 A 
ATOM      3  C2  UNL d   1       2.441   0.568   1.102  0.00  0.00    -0.005 A 
ATOM      4  C3  UNL d   1       1.333  -0.043   0.514  0.00  0.00     0.006 A 
ATOM      5  C4  UNL d   1       0.063   0.515   0.661  0.00  0.00    -0.005 A 
ATOM      6  C5  UNL d   1      -0.111   1.690   1.398  0.00  0.00    -0.074 A 
ATOM      7  C6  UNL d   1      -1.471   2.297   1.573  0.00  0.00     0.077 C 
ATOM      8  C7  UNL d   1       1.006   2.295   1.991  0.00  0.00    -0.001 A 
ENDROOT
TORSDOF 0
ENDMDL
