MODEL 1
REMARK minimizedAffinity 6.03295135
REMARK minimizedRMSD -1
REMARK  0 active torsions:
REMARK  status: ('A' for Active; 'I' for Inactive)
ROOT
ATOM      1  C   UNL d   1       2.031   0.431   0.470  0.00  0.00     0.077 C 
ATOM      2  C1  UNL d   1       0.537   0.550   0.420  0.00  0.00    -0.074 A 
ATOM      3  C2  UNL d   1      -0.108   1.702   0.882  0.00  0.00    -0.005 A 
ATOM      4  C3  UNL d   1      -1.498   1.802   0.820  0.00  0.00     0.006 A 
ATOM      5  C4  UNL d   1      -2.255   0.754   0.297  0.00  0.00    -0.005 A 
ATOM      6  C5  UNL d   1      -1.628  -0.406  -0.170  0.00  0.00    -0.074 A 
ATOM      7  C6  UNL d   1      -2.426  -1.538  -0.743  0.00  0.00     0.077 C 
ATOM      8  C7  UNL d   1      -0.230  -0.496  -0.111  0.00  0.00    -0.001 A 
ENDROOT
TORSDOF 0
ENDMDL
