MODEL 1
REMARK minimizedAffinity -3.87593913
REMARK minimizedRMSD -1
REMARK  0 active torsions:
REMARK  status: ('A' for Active; 'I' for Inactive)
ROOT
ATOM      1  C   UNL d   1      -1.624  -0.329   0.567  0.00  0.00     0.077 C 
ATOM      2  C1  UNL d   1      -0.877  -1.085  -0.492  0.00  0.00    -0.074 A 
ATOM      3  C2  UNL d   1       0.211  -0.508  -1.154  0.00  0.00    -0.005 A 
ATOM      4  C3  UNL d   1       0.902  -1.227  -2.130  0.00  0.00     0.006 A 
ATOM      5  C4  UNL d   1       0.511  -2.527  -2.453  0.00  0.00    -0.005 A 
ATOM      6  C5  UNL d   1      -0.574  -3.120  -1.801  0.00  0.00    -0.074 A 
ATOM      7  C6  UNL d   1      -1.001  -4.520  -2.129  0.00  0.00     0.077 C 
ATOM      8  C7  UNL d   1      -1.259  -2.394  -0.817  0.00  0.00    -0.001 A 
ENDROOT
TORSDOF 0
ENDMDL
