MODEL 1
REMARK minimizedAffinity -1.43768334
REMARK minimizedRMSD -1
REMARK  0 active torsions:
REMARK  status: ('A' for Active; 'I' for Inactive)
ROOT
ATOM      1  C   UNL d   1       0.153  -0.911  -0.185  0.00  0.00     0.077 C 
ATOM      2  C1  UNL d   1      -0.197  -2.074  -1.065  0.00  0.00    -0.074 A 
ATOM      3  C2  UNL d   1       0.542  -2.349  -2.221  0.00  0.00    -0.005 A 
ATOM      4  C3  UNL d   1       0.211  -3.440  -3.024  0.00  0.00     0.006 A 
ATOM      5  C4  UNL d   1      -0.860  -4.266  -2.681  0.00  0.00    -0.005 A 
ATOM      6  C5  UNL d   1      -1.609  -4.008  -1.529  0.00  0.00    -0.074 A 
ATOM      7  C6  UNL d   1      -2.757  -4.892  -1.140  0.00  0.00     0.077 C 
ATOM      8  C7  UNL d   1      -1.266  -2.914  -0.723  0.00  0.00    -0.001 A 
ENDROOT
TORSDOF 0
ENDMDL
