MODEL 1
REMARK minimizedAffinity -3.6779747
REMARK minimizedRMSD -1
REMARK  0 active torsions:
REMARK  status: ('A' for Active; 'I' for Inactive)
ROOT
ATOM      1  C   UNL d   1      -6.000   4.121   0.746  0.00  0.00     0.077 C 
ATOM      2  C1  UNL d   1      -5.262   3.223  -0.201  0.00  0.00    -0.074 A 
ATOM      3  C2  UNL d   1      -4.820   1.959   0.204  0.00  0.00    -0.005 A 
ATOM      4  C3  UNL d   1      -4.143   1.130  -0.691  0.00  0.00     0.006 A 
ATOM      5  C4  UNL d   1      -3.902   1.556  -1.998  0.00  0.00    -0.005 A 
ATOM      6  C5  UNL d   1      -4.337   2.816  -2.421  0.00  0.00    -0.074 A 
ATOM      7  C6  UNL d   1      -4.094   3.285  -3.825  0.00  0.00     0.077 C 
ATOM      8  C7  UNL d   1      -5.022   3.640  -1.518  0.00  0.00    -0.001 A 
ENDROOT
TORSDOF 0
ENDMDL
