MODEL 1
REMARK minimizedAffinity -0.860756159
REMARK minimizedRMSD -1
REMARK  0 active torsions:
REMARK  status: ('A' for Active; 'I' for Inactive)
ROOT
ATOM      1  C   UNL d   1       1.740   2.756   2.984  0.00  0.00     0.077 C 
ATOM      2  C1  UNL d   1       1.880   2.886   1.497  0.00  0.00    -0.074 A 
ATOM      3  C2  UNL d   1       2.161   1.770   0.701  0.00  0.00    -0.005 A 
ATOM      4  C3  UNL d   1       2.279   1.905  -0.682  0.00  0.00     0.006 A 
ATOM      5  C4  UNL d   1       2.118   3.154  -1.283  0.00  0.00    -0.005 A 
ATOM      6  C5  UNL d   1       1.836   4.280  -0.504  0.00  0.00    -0.074 A 
ATOM      7  C6  UNL d   1       1.650   5.629  -1.134  0.00  0.00     0.077 C 
ATOM      8  C7  UNL d   1       1.712   4.136   0.885  0.00  0.00    -0.001 A 
ENDROOT
TORSDOF 0
ENDMDL
