MODEL 1
REMARK minimizedAffinity -5.29940128
REMARK minimizedRMSD -1
REMARK  0 active torsions:
REMARK  status: ('A' for Active; 'I' for Inactive)
ROOT
ATOM      1  C   UNL d   1      -1.743   0.272   1.895  0.00  0.00     0.078 C 
ATOM      2  C1  UNL d   1      -0.482   0.757   1.244  0.00  0.00    -0.077 A 
ATOM      3  C2  UNL d   1       0.093   1.981   1.609  0.00  0.00    -0.001 A 
ATOM      4  C3  UNL d   1       1.262   2.425   0.989  0.00  0.00     0.003 A 
ATOM      5  C4  UNL d   1       1.865   1.652  -0.001  0.00  0.00    -0.005 A 
ATOM      6  C5  UNL d   1       1.299   0.434  -0.373  0.00  0.00     0.003 A 
ATOM      7  C6  UNL d   1       0.131  -0.012   0.247  0.00  0.00    -0.001 A 
ENDROOT
TORSDOF 0
ENDMDL
