MODEL 1
REMARK minimizedAffinity -4.59679699
REMARK minimizedRMSD -1
REMARK  0 active torsions:
REMARK  status: ('A' for Active; 'I' for Inactive)
ROOT
ATOM      1  C   UNL d   1       1.794   0.016  -1.830  0.00  0.00     0.078 C 
ATOM      2  C1  UNL d   1       0.429  -0.581  -2.003  0.00  0.00    -0.077 A 
ATOM      3  C2  UNL d   1      -0.240  -0.507  -3.231  0.00  0.00    -0.001 A 
ATOM      4  C3  UNL d   1      -1.514  -1.059  -3.375  0.00  0.00     0.003 A 
ATOM      5  C4  UNL d   1      -2.131  -1.687  -2.294  0.00  0.00    -0.005 A 
ATOM      6  C5  UNL d   1      -1.473  -1.764  -1.068  0.00  0.00     0.003 A 
ATOM      7  C6  UNL d   1      -0.199  -1.213  -0.923  0.00  0.00    -0.001 A 
ENDROOT
TORSDOF 0
ENDMDL
