MODEL 1
REMARK minimizedAffinity -5.05758333
REMARK minimizedRMSD -1
REMARK  0 active torsions:
REMARK  status: ('A' for Active; 'I' for Inactive)
ROOT
ATOM      1  C   UNL d   1       1.277   3.067   1.244  0.00  0.00     0.078 C 
ATOM      2  C1  UNL d   1       0.612   1.815   0.755  0.00  0.00    -0.077 A 
ATOM      3  C2  UNL d   1       1.159   1.071  -0.298  0.00  0.00    -0.001 A 
ATOM      4  C3  UNL d   1       0.524  -0.087  -0.749  0.00  0.00     0.003 A 
ATOM      5  C4  UNL d   1      -0.663  -0.511  -0.154  0.00  0.00    -0.005 A 
ATOM      6  C5  UNL d   1      -1.217   0.225   0.892  0.00  0.00     0.003 A 
ATOM      7  C6  UNL d   1      -0.583   1.383   1.344  0.00  0.00    -0.001 A 
ENDROOT
TORSDOF 0
ENDMDL
