MODEL 1
REMARK minimizedAffinity -3.77147293
REMARK minimizedRMSD -1
REMARK  0 active torsions:
REMARK  status: ('A' for Active; 'I' for Inactive)
ROOT
ATOM      1  C   UNL d   1      -0.755  -0.902  -0.630  0.00  0.00     0.078 C 
ATOM      2  C1  UNL d   1      -0.120   0.172   0.202  0.00  0.00    -0.077 A 
ATOM      3  C2  UNL d   1      -0.643   0.520   1.453  0.00  0.00    -0.001 A 
ATOM      4  C3  UNL d   1      -0.046   1.528   2.212  0.00  0.00     0.003 A 
ATOM      5  C4  UNL d   1       1.075   2.198   1.727  0.00  0.00    -0.005 A 
ATOM      6  C5  UNL d   1       1.601   1.861   0.482  0.00  0.00     0.003 A 
ATOM      7  C6  UNL d   1       1.007   0.853  -0.278  0.00  0.00    -0.001 A 
ENDROOT
TORSDOF 0
ENDMDL
