MODEL 1
REMARK minimizedAffinity -5.19199848
REMARK minimizedRMSD -1
REMARK  0 active torsions:
REMARK  status: ('A' for Active; 'I' for Inactive)
ROOT
ATOM      1  C   UNL d   1      -0.728  -0.825  -0.508  0.00  0.00     0.078 C 
ATOM      2  C1  UNL d   1       0.007   0.368   0.026  0.00  0.00    -0.077 A 
ATOM      3  C2  UNL d   1       1.244   0.750  -0.505  0.00  0.00    -0.001 A 
ATOM      4  C3  UNL d   1       1.922   1.857   0.009  0.00  0.00     0.003 A 
ATOM      5  C4  UNL d   1       1.370   2.590   1.058  0.00  0.00    -0.005 A 
ATOM      6  C5  UNL d   1       0.140   2.215   1.595  0.00  0.00     0.003 A 
ATOM      7  C6  UNL d   1      -0.539   1.109   1.082  0.00  0.00    -0.001 A 
ENDROOT
TORSDOF 0
ENDMDL
