MODEL 1
REMARK minimizedAffinity -4.8811202
REMARK minimizedRMSD -1
REMARK  0 active torsions:
REMARK  status: ('A' for Active; 'I' for Inactive)
ROOT
ATOM      1  C   UNL d   1      -1.857   0.285   1.652  0.00  0.00     0.078 C 
ATOM      2  C1  UNL d   1      -0.596   0.753   0.990  0.00  0.00    -0.077 A 
ATOM      3  C2  UNL d   1       0.148  -0.102   0.168  0.00  0.00    -0.001 A 
ATOM      4  C3  UNL d   1       1.325   0.344  -0.434  0.00  0.00     0.003 A 
ATOM      5  C4  UNL d   1       1.771   1.647  -0.219  0.00  0.00    -0.005 A 
ATOM      6  C5  UNL d   1       1.039   2.505   0.599  0.00  0.00     0.003 A 
ATOM      7  C6  UNL d   1      -0.139   2.060   1.202  0.00  0.00    -0.001 A 
ENDROOT
TORSDOF 0
ENDMDL
