MODEL 1
REMARK minimizedAffinity -2.29988027
REMARK minimizedRMSD -1
REMARK  0 active torsions:
REMARK  status: ('A' for Active; 'I' for Inactive)
ROOT
ATOM      1  C   UNL d   1      -1.880  -1.765  -2.642  0.00  0.00     0.078 C 
ATOM      2  C1  UNL d   1      -1.102  -1.072  -1.563  0.00  0.00    -0.077 A 
ATOM      3  C2  UNL d   1       0.200  -1.474  -1.241  0.00  0.00    -0.001 A 
ATOM      4  C3  UNL d   1       0.908  -0.827  -0.228  0.00  0.00     0.003 A 
ATOM      5  C4  UNL d   1       0.323   0.226   0.472  0.00  0.00    -0.005 A 
ATOM      6  C5  UNL d   1      -0.973   0.632   0.160  0.00  0.00     0.003 A 
ATOM      7  C6  UNL d   1      -1.683  -0.015  -0.853  0.00  0.00    -0.001 A 
ENDROOT
TORSDOF 0
ENDMDL
