MODEL 1
REMARK minimizedAffinity -3.89966536
REMARK minimizedRMSD -1
REMARK  0 active torsions:
REMARK  status: ('A' for Active; 'I' for Inactive)
ROOT
ATOM      1  C   UNL d   1      -0.396  -0.853   0.229  0.00  0.00     0.078 C 
ATOM      2  C1  UNL d   1      -1.202  -1.264  -0.967  0.00  0.00    -0.077 A 
ATOM      3  C2  UNL d   1      -0.864  -0.821  -2.251  0.00  0.00    -0.001 A 
ATOM      4  C3  UNL d   1      -1.629  -1.203  -3.354  0.00  0.00     0.003 A 
ATOM      5  C4  UNL d   1      -2.737  -2.030  -3.184  0.00  0.00    -0.005 A 
ATOM      6  C5  UNL d   1      -3.083  -2.475  -1.910  0.00  0.00     0.003 A 
ATOM      7  C6  UNL d   1      -2.319  -2.093  -0.805  0.00  0.00    -0.001 A 
ENDROOT
TORSDOF 0
ENDMDL
