MODEL 1
REMARK minimizedAffinity -1.0592252
REMARK minimizedRMSD -1
REMARK  0 active torsions:
REMARK  status: ('A' for Active; 'I' for Inactive)
ROOT
ATOM      1  C   UNL d   1      -0.021  -0.052  -0.041  0.00  0.00     0.078 C 
ATOM      2  C1  UNL d   1       1.243   0.545   0.501  0.00  0.00    -0.077 A 
ATOM      3  C2  UNL d   1       1.215   1.440   1.577  0.00  0.00    -0.001 A 
ATOM      4  C3  UNL d   1       2.399   1.995   2.065  0.00  0.00     0.003 A 
ATOM      5  C4  UNL d   1       3.620   1.663   1.482  0.00  0.00    -0.005 A 
ATOM      6  C5  UNL d   1       3.658   0.775   0.409  0.00  0.00     0.003 A 
ATOM      7  C6  UNL d   1       2.475   0.218  -0.080  0.00  0.00    -0.001 A 
ENDROOT
TORSDOF 0
ENDMDL
