MODEL 1
REMARK minimizedAffinity -2.09442663
REMARK minimizedRMSD -1
REMARK  0 active torsions:
REMARK  status: ('A' for Active; 'I' for Inactive)
ROOT
ATOM      1  C   UNL d   1       0.083  -1.121  -0.343  0.00  0.00     0.078 C 
ATOM      2  C1  UNL d   1      -0.858  -1.361  -1.486  0.00  0.00    -0.077 A 
ATOM      3  C2  UNL d   1      -1.991  -2.168  -1.330  0.00  0.00    -0.001 A 
ATOM      4  C3  UNL d   1      -2.853  -2.390  -2.406  0.00  0.00     0.003 A 
ATOM      5  C4  UNL d   1      -2.589  -1.809  -3.645  0.00  0.00    -0.005 A 
ATOM      6  C5  UNL d   1      -1.462  -1.006  -3.810  0.00  0.00     0.003 A 
ATOM      7  C6  UNL d   1      -0.600  -0.783  -2.736  0.00  0.00    -0.001 A 
ENDROOT
TORSDOF 0
ENDMDL
