MODEL 1
REMARK minimizedAffinity -5.3155117
REMARK minimizedRMSD -1
REMARK  0 active torsions:
REMARK  status: ('A' for Active; 'I' for Inactive)
ROOT
ATOM      1  C   UNL d   1       4.473   0.720   3.340  0.00  0.00     0.078 C 
ATOM      2  C1  UNL d   1       3.563   1.259   2.277  0.00  0.00    -0.077 A 
ATOM      3  C2  UNL d   1       2.385   1.936   2.612  0.00  0.00    -0.001 A 
ATOM      4  C3  UNL d   1       1.542   2.424   1.612  0.00  0.00     0.003 A 
ATOM      5  C4  UNL d   1       1.869   2.239   0.270  0.00  0.00    -0.005 A 
ATOM      6  C5  UNL d   1       3.039   1.564  -0.073  0.00  0.00     0.003 A 
ATOM      7  C6  UNL d   1       3.882   1.076   0.926  0.00  0.00    -0.001 A 
ENDROOT
TORSDOF 0
ENDMDL
