MODEL 1
REMARK minimizedAffinity -4.04700565
REMARK minimizedRMSD -1
REMARK  0 active torsions:
REMARK  status: ('A' for Active; 'I' for Inactive)
ROOT
ATOM      1  C   UNL d   1      -1.145  -1.051  -1.000  0.00  0.00     0.078 C 
ATOM      2  C1  UNL d   1      -0.801   0.031  -0.022  0.00  0.00    -0.077 A 
ATOM      3  C2  UNL d   1      -1.639   0.317   1.063  0.00  0.00    -0.001 A 
ATOM      4  C3  UNL d   1      -1.311   1.334   1.960  0.00  0.00     0.003 A 
ATOM      5  C4  UNL d   1      -0.145   2.075   1.782  0.00  0.00    -0.005 A 
ATOM      6  C5  UNL d   1       0.694   1.800   0.704  0.00  0.00     0.003 A 
ATOM      7  C6  UNL d   1       0.368   0.783  -0.195  0.00  0.00    -0.001 A 
ENDROOT
TORSDOF 0
ENDMDL
