MODEL 1
REMARK minimizedAffinity -2.65102983
REMARK minimizedRMSD -1
REMARK  0 active torsions:
REMARK  status: ('A' for Active; 'I' for Inactive)
ROOT
ATOM      1  C   UNL d   1       0.945  -1.160  -0.800  0.00  0.00     0.078 C 
ATOM      2  C1  UNL d   1      -0.307  -1.550  -1.528  0.00  0.00    -0.077 A 
ATOM      3  C2  UNL d   1      -0.467  -1.266  -2.890  0.00  0.00    -0.001 A 
ATOM      4  C3  UNL d   1      -1.642  -1.626  -3.552  0.00  0.00     0.003 A 
ATOM      5  C4  UNL d   1      -2.666  -2.270  -2.860  0.00  0.00    -0.005 A 
ATOM      6  C5  UNL d   1      -2.516  -2.555  -1.504  0.00  0.00     0.003 A 
ATOM      7  C6  UNL d   1      -1.342  -2.195  -0.840  0.00  0.00    -0.001 A 
ENDROOT
TORSDOF 0
ENDMDL
