MODEL 1
REMARK minimizedAffinity -0.732976735
REMARK minimizedRMSD -1
REMARK  0 active torsions:
REMARK  status: ('A' for Active; 'I' for Inactive)
ROOT
ATOM      1  C   UNL d   1      -0.896   0.426   0.717  0.00  0.00     0.078 C 
ATOM      2  C1  UNL d   1       0.236   0.727   1.654  0.00  0.00    -0.077 A 
ATOM      3  C2  UNL d   1      -0.006   1.211   2.945  0.00  0.00    -0.001 A 
ATOM      4  C3  UNL d   1       1.058   1.495   3.803  0.00  0.00     0.003 A 
ATOM      5  C4  UNL d   1       2.371   1.301   3.377  0.00  0.00    -0.005 A 
ATOM      6  C5  UNL d   1       2.621   0.823   2.093  0.00  0.00     0.003 A 
ATOM      7  C6  UNL d   1       1.558   0.537   1.234  0.00  0.00    -0.001 A 
ENDROOT
TORSDOF 0
ENDMDL
