MODEL 1
REMARK minimizedAffinity 3.71249127
REMARK minimizedRMSD -1
REMARK  0 active torsions:
REMARK  status: ('A' for Active; 'I' for Inactive)
ROOT
ATOM      1  C   UNL d   1      -2.648  -1.525  -1.764  0.00  0.00     0.078 C 
ATOM      2  C1  UNL d   1      -1.885  -0.754  -0.729  0.00  0.00    -0.077 A 
ATOM      3  C2  UNL d   1      -2.487   0.293  -0.020  0.00  0.00    -0.001 A 
ATOM      4  C3  UNL d   1      -1.762   1.009   0.934  0.00  0.00     0.003 A 
ATOM      5  C4  UNL d   1      -0.430   0.686   1.187  0.00  0.00    -0.005 A 
ATOM      6  C5  UNL d   1       0.178  -0.352   0.485  0.00  0.00     0.003 A 
ATOM      7  C6  UNL d   1      -0.545  -1.069  -0.469  0.00  0.00    -0.001 A 
ENDROOT
TORSDOF 0
ENDMDL
