MODEL 1
REMARK minimizedAffinity -5.04236269
REMARK minimizedRMSD -1
REMARK  0 active torsions:
REMARK  status: ('A' for Active; 'I' for Inactive)
ROOT
ATOM      1  C1  BNZ d   1       0.616   1.092   2.196  0.00  0.00     0.000 A 
ATOM      2  C2  BNZ d   1       0.867   0.573   0.954  0.00  0.00     0.000 A 
ATOM      3  C3  BNZ d   1      -0.158   0.257   0.106  0.00  0.00     0.000 A 
ATOM      4  C4  BNZ d   1      -1.432   0.423   0.517  0.00  0.00     0.000 A 
ATOM      5  C5  BNZ d   1      -1.702   0.936   1.769  0.00  0.00     0.000 A 
ATOM      6  C6  BNZ d   1      -0.667   1.290   2.605  0.00  0.00     0.000 A 
ENDROOT
TORSDOF 0
ENDMDL
