MODEL 1
REMARK minimizedAffinity -3.20248985
REMARK minimizedRMSD -1
REMARK  0 active torsions:
REMARK  status: ('A' for Active; 'I' for Inactive)
ROOT
ATOM      1  C1  BNZ d   1      -1.176  -0.370   0.100  0.00  0.00     0.000 A 
ATOM      2  C2  BNZ d   1       0.078  -0.770  -0.276  0.00  0.00     0.000 A 
ATOM      3  C3  BNZ d   1       1.154  -0.563   0.542  0.00  0.00     0.000 A 
ATOM      4  C4  BNZ d   1       0.980   0.078   1.715  0.00  0.00     0.000 A 
ATOM      5  C5  BNZ d   1      -0.277   0.495   2.105  0.00  0.00     0.000 A 
ATOM      6  C6  BNZ d   1      -1.363   0.251   1.297  0.00  0.00     0.000 A 
ENDROOT
TORSDOF 0
ENDMDL
