MODEL 1
REMARK minimizedAffinity -4.73060322
REMARK minimizedRMSD -1
REMARK  0 active torsions:
REMARK  status: ('A' for Active; 'I' for Inactive)
ROOT
ATOM      1  C1  BNZ d   1       1.268   0.869   1.981  0.00  0.00     0.000 A 
ATOM      2  C2  BNZ d   1       1.271   0.084   0.859  0.00  0.00     0.000 A 
ATOM      3  C3  BNZ d   1       0.100  -0.269   0.248  0.00  0.00     0.000 A 
ATOM      4  C4  BNZ d   1      -1.072   0.130   0.782  0.00  0.00     0.000 A 
ATOM      5  C5  BNZ d   1      -1.092   0.914   1.918  0.00  0.00     0.000 A 
ATOM      6  C6  BNZ d   1       0.090   1.300   2.508  0.00  0.00     0.000 A 
ENDROOT
TORSDOF 0
ENDMDL
