MODEL 1
REMARK minimizedAffinity -3.56753683
REMARK minimizedRMSD -1
REMARK  0 active torsions:
REMARK  status: ('A' for Active; 'I' for Inactive)
ROOT
ATOM      1  C1  BNZ d   1      -1.561  -0.109  -0.194  0.00  0.00     0.000 A 
ATOM      2  C2  BNZ d   1      -2.079   0.493   0.921  0.00  0.00     0.000 A 
ATOM      3  C3  BNZ d   1      -1.265   0.893   1.943  0.00  0.00     0.000 A 
ATOM      4  C4  BNZ d   1       0.061   0.654   1.867  0.00  0.00     0.000 A 
ATOM      5  C5  BNZ d   1       0.597   0.040   0.753  0.00  0.00     0.000 A 
ATOM      6  C6  BNZ d   1      -0.221  -0.326  -0.291  0.00  0.00     0.000 A 
ENDROOT
TORSDOF 0
ENDMDL
