MODEL 1
REMARK minimizedAffinity -4.75874901
REMARK minimizedRMSD -1
REMARK  0 active torsions:
REMARK  status: ('A' for Active; 'I' for Inactive)
ROOT
ATOM      1  C1  BNZ d   1       0.615   0.909   1.007  0.00  0.00     0.000 A 
ATOM      2  C2  BNZ d   1       0.088   1.526   2.110  0.00  0.00     0.000 A 
ATOM      3  C3  BNZ d   1      -1.239   1.404   2.413  0.00  0.00     0.000 A 
ATOM      4  C4  BNZ d   1      -2.044   0.699   1.593  0.00  0.00     0.000 A 
ATOM      5  C5  BNZ d   1      -1.530   0.078   0.472  0.00  0.00     0.000 A 
ATOM      6  C6  BNZ d   1      -0.186   0.171   0.191  0.00  0.00     0.000 A 
ENDROOT
TORSDOF 0
ENDMDL
