MODEL 1
REMARK minimizedAffinity -2.71402645
REMARK minimizedRMSD -1
REMARK  0 active torsions:
REMARK  status: ('A' for Active; 'I' for Inactive)
ROOT
ATOM      1  C1  BNZ d   1       0.588   0.528   1.174  0.00  0.00     0.000 A 
ATOM      2  C2  BNZ d   1       0.967  -0.072   0.003  0.00  0.00     0.000 A 
ATOM      3  C3  BNZ d   1       0.035  -0.454  -0.921  0.00  0.00     0.000 A 
ATOM      4  C4  BNZ d   1      -1.275  -0.272  -0.656  0.00  0.00     0.000 A 
ATOM      5  C5  BNZ d   1      -1.674   0.323   0.524  0.00  0.00     0.000 A 
ATOM      6  C6  BNZ d   1      -0.731   0.741   1.435  0.00  0.00     0.000 A 
ENDROOT
TORSDOF 0
ENDMDL
