MODEL 1
REMARK minimizedAffinity -4.6038332
REMARK minimizedRMSD -1
REMARK  0 active torsions:
REMARK  status: ('A' for Active; 'I' for Inactive)
ROOT
ATOM      1  C1  BNZ d   1      -1.146   0.084   0.654  0.00  0.00     0.000 A 
ATOM      2  C2  BNZ d   1      -1.901   0.503   1.717  0.00  0.00     0.000 A 
ATOM      3  C3  BNZ d   1      -1.314   1.084   2.807  0.00  0.00     0.000 A 
ATOM      4  C4  BNZ d   1       0.028   1.209   2.849  0.00  0.00     0.000 A 
ATOM      5  C5  BNZ d   1       0.804   0.783   1.790  0.00  0.00     0.000 A 
ATOM      6  C6  BNZ d   1       0.207   0.234   0.678  0.00  0.00     0.000 A 
ENDROOT
TORSDOF 0
ENDMDL
