MODEL 1
REMARK minimizedAffinity -3.9173584
REMARK minimizedRMSD -1
REMARK  0 active torsions:
REMARK  status: ('A' for Active; 'I' for Inactive)
ROOT
ATOM      1  C1  BNZ d   1      -1.334  -0.009   0.001  0.00  0.00     0.000 A 
ATOM      2  C2  BNZ d   1      -1.409   0.643   1.202  0.00  0.00     0.000 A 
ATOM      3  C3  BNZ d   1      -0.277   0.944   1.907  0.00  0.00     0.000 A 
ATOM      4  C4  BNZ d   1       0.924   0.558   1.430  0.00  0.00     0.000 A 
ATOM      5  C5  BNZ d   1       1.015  -0.109   0.225  0.00  0.00     0.000 A 
ATOM      6  C6  BNZ d   1      -0.123  -0.376  -0.501  0.00  0.00     0.000 A 
ENDROOT
TORSDOF 0
ENDMDL
