MODEL 1
REMARK minimizedAffinity -2.61112499
REMARK minimizedRMSD -1
REMARK  1 active torsions:
REMARK  status: ('A' for Active; 'I' for Inactive)
REMARK    1  A    between atoms: C3_4  and  O_7 
ROOT
ATOM      1  C   UNL d   1      -1.643  -4.320  -0.650  0.00  0.00    -0.033 A 
ATOM      2  C1  UNL d   1      -1.742  -3.399   0.395  0.00  0.00     0.039 A 
ATOM      3  C2  UNL d   1      -2.322  -3.776   1.608  0.00  0.00    -0.080 A 
ATOM      4  C3  UNL d   1      -2.796  -5.076   1.763  0.00  0.00     0.150 A 
ATOM      5  C4  UNL d   1      -2.698  -6.000   0.728  0.00  0.00    -0.007 A 
ATOM      6  C5  UNL d   1      -2.120  -5.621  -0.483  0.00  0.00     0.039 A 
ENDROOT
BRANCH   4   7
ATOM      7  O   UNL d   1      -3.374  -5.489   2.927  0.00  0.00    -0.526 OA
ATOM      8  H5  UNL d   1      -3.400  -4.737   3.542  0.00  0.00     0.418 HD
ENDBRANCH   4   7
TORSDOF 1
ENDMDL
