MODEL 1
REMARK minimizedAffinity -5.39597082
REMARK minimizedRMSD -1
REMARK  1 active torsions:
REMARK  status: ('A' for Active; 'I' for Inactive)
REMARK    1  A    between atoms: C3_4  and  O_7 
ROOT
ATOM      1  C   UNL d   1       1.701  -1.871   2.204  0.00  0.00    -0.033 A 
ATOM      2  C1  UNL d   1       2.167  -1.959   3.517  0.00  0.00     0.039 A 
ATOM      3  C2  UNL d   1       1.731  -2.994   4.347  0.00  0.00    -0.080 A 
ATOM      4  C3  UNL d   1       0.830  -3.933   3.852  0.00  0.00     0.150 A 
ATOM      5  C4  UNL d   1       0.365  -3.854   2.544  0.00  0.00    -0.007 A 
ATOM      6  C5  UNL d   1       0.801  -2.820   1.717  0.00  0.00     0.039 A 
ENDROOT
BRANCH   4   7
ATOM      7  O   UNL d   1       0.372  -4.958   4.626  0.00  0.00    -0.526 OA
ATOM      8  H5  UNL d   1       0.757  -4.869   5.514  0.00  0.00     0.418 HD
ENDBRANCH   4   7
TORSDOF 1
ENDMDL
