MODEL 1
REMARK minimizedAffinity -3.22146058
REMARK minimizedRMSD -1
REMARK  1 active torsions:
REMARK  status: ('A' for Active; 'I' for Inactive)
REMARK    1  A    between atoms: C3_4  and  O_7 
ROOT
ATOM      1  C   UNL d   1      -2.704  -5.646  -1.020  0.00  0.00    -0.033 A 
ATOM      2  C1  UNL d   1      -1.385  -5.517  -1.460  0.00  0.00     0.039 A 
ATOM      3  C2  UNL d   1      -1.087  -5.632  -2.819  0.00  0.00    -0.080 A 
ATOM      4  C3  UNL d   1      -2.114  -5.874  -3.726  0.00  0.00     0.150 A 
ATOM      5  C4  UNL d   1      -3.431  -6.000  -3.295  0.00  0.00    -0.007 A 
ATOM      6  C5  UNL d   1      -3.727  -5.886  -1.938  0.00  0.00     0.039 A 
ENDROOT
BRANCH   4   7
ATOM      7  O   UNL d   1      -1.871  -5.999  -5.062  0.00  0.00    -0.526 OA
ATOM      8  H5  UNL d   1      -0.913  -5.917  -5.209  0.00  0.00     0.418 HD
ENDBRANCH   4   7
TORSDOF 1
ENDMDL
