MODEL 1
REMARK minimizedAffinity -3.6724534
REMARK minimizedRMSD -1
REMARK  1 active torsions:
REMARK  status: ('A' for Active; 'I' for Inactive)
REMARK    1  A    between atoms: C3_4  and  O_7 
ROOT
ATOM      1  C   UNL d   1      -2.097  -5.819  -3.875  0.00  0.00    -0.033 A 
ATOM      2  C1  UNL d   1      -0.994  -5.672  -3.031  0.00  0.00     0.039 A 
ATOM      3  C2  UNL d   1      -1.167  -5.674  -1.646  0.00  0.00    -0.080 A 
ATOM      4  C3  UNL d   1      -2.446  -5.825  -1.117  0.00  0.00     0.150 A 
ATOM      5  C4  UNL d   1      -3.549  -5.976  -1.952  0.00  0.00    -0.007 A 
ATOM      6  C5  UNL d   1      -3.374  -5.973  -3.335  0.00  0.00     0.039 A 
ENDROOT
BRANCH   4   7
ATOM      7  O   UNL d   1      -2.665  -5.829   0.228  0.00  0.00    -0.526 OA
ATOM      8  H5  UNL d   1      -1.816  -5.686   0.679  0.00  0.00     0.418 HD
ENDBRANCH   4   7
TORSDOF 1
ENDMDL
