MODEL 1
REMARK minimizedAffinity -3.75436282
REMARK minimizedRMSD -1
REMARK  1 active torsions:
REMARK  status: ('A' for Active; 'I' for Inactive)
REMARK    1  A    between atoms: C3_4  and  O_7 
ROOT
ATOM      1  C   UNL d   1       1.579  -1.612   2.708  0.00  0.00    -0.033 A 
ATOM      2  C1  UNL d   1       2.439  -1.880   3.775  0.00  0.00     0.039 A 
ATOM      3  C2  UNL d   1       2.201  -2.976   4.607  0.00  0.00    -0.080 A 
ATOM      4  C3  UNL d   1       1.102  -3.795   4.361  0.00  0.00     0.150 A 
ATOM      5  C4  UNL d   1       0.244  -3.536   3.298  0.00  0.00    -0.007 A 
ATOM      6  C5  UNL d   1       0.482  -2.441   2.469  0.00  0.00     0.039 A 
ENDROOT
BRANCH   4   7
ATOM      7  O   UNL d   1       0.827  -4.873   5.149  0.00  0.00    -0.526 OA
ATOM      8  H5  UNL d   1       1.488  -4.911   5.860  0.00  0.00     0.418 HD
ENDBRANCH   4   7
TORSDOF 1
ENDMDL
