MODEL 1
REMARK minimizedAffinity -4.27858019
REMARK minimizedRMSD -1
REMARK  1 active torsions:
REMARK  status: ('A' for Active; 'I' for Inactive)
REMARK    1  A    between atoms: C3_4  and  O_7 
ROOT
ATOM      1  C   UNL d   1      -1.441  -5.991  -2.043  0.00  0.00    -0.033 A 
ATOM      2  C1  UNL d   1      -2.398  -5.996  -1.026  0.00  0.00     0.039 A 
ATOM      3  C2  UNL d   1      -3.758  -5.999  -1.345  0.00  0.00    -0.080 A 
ATOM      4  C3  UNL d   1      -4.146  -5.999  -2.681  0.00  0.00     0.150 A 
ATOM      5  C4  UNL d   1      -3.199  -5.998  -3.700  0.00  0.00    -0.007 A 
ATOM      6  C5  UNL d   1      -1.842  -5.994  -3.380  0.00  0.00     0.039 A 
ENDROOT
BRANCH   4   7
ATOM      7  O   UNL d   1      -5.461  -5.997  -3.041  0.00  0.00    -0.526 OA
ATOM      8  H5  UNL d   1      -6.001  -5.968  -2.234  0.00  0.00     0.418 HD
ENDBRANCH   4   7
TORSDOF 1
ENDMDL
