MODEL 1
REMARK minimizedAffinity -2.72135472
REMARK minimizedRMSD -1
REMARK  1 active torsions:
REMARK  status: ('A' for Active; 'I' for Inactive)
REMARK    1  A    between atoms: C3_4  and  O_7 
ROOT
ATOM      1  C   UNL d   1       1.451  -3.062   5.326  0.00  0.00    -0.033 A 
ATOM      2  C1  UNL d   1       1.512  -2.489   4.055  0.00  0.00     0.039 A 
ATOM      3  C2  UNL d   1       1.941  -3.249   2.965  0.00  0.00    -0.080 A 
ATOM      4  C3  UNL d   1       2.305  -4.579   3.159  0.00  0.00     0.150 A 
ATOM      5  C4  UNL d   1       2.243  -5.157   4.423  0.00  0.00    -0.007 A 
ATOM      6  C5  UNL d   1       1.816  -4.396   5.510  0.00  0.00     0.039 A 
ENDROOT
BRANCH   4   7
ATOM      7  O   UNL d   1       2.734  -5.358   2.127  0.00  0.00    -0.526 OA
ATOM      8  H5  UNL d   1       2.752  -4.817   1.320  0.00  0.00     0.418 HD
ENDBRANCH   4   7
TORSDOF 1
ENDMDL
