MODEL 1
REMARK minimizedAffinity -2.61986065
REMARK minimizedRMSD -1
REMARK  1 active torsions:
REMARK  status: ('A' for Active; 'I' for Inactive)
REMARK    1  A    between atoms: C3_4  and  O_7 
ROOT
ATOM      1  C   UNL d   1      -2.948  -5.995  -4.265  0.00  0.00    -0.033 A 
ATOM      2  C1  UNL d   1      -1.956  -5.992  -3.283  0.00  0.00     0.039 A 
ATOM      3  C2  UNL d   1      -0.608  -5.992  -3.648  0.00  0.00    -0.080 A 
ATOM      4  C3  UNL d   1      -0.266  -5.994  -4.998  0.00  0.00     0.150 A 
ATOM      5  C4  UNL d   1      -1.249  -5.993  -5.982  0.00  0.00    -0.007 A 
ATOM      6  C5  UNL d   1      -2.594  -5.994  -5.615  0.00  0.00     0.039 A 
ENDROOT
BRANCH   4   7
ATOM      7  O   UNL d   1       1.035  -5.999  -5.403  0.00  0.00    -0.526 OA
ATOM      8  H5  UNL d   1       1.603  -6.029  -4.615  0.00  0.00     0.418 HD
ENDBRANCH   4   7
TORSDOF 1
ENDMDL
