MODEL 1
REMARK minimizedAffinity -2.27073503
REMARK minimizedRMSD -1
REMARK  1 active torsions:
REMARK  status: ('A' for Active; 'I' for Inactive)
REMARK    1  A    between atoms: C3_4  and  O_7 
ROOT
ATOM      1  C   UNL d   1      -1.459  -5.993  -2.962  0.00  0.00    -0.033 A 
ATOM      2  C1  UNL d   1      -0.102  -6.000  -2.633  0.00  0.00     0.039 A 
ATOM      3  C2  UNL d   1       0.863  -6.000  -3.642  0.00  0.00    -0.080 A 
ATOM      4  C3  UNL d   1       0.459  -5.992  -4.974  0.00  0.00     0.150 A 
ATOM      5  C4  UNL d   1      -0.891  -5.982  -5.309  0.00  0.00    -0.007 A 
ATOM      6  C5  UNL d   1      -1.854  -5.982  -4.300  0.00  0.00     0.039 A 
ENDROOT
BRANCH   4   7
ATOM      7  O   UNL d   1       1.364  -5.997  -5.993  0.00  0.00    -0.526 OA
ATOM      8  H5  UNL d   1       2.257  -6.034  -5.612  0.00  0.00     0.418 HD
ENDBRANCH   4   7
TORSDOF 1
ENDMDL
