MODEL 1
REMARK minimizedAffinity 2.03824377
REMARK minimizedRMSD -1
REMARK  1 active torsions:
REMARK  status: ('A' for Active; 'I' for Inactive)
REMARK    1  A    between atoms: C3_4  and  O_7 
ROOT
ATOM      1  C   UNL d   1       1.147   0.120   0.295  0.00  0.00    -0.033 A 
ATOM      2  C1  UNL d   1       0.406   0.009  -0.883  0.00  0.00     0.039 A 
ATOM      3  C2  UNL d   1      -0.302  -1.164  -1.156  0.00  0.00    -0.080 A 
ATOM      4  C3  UNL d   1      -0.261  -2.215  -0.245  0.00  0.00     0.150 A 
ATOM      5  C4  UNL d   1       0.473  -2.109   0.932  0.00  0.00    -0.007 A 
ATOM      6  C5  UNL d   1       1.180  -0.939   1.203  0.00  0.00     0.039 A 
ENDROOT
BRANCH   4   7
ATOM      7  O   UNL d   1      -0.931  -3.380  -0.470  0.00  0.00    -0.526 OA
ATOM      8  H5  UNL d   1      -1.371  -3.320  -1.335  0.00  0.00     0.418 HD
ENDBRANCH   4   7
TORSDOF 1
ENDMDL
