MODEL 1
REMARK minimizedAffinity -3.69089031
REMARK minimizedRMSD -1
REMARK  1 active torsions:
REMARK  status: ('A' for Active; 'I' for Inactive)
REMARK    1  A    between atoms: C3_4  and  O_7 
ROOT
ATOM      1  C   UNL d   1      -3.058  -5.592  -1.505  0.00  0.00    -0.033 A 
ATOM      2  C1  UNL d   1      -3.411  -5.999  -2.793  0.00  0.00     0.039 A 
ATOM      3  C2  UNL d   1      -2.479  -5.926  -3.830  0.00  0.00    -0.080 A 
ATOM      4  C3  UNL d   1      -1.199  -5.446  -3.566  0.00  0.00     0.150 A 
ATOM      5  C4  UNL d   1      -0.840  -5.043  -2.284  0.00  0.00    -0.007 A 
ATOM      6  C5  UNL d   1      -1.772  -5.115  -1.250  0.00  0.00     0.039 A 
ENDROOT
BRANCH   4   7
ATOM      7  O   UNL d   1      -0.257  -5.352  -4.547  0.00  0.00    -0.526 OA
ATOM      8  H5  UNL d   1      -0.656  -5.639  -5.385  0.00  0.00     0.418 HD
ENDBRANCH   4   7
TORSDOF 1
ENDMDL
