MODEL 1
REMARK minimizedAffinity -3.89508438
REMARK minimizedRMSD -1
REMARK  1 active torsions:
REMARK  status: ('A' for Active; 'I' for Inactive)
REMARK    1  A    between atoms: C3_4  and  O_7 
ROOT
ATOM      1  C   UNL d   1       2.194  -5.057  -4.162  0.00  0.00    -0.033 A 
ATOM      2  C1  UNL d   1       1.207  -5.498  -3.278  0.00  0.00     0.039 A 
ATOM      3  C2  UNL d   1      -0.066  -5.818  -3.754  0.00  0.00    -0.080 A 
ATOM      4  C3  UNL d   1      -0.339  -5.694  -5.113  0.00  0.00     0.150 A 
ATOM      5  C4  UNL d   1       0.640  -5.258  -6.000  0.00  0.00    -0.007 A 
ATOM      6  C5  UNL d   1       1.911  -4.938  -5.523  0.00  0.00     0.039 A 
ENDROOT
BRANCH   4   7
ATOM      7  O   UNL d   1      -1.568  -5.990  -5.623  0.00  0.00    -0.526 OA
ATOM      8  H5  UNL d   1      -2.151  -6.249  -4.890  0.00  0.00     0.418 HD
ENDBRANCH   4   7
TORSDOF 1
ENDMDL
