MODEL 1
REMARK minimizedAffinity 3.61794615
REMARK minimizedRMSD -1
REMARK  1 active torsions:
REMARK  status: ('A' for Active; 'I' for Inactive)
REMARK    1  A    between atoms: C3_4  and  O_7 
ROOT
ATOM      1  C   UNL d   1      -4.694   1.237  -0.551  0.00  0.00    -0.033 A 
ATOM      2  C1  UNL d   1      -4.375  -0.071  -0.181  0.00  0.00     0.039 A 
ATOM      3  C2  UNL d   1      -4.536  -1.116  -1.094  0.00  0.00    -0.080 A 
ATOM      4  C3  UNL d   1      -5.017  -0.839  -2.371  0.00  0.00     0.150 A 
ATOM      5  C4  UNL d   1      -5.334   0.462  -2.747  0.00  0.00    -0.007 A 
ATOM      6  C5  UNL d   1      -5.172   1.503  -1.834  0.00  0.00     0.039 A 
ENDROOT
BRANCH   4   7
ATOM      7  O   UNL d   1      -5.196  -1.826  -3.294  0.00  0.00    -0.526 OA
ATOM      8  H5  UNL d   1      -4.963  -2.676  -2.885  0.00  0.00     0.418 HD
ENDBRANCH   4   7
TORSDOF 1
ENDMDL
