MODEL 1
REMARK minimizedAffinity 4.68458033
REMARK minimizedRMSD -1
REMARK  1 active torsions:
REMARK  status: ('A' for Active; 'I' for Inactive)
REMARK    1  A    between atoms: C3_4  and  O_7 
ROOT
ATOM      1  C   UNL d   1      -2.245  -5.236  -5.149  0.00  0.00    -0.033 A 
ATOM      2  C1  UNL d   1      -1.441  -5.998  -6.000  0.00  0.00     0.039 A 
ATOM      3  C2  UNL d   1      -0.052  -5.967  -5.863  0.00  0.00    -0.080 A 
ATOM      4  C3  UNL d   1       0.520  -5.173  -4.874  0.00  0.00     0.150 A 
ATOM      5  C4  UNL d   1      -0.275  -4.414  -4.021  0.00  0.00    -0.007 A 
ATOM      6  C5  UNL d   1      -1.661  -4.445  -4.159  0.00  0.00     0.039 A 
ENDROOT
BRANCH   4   7
ATOM      7  O   UNL d   1       1.871  -5.107  -4.705  0.00  0.00    -0.526 OA
ATOM      8  H5  UNL d   1       2.293  -5.660  -5.384  0.00  0.00     0.418 HD
ENDBRANCH   4   7
TORSDOF 1
ENDMDL
