MODEL 1
REMARK minimizedAffinity 5.47638464
REMARK minimizedRMSD -1
REMARK  0 active torsions:
REMARK  status: ('A' for Active; 'I' for Inactive)
ROOT
ATOM      1  C   UNL d   1       6.000   0.747   1.865  0.00  0.00    -0.002 A 
ATOM      2  C1  UNL d   1       5.999   1.985   1.237  0.00  0.00     0.010 A 
ATOM      3  C2  UNL d   1       4.843   2.468   0.621  0.00  0.00     0.041 A 
ATOM      4  C3  UNL d   1       3.676   1.680   0.649  0.00  0.00    -0.075 A 
ATOM      5  S   UNL d   1       2.143   2.068  -0.038  0.00  0.00     0.015 SA
ATOM      6  C4  UNL d   1       1.453   0.600   0.486  0.00  0.00     0.022 A 
ATOM      7  C5  UNL d   1       2.356  -0.179   1.170  0.00  0.00     0.026 A 
ATOM      8  C6  UNL d   1       3.652   0.431   1.275  0.00  0.00    -0.082 A 
ATOM      9  C7  UNL d   1       4.840  -0.032   1.890  0.00  0.00     0.045 A 
ENDROOT
TORSDOF 0
ENDMDL
