MODEL 1
REMARK minimizedAffinity 10.5644464
REMARK minimizedRMSD -1
REMARK  0 active torsions:
REMARK  status: ('A' for Active; 'I' for Inactive)
ROOT
ATOM      1  C   UNL d   1       4.857   3.029   0.023  0.00  0.00    -0.002 A 
ATOM      2  C1  UNL d   1       5.607   3.433   1.119  0.00  0.00     0.010 A 
ATOM      3  C2  UNL d   1       6.000   2.510   2.090  0.00  0.00     0.041 A 
ATOM      4  C3  UNL d   1       5.625   1.161   1.939  0.00  0.00    -0.075 A 
ATOM      5  S   UNL d   1       5.993  -0.146   3.002  0.00  0.00     0.015 SA
ATOM      6  C4  UNL d   1       5.165  -1.271   2.027  0.00  0.00     0.022 A 
ATOM      7  C5  UNL d   1       4.614  -0.682   0.914  0.00  0.00     0.026 A 
ATOM      8  C6  UNL d   1       4.870   0.729   0.844  0.00  0.00    -0.082 A 
ATOM      9  C7  UNL d   1       4.486   1.689  -0.123  0.00  0.00     0.045 A 
ENDROOT
TORSDOF 0
ENDMDL
