MODEL 1
REMARK minimizedAffinity 5.73954773
REMARK minimizedRMSD -1
REMARK  0 active torsions:
REMARK  status: ('A' for Active; 'I' for Inactive)
ROOT
ATOM      1  C   UNL d   1       3.987   2.326  -3.266  0.00  0.00    -0.002 A 
ATOM      2  C1  UNL d   1       5.199   2.804  -3.745  0.00  0.00     0.010 A 
ATOM      3  C2  UNL d   1       5.243   3.939  -4.558  0.00  0.00     0.041 A 
ATOM      4  C3  UNL d   1       4.038   4.592  -4.882  0.00  0.00    -0.075 A 
ATOM      5  S   UNL d   1       3.849   5.999  -5.860  0.00  0.00     0.015 SA
ATOM      6  C4  UNL d   1       2.156   6.000  -5.664  0.00  0.00     0.022 A 
ATOM      7  C5  UNL d   1       1.728   4.959  -4.874  0.00  0.00     0.026 A 
ATOM      8  C6  UNL d   1       2.806   4.131  -4.410  0.00  0.00    -0.082 A 
ATOM      9  C7  UNL d   1       2.794   2.977  -3.589  0.00  0.00     0.045 A 
ENDROOT
TORSDOF 0
ENDMDL
