MODEL 1
REMARK minimizedAffinity 17.0484829
REMARK minimizedRMSD -1
REMARK  0 active torsions:
REMARK  status: ('A' for Active; 'I' for Inactive)
ROOT
ATOM      1  C   UNL d   1       1.330   2.107   1.286  0.00  0.00    -0.002 A 
ATOM      2  C1  UNL d   1       1.782   0.892   1.782  0.00  0.00     0.010 A 
ATOM      3  C2  UNL d   1       2.853   0.232   1.177  0.00  0.00     0.041 A 
ATOM      4  C3  UNL d   1       3.470   0.821   0.055  0.00  0.00    -0.075 A 
ATOM      5  S   UNL d   1       4.799   0.195  -0.848  0.00  0.00     0.015 SA
ATOM      6  C4  UNL d   1       4.799   1.526  -1.912  0.00  0.00     0.022 A 
ATOM      7  C5  UNL d   1       3.815   2.435  -1.601  0.00  0.00     0.026 A 
ATOM      8  C6  UNL d   1       3.034   2.044  -0.462  0.00  0.00    -0.082 A 
ATOM      9  C7  UNL d   1       1.944   2.687   0.173  0.00  0.00     0.045 A 
ENDROOT
TORSDOF 0
ENDMDL
