MODEL 1
REMARK minimizedAffinity 10.9476986
REMARK minimizedRMSD -1
REMARK  0 active torsions:
REMARK  status: ('A' for Active; 'I' for Inactive)
ROOT
ATOM      1  C   UNL d   1       4.063   0.782   0.109  0.00  0.00    -0.002 A 
ATOM      2  C1  UNL d   1       4.344  -0.059   1.177  0.00  0.00     0.010 A 
ATOM      3  C2  UNL d   1       3.475  -0.136   2.268  0.00  0.00     0.041 A 
ATOM      4  C3  UNL d   1       2.308   0.652   2.266  0.00  0.00    -0.075 A 
ATOM      5  S   UNL d   1       1.098   0.721   3.493  0.00  0.00     0.015 SA
ATOM      6  C4  UNL d   1       0.180   1.867   2.628  0.00  0.00     0.022 A 
ATOM      7  C5  UNL d   1       0.767   2.200   1.431  0.00  0.00     0.026 A 
ATOM      8  C6  UNL d   1       2.003   1.505   1.202  0.00  0.00    -0.082 A 
ATOM      9  C7  UNL d   1       2.904   1.562   0.111  0.00  0.00     0.045 A 
ENDROOT
TORSDOF 0
ENDMDL
