MODEL 1
REMARK minimizedAffinity 15.6025724
REMARK minimizedRMSD -1
REMARK  0 active torsions:
REMARK  status: ('A' for Active; 'I' for Inactive)
ROOT
ATOM      1  C   UNL d   1       5.333   5.414   5.996  0.00  0.00    -0.002 A 
ATOM      2  C1  UNL d   1       5.979   4.202   5.795  0.00  0.00     0.010 A 
ATOM      3  C2  UNL d   1       5.897   3.550   4.563  0.00  0.00     0.041 A 
ATOM      4  C3  UNL d   1       5.151   4.143   3.526  0.00  0.00    -0.075 A 
ATOM      5  S   UNL d   1       4.912   3.527   1.934  0.00  0.00     0.015 SA
ATOM      6  C4  UNL d   1       3.949   4.859   1.482  0.00  0.00     0.022 A 
ATOM      7  C5  UNL d   1       3.803   5.761   2.509  0.00  0.00     0.026 A 
ATOM      8  C6  UNL d   1       4.493   5.363   3.704  0.00  0.00    -0.082 A 
ATOM      9  C7  UNL d   1       4.594   5.999   4.965  0.00  0.00     0.045 A 
ENDROOT
TORSDOF 0
ENDMDL
