MODEL 1
REMARK minimizedAffinity 24.0415688
REMARK minimizedRMSD -1
REMARK  0 active torsions:
REMARK  status: ('A' for Active; 'I' for Inactive)
ROOT
ATOM      1  C   UNL d   1      -2.264  -2.265   0.522  0.00  0.00    -0.002 A 
ATOM      2  C1  UNL d   1      -0.958  -2.693   0.715  0.00  0.00     0.010 A 
ATOM      3  C2  UNL d   1      -0.127  -2.953  -0.377  0.00  0.00     0.041 A 
ATOM      4  C3  UNL d   1      -0.635  -2.771  -1.678  0.00  0.00    -0.075 A 
ATOM      5  S   UNL d   1       0.200  -3.027  -3.165  0.00  0.00     0.015 SA
ATOM      6  C4  UNL d   1      -1.157  -2.572  -4.091  0.00  0.00     0.022 A 
ATOM      7  C5  UNL d   1      -2.229  -2.231  -3.302  0.00  0.00     0.026 A 
ATOM      8  C6  UNL d   1      -1.946  -2.340  -1.898  0.00  0.00    -0.082 A 
ATOM      9  C7  UNL d   1      -2.764  -2.086  -0.771  0.00  0.00     0.045 A 
ENDROOT
TORSDOF 0
ENDMDL
