MODEL 1
REMARK minimizedAffinity 21.0924664
REMARK minimizedRMSD -1
REMARK  0 active torsions:
REMARK  status: ('A' for Active; 'I' for Inactive)
ROOT
ATOM      1  C   UNL d   1      -2.956   0.270   2.605  0.00  0.00    -0.002 A 
ATOM      2  C1  UNL d   1      -3.530   1.451   3.056  0.00  0.00     0.010 A 
ATOM      3  C2  UNL d   1      -4.454   1.437   4.102  0.00  0.00     0.041 A 
ATOM      4  C3  UNL d   1      -4.794   0.206   4.696  0.00  0.00    -0.075 A 
ATOM      5  S   UNL d   1      -5.901  -0.054   5.992  0.00  0.00     0.015 SA
ATOM      6  C4  UNL d   1      -5.638  -1.737   5.979  0.00  0.00     0.022 A 
ATOM      7  C5  UNL d   1      -4.730  -2.110   5.015  0.00  0.00     0.026 A 
ATOM      8  C6  UNL d   1      -4.229  -0.996   4.260  0.00  0.00    -0.082 A 
ATOM      9  C7  UNL d   1      -3.296  -0.950   3.197  0.00  0.00     0.045 A 
ENDROOT
TORSDOF 0
ENDMDL
