MODEL 1
REMARK minimizedAffinity 8.39327621
REMARK minimizedRMSD -1
REMARK  0 active torsions:
REMARK  status: ('A' for Active; 'I' for Inactive)
ROOT
ATOM      1  C   UNL d   1       4.925   2.250  -3.122  0.00  0.00    -0.002 A 
ATOM      2  C1  UNL d   1       5.798   2.723  -4.091  0.00  0.00     0.010 A 
ATOM      3  C2  UNL d   1       5.376   3.673  -5.023  0.00  0.00     0.041 A 
ATOM      4  C3  UNL d   1       4.050   4.145  -4.963  0.00  0.00    -0.075 A 
ATOM      5  S   UNL d   1       3.313   5.309  -6.000  0.00  0.00     0.015 SA
ATOM      6  C4  UNL d   1       1.822   5.206  -5.180  0.00  0.00     0.022 A 
ATOM      7  C5  UNL d   1       1.868   4.310  -4.138  0.00  0.00     0.026 A 
ATOM      8  C6  UNL d   1       3.153   3.684  -3.995  0.00  0.00    -0.082 A 
ATOM      9  C7  UNL d   1       3.611   2.720  -3.065  0.00  0.00     0.045 A 
ENDROOT
TORSDOF 0
ENDMDL
