MODEL 1
REMARK minimizedAffinity 17.9056549
REMARK minimizedRMSD -1
REMARK  0 active torsions:
REMARK  status: ('A' for Active; 'I' for Inactive)
ROOT
ATOM      1  C   UNL d   1      -2.772  -6.000   1.637  0.00  0.00    -0.002 A 
ATOM      2  C1  UNL d   1      -1.862  -6.000   2.684  0.00  0.00     0.010 A 
ATOM      3  C2  UNL d   1      -1.119  -4.855   2.980  0.00  0.00     0.041 A 
ATOM      4  C3  UNL d   1      -1.309  -3.699   2.198  0.00  0.00    -0.075 A 
ATOM      5  S   UNL d   1      -0.511  -2.181   2.376  0.00  0.00     0.015 SA
ATOM      6  C4  UNL d   1      -1.360  -1.496   1.066  0.00  0.00     0.022 A 
ATOM      7  C5  UNL d   1      -2.235  -2.390   0.495  0.00  0.00     0.026 A 
ATOM      8  C6  UNL d   1      -2.220  -3.674   1.138  0.00  0.00    -0.082 A 
ATOM      9  C7  UNL d   1      -2.958  -4.851   0.864  0.00  0.00     0.045 A 
ENDROOT
TORSDOF 0
ENDMDL
