MODEL 1
REMARK minimizedAffinity 10.2343931
REMARK minimizedRMSD -1
REMARK  0 active torsions:
REMARK  status: ('A' for Active; 'I' for Inactive)
ROOT
ATOM      1  C   UNL d   1       3.357   0.362   0.633  0.00  0.00    -0.002 A 
ATOM      2  C1  UNL d   1       2.133   0.721   1.179  0.00  0.00     0.010 A 
ATOM      3  C2  UNL d   1       1.210   1.455   0.432  0.00  0.00     0.041 A 
ATOM      4  C3  UNL d   1       1.540   1.823  -0.887  0.00  0.00    -0.075 A 
ATOM      5  S   UNL d   1       0.566   2.721  -1.991  0.00  0.00     0.015 SA
ATOM      6  C4  UNL d   1       1.751   2.648  -3.213  0.00  0.00     0.022 A 
ATOM      7  C5  UNL d   1       2.869   1.959  -2.807  0.00  0.00     0.026 A 
ATOM      8  C6  UNL d   1       2.766   1.472  -1.460  0.00  0.00    -0.082 A 
ATOM      9  C7  UNL d   1       3.681   0.729  -0.676  0.00  0.00     0.045 A 
ENDROOT
TORSDOF 0
ENDMDL
