MODEL 1
REMARK minimizedAffinity 13.2929258
REMARK minimizedRMSD -1
REMARK  0 active torsions:
REMARK  status: ('A' for Active; 'I' for Inactive)
ROOT
ATOM      1  C   UNL d   1      -6.000   5.976   3.673  0.00  0.00    -0.002 A 
ATOM      2  C1  UNL d   1      -5.305   6.000   4.874  0.00  0.00     0.010 A 
ATOM      3  C2  UNL d   1      -4.478   4.935   5.237  0.00  0.00     0.041 A 
ATOM      4  C3  UNL d   1      -4.359   3.836   4.364  0.00  0.00    -0.075 A 
ATOM      5  S   UNL d   1      -3.404   2.420   4.600  0.00  0.00     0.015 SA
ATOM      6  C4  UNL d   1      -3.895   1.750   3.112  0.00  0.00     0.022 A 
ATOM      7  C5  UNL d   1      -4.767   2.573   2.439  0.00  0.00     0.026 A 
ATOM      8  C6  UNL d   1      -5.048   3.789   3.149  0.00  0.00    -0.082 A 
ATOM      9  C7  UNL d   1      -5.879   4.883   2.809  0.00  0.00     0.045 A 
ENDROOT
TORSDOF 0
ENDMDL
