MODEL 1
REMARK minimizedAffinity 3.42801666
REMARK minimizedRMSD -1
REMARK  0 active torsions:
REMARK  status: ('A' for Active; 'I' for Inactive)
ROOT
ATOM      1  C   UNL d   1       1.506   3.347  -5.247  0.00  0.00    -0.002 A 
ATOM      2  C1  UNL d   1       2.094   4.383  -5.959  0.00  0.00     0.010 A 
ATOM      3  C2  UNL d   1       3.483   4.520  -5.997  0.00  0.00     0.041 A 
ATOM      4  C3  UNL d   1       4.279   3.588  -5.302  0.00  0.00    -0.075 A 
ATOM      5  S   UNL d   1       6.000   3.556  -5.208  0.00  0.00     0.015 SA
ATOM      6  C4  UNL d   1       5.995   2.167  -4.221  0.00  0.00     0.022 A 
ATOM      7  C5  UNL d   1       4.720   1.724  -3.960  0.00  0.00     0.026 A 
ATOM      8  C6  UNL d   1       3.710   2.536  -4.579  0.00  0.00    -0.082 A 
ATOM      9  C7  UNL d   1       2.298   2.425  -4.559  0.00  0.00     0.045 A 
ENDROOT
TORSDOF 0
ENDMDL
