MODEL 1
REMARK minimizedAffinity 12.4748955
REMARK minimizedRMSD -1
REMARK  0 active torsions:
REMARK  status: ('A' for Active; 'I' for Inactive)
ROOT
ATOM      1  C   UNL d   1       5.312   1.942  -2.996  0.00  0.00    -0.002 A 
ATOM      2  C1  UNL d   1       5.994   2.398  -4.115  0.00  0.00     0.010 A 
ATOM      3  C2  UNL d   1       5.334   3.141  -5.096  0.00  0.00     0.041 A 
ATOM      4  C3  UNL d   1       3.963   3.422  -4.930  0.00  0.00    -0.075 A 
ATOM      5  S   UNL d   1       2.948   4.315  -6.000  0.00  0.00     0.015 SA
ATOM      6  C4  UNL d   1       1.585   4.112  -4.996  0.00  0.00     0.022 A 
ATOM      7  C5  UNL d   1       1.880   3.384  -3.868  0.00  0.00     0.026 A 
ATOM      8  C6  UNL d   1       3.255   2.974  -3.811  0.00  0.00    -0.082 A 
ATOM      9  C7  UNL d   1       3.953   2.223  -2.835  0.00  0.00     0.045 A 
ENDROOT
TORSDOF 0
ENDMDL
