MODEL 1
REMARK minimizedAffinity -0.354605913
REMARK minimizedRMSD -1
REMARK  0 active torsions:
REMARK  status: ('A' for Active; 'I' for Inactive)
ROOT
ATOM      1  C   UNL d   1       3.749   2.019  -3.462  0.00  0.00    -0.002 A 
ATOM      2  C1  UNL d   1       4.993   2.629  -3.368  0.00  0.00     0.010 A 
ATOM      3  C2  UNL d   1       5.225   3.865  -3.974  0.00  0.00     0.041 A 
ATOM      4  C3  UNL d   1       4.176   4.485  -4.681  0.00  0.00    -0.075 A 
ATOM      5  S   UNL d   1       4.230   6.000  -5.503  0.00  0.00     0.015 SA
ATOM      6  C4  UNL d   1       2.604   5.874  -5.997  0.00  0.00     0.022 A 
ATOM      7  C5  UNL d   1       2.019   4.711  -5.556  0.00  0.00     0.026 A 
ATOM      8  C6  UNL d   1       2.916   3.891  -4.789  0.00  0.00    -0.082 A 
ATOM      9  C7  UNL d   1       2.712   2.637  -4.165  0.00  0.00     0.045 A 
ENDROOT
TORSDOF 0
ENDMDL
