MODEL 1
REMARK minimizedAffinity 6.61769962
REMARK minimizedRMSD -1
REMARK  0 active torsions:
REMARK  status: ('A' for Active; 'I' for Inactive)
ROOT
ATOM      1  C   UNL d   1       5.996   3.046  -1.748  0.00  0.00     0.023 A 
ATOM      2  C1  UNL d   1       5.107   2.372  -2.586  0.00  0.00     0.003 A 
ATOM      3  C2  UNL d   1       4.073   1.608  -2.040  0.00  0.00     0.048 A 
ATOM      4  C3  UNL d   1       3.933   1.524  -0.655  0.00  0.00     0.023 A 
ATOM      5  C4  UNL d   1       4.819   2.198   0.187  0.00  0.00     0.048 A 
ATOM      6  C5  UNL d   1       5.852   2.959  -0.364  0.00  0.00     0.003 A 
ATOM      7  I   UNL d   1       2.395   0.389   0.160  0.00  0.00    -0.146 I 
ENDROOT
TORSDOF 0
ENDMDL
