MODEL 1
REMARK minimizedAffinity 11.0845652
REMARK minimizedRMSD -1
REMARK  0 active torsions:
REMARK  status: ('A' for Active; 'I' for Inactive)
ROOT
ATOM      1  C   UNL d   1      -1.875  -1.499  -3.958  0.00  0.00     0.023 A 
ATOM      2  C1  UNL d   1      -1.497  -2.759  -3.494  0.00  0.00     0.003 A 
ATOM      3  C2  UNL d   1      -2.032  -3.909  -4.078  0.00  0.00     0.048 A 
ATOM      4  C3  UNL d   1      -2.943  -3.792  -5.126  0.00  0.00     0.023 A 
ATOM      5  C4  UNL d   1      -3.324  -2.533  -5.595  0.00  0.00     0.048 A 
ATOM      6  C5  UNL d   1      -2.787  -1.386  -5.007  0.00  0.00     0.003 A 
ATOM      7  I   UNL d   1      -3.741  -5.502  -5.997  0.00  0.00    -0.146 I 
ENDROOT
TORSDOF 0
ENDMDL
