MODEL 1
REMARK minimizedAffinity 1.72668779
REMARK minimizedRMSD -1
REMARK  0 active torsions:
REMARK  status: ('A' for Active; 'I' for Inactive)
ROOT
ATOM      1  C   UNL d   1       2.698   1.129   0.630  0.00  0.00     0.023 A 
ATOM      2  C1  UNL d   1       2.588   0.942  -0.748  0.00  0.00     0.003 A 
ATOM      3  C2  UNL d   1       3.534   1.503  -1.608  0.00  0.00     0.048 A 
ATOM      4  C3  UNL d   1       4.589   2.249  -1.083  0.00  0.00     0.023 A 
ATOM      5  C4  UNL d   1       4.704   2.437   0.296  0.00  0.00     0.048 A 
ATOM      6  C5  UNL d   1       3.755   1.875   1.151  0.00  0.00     0.003 A 
ATOM      7  I   UNL d   1       5.999   3.085  -2.360  0.00  0.00    -0.146 I 
ENDROOT
TORSDOF 0
ENDMDL
