MODEL 1
REMARK minimizedAffinity 6.87010288
REMARK minimizedRMSD -1
REMARK  0 active torsions:
REMARK  status: ('A' for Active; 'I' for Inactive)
ROOT
ATOM      1  C   UNL d   1       2.842   0.454   0.463  0.00  0.00     0.023 A 
ATOM      2  C1  UNL d   1       3.727   1.256   1.186  0.00  0.00     0.003 A 
ATOM      3  C2  UNL d   1       4.633   2.078   0.514  0.00  0.00     0.048 A 
ATOM      4  C3  UNL d   1       4.650   2.095  -0.881  0.00  0.00     0.023 A 
ATOM      5  C4  UNL d   1       3.766   1.295  -1.607  0.00  0.00     0.048 A 
ATOM      6  C5  UNL d   1       2.862   0.474  -0.931  0.00  0.00     0.003 A 
ATOM      7  I   UNL d   1       5.999   3.317  -1.883  0.00  0.00    -0.146 I 
ENDROOT
TORSDOF 0
ENDMDL
