MODEL 1
REMARK minimizedAffinity 3.32919931
REMARK minimizedRMSD -1
REMARK  0 active torsions:
REMARK  status: ('A' for Active; 'I' for Inactive)
ROOT
ATOM      1  C   UNL d   1       4.864  -0.754   6.000  0.00  0.00     0.023 A 
ATOM      2  C1  UNL d   1       5.652  -1.081   4.896  0.00  0.00     0.003 A 
ATOM      3  C2  UNL d   1       5.100  -1.069   3.614  0.00  0.00     0.048 A 
ATOM      4  C3  UNL d   1       3.759  -0.728   3.442  0.00  0.00     0.023 A 
ATOM      5  C4  UNL d   1       2.966  -0.400   4.543  0.00  0.00     0.048 A 
ATOM      6  C5  UNL d   1       3.522  -0.415   5.823  0.00  0.00     0.003 A 
ATOM      7  I   UNL d   1       2.934  -0.709   1.534  0.00  0.00    -0.146 I 
ENDROOT
TORSDOF 0
ENDMDL
