MODEL 1
REMARK minimizedAffinity -0.534574389
REMARK minimizedRMSD -1
REMARK  0 active torsions:
REMARK  status: ('A' for Active; 'I' for Inactive)
ROOT
ATOM      1  C   UNL d   1       3.008   1.073  -0.001  0.00  0.00     0.023 A 
ATOM      2  C1  UNL d   1       3.912   1.872   0.699  0.00  0.00     0.003 A 
ATOM      3  C2  UNL d   1       4.771   2.728   0.007  0.00  0.00     0.048 A 
ATOM      4  C3  UNL d   1       4.721   2.780  -1.386  0.00  0.00     0.023 A 
ATOM      5  C4  UNL d   1       3.818   1.982  -2.090  0.00  0.00     0.048 A 
ATOM      6  C5  UNL d   1       2.961   1.128  -1.394  0.00  0.00     0.003 A 
ATOM      7  I   UNL d   1       5.999   4.052  -2.418  0.00  0.00    -0.146 I 
ENDROOT
TORSDOF 0
ENDMDL
