MODEL 1
REMARK minimizedAffinity 8.29319763
REMARK minimizedRMSD -1
REMARK  0 active torsions:
REMARK  status: ('A' for Active; 'I' for Inactive)
ROOT
ATOM      1  C   UNL d   1       2.655   1.612  -0.529  0.00  0.00     0.023 A 
ATOM      2  C1  UNL d   1       3.595   1.671   0.501  0.00  0.00     0.003 A 
ATOM      3  C2  UNL d   1       3.232   2.177   1.751  0.00  0.00     0.048 A 
ATOM      4  C3  UNL d   1       1.928   2.622   1.965  0.00  0.00     0.023 A 
ATOM      5  C4  UNL d   1       0.984   2.564   0.938  0.00  0.00     0.048 A 
ATOM      6  C5  UNL d   1       1.352   2.058  -0.310  0.00  0.00     0.003 A 
ATOM      7  I   UNL d   1       1.386   3.375   3.824  0.00  0.00    -0.146 I 
ENDROOT
TORSDOF 0
ENDMDL
