MODEL 1
REMARK minimizedAffinity 7.02291441
REMARK minimizedRMSD -1
REMARK  0 active torsions:
REMARK  status: ('A' for Active; 'I' for Inactive)
ROOT
ATOM      1  C   UNL d   1       3.011   0.762   0.353  0.00  0.00     0.023 A 
ATOM      2  C1  UNL d   1       4.053   1.506   0.906  0.00  0.00     0.003 A 
ATOM      3  C2  UNL d   1       4.912   2.230   0.078  0.00  0.00     0.048 A 
ATOM      4  C3  UNL d   1       4.722   2.208  -1.304  0.00  0.00     0.023 A 
ATOM      5  C4  UNL d   1       3.680   1.466  -1.862  0.00  0.00     0.048 A 
ATOM      6  C5  UNL d   1       2.824   0.742  -1.029  0.00  0.00     0.003 A 
ATOM      7  I   UNL d   1       5.999   3.286  -2.539  0.00  0.00    -0.146 I 
ENDROOT
TORSDOF 0
ENDMDL
