MODEL 1
REMARK minimizedAffinity 4.87938023
REMARK minimizedRMSD -1
REMARK  0 active torsions:
REMARK  status: ('A' for Active; 'I' for Inactive)
ROOT
ATOM      1  C   UNL d   1       1.342   3.836   1.547  0.00  0.00     0.023 A 
ATOM      2  C1  UNL d   1       2.598   3.357   1.921  0.00  0.00     0.003 A 
ATOM      3  C2  UNL d   1       2.761   2.703   3.144  0.00  0.00     0.048 A 
ATOM      4  C3  UNL d   1       1.664   2.532   3.988  0.00  0.00     0.023 A 
ATOM      5  C4  UNL d   1       0.406   3.009   3.618  0.00  0.00     0.048 A 
ATOM      6  C5  UNL d   1       0.248   3.663   2.395  0.00  0.00     0.003 A 
ATOM      7  I   UNL d   1       1.905   1.559   5.809  0.00  0.00    -0.146 I 
ENDROOT
TORSDOF 0
ENDMDL
