MODEL 1
REMARK minimizedAffinity 5.81960917
REMARK minimizedRMSD -1
REMARK  1 active torsions:
REMARK  status: ('A' for Active; 'I' for Inactive)
REMARK    1  A    between atoms: C3_4  and  O_7 
ROOT
ATOM      1  C   UNL d   1       5.991   3.863   0.892  0.00  0.00    -0.033 A 
ATOM      2  C1  UNL d   1       5.999   3.023  -0.223  0.00  0.00     0.039 A 
ATOM      3  C2  UNL d   1       5.987   1.636  -0.055  0.00  0.00    -0.080 A 
ATOM      4  C3  UNL d   1       5.965   1.104   1.231  0.00  0.00     0.150 A 
ATOM      5  C4  UNL d   1       5.953   1.935   2.346  0.00  0.00    -0.007 A 
ATOM      6  C5  UNL d   1       5.966   3.319   2.177  0.00  0.00     0.039 A 
ENDROOT
BRANCH   4   7
ATOM      7  O   UNL d   1       5.958  -0.242   1.445  0.00  0.00    -0.526 OA
ATOM      8  H5  UNL d   1       5.997  -0.691   0.584  0.00  0.00     0.418 HD
ENDBRANCH   4   7
TORSDOF 1
ENDMDL
