MODEL 1
REMARK minimizedAffinity 2.91859937
REMARK minimizedRMSD -1
REMARK  1 active torsions:
REMARK  status: ('A' for Active; 'I' for Inactive)
REMARK    1  A    between atoms: C3_4  and  O_7 
ROOT
ATOM      1  C   UNL d   1       5.981  -0.018  -0.794  0.00  0.00    -0.033 A 
ATOM      2  C1  UNL d   1       5.985   1.378  -0.791  0.00  0.00     0.039 A 
ATOM      3  C2  UNL d   1       5.993   2.075   0.419  0.00  0.00    -0.080 A 
ATOM      4  C3  UNL d   1       5.997   1.365   1.617  0.00  0.00     0.150 A 
ATOM      5  C4  UNL d   1       5.997  -0.026   1.621  0.00  0.00    -0.007 A 
ATOM      6  C5  UNL d   1       5.988  -0.720   0.412  0.00  0.00     0.039 A 
ENDROOT
BRANCH   4   7
ATOM      7  O   UNL d   1       6.000   2.002   2.822  0.00  0.00    -0.526 OA
ATOM      8  H5  UNL d   1       5.970   2.960   2.665  0.00  0.00     0.418 HD
ENDBRANCH   4   7
TORSDOF 1
ENDMDL
