MODEL 1
REMARK minimizedAffinity 2.41866088
REMARK minimizedRMSD -1
REMARK  1 active torsions:
REMARK  status: ('A' for Active; 'I' for Inactive)
REMARK    1  A    between atoms: C3_4  and  O_7 
ROOT
ATOM      1  C   UNL d   1       0.675  -1.530   1.699  0.00  0.00    -0.033 A 
ATOM      2  C1  UNL d   1       0.100  -2.559   2.446  0.00  0.00     0.039 A 
ATOM      3  C2  UNL d   1       0.716  -3.810   2.505  0.00  0.00    -0.080 A 
ATOM      4  C3  UNL d   1       1.906  -4.019   1.814  0.00  0.00     0.150 A 
ATOM      5  C4  UNL d   1       2.487  -2.997   1.070  0.00  0.00    -0.007 A 
ATOM      6  C5  UNL d   1       1.870  -1.749   1.012  0.00  0.00     0.039 A 
ENDROOT
BRANCH   4   7
ATOM      7  O   UNL d   1       2.541  -5.225   1.837  0.00  0.00    -0.526 OA
ATOM      8  H5  UNL d   1       2.010  -5.843   2.367  0.00  0.00     0.418 HD
ENDBRANCH   4   7
TORSDOF 1
ENDMDL
