MODEL 1
REMARK minimizedAffinity 3.6544559
REMARK minimizedRMSD -1
REMARK  1 active torsions:
REMARK  status: ('A' for Active; 'I' for Inactive)
REMARK    1  A    between atoms: C3_4  and  O_7 
ROOT
ATOM      1  C   UNL d   1      -1.136   3.028  -4.148  0.00  0.00    -0.033 A 
ATOM      2  C1  UNL d   1      -1.416   3.163  -2.787  0.00  0.00     0.039 A 
ATOM      3  C2  UNL d   1      -1.383   2.045  -1.951  0.00  0.00    -0.080 A 
ATOM      4  C3  UNL d   1      -1.068   0.800  -2.487  0.00  0.00     0.150 A 
ATOM      5  C4  UNL d   1      -0.784   0.658  -3.842  0.00  0.00    -0.007 A 
ATOM      6  C5  UNL d   1      -0.819   1.776  -4.675  0.00  0.00     0.039 A 
ENDROOT
BRANCH   4   7
ATOM      7  O   UNL d   1      -1.029  -0.321  -1.712  0.00  0.00    -0.526 OA
ATOM      8  H5  UNL d   1      -1.275  -0.076  -0.804  0.00  0.00     0.418 HD
ENDBRANCH   4   7
TORSDOF 1
ENDMDL
