MODEL 1
REMARK minimizedAffinity 0.411408037
REMARK minimizedRMSD -1
REMARK  1 active torsions:
REMARK  status: ('A' for Active; 'I' for Inactive)
REMARK    1  A    between atoms: C3_4  and  O_7 
ROOT
ATOM      1  C   UNL d   1       5.999   1.217   1.150  0.00  0.00    -0.033 A 
ATOM      2  C1  UNL d   1       6.000   2.406   1.884  0.00  0.00     0.039 A 
ATOM      3  C2  UNL d   1       4.793   2.975   2.295  0.00  0.00    -0.080 A 
ATOM      4  C3  UNL d   1       3.594   2.347   1.967  0.00  0.00     0.150 A 
ATOM      5  C4  UNL d   1       3.586   1.161   1.240  0.00  0.00    -0.007 A 
ATOM      6  C5  UNL d   1       4.792   0.595   0.830  0.00  0.00     0.039 A 
ENDROOT
BRANCH   4   7
ATOM      7  O   UNL d   1       2.392   2.868   2.342  0.00  0.00    -0.526 OA
ATOM      8  H5  UNL d   1       2.551   3.703   2.813  0.00  0.00     0.418 HD
ENDBRANCH   4   7
TORSDOF 1
ENDMDL
