MODEL 1
REMARK minimizedAffinity 2.31199861
REMARK minimizedRMSD -1
REMARK  1 active torsions:
REMARK  status: ('A' for Active; 'I' for Inactive)
REMARK    1  A    between atoms: C3_4  and  O_7 
ROOT
ATOM      1  C   UNL d   1       5.996   0.385  -0.390  0.00  0.00    -0.033 A 
ATOM      2  C1  UNL d   1       5.991  -0.296   0.829  0.00  0.00     0.039 A 
ATOM      3  C2  UNL d   1       5.991   0.417   2.029  0.00  0.00    -0.080 A 
ATOM      4  C3  UNL d   1       5.995   1.809   1.997  0.00  0.00     0.150 A 
ATOM      5  C4  UNL d   1       5.996   2.494   0.786  0.00  0.00    -0.007 A 
ATOM      6  C5  UNL d   1       5.997   1.780  -0.411  0.00  0.00     0.039 A 
ENDROOT
BRANCH   4   7
ATOM      7  O   UNL d   1       6.000   2.548   3.143  0.00  0.00    -0.526 OA
ATOM      8  H5  UNL d   1       6.027   1.941   3.901  0.00  0.00     0.418 HD
ENDBRANCH   4   7
TORSDOF 1
ENDMDL
