MODEL 1
REMARK minimizedAffinity 0.755363047
REMARK minimizedRMSD -1
REMARK  1 active torsions:
REMARK  status: ('A' for Active; 'I' for Inactive)
REMARK    1  A    between atoms: C3_4  and  O_7 
ROOT
ATOM      1  C   UNL d   1       2.248   2.631   2.663  0.00  0.00    -0.033 A 
ATOM      2  C1  UNL d   1       3.374   2.650   3.488  0.00  0.00     0.039 A 
ATOM      3  C2  UNL d   1       4.646   2.478   2.939  0.00  0.00    -0.080 A 
ATOM      4  C3  UNL d   1       4.779   2.290   1.566  0.00  0.00     0.150 A 
ATOM      5  C4  UNL d   1       3.662   2.275   0.738  0.00  0.00    -0.007 A 
ATOM      6  C5  UNL d   1       2.392   2.445   1.287  0.00  0.00     0.039 A 
ENDROOT
BRANCH   4   7
ATOM      7  O   UNL d   1       6.000   2.114   0.986  0.00  0.00    -0.526 OA
ATOM      8  H5  UNL d   1       6.676   2.120   1.684  0.00  0.00     0.418 HD
ENDBRANCH   4   7
TORSDOF 1
ENDMDL
