MODEL 1
REMARK minimizedAffinity 1.47073734
REMARK minimizedRMSD -1
REMARK  1 active torsions:
REMARK  status: ('A' for Active; 'I' for Inactive)
REMARK    1  A    between atoms: C3_4  and  O_7 
ROOT
ATOM      1  C   UNL d   1       5.985   0.857  -0.765  0.00  0.00    -0.033 A 
ATOM      2  C1  UNL d   1       5.994  -0.539  -0.771  0.00  0.00     0.039 A 
ATOM      3  C2  UNL d   1       6.000  -1.234  -1.982  0.00  0.00    -0.080 A 
ATOM      4  C3  UNL d   1       5.998  -0.522  -3.178  0.00  0.00     0.150 A 
ATOM      5  C4  UNL d   1       5.993   0.869  -3.180  0.00  0.00    -0.007 A 
ATOM      6  C5  UNL d   1       5.986   1.561  -1.970  0.00  0.00     0.039 A 
ENDROOT
BRANCH   4   7
ATOM      7  O   UNL d   1       5.999  -1.157  -4.385  0.00  0.00    -0.526 OA
ATOM      8  H5  UNL d   1       5.974  -2.115  -4.228  0.00  0.00     0.418 HD
ENDBRANCH   4   7
TORSDOF 1
ENDMDL
