MODEL 1
REMARK minimizedAffinity -3.69384861
REMARK minimizedRMSD -1
REMARK  1 active torsions:
REMARK  status: ('A' for Active; 'I' for Inactive)
REMARK    1  A    between atoms: C3_4  and  O_7 
ROOT
ATOM      1  C   UNL d   1       4.194  -5.999   4.560  0.00  0.00    -0.033 A 
ATOM      2  C1  UNL d   1       5.238  -5.957   5.487  0.00  0.00     0.039 A 
ATOM      3  C2  UNL d   1       5.685  -4.731   5.984  0.00  0.00    -0.080 A 
ATOM      4  C3  UNL d   1       5.080  -3.556   5.547  0.00  0.00     0.150 A 
ATOM      5  C4  UNL d   1       4.037  -3.590   4.627  0.00  0.00    -0.007 A 
ATOM      6  C5  UNL d   1       3.593  -4.815   4.131  0.00  0.00     0.039 A 
ENDROOT
BRANCH   4   7
ATOM      7  O   UNL d   1       5.485  -2.335   6.000  0.00  0.00    -0.526 OA
ATOM      8  H5  UNL d   1       6.232  -2.465   6.608  0.00  0.00     0.418 HD
ENDBRANCH   4   7
TORSDOF 1
ENDMDL
