MODEL 1
REMARK minimizedAffinity 0.35057193
REMARK minimizedRMSD -1
REMARK  1 active torsions:
REMARK  status: ('A' for Active; 'I' for Inactive)
REMARK    1  A    between atoms: C3_4  and  O_7 
ROOT
ATOM      1  C   UNL d   1       5.989   0.884  -4.172  0.00  0.00    -0.033 A 
ATOM      2  C1  UNL d   1       5.995   2.081  -3.453  0.00  0.00     0.039 A 
ATOM      3  C2  UNL d   1       6.000   2.059  -2.057  0.00  0.00    -0.080 A 
ATOM      4  C3  UNL d   1       5.999   0.835  -1.393  0.00  0.00     0.150 A 
ATOM      5  C4  UNL d   1       5.997  -0.361  -2.103  0.00  0.00    -0.007 A 
ATOM      6  C5  UNL d   1       5.992  -0.337  -3.497  0.00  0.00     0.039 A 
ENDROOT
BRANCH   4   7
ATOM      7  O   UNL d   1       5.999   0.763  -0.032  0.00  0.00    -0.526 OA
ATOM      8  H5  UNL d   1       5.972   1.667   0.324  0.00  0.00     0.418 HD
ENDBRANCH   4   7
TORSDOF 1
ENDMDL
