MODEL 1
REMARK minimizedAffinity -3.1701746
REMARK minimizedRMSD -1
REMARK  0 active torsions:
REMARK  status: ('A' for Active; 'I' for Inactive)
ROOT
ATOM      1  C2' OXE d   1       2.421   0.371   0.873  0.00  0.00     0.078 C 
ATOM      2  C1' OXE d   1       0.853   2.395  -0.279  0.00  0.00     0.078 C 
ATOM      3  C1  OXE d   1       0.166   1.110   0.114  0.00  0.00    -0.078 A 
ATOM      4  C2  OXE d   1       0.950   0.108   0.634  0.00  0.00    -0.078 A 
ATOM      5  C3  OXE d   1       0.358  -1.077   1.063  0.00  0.00     0.003 A 
ATOM      6  C4  OXE d   1      -1.001  -1.316   0.829  0.00  0.00    -0.002 A 
ATOM      7  C5  OXE d   1      -1.810  -0.323   0.265  0.00  0.00    -0.002 A 
ATOM      8  C6  OXE d   1      -1.251   0.908  -0.059  0.00  0.00     0.003 A 
ENDROOT
TORSDOF 0
ENDMDL
