MODEL 1
REMARK minimizedAffinity -6.06808233
REMARK minimizedRMSD -1
REMARK  0 active torsions:
REMARK  status: ('A' for Active; 'I' for Inactive)
ROOT
ATOM      1  C2' OXE d   1       0.324   1.132   0.004  0.00  0.00     0.078 C 
ATOM      2  C1' OXE d   1      -1.254  -1.023   0.867  0.00  0.00     0.078 C 
ATOM      3  C1  OXE d   1       0.230  -1.088   1.130  0.00  0.00    -0.078 A 
ATOM      4  C2  OXE d   1       1.001  -0.050   0.663  0.00  0.00    -0.078 A 
ATOM      5  C3  OXE d   1       2.367  -0.033   0.927  0.00  0.00     0.003 A 
ATOM      6  C4  OXE d   1       2.987  -1.136   1.528  0.00  0.00    -0.002 A 
ATOM      7  C5  OXE d   1       2.226  -2.221   1.976  0.00  0.00    -0.002 A 
ATOM      8  C6  OXE d   1       0.844  -2.193   1.823  0.00  0.00     0.003 A 
ENDROOT
TORSDOF 0
ENDMDL
