MODEL 1
REMARK minimizedAffinity -0.368356019
REMARK minimizedRMSD -1
REMARK  0 active torsions:
REMARK  status: ('A' for Active; 'I' for Inactive)
ROOT
ATOM      1  C2' OXE d   1       3.071  -0.438   0.879  0.00  0.00     0.078 C 
ATOM      2  C1' OXE d   1       1.152  -2.467   1.157  0.00  0.00     0.078 C 
ATOM      3  C1  OXE d   1       0.666  -1.082   0.809  0.00  0.00    -0.078 A 
ATOM      4  C2  OXE d   1       1.608  -0.086   0.721  0.00  0.00    -0.078 A 
ATOM      5  C3  OXE d   1       1.220   1.198   0.349  0.00  0.00     0.003 A 
ATOM      6  C4  OXE d   1      -0.137   1.518   0.214  0.00  0.00    -0.002 A 
ATOM      7  C5  OXE d   1      -1.116   0.526   0.339  0.00  0.00    -0.002 A 
ATOM      8  C6  OXE d   1      -0.729  -0.785   0.594  0.00  0.00     0.003 A 
ENDROOT
TORSDOF 0
ENDMDL
