MODEL 1
REMARK minimizedAffinity -5.57922935
REMARK minimizedRMSD -1
REMARK  0 active torsions:
REMARK  status: ('A' for Active; 'I' for Inactive)
ROOT
ATOM      1  C2' OXE d   1       0.876   1.460   0.059  0.00  0.00     0.078 C 
ATOM      2  C1' OXE d   1      -0.849  -0.434   1.207  0.00  0.00     0.078 C 
ATOM      3  C1  OXE d   1       0.634  -0.698   1.279  0.00  0.00    -0.078 A 
ATOM      4  C2  OXE d   1       1.468   0.210   0.674  0.00  0.00    -0.078 A 
ATOM      5  C3  OXE d   1       2.847   0.043   0.758  0.00  0.00     0.003 A 
ATOM      6  C4  OXE d   1       3.387  -1.121   1.320  0.00  0.00    -0.002 A 
ATOM      7  C5  OXE d   1       2.553  -2.079   1.906  0.00  0.00    -0.002 A 
ATOM      8  C6  OXE d   1       1.180  -1.863   1.932  0.00  0.00     0.003 A 
ENDROOT
TORSDOF 0
ENDMDL
