MODEL 1
REMARK minimizedAffinity -3.13418865
REMARK minimizedRMSD -1
REMARK  0 active torsions:
REMARK  status: ('A' for Active; 'I' for Inactive)
ROOT
ATOM      1  C2' OXE d   1       3.230  -0.764   1.455  0.00  0.00     0.078 C 
ATOM      2  C1' OXE d   1       0.873  -2.272   1.683  0.00  0.00     0.078 C 
ATOM      3  C1  OXE d   1       0.783  -0.924   1.012  0.00  0.00    -0.078 A 
ATOM      4  C2  OXE d   1       1.932  -0.173   0.947  0.00  0.00    -0.078 A 
ATOM      5  C3  OXE d   1       1.916   1.054   0.290  0.00  0.00     0.003 A 
ATOM      6  C4  OXE d   1       0.710   1.598  -0.167  0.00  0.00    -0.002 A 
ATOM      7  C5  OXE d   1      -0.479   0.867  -0.075  0.00  0.00    -0.002 A 
ATOM      8  C6  OXE d   1      -0.452  -0.411   0.472  0.00  0.00     0.003 A 
ENDROOT
TORSDOF 0
ENDMDL
