MODEL 1
REMARK minimizedAffinity -4.02110767
REMARK minimizedRMSD -1
REMARK  0 active torsions:
REMARK  status: ('A' for Active; 'I' for Inactive)
ROOT
ATOM      1  C2' OXE d   1      -0.840   0.102  -0.890  0.00  0.00     0.078 C 
ATOM      2  C1' OXE d   1       1.375   1.733  -1.448  0.00  0.00     0.078 C 
ATOM      3  C1  OXE d   1       1.585   0.550  -0.537  0.00  0.00    -0.078 A 
ATOM      4  C2  OXE d   1       0.485  -0.215  -0.232  0.00  0.00    -0.078 A 
ATOM      5  C3  OXE d   1       0.633  -1.350   0.561  0.00  0.00     0.003 A 
ATOM      6  C4  OXE d   1       1.860  -1.631   1.174  0.00  0.00    -0.002 A 
ATOM      7  C5  OXE d   1       2.984  -0.842   0.908  0.00  0.00    -0.002 A 
ATOM      8  C6  OXE d   1       2.873   0.226   0.024  0.00  0.00     0.003 A 
ENDROOT
TORSDOF 0
ENDMDL
