MODEL 1
REMARK minimizedAffinity -2.42071986
REMARK minimizedRMSD -1
REMARK  0 active torsions:
REMARK  status: ('A' for Active; 'I' for Inactive)
ROOT
ATOM      1  C2' OXE d   1      -0.055  -1.781   1.290  0.00  0.00     0.078 C 
ATOM      2  C1' OXE d   1      -0.939   0.626   0.149  0.00  0.00     0.078 C 
ATOM      3  C1  OXE d   1       0.548   0.378   0.202  0.00  0.00    -0.078 A 
ATOM      4  C2  OXE d   1       0.973  -0.782   0.805  0.00  0.00    -0.078 A 
ATOM      5  C3  OXE d   1       2.331  -1.086   0.832  0.00  0.00     0.003 A 
ATOM      6  C4  OXE d   1       3.276  -0.152   0.390  0.00  0.00    -0.002 A 
ATOM      7  C5  OXE d   1       2.865   1.053  -0.191  0.00  0.00    -0.002 A 
ATOM      8  C6  OXE d   1       1.507   1.313  -0.331  0.00  0.00     0.003 A 
ENDROOT
TORSDOF 0
ENDMDL
