MODEL 1
REMARK minimizedAffinity -3.381001
REMARK minimizedRMSD -1
REMARK  0 active torsions:
REMARK  status: ('A' for Active; 'I' for Inactive)
ROOT
ATOM      1  C2' OXE d   1      -1.447   0.031   0.191  0.00  0.00     0.078 C 
ATOM      2  C1' OXE d   1      -0.204  -2.144   1.457  0.00  0.00     0.078 C 
ATOM      3  C1  OXE d   1       0.667  -0.993   1.020  0.00  0.00    -0.078 A 
ATOM      4  C2  OXE d   1       0.057   0.046   0.359  0.00  0.00    -0.078 A 
ATOM      5  C3  OXE d   1       0.805   1.158  -0.017  0.00  0.00     0.003 A 
ATOM      6  C4  OXE d   1       2.197   1.159   0.133  0.00  0.00    -0.002 A 
ATOM      7  C5  OXE d   1       2.844   0.093   0.768  0.00  0.00    -0.002 A 
ATOM      8  C6  OXE d   1       2.089  -0.969   1.254  0.00  0.00     0.003 A 
ENDROOT
TORSDOF 0
ENDMDL
