MODEL 1
REMARK minimizedAffinity -4.99028158
REMARK minimizedRMSD -1
REMARK  0 active torsions:
REMARK  status: ('A' for Active; 'I' for Inactive)
ROOT
ATOM      1  C2' OXE d   1       0.774   2.319  -0.119  0.00  0.00     0.078 C 
ATOM      2  C1' OXE d   1      -0.969   0.129  -0.329  0.00  0.00     0.078 C 
ATOM      3  C1  OXE d   1       0.430  -0.131   0.170  0.00  0.00    -0.078 A 
ATOM      4  C2  OXE d   1       1.291   0.939   0.226  0.00  0.00    -0.078 A 
ATOM      5  C3  OXE d   1       2.576   0.764   0.731  0.00  0.00     0.003 A 
ATOM      6  C4  OXE d   1       3.049  -0.517   1.037  0.00  0.00    -0.002 A 
ATOM      7  C5  OXE d   1       2.201  -1.627   0.950  0.00  0.00    -0.002 A 
ATOM      8  C6  OXE d   1       0.879  -1.445   0.560  0.00  0.00     0.003 A 
ENDROOT
TORSDOF 0
ENDMDL
