MODEL 1
REMARK minimizedAffinity -2.44007134
REMARK minimizedRMSD -1
REMARK  0 active torsions:
REMARK  status: ('A' for Active; 'I' for Inactive)
ROOT
ATOM      1  C2' OXE d   1       1.502   1.756   0.082  0.00  0.00     0.078 C 
ATOM      2  C1' OXE d   1       3.095  -0.528   0.437  0.00  0.00     0.078 C 
ATOM      3  C1  OXE d   1       1.598  -0.695   0.516  0.00  0.00    -0.078 A 
ATOM      4  C2  OXE d   1       0.828   0.436   0.388  0.00  0.00    -0.078 A 
ATOM      5  C3  OXE d   1      -0.560   0.329   0.399  0.00  0.00     0.003 A 
ATOM      6  C4  OXE d   1      -1.175  -0.894   0.692  0.00  0.00    -0.002 A 
ATOM      7  C5  OXE d   1      -0.408  -2.051   0.865  0.00  0.00    -0.002 A 
ATOM      8  C6  OXE d   1       0.975  -1.977   0.739  0.00  0.00     0.003 A 
ENDROOT
TORSDOF 0
ENDMDL
