MODEL 1
REMARK minimizedAffinity 6.16334343
REMARK minimizedRMSD -1
REMARK  0 active torsions:
REMARK  status: ('A' for Active; 'I' for Inactive)
ROOT
ATOM      1  O1  BZF d   1      -0.365   2.290   4.457  0.00  0.00    -0.204 OA
ATOM      2  C2  BZF d   1       0.087   2.253   5.762  0.00  0.00     0.174 A 
ATOM      3  C3  BZF d   1       0.767   1.113   6.000  0.00  0.00    -0.012 A 
ATOM      4  C3A BZF d   1       0.819   0.435   4.741  0.00  0.00    -0.107 A 
ATOM      5  C4  BZF d   1       1.374  -0.743   4.331  0.00  0.00     0.055 A 
ATOM      6  C5  BZF d   1       1.181  -1.154   3.050  0.00  0.00    -0.016 A 
ATOM      7  C6  BZF d   1       0.436  -0.415   2.155  0.00  0.00     0.022 A 
ATOM      8  C7  BZF d   1      -0.130   0.763   2.514  0.00  0.00     0.029 A 
ATOM      9  C7A BZF d   1       0.090   1.197   3.798  0.00  0.00     0.058 A 
ENDROOT
TORSDOF 0
ENDMDL
