MODEL 1
REMARK minimizedAffinity 19.7908821
REMARK minimizedRMSD -1
REMARK  0 active torsions:
REMARK  status: ('A' for Active; 'I' for Inactive)
ROOT
ATOM      1  O1  BZF d   1       0.502   0.071  -4.489  0.00  0.00    -0.204 OA
ATOM      2  C2  BZF d   1       1.561  -0.587  -5.085  0.00  0.00     0.174 A 
ATOM      3  C3  BZF d   1       1.740  -1.804  -4.531  0.00  0.00    -0.012 A 
ATOM      4  C3A BZF d   1       0.673  -1.950  -3.589  0.00  0.00    -0.107 A 
ATOM      5  C4  BZF d   1       0.303  -2.951  -2.738  0.00  0.00     0.055 A 
ATOM      6  C5  BZF d   1      -0.746  -2.750  -1.898  0.00  0.00    -0.016 A 
ATOM      7  C6  BZF d   1      -1.443  -1.560  -1.879  0.00  0.00     0.022 A 
ATOM      8  C7  BZF d   1      -1.116  -0.539  -2.709  0.00  0.00     0.029 A 
ATOM      9  C7A BZF d   1      -0.077  -0.752  -3.582  0.00  0.00     0.058 A 
ENDROOT
TORSDOF 0
ENDMDL
