MODEL 1
REMARK minimizedAffinity 17.4230404
REMARK minimizedRMSD -1
REMARK  0 active torsions:
REMARK  status: ('A' for Active; 'I' for Inactive)
ROOT
ATOM      1  O1  BZF d   1      -0.755   3.079   4.751  0.00  0.00    -0.204 OA
ATOM      2  C2  BZF d   1      -0.108   2.948   5.964  0.00  0.00     0.174 A 
ATOM      3  C3  BZF d   1       0.618   1.812   5.999  0.00  0.00    -0.012 A 
ATOM      4  C3A BZF d   1       0.485   1.240   4.694  0.00  0.00    -0.107 A 
ATOM      5  C4  BZF d   1       0.987   0.115   4.107  0.00  0.00     0.055 A 
ATOM      6  C5  BZF d   1       0.605  -0.196   2.840  0.00  0.00    -0.016 A 
ATOM      7  C6  BZF d   1      -0.280   0.593   2.135  0.00  0.00     0.022 A 
ATOM      8  C7  BZF d   1      -0.801   1.722   2.674  0.00  0.00     0.029 A 
ATOM      9  C7A BZF d   1      -0.391   2.056   3.941  0.00  0.00     0.058 A 
ENDROOT
TORSDOF 0
ENDMDL
