MODEL 1
REMARK minimizedAffinity 8.33932972
REMARK minimizedRMSD -1
REMARK  0 active torsions:
REMARK  status: ('A' for Active; 'I' for Inactive)
ROOT
ATOM      1  O1  BZF d   1       0.509  -3.079   3.911  0.00  0.00    -0.204 OA
ATOM      2  C2  BZF d   1       1.125  -3.075   5.148  0.00  0.00     0.174 A 
ATOM      3  C3  BZF d   1       1.475  -1.822   5.504  0.00  0.00    -0.012 A 
ATOM      4  C3A BZF d   1       0.969  -0.980   4.464  0.00  0.00    -0.107 A 
ATOM      5  C4  BZF d   1       0.986   0.370   4.257  0.00  0.00     0.055 A 
ATOM      6  C5  BZF d   1       0.467   0.868   3.104  0.00  0.00    -0.016 A 
ATOM      7  C6  BZF d   1      -0.072   0.046   2.136  0.00  0.00     0.022 A 
ATOM      8  C7  BZF d   1      -0.116  -1.299   2.298  0.00  0.00     0.029 A 
ATOM      9  C7A BZF d   1       0.378  -1.802   3.477  0.00  0.00     0.058 A 
ENDROOT
TORSDOF 0
ENDMDL
