MODEL 1
REMARK minimizedAffinity 14.2664747
REMARK minimizedRMSD -1
REMARK  0 active torsions:
REMARK  status: ('A' for Active; 'I' for Inactive)
ROOT
ATOM      1  O1  BZF d   1       3.146  -3.164  -5.462  0.00  0.00    -0.204 OA
ATOM      2  C2  BZF d   1       4.039  -2.250  -4.935  0.00  0.00     0.174 A 
ATOM      3  C3  BZF d   1       3.433  -1.067  -4.708  0.00  0.00    -0.012 A 
ATOM      4  C3A BZF d   1       2.056  -1.280  -5.032  0.00  0.00    -0.107 A 
ATOM      5  C4  BZF d   1       0.949  -0.481  -4.997  0.00  0.00     0.055 A 
ATOM      6  C5  BZF d   1      -0.235  -0.973  -5.450  0.00  0.00    -0.016 A 
ATOM      7  C6  BZF d   1      -0.345  -2.255  -5.948  0.00  0.00     0.022 A 
ATOM      8  C7  BZF d   1       0.724  -3.086  -5.998  0.00  0.00     0.029 A 
ATOM      9  C7A BZF d   1       1.914  -2.603  -5.511  0.00  0.00     0.058 A 
ENDROOT
TORSDOF 0
ENDMDL
