MODEL 1
REMARK minimizedAffinity 21.531435
REMARK minimizedRMSD -1
REMARK  0 active torsions:
REMARK  status: ('A' for Active; 'I' for Inactive)
ROOT
ATOM      1  O1  BZF d   1       6.000   0.398   2.369  0.00  0.00    -0.204 OA
ATOM      2  C2  BZF d   1       5.539   0.255   1.075  0.00  0.00     0.174 A 
ATOM      3  C3  BZF d   1       4.191   0.240   1.045  0.00  0.00    -0.012 A 
ATOM      4  C3A BZF d   1       3.783   0.476   2.396  0.00  0.00    -0.107 A 
ATOM      5  C4  BZF d   1       2.564   0.589   3.002  0.00  0.00     0.055 A 
ATOM      6  C5  BZF d   1       2.510   0.746   4.351  0.00  0.00    -0.016 A 
ATOM      7  C6  BZF d   1       3.651   0.789   5.124  0.00  0.00     0.022 A 
ATOM      8  C7  BZF d   1       4.883   0.686   4.567  0.00  0.00     0.029 A 
ATOM      9  C7A BZF d   1       4.942   0.560   3.201  0.00  0.00     0.058 A 
ENDROOT
TORSDOF 0
ENDMDL
