MODEL 1
REMARK minimizedAffinity 21.513092
REMARK minimizedRMSD -1
REMARK  0 active torsions:
REMARK  status: ('A' for Active; 'I' for Inactive)
ROOT
ATOM      1  O1  BZF d   1      -4.956   0.401  -1.111  0.00  0.00    -0.204 OA
ATOM      2  C2  BZF d   1      -5.405   1.701  -1.244  0.00  0.00     0.174 A 
ATOM      3  C3  BZF d   1      -4.984   2.461  -0.214  0.00  0.00    -0.012 A 
ATOM      4  C3A BZF d   1      -4.146   1.604   0.569  0.00  0.00    -0.107 A 
ATOM      5  C4  BZF d   1      -3.422   1.787   1.712  0.00  0.00     0.055 A 
ATOM      6  C5  BZF d   1      -2.771   0.727   2.258  0.00  0.00    -0.016 A 
ATOM      7  C6  BZF d   1      -2.827  -0.530   1.692  0.00  0.00     0.022 A 
ATOM      8  C7  BZF d   1      -3.528  -0.760   0.555  0.00  0.00     0.029 A 
ATOM      9  C7A BZF d   1      -4.160   0.317  -0.018  0.00  0.00     0.058 A 
ENDROOT
TORSDOF 0
ENDMDL
