MODEL 1
REMARK minimizedAffinity 15.5973721
REMARK minimizedRMSD -1
REMARK  0 active torsions:
REMARK  status: ('A' for Active; 'I' for Inactive)
ROOT
ATOM      1  O1  BZF d   1      -1.931  -2.839  -4.263  0.00  0.00    -0.204 OA
ATOM      2  C2  BZF d   1      -2.367  -2.323  -3.058  0.00  0.00     0.174 A 
ATOM      3  C3  BZF d   1      -1.508  -1.390  -2.599  0.00  0.00    -0.012 A 
ATOM      4  C3A BZF d   1      -0.519  -1.251  -3.623  0.00  0.00    -0.107 A 
ATOM      5  C4  BZF d   1       0.589  -0.465  -3.758  0.00  0.00     0.055 A 
ATOM      6  C5  BZF d   1       1.384  -0.626  -4.848  0.00  0.00    -0.016 A 
ATOM      7  C6  BZF d   1       1.105  -1.566  -5.818  0.00  0.00     0.022 A 
ATOM      8  C7  BZF d   1       0.014  -2.365  -5.731  0.00  0.00     0.029 A 
ATOM      9  C7A BZF d   1      -0.810  -2.182  -4.647  0.00  0.00     0.058 A 
ENDROOT
TORSDOF 0
ENDMDL
