MODEL 1
REMARK minimizedAffinity 20.5526638
REMARK minimizedRMSD -1
REMARK  0 active torsions:
REMARK  status: ('A' for Active; 'I' for Inactive)
ROOT
ATOM      1  O1  BZF d   1       4.487   4.220   4.828  0.00  0.00    -0.204 OA
ATOM      2  C2  BZF d   1       4.603   2.932   5.315  0.00  0.00     0.174 A 
ATOM      3  C3  BZF d   1       4.307   2.030   4.358  0.00  0.00    -0.012 A 
ATOM      4  C3A BZF d   1       4.077   2.799   3.173  0.00  0.00    -0.107 A 
ATOM      5  C4  BZF d   1       3.758   2.470   1.887  0.00  0.00     0.055 A 
ATOM      6  C5  BZF d   1       3.531   3.463   0.988  0.00  0.00    -0.016 A 
ATOM      7  C6  BZF d   1       3.608   4.794   1.342  0.00  0.00     0.022 A 
ATOM      8  C7  BZF d   1       3.925   5.170   2.605  0.00  0.00     0.029 A 
ATOM      9  C7A BZF d   1       4.188   4.169   3.507  0.00  0.00     0.058 A 
ENDROOT
TORSDOF 0
ENDMDL
