MODEL 1
REMARK minimizedAffinity 8.7949152
REMARK minimizedRMSD -1
REMARK  0 active torsions:
REMARK  status: ('A' for Active; 'I' for Inactive)
ROOT
ATOM      1  O1  BZF d   1       3.784   4.115  -6.000  0.00  0.00    -0.204 OA
ATOM      2  C2  BZF d   1       4.940   4.872  -6.000  0.00  0.00     0.174 A 
ATOM      3  C3  BZF d   1       5.964   4.181  -5.459  0.00  0.00    -0.012 A 
ATOM      4  C3A BZF d   1       5.437   2.880  -5.184  0.00  0.00    -0.107 A 
ATOM      5  C4  BZF d   1       5.975   1.741  -4.657  0.00  0.00     0.055 A 
ATOM      6  C5  BZF d   1       5.172   0.664  -4.452  0.00  0.00    -0.016 A 
ATOM      7  C6  BZF d   1       3.827   0.693  -4.758  0.00  0.00     0.022 A 
ATOM      8  C7  BZF d   1       3.249   1.799  -5.287  0.00  0.00     0.029 A 
ATOM      9  C7A BZF d   1       4.065   2.877  -5.526  0.00  0.00     0.058 A 
ENDROOT
TORSDOF 0
ENDMDL
