MODEL 1
REMARK minimizedAffinity -1.95727015
REMARK minimizedRMSD -1
REMARK  1 active torsions:
REMARK  status: ('A' for Active; 'I' for Inactive)
REMARK    1  A    between atoms: C1_2  and  C2_3 
ROOT
ATOM      1  C2  UNL d   1       0.180  -0.052   0.189  0.00  0.00    -0.077 A 
ATOM      2  C3  UNL d   1       1.073  -1.124   0.327  0.00  0.00     0.002 A 
ATOM      3  C4  UNL d   1       2.435  -0.889   0.522  0.00  0.00     0.002 A 
ATOM      4  C5  UNL d   1       2.916   0.417   0.586  0.00  0.00    -0.004 A 
ATOM      5  C6  UNL d   1       2.036   1.491   0.448  0.00  0.00     0.002 A 
ATOM      6  C7  UNL d   1       0.675   1.257   0.251  0.00  0.00     0.002 A 
ENDROOT
BRANCH   1   7
ATOM      7  C1  UNL d   1      -1.296  -0.304   0.027  0.00  0.00     0.055 C 
ATOM      8  C   UNL d   1      -1.754  -0.016  -1.395  0.00  0.00     0.019 C 
ENDBRANCH   1   7
TORSDOF 1
ENDMDL
