MODEL 1
REMARK minimizedAffinity -4.46821547
REMARK minimizedRMSD -1
REMARK  1 active torsions:
REMARK  status: ('A' for Active; 'I' for Inactive)
REMARK    1  A    between atoms: C1_2  and  C2_3 
ROOT
ATOM      1  C2  UNL d   1      -0.250   0.460   0.052  0.00  0.00    -0.077 A 
ATOM      2  C3  UNL d   1       0.747  -0.476   0.360  0.00  0.00     0.002 A 
ATOM      3  C4  UNL d   1       2.070  -0.066   0.536  0.00  0.00     0.002 A 
ATOM      4  C5  UNL d   1       2.407   1.280   0.411  0.00  0.00    -0.004 A 
ATOM      5  C6  UNL d   1       1.422   2.218   0.103  0.00  0.00     0.002 A 
ATOM      6  C7  UNL d   1       0.100   1.810  -0.075  0.00  0.00     0.002 A 
ENDROOT
BRANCH   1   7
ATOM      7  C1  UNL d   1      -1.686   0.026  -0.090  0.00  0.00     0.055 C 
ATOM      8  C   UNL d   1      -2.140   0.082  -1.541  0.00  0.00     0.019 C 
ENDBRANCH   1   7
TORSDOF 1
ENDMDL
