MODEL 1
REMARK minimizedAffinity -3.44715929
REMARK minimizedRMSD -1
REMARK  1 active torsions:
REMARK  status: ('A' for Active; 'I' for Inactive)
REMARK    1  A    between atoms: C1_2  and  C2_3 
ROOT
ATOM      1  C2  UNL d   1      -1.259  -0.178  -0.016  0.00  0.00    -0.077 A 
ATOM      2  C3  UNL d   1      -0.047   0.506  -0.188  0.00  0.00     0.002 A 
ATOM      3  C4  UNL d   1       1.144  -0.036   0.298  0.00  0.00     0.002 A 
ATOM      4  C5  UNL d   1       1.136  -1.264   0.956  0.00  0.00    -0.004 A 
ATOM      5  C6  UNL d   1      -0.064  -1.951   1.134  0.00  0.00     0.002 A 
ATOM      6  C7  UNL d   1      -1.256  -1.411   0.650  0.00  0.00     0.002 A 
ENDROOT
BRANCH   1   7
ATOM      7  C1  UNL d   1      -2.538   0.380  -0.582  0.00  0.00     0.055 C 
ATOM      8  C   UNL d   1      -2.919  -0.316  -1.881  0.00  0.00     0.019 C 
ENDBRANCH   1   7
TORSDOF 1
ENDMDL
