MODEL 1
REMARK minimizedAffinity -0.874853969
REMARK minimizedRMSD -1
REMARK  1 active torsions:
REMARK  status: ('A' for Active; 'I' for Inactive)
REMARK    1  A    between atoms: C1_2  and  C2_3 
ROOT
ATOM      1  C2  UNL d   1       1.651   0.846   1.439  0.00  0.00    -0.077 A 
ATOM      2  C3  UNL d   1       1.136   1.964   0.768  0.00  0.00     0.002 A 
ATOM      3  C4  UNL d   1      -0.016   1.851  -0.012  0.00  0.00     0.002 A 
ATOM      4  C5  UNL d   1      -0.665   0.623  -0.125  0.00  0.00    -0.004 A 
ATOM      5  C6  UNL d   1      -0.160  -0.495   0.537  0.00  0.00     0.002 A 
ATOM      6  C7  UNL d   1       0.992  -0.384   1.316  0.00  0.00     0.002 A 
ENDROOT
BRANCH   1   7
ATOM      7  C1  UNL d   1       2.865   0.977   2.321  0.00  0.00     0.055 C 
ATOM      8  C   UNL d   1       2.837   2.277   3.112  0.00  0.00     0.019 C 
ENDBRANCH   1   7
TORSDOF 1
ENDMDL
