MODEL 1
REMARK minimizedAffinity 7.16834641
REMARK minimizedRMSD -1
REMARK  1 active torsions:
REMARK  status: ('A' for Active; 'I' for Inactive)
REMARK    1  A    between atoms: C1_2  and  C2_3 
ROOT
ATOM      1  C2  UNL d   1      -0.577  -0.910  -0.904  0.00  0.00    -0.076 A 
ATOM      2  C3  UNL d   1       0.754  -1.355  -0.831  0.00  0.00     0.004 A 
ATOM      3  C4  UNL d   1       1.207  -2.089   0.264  0.00  0.00    -0.003 A 
ATOM      4  C5  UNL d   1       0.334  -2.391   1.304  0.00  0.00     0.000 A 
ATOM      5  C6  UNL d   1      -0.995  -1.973   1.239  0.00  0.00     0.000 A 
ATOM      6  C7  UNL d   1      -1.471  -1.246   0.135  0.00  0.00    -0.073 A 
ATOM      7  C8  UNL d   1      -2.912  -0.816   0.121  0.00  0.00     0.078 C 
ENDROOT
BRANCH   1   8
ATOM      8  C1  UNL d   1      -1.003  -0.094  -2.104  0.00  0.00     0.053 C 
ATOM      9  C   UNL d   1      -0.832   1.401  -1.882  0.00  0.00     0.018 C 
ENDBRANCH   1   8
TORSDOF 1
ENDMDL
