MODEL 1
REMARK minimizedAffinity 8.18632793
REMARK minimizedRMSD -1
REMARK  1 active torsions:
REMARK  status: ('A' for Active; 'I' for Inactive)
REMARK    1  A    between atoms: C1_2  and  C2_3 
ROOT
ATOM      1  C2  UNL d   1      -0.482   3.287  -3.393  0.00  0.00    -0.076 A 
ATOM      2  C3  UNL d   1       0.219   2.252  -2.749  0.00  0.00     0.004 A 
ATOM      3  C4  UNL d   1      -0.460   1.217  -2.109  0.00  0.00    -0.003 A 
ATOM      4  C5  UNL d   1      -1.851   1.199  -2.103  0.00  0.00     0.000 A 
ATOM      5  C6  UNL d   1      -2.561   2.208  -2.752  0.00  0.00     0.000 A 
ATOM      6  C7  UNL d   1      -1.892   3.251  -3.416  0.00  0.00    -0.073 A 
ATOM      7  C8  UNL d   1      -2.709   4.316  -4.095  0.00  0.00     0.078 C 
ENDROOT
BRANCH   1   8
ATOM      8  C1  UNL d   1       0.308   4.398  -4.047  0.00  0.00     0.053 C 
ATOM      9  C   UNL d   1       1.291   3.881  -5.086  0.00  0.00     0.018 C 
ENDBRANCH   1   8
TORSDOF 1
ENDMDL
