MODEL 1
REMARK minimizedAffinity 6.25179291
REMARK minimizedRMSD -1
REMARK  1 active torsions:
REMARK  status: ('A' for Active; 'I' for Inactive)
REMARK    1  A    between atoms: C1_2  and  C2_3 
ROOT
ATOM      1  C2  UNL d   1      -2.204   0.163   2.951  0.00  0.00    -0.076 A 
ATOM      2  C3  UNL d   1      -1.391   0.365   4.080  0.00  0.00     0.004 A 
ATOM      3  C4  UNL d   1      -0.306  -0.471   4.341  0.00  0.00    -0.003 A 
ATOM      4  C5  UNL d   1      -0.016  -1.521   3.477  0.00  0.00     0.000 A 
ATOM      5  C6  UNL d   1      -0.801  -1.725   2.343  0.00  0.00     0.000 A 
ATOM      6  C7  UNL d   1      -1.889  -0.882   2.056  0.00  0.00    -0.073 A 
ATOM      7  C8  UNL d   1      -2.705  -1.151   0.822  0.00  0.00     0.078 C 
ENDROOT
BRANCH   1   8
ATOM      8  C1  UNL d   1      -3.383   1.085   2.734  0.00  0.00     0.053 C 
ATOM      9  C   UNL d   1      -3.966   1.603   4.039  0.00  0.00     0.018 C 
ENDBRANCH   1   8
TORSDOF 1
ENDMDL
