MODEL 1
REMARK minimizedAffinity 5.45978212
REMARK minimizedRMSD -1
REMARK  1 active torsions:
REMARK  status: ('A' for Active; 'I' for Inactive)
REMARK    1  A    between atoms: C1_2  and  C2_3 
ROOT
ATOM      1  C2  UNL d   1       2.412  -2.042   0.609  0.00  0.00    -0.076 A 
ATOM      2  C3  UNL d   1       3.194  -0.907   0.334  0.00  0.00     0.004 A 
ATOM      3  C4  UNL d   1       4.565  -1.018   0.106  0.00  0.00    -0.003 A 
ATOM      4  C5  UNL d   1       5.176  -2.266   0.149  0.00  0.00     0.000 A 
ATOM      5  C6  UNL d   1       4.412  -3.405   0.402  0.00  0.00     0.000 A 
ATOM      6  C7  UNL d   1       3.027  -3.313   0.618  0.00  0.00    -0.073 A 
ATOM      7  C8  UNL d   1       2.253  -4.573   0.894  0.00  0.00     0.078 C 
ENDROOT
BRANCH   1   8
ATOM      8  C1  UNL d   1       0.935  -1.857   0.875  0.00  0.00     0.053 C 
ATOM      9  C   UNL d   1       0.620  -1.742   2.358  0.00  0.00     0.018 C 
ENDBRANCH   1   8
TORSDOF 1
ENDMDL
