MODEL 1
REMARK minimizedAffinity 4.81076288
REMARK minimizedRMSD -1
REMARK  1 active torsions:
REMARK  status: ('A' for Active; 'I' for Inactive)
REMARK    1  A    between atoms: C1_2  and  C2_3 
ROOT
ATOM      1  C2  UNL d   1       0.964  -1.452   1.011  0.00  0.00    -0.076 A 
ATOM      2  C3  UNL d   1       1.973  -2.166   0.341  0.00  0.00     0.004 A 
ATOM      3  C4  UNL d   1       2.580  -3.273   0.930  0.00  0.00    -0.003 A 
ATOM      4  C5  UNL d   1       2.187  -3.686   2.198  0.00  0.00     0.000 A 
ATOM      5  C6  UNL d   1       1.176  -3.001   2.870  0.00  0.00     0.000 A 
ATOM      6  C7  UNL d   1       0.542  -1.892   2.284  0.00  0.00    -0.073 A 
ATOM      7  C8  UNL d   1      -0.538  -1.186   3.057  0.00  0.00     0.078 C 
ENDROOT
BRANCH   1   8
ATOM      8  C1  UNL d   1       0.361  -0.242   0.334  0.00  0.00     0.053 C 
ATOM      9  C   UNL d   1      -0.510  -0.614  -0.856  0.00  0.00     0.018 C 
ENDBRANCH   1   8
TORSDOF 1
ENDMDL
