MODEL 1
REMARK minimizedAffinity 3.47518516
REMARK minimizedRMSD -1
REMARK  1 active torsions:
REMARK  status: ('A' for Active; 'I' for Inactive)
REMARK    1  A    between atoms: C1_2  and  C2_3 
ROOT
ATOM      1  C2  UNL d   1       0.767  -3.104   1.751  0.00  0.00    -0.076 A 
ATOM      2  C3  UNL d   1       0.131  -4.304   2.113  0.00  0.00     0.004 A 
ATOM      3  C4  UNL d   1       0.569  -5.528   1.610  0.00  0.00    -0.003 A 
ATOM      4  C5  UNL d   1       1.650  -5.571   0.736  0.00  0.00     0.000 A 
ATOM      5  C6  UNL d   1       2.303  -4.392   0.380  0.00  0.00     0.000 A 
ATOM      6  C7  UNL d   1       1.885  -3.152   0.891  0.00  0.00    -0.073 A 
ATOM      7  C8  UNL d   1       2.622  -1.911   0.468  0.00  0.00     0.078 C 
ENDROOT
BRANCH   1   8
ATOM      8  C1  UNL d   1       0.230  -1.804   2.307  0.00  0.00     0.053 C 
ATOM      9  C   UNL d   1       0.044  -1.849   3.816  0.00  0.00     0.018 C 
ENDBRANCH   1   8
TORSDOF 1
ENDMDL
