MODEL 1
REMARK minimizedAffinity 10.7308874
REMARK minimizedRMSD -1
REMARK  1 active torsions:
REMARK  status: ('A' for Active; 'I' for Inactive)
REMARK    1  A    between atoms: C1_2  and  C2_3 
ROOT
ATOM      1  C2  UNL d   1       1.108  -2.109   0.854  0.00  0.00    -0.076 A 
ATOM      2  C3  UNL d   1       1.332  -1.945  -0.524  0.00  0.00     0.004 A 
ATOM      3  C4  UNL d   1       0.463  -1.188  -1.307  0.00  0.00    -0.003 A 
ATOM      4  C5  UNL d   1      -0.645  -0.582  -0.725  0.00  0.00     0.000 A 
ATOM      5  C6  UNL d   1      -0.874  -0.720   0.644  0.00  0.00     0.000 A 
ATOM      6  C7  UNL d   1       0.002  -1.466   1.451  0.00  0.00    -0.073 A 
ATOM      7  C8  UNL d   1      -0.296  -1.586   2.920  0.00  0.00     0.078 C 
ENDROOT
BRANCH   1   8
ATOM      8  C1  UNL d   1       2.070  -2.964   1.648  0.00  0.00     0.053 C 
ATOM      9  C   UNL d   1       1.854  -4.452   1.417  0.00  0.00     0.018 C 
ENDBRANCH   1   8
TORSDOF 1
ENDMDL
