MODEL 1
REMARK minimizedAffinity -2.91350627
REMARK minimizedRMSD -1
REMARK  1 active torsions:
REMARK  status: ('A' for Active; 'I' for Inactive)
REMARK    1  A    between atoms: C1_2  and  C2_3 
ROOT
ATOM      1  C2  UNL d   1       0.662   0.864  -0.665  0.00  0.00    -0.081 A 
ATOM      2  C3  UNL d   1      -0.565   0.764   0.003  0.00  0.00     0.006 A 
ATOM      3  C4  UNL d   1      -0.897  -0.398   0.703  0.00  0.00     0.002 A 
ATOM      4  C5  UNL d   1      -0.006  -1.475   0.755  0.00  0.00    -0.080 A 
ATOM      5  C6  UNL d   1      -0.338  -2.717   1.529  0.00  0.00     0.076 C 
ATOM      6  C7  UNL d   1       1.212  -1.382   0.074  0.00  0.00     0.002 A 
ATOM      7  C8  UNL d   1       1.545  -0.221  -0.627  0.00  0.00     0.006 A 
ENDROOT
BRANCH   1   8
ATOM      8  C1  UNL d   1       1.051   2.140  -1.367  0.00  0.00     0.054 C 
ATOM      9  C   UNL d   1       2.419   2.016  -2.021  0.00  0.00     0.018 C 
ENDBRANCH   1   8
TORSDOF 1
ENDMDL
