MODEL 1
REMARK minimizedAffinity -5.05965424
REMARK minimizedRMSD -1
REMARK  1 active torsions:
REMARK  status: ('A' for Active; 'I' for Inactive)
REMARK    1  A    between atoms: C1_2  and  C2_3 
ROOT
ATOM      1  C2  UNL d   1      -0.994  -0.716   0.382  0.00  0.00    -0.081 A 
ATOM      2  C3  UNL d   1      -0.835   0.639   0.700  0.00  0.00     0.006 A 
ATOM      3  C4  UNL d   1      -0.009   1.456  -0.075  0.00  0.00     0.002 A 
ATOM      4  C5  UNL d   1       0.665   0.935  -1.185  0.00  0.00    -0.080 A 
ATOM      5  C6  UNL d   1       1.530   1.809  -2.044  0.00  0.00     0.076 C 
ATOM      6  C7  UNL d   1       0.520  -0.422  -1.493  0.00  0.00     0.002 A 
ATOM      7  C8  UNL d   1      -0.305  -1.240  -0.717  0.00  0.00     0.006 A 
ENDROOT
BRANCH   1   8
ATOM      8  C1  UNL d   1      -1.934  -1.585   1.178  0.00  0.00     0.054 C 
ATOM      9  C   UNL d   1      -3.010  -0.754   1.862  0.00  0.00     0.018 C 
ENDBRANCH   1   8
TORSDOF 1
ENDMDL
