MODEL 1
REMARK minimizedAffinity -2.07393479
REMARK minimizedRMSD -1
REMARK  1 active torsions:
REMARK  status: ('A' for Active; 'I' for Inactive)
REMARK    1  A    between atoms: C1_2  and  C2_3 
ROOT
ATOM      1  C2  UNL d   1       0.564   0.648  -0.352  0.00  0.00    -0.081 A 
ATOM      2  C3  UNL d   1      -0.669   0.871   0.274  0.00  0.00     0.006 A 
ATOM      3  C4  UNL d   1      -1.266  -0.132   1.040  0.00  0.00     0.002 A 
ATOM      4  C5  UNL d   1      -0.638  -1.372   1.200  0.00  0.00    -0.080 A 
ATOM      5  C6  UNL d   1      -1.255  -2.448   2.044  0.00  0.00     0.076 C 
ATOM      6  C7  UNL d   1       0.584  -1.601   0.560  0.00  0.00     0.002 A 
ATOM      7  C8  UNL d   1       1.182  -0.599  -0.206  0.00  0.00     0.006 A 
ENDROOT
BRANCH   1   8
ATOM      8  C1  UNL d   1       1.241   1.750  -1.125  0.00  0.00     0.054 C 
ATOM      9  C   UNL d   1       0.581   1.962  -2.480  0.00  0.00     0.018 C 
ENDBRANCH   1   8
TORSDOF 1
ENDMDL
