MODEL 1
REMARK minimizedAffinity -2.20066357
REMARK minimizedRMSD -1
REMARK  1 active torsions:
REMARK  status: ('A' for Active; 'I' for Inactive)
REMARK    1  A    between atoms: C1_2  and  C2_3 
ROOT
ATOM      1  C2  UNL d   1       0.694   1.276  -1.541  0.00  0.00    -0.081 A 
ATOM      2  C3  UNL d   1       0.751   1.512  -0.162  0.00  0.00     0.006 A 
ATOM      3  C4  UNL d   1       0.583   0.462   0.743  0.00  0.00     0.002 A 
ATOM      4  C5  UNL d   1       0.364  -0.842   0.286  0.00  0.00    -0.080 A 
ATOM      5  C6  UNL d   1       0.212  -1.983   1.247  0.00  0.00     0.076 C 
ATOM      6  C7  UNL d   1       0.290  -1.075  -1.092  0.00  0.00     0.002 A 
ATOM      7  C8  UNL d   1       0.457  -0.025  -1.998  0.00  0.00     0.006 A 
ENDROOT
BRANCH   1   8
ATOM      8  C1  UNL d   1       0.939   2.396  -2.521  0.00  0.00     0.054 C 
ATOM      9  C   UNL d   1       1.469   1.865  -3.846  0.00  0.00     0.018 C 
ENDBRANCH   1   8
TORSDOF 1
ENDMDL
