MODEL 1
REMARK minimizedAffinity -4.81104326
REMARK minimizedRMSD -1
REMARK  1 active torsions:
REMARK  status: ('A' for Active; 'I' for Inactive)
REMARK    1  A    between atoms: C1_2  and  C2_3 
ROOT
ATOM      1  C2  UNL d   1       0.343   0.900  -1.373  0.00  0.00    -0.081 A 
ATOM      2  C3  UNL d   1       0.274  -0.355  -1.989  0.00  0.00     0.006 A 
ATOM      3  C4  UNL d   1       0.027  -1.503  -1.231  0.00  0.00     0.002 A 
ATOM      4  C5  UNL d   1      -0.162  -1.413   0.152  0.00  0.00    -0.080 A 
ATOM      5  C6  UNL d   1      -0.457  -2.633   0.973  0.00  0.00     0.076 C 
ATOM      6  C7  UNL d   1      -0.075  -0.161   0.770  0.00  0.00     0.002 A 
ATOM      7  C8  UNL d   1       0.172   0.987   0.013  0.00  0.00     0.006 A 
ENDROOT
BRANCH   1   8
ATOM      8  C1  UNL d   1       0.544   2.147  -2.196  0.00  0.00     0.054 C 
ATOM      9  C   UNL d   1       1.441   1.879  -3.396  0.00  0.00     0.018 C 
ENDBRANCH   1   8
TORSDOF 1
ENDMDL
