MODEL 1
REMARK minimizedAffinity -4.77754164
REMARK minimizedRMSD -1
REMARK  1 active torsions:
REMARK  status: ('A' for Active; 'I' for Inactive)
REMARK    1  A    between atoms: C1_2  and  C2_3 
ROOT
ATOM      1  C2  UNL d   1      -1.210  -0.289   0.824  0.00  0.00    -0.081 A 
ATOM      2  C3  UNL d   1      -1.236   1.111   0.827  0.00  0.00     0.006 A 
ATOM      3  C4  UNL d   1      -0.395   1.837  -0.020  0.00  0.00     0.002 A 
ATOM      4  C5  UNL d   1       0.480   1.176  -0.889  0.00  0.00    -0.080 A 
ATOM      5  C6  UNL d   1       1.366   1.943  -1.824  0.00  0.00     0.076 C 
ATOM      6  C7  UNL d   1       0.519  -0.223  -0.879  0.00  0.00     0.002 A 
ATOM      7  C8  UNL d   1      -0.322  -0.949  -0.032  0.00  0.00     0.006 A 
ENDROOT
BRANCH   1   8
ATOM      8  C1  UNL d   1      -2.161  -1.076   1.689  0.00  0.00     0.054 C 
ATOM      9  C   UNL d   1      -1.651  -2.489   1.929  0.00  0.00     0.018 C 
ENDBRANCH   1   8
TORSDOF 1
ENDMDL
