MODEL 1
REMARK minimizedAffinity 0.907110035
REMARK minimizedRMSD -1
REMARK  1 active torsions:
REMARK  status: ('A' for Active; 'I' for Inactive)
REMARK    1  A    between atoms: C1_2  and  C2_3 
ROOT
ATOM      1  C2  UNL d   1      -0.396  -0.403   0.493  0.00  0.00    -0.081 A 
ATOM      2  C3  UNL d   1      -1.626  -0.643  -0.131  0.00  0.00     0.006 A 
ATOM      3  C4  UNL d   1      -2.417  -1.728   0.257  0.00  0.00     0.002 A 
ATOM      4  C5  UNL d   1      -1.994  -2.585   1.278  0.00  0.00    -0.080 A 
ATOM      5  C6  UNL d   1      -2.847  -3.735   1.724  0.00  0.00     0.076 C 
ATOM      6  C7  UNL d   1      -0.757  -2.355   1.890  0.00  0.00     0.002 A 
ATOM      7  C8  UNL d   1       0.034  -1.271   1.502  0.00  0.00     0.006 A 
ENDROOT
BRANCH   1   8
ATOM      8  C1  UNL d   1       0.429   0.803   0.122  0.00  0.00     0.054 C 
ATOM      9  C   UNL d   1       0.514   0.972  -1.388  0.00  0.00     0.018 C 
ENDBRANCH   1   8
TORSDOF 1
ENDMDL
