MODEL 1
REMARK minimizedAffinity -2.22988629
REMARK minimizedRMSD -1
REMARK  1 active torsions:
REMARK  status: ('A' for Active; 'I' for Inactive)
REMARK    1  A    between atoms: C1_2  and  C2_3 
ROOT
ATOM      1  C2  UNL d   1       0.507   1.046  -1.127  0.00  0.00    -0.081 A 
ATOM      2  C3  UNL d   1      -0.301  -0.017  -1.549  0.00  0.00     0.006 A 
ATOM      3  C4  UNL d   1      -0.346  -1.206  -0.817  0.00  0.00     0.002 A 
ATOM      4  C5  UNL d   1       0.408  -1.349   0.352  0.00  0.00    -0.080 A 
ATOM      5  C6  UNL d   1       0.345  -2.609   1.164  0.00  0.00     0.076 C 
ATOM      6  C7  UNL d   1       1.228  -0.293   0.765  0.00  0.00     0.002 A 
ATOM      7  C8  UNL d   1       1.274   0.895   0.033  0.00  0.00     0.006 A 
ENDROOT
BRANCH   1   8
ATOM      8  C1  UNL d   1       0.508   2.353  -1.878  0.00  0.00     0.054 C 
ATOM      9  C   UNL d   1       1.173   2.207  -3.240  0.00  0.00     0.018 C 
ENDBRANCH   1   8
TORSDOF 1
ENDMDL
