MODEL 1
REMARK minimizedAffinity -4.78477383
REMARK minimizedRMSD -1
REMARK  1 active torsions:
REMARK  status: ('A' for Active; 'I' for Inactive)
REMARK    1  A    between atoms: C1_2  and  C2_3 
ROOT
ATOM      1  C2  UNL d   1      -0.398   0.819   0.264  0.00  0.00    -0.081 A 
ATOM      2  C3  UNL d   1      -1.589   0.756   0.997  0.00  0.00     0.006 A 
ATOM      3  C4  UNL d   1      -1.976  -0.434   1.620  0.00  0.00     0.002 A 
ATOM      4  C5  UNL d   1      -1.174  -1.576   1.527  0.00  0.00    -0.080 A 
ATOM      5  C6  UNL d   1      -1.562  -2.851   2.216  0.00  0.00     0.076 C 
ATOM      6  C7  UNL d   1       0.008  -1.518   0.780  0.00  0.00     0.002 A 
ATOM      7  C8  UNL d   1       0.394  -0.330   0.157  0.00  0.00     0.006 A 
ENDROOT
BRANCH   1   8
ATOM      8  C1  UNL d   1       0.054   2.117  -0.354  0.00  0.00     0.054 C 
ATOM      9  C   UNL d   1       0.627   1.897  -1.746  0.00  0.00     0.018 C 
ENDBRANCH   1   8
TORSDOF 1
ENDMDL
