MODEL 1
REMARK minimizedAffinity -4.39668083
REMARK minimizedRMSD -1
REMARK  1 active torsions:
REMARK  status: ('A' for Active; 'I' for Inactive)
REMARK    1  A    between atoms: C1_2  and  C2_3 
ROOT
ATOM      1  C2  UNL d   1       0.689   0.062  -0.583  0.00  0.00    -0.081 A 
ATOM      2  C3  UNL d   1      -0.008  -0.362  -1.722  0.00  0.00     0.006 A 
ATOM      3  C4  UNL d   1      -0.050   0.439  -2.865  0.00  0.00     0.002 A 
ATOM      4  C5  UNL d   1       0.611   1.672  -2.893  0.00  0.00    -0.080 A 
ATOM      5  C6  UNL d   1       0.599   2.528  -4.124  0.00  0.00     0.076 C 
ATOM      6  C7  UNL d   1       1.292   2.104  -1.750  0.00  0.00     0.002 A 
ATOM      7  C8  UNL d   1       1.334   1.304  -0.606  0.00  0.00     0.006 A 
ENDROOT
BRANCH   1   8
ATOM      8  C1  UNL d   1       0.791  -0.828   0.629  0.00  0.00     0.054 C 
ATOM      9  C   UNL d   1       0.763  -2.299   0.239  0.00  0.00     0.018 C 
ENDBRANCH   1   8
TORSDOF 1
ENDMDL
