MODEL 1
REMARK minimizedAffinity -3.71051621
REMARK minimizedRMSD -1
REMARK  1 active torsions:
REMARK  status: ('A' for Active; 'I' for Inactive)
REMARK    1  A    between atoms: C1_2  and  C2_3 
ROOT
ATOM      1  C2  UNL d   1      -0.187   0.045  -0.829  0.00  0.00    -0.081 A 
ATOM      2  C3  UNL d   1       0.537   1.201  -0.511  0.00  0.00     0.006 A 
ATOM      3  C4  UNL d   1       1.018   2.036  -1.522  0.00  0.00     0.002 A 
ATOM      4  C5  UNL d   1       0.778   1.733  -2.867  0.00  0.00    -0.080 A 
ATOM      5  C6  UNL d   1       1.263   2.637  -3.961  0.00  0.00     0.076 C 
ATOM      6  C7  UNL d   1       0.070   0.569  -3.185  0.00  0.00     0.002 A 
ATOM      7  C8  UNL d   1      -0.411  -0.266  -2.175  0.00  0.00     0.006 A 
ENDROOT
BRANCH   1   8
ATOM      8  C1  UNL d   1      -0.763  -0.823   0.261  0.00  0.00     0.054 C 
ATOM      9  C   UNL d   1      -1.925  -0.133   0.960  0.00  0.00     0.018 C 
ENDBRANCH   1   8
TORSDOF 1
ENDMDL
