MODEL 1
REMARK minimizedAffinity -4.74255466
REMARK minimizedRMSD -1
REMARK  1 active torsions:
REMARK  status: ('A' for Active; 'I' for Inactive)
REMARK    1  A    between atoms: C3_4  and  O_7 
ROOT
ATOM      1  C   UNL d   1      -0.056   0.387   3.230  0.00  0.00    -0.033 A 
ATOM      2  C1  UNL d   1       1.151  -0.180   2.818  0.00  0.00     0.039 A 
ATOM      3  C2  UNL d   1       1.415  -0.354   1.458  0.00  0.00    -0.080 A 
ATOM      4  C3  UNL d   1       0.464   0.045   0.521  0.00  0.00     0.150 A 
ATOM      5  C4  UNL d   1      -0.739   0.614   0.925  0.00  0.00    -0.007 A 
ATOM      6  C5  UNL d   1      -1.001   0.785   2.284  0.00  0.00     0.039 A 
ENDROOT
BRANCH   4   7
ATOM      7  O   UNL d   1       0.674  -0.109  -0.817  0.00  0.00    -0.526 OA
ATOM      8  H5  UNL d   1       1.535  -0.541  -0.946  0.00  0.00     0.418 HD
ENDBRANCH   4   7
TORSDOF 1
ENDMDL
