MODEL 1
REMARK minimizedAffinity -4.2854867
REMARK minimizedRMSD -1
REMARK  1 active torsions:
REMARK  status: ('A' for Active; 'I' for Inactive)
REMARK    1  A    between atoms: C3_4  and  O_7 
ROOT
ATOM      1  C   UNL d   1       2.041  -0.402  -2.397  0.00  0.00    -0.033 A 
ATOM      2  C1  UNL d   1       0.771  -0.978  -2.332  0.00  0.00     0.039 A 
ATOM      3  C2  UNL d   1      -0.215  -0.602  -3.246  0.00  0.00    -0.080 A 
ATOM      4  C3  UNL d   1       0.080   0.350  -4.217  0.00  0.00     0.150 A 
ATOM      5  C4  UNL d   1       1.345   0.926  -4.290  0.00  0.00    -0.007 A 
ATOM      6  C5  UNL d   1       2.328   0.549  -3.376  0.00  0.00     0.039 A 
ENDROOT
BRANCH   4   7
ATOM      7  O   UNL d   1      -0.851   0.753  -5.127  0.00  0.00    -0.526 OA
ATOM      8  H5  UNL d   1      -1.686   0.292  -4.938  0.00  0.00     0.418 HD
ENDBRANCH   4   7
TORSDOF 1
ENDMDL
