MODEL 1
REMARK minimizedAffinity -4.8140316
REMARK minimizedRMSD -1
REMARK  1 active torsions:
REMARK  status: ('A' for Active; 'I' for Inactive)
REMARK    1  A    between atoms: C3_4  and  O_7 
ROOT
ATOM      1  C   UNL d   1       1.211  -0.538   0.511  0.00  0.00    -0.033 A 
ATOM      2  C1  UNL d   1      -0.091  -0.217   0.120  0.00  0.00     0.039 A 
ATOM      3  C2  UNL d   1      -0.866   0.639   0.905  0.00  0.00    -0.080 A 
ATOM      4  C3  UNL d   1      -0.329   1.166   2.076  0.00  0.00     0.150 A 
ATOM      5  C4  UNL d   1       0.968   0.854   2.469  0.00  0.00    -0.007 A 
ATOM      6  C5  UNL d   1       1.741  -0.001   1.685  0.00  0.00     0.039 A 
ENDROOT
BRANCH   4   7
ATOM      7  O   UNL d   1      -1.049   2.002   2.877  0.00  0.00    -0.526 OA
ATOM      8  H5  UNL d   1      -1.937   2.105   2.495  0.00  0.00     0.418 HD
ENDBRANCH   4   7
TORSDOF 1
ENDMDL
