MODEL 1
REMARK minimizedAffinity -4.58855534
REMARK minimizedRMSD -1
REMARK  1 active torsions:
REMARK  status: ('A' for Active; 'I' for Inactive)
REMARK    1  A    between atoms: C3_4  and  O_7 
ROOT
ATOM      1  C   UNL d   1      -0.393   1.488   2.617  0.00  0.00    -0.033 A 
ATOM      2  C1  UNL d   1      -1.496   1.118   1.846  0.00  0.00     0.039 A 
ATOM      3  C2  UNL d   1      -1.330   0.276   0.745  0.00  0.00    -0.080 A 
ATOM      4  C3  UNL d   1      -0.058  -0.190   0.426  0.00  0.00     0.150 A 
ATOM      5  C4  UNL d   1       1.046   0.172   1.192  0.00  0.00    -0.007 A 
ATOM      6  C5  UNL d   1       0.878   1.013   2.291  0.00  0.00     0.039 A 
ENDROOT
BRANCH   4   7
ATOM      7  O   UNL d   1       0.155  -1.010  -0.642  0.00  0.00    -0.526 OA
ATOM      8  H5  UNL d   1      -0.694  -1.152  -1.094  0.00  0.00     0.418 HD
ENDBRANCH   4   7
TORSDOF 1
ENDMDL
