MODEL 1
REMARK minimizedAffinity -4.73923349
REMARK minimizedRMSD -1
REMARK  1 active torsions:
REMARK  status: ('A' for Active; 'I' for Inactive)
REMARK    1  A    between atoms: C3_4  and  O_7 
ROOT
ATOM      1  C   UNL d   1       0.349   0.760   3.398  0.00  0.00    -0.033 A 
ATOM      2  C1  UNL d   1      -0.731   1.020   2.552  0.00  0.00     0.039 A 
ATOM      3  C2  UNL d   1      -0.743   0.506   1.254  0.00  0.00    -0.080 A 
ATOM      4  C3  UNL d   1       0.329  -0.267   0.816  0.00  0.00     0.150 A 
ATOM      5  C4  UNL d   1       1.406  -0.533   1.654  0.00  0.00    -0.007 A 
ATOM      6  C5  UNL d   1       1.417  -0.018   2.950  0.00  0.00     0.039 A 
ENDROOT
BRANCH   4   7
ATOM      7  O   UNL d   1       0.364  -0.786  -0.444  0.00  0.00    -0.526 OA
ATOM      8  H5  UNL d   1      -0.432  -0.496  -0.919  0.00  0.00     0.418 HD
ENDBRANCH   4   7
TORSDOF 1
ENDMDL
