MODEL 1
REMARK minimizedAffinity -3.76381707
REMARK minimizedRMSD -1
REMARK  1 active torsions:
REMARK  status: ('A' for Active; 'I' for Inactive)
REMARK    1  A    between atoms: C3_4  and  O_7 
ROOT
ATOM      1  C   UNL d   1      -1.573   0.324   0.724  0.00  0.00    -0.033 A 
ATOM      2  C1  UNL d   1      -0.501  -0.168  -0.022  0.00  0.00     0.039 A 
ATOM      3  C2  UNL d   1       0.673  -0.567   0.619  0.00  0.00    -0.080 A 
ATOM      4  C3  UNL d   1       0.762  -0.471   2.005  0.00  0.00     0.150 A 
ATOM      5  C4  UNL d   1      -0.304   0.015   2.755  0.00  0.00    -0.007 A 
ATOM      6  C5  UNL d   1      -1.475   0.414   2.113  0.00  0.00     0.039 A 
ENDROOT
BRANCH   4   7
ATOM      7  O   UNL d   1       1.889  -0.844   2.674  0.00  0.00    -0.526 OA
ATOM      8  H5  UNL d   1       2.552  -1.132   2.025  0.00  0.00     0.418 HD
ENDBRANCH   4   7
TORSDOF 1
ENDMDL
