MODEL 1
REMARK minimizedAffinity -4.3882618
REMARK minimizedRMSD -1
REMARK  1 active torsions:
REMARK  status: ('A' for Active; 'I' for Inactive)
REMARK    1  A    between atoms: C3_4  and  O_7 
ROOT
ATOM      1  C   UNL d   1      -0.572  -0.665   0.030  0.00  0.00    -0.033 A 
ATOM      2  C1  UNL d   1      -1.292  -1.011   1.175  0.00  0.00     0.039 A 
ATOM      3  C2  UNL d   1      -1.465  -0.079   2.201  0.00  0.00    -0.080 A 
ATOM      4  C3  UNL d   1      -0.915   1.193   2.069  0.00  0.00     0.150 A 
ATOM      5  C4  UNL d   1      -0.200   1.545   0.929  0.00  0.00    -0.007 A 
ATOM      6  C5  UNL d   1      -0.027   0.614  -0.094  0.00  0.00     0.039 A 
ENDROOT
BRANCH   4   7
ATOM      7  O   UNL d   1      -1.053   2.134   3.046  0.00  0.00    -0.526 OA
ATOM      8  H5  UNL d   1      -1.545   1.740   3.785  0.00  0.00     0.418 HD
ENDBRANCH   4   7
TORSDOF 1
ENDMDL
