MODEL 1
REMARK minimizedAffinity -4.94758654
REMARK minimizedRMSD -1
REMARK  1 active torsions:
REMARK  status: ('A' for Active; 'I' for Inactive)
REMARK    1  A    between atoms: C3_4  and  O_7 
ROOT
ATOM      1  C   UNL d   1      -0.263  -0.676   0.373  0.00  0.00    -0.033 A 
ATOM      2  C1  UNL d   1      -1.574  -0.312   0.689  0.00  0.00     0.039 A 
ATOM      3  C2  UNL d   1      -1.819   0.596   1.721  0.00  0.00    -0.080 A 
ATOM      4  C3  UNL d   1      -0.747   1.134   2.427  0.00  0.00     0.150 A 
ATOM      5  C4  UNL d   1       0.561   0.779   2.115  0.00  0.00    -0.007 A 
ATOM      6  C5  UNL d   1       0.804  -0.129   1.085  0.00  0.00     0.039 A 
ENDROOT
BRANCH   4   7
ATOM      7  O   UNL d   1      -0.937   2.020   3.445  0.00  0.00    -0.526 OA
ATOM      8  H5  UNL d   1      -1.893   2.149   3.566  0.00  0.00     0.418 HD
ENDBRANCH   4   7
TORSDOF 1
ENDMDL
