MODEL 1
REMARK minimizedAffinity -0.424428433
REMARK minimizedRMSD -1
REMARK  1 active torsions:
REMARK  status: ('A' for Active; 'I' for Inactive)
REMARK    1  A    between atoms: C3_4  and  O_7 
ROOT
ATOM      1  C   UNL d   1      -0.179   1.437   1.709  0.00  0.00    -0.033 A 
ATOM      2  C1  UNL d   1       0.276   0.208   1.228  0.00  0.00     0.039 A 
ATOM      3  C2  UNL d   1       0.558  -0.831   2.117  0.00  0.00    -0.080 A 
ATOM      4  C3  UNL d   1       0.378  -0.629   3.482  0.00  0.00     0.150 A 
ATOM      5  C4  UNL d   1      -0.079   0.591   3.969  0.00  0.00    -0.007 A 
ATOM      6  C5  UNL d   1      -0.358   1.628   3.079  0.00  0.00     0.039 A 
ENDROOT
BRANCH   4   7
ATOM      7  O   UNL d   1       0.644  -1.612   4.389  0.00  0.00    -0.526 OA
ATOM      8  H5  UNL d   1       0.980  -2.389   3.911  0.00  0.00     0.418 HD
ENDBRANCH   4   7
TORSDOF 1
ENDMDL
