MODEL 1
REMARK minimizedAffinity -3.25299788
REMARK minimizedRMSD -1
REMARK  1 active torsions:
REMARK  status: ('A' for Active; 'I' for Inactive)
REMARK    1  A    between atoms: C3_4  and  O_7 
ROOT
ATOM      1  C   UNL d   1      -0.069   0.397   5.314  0.00  0.00    -0.033 A 
ATOM      2  C1  UNL d   1      -0.615   1.125   4.254  0.00  0.00     0.039 A 
ATOM      3  C2  UNL d   1      -0.224   0.852   2.942  0.00  0.00    -0.080 A 
ATOM      4  C3  UNL d   1       0.712  -0.151   2.703  0.00  0.00     0.150 A 
ATOM      5  C4  UNL d   1       1.257  -0.883   3.753  0.00  0.00    -0.007 A 
ATOM      6  C5  UNL d   1       0.865  -0.608   5.063  0.00  0.00     0.039 A 
ENDROOT
BRANCH   4   7
ATOM      7  O   UNL d   1       1.128  -0.450   1.440  0.00  0.00    -0.526 OA
ATOM      8  H5  UNL d   1       0.689   0.155   0.820  0.00  0.00     0.418 HD
ENDBRANCH   4   7
TORSDOF 1
ENDMDL
