MODEL 1
REMARK minimizedAffinity 7.32332182
REMARK minimizedRMSD -1
REMARK  2 active torsions:
REMARK  status: ('A' for Active; 'I' for Inactive)
REMARK    1  A    between atoms: C1_2  and  C2_3 
REMARK    2  A    between atoms: C2_3  and  C3_4 
ROOT
ATOM      1  C3  UNL d   1       0.360  -1.817  -0.948  0.00  0.00    -0.075 A 
ATOM      2  C4  UNL d   1      -0.862  -1.796  -0.261  0.00  0.00     0.002 A 
ATOM      3  C5  UNL d   1      -1.181  -2.804   0.648  0.00  0.00     0.002 A 
ATOM      4  C6  UNL d   1      -0.289  -3.850   0.875  0.00  0.00    -0.004 A 
ATOM      5  C7  UNL d   1       0.921  -3.890   0.186  0.00  0.00     0.002 A 
ATOM      6  C8  UNL d   1       1.245  -2.880  -0.721  0.00  0.00     0.002 A 
ENDROOT
BRANCH   1   7
ATOM      7  C2  UNL d   1       0.725  -0.712  -1.911  0.00  0.00     0.056 C 
BRANCH   7   8
ATOM      8  C1  UNL d   1       0.148   0.657  -1.537  0.00  0.00     0.007 C 
ATOM      9  C   UNL d   1       1.178   1.593  -0.919  0.00  0.00     0.009 C 
ENDBRANCH   7   8
ENDBRANCH   1   7
TORSDOF 2
ENDMDL
