MODEL 1
REMARK minimizedAffinity -0.858347416
REMARK minimizedRMSD -1
REMARK  2 active torsions:
REMARK  status: ('A' for Active; 'I' for Inactive)
REMARK    1  A    between atoms: C1_2  and  C2_3 
REMARK    2  A    between atoms: C2_3  and  C3_4 
ROOT
ATOM      1  C3  UNL d   1      -0.914  -2.354   1.471  0.00  0.00    -0.075 A 
ATOM      2  C4  UNL d   1       0.098  -3.226   1.045  0.00  0.00     0.002 A 
ATOM      3  C5  UNL d   1       0.631  -3.119  -0.240  0.00  0.00     0.002 A 
ATOM      4  C6  UNL d   1       0.153  -2.148  -1.117  0.00  0.00    -0.004 A 
ATOM      5  C7  UNL d   1      -0.863  -1.286  -0.710  0.00  0.00     0.002 A 
ATOM      6  C8  UNL d   1      -1.395  -1.388   0.577  0.00  0.00     0.002 A 
ENDROOT
BRANCH   1   7
ATOM      7  C2  UNL d   1      -1.474  -2.445   2.870  0.00  0.00     0.056 C 
BRANCH   7   8
ATOM      8  C1  UNL d   1      -1.415  -1.129   3.653  0.00  0.00     0.007 C 
ATOM      9  C   UNL d   1      -2.122  -1.200   5.000  0.00  0.00     0.009 C 
ENDBRANCH   7   8
ENDBRANCH   1   7
TORSDOF 2
ENDMDL
