MODEL 1
REMARK minimizedAffinity 7.58781481
REMARK minimizedRMSD -1
REMARK  2 active torsions:
REMARK  status: ('A' for Active; 'I' for Inactive)
REMARK    1  A    between atoms: C1_2  and  C2_3 
REMARK    2  A    between atoms: C2_3  and  C3_4 
ROOT
ATOM      1  C3  UNL d   1       1.313  -0.856  -1.398  0.00  0.00    -0.075 A 
ATOM      2  C4  UNL d   1       2.479  -0.844  -0.618  0.00  0.00     0.002 A 
ATOM      3  C5  UNL d   1       3.067   0.364  -0.243  0.00  0.00     0.002 A 
ATOM      4  C6  UNL d   1       2.505   1.572  -0.649  0.00  0.00    -0.004 A 
ATOM      5  C7  UNL d   1       1.356   1.571  -1.438  0.00  0.00     0.002 A 
ATOM      6  C8  UNL d   1       0.763   0.364  -1.812  0.00  0.00     0.002 A 
ENDROOT
BRANCH   1   7
ATOM      7  C2  UNL d   1       0.655  -2.160  -1.783  0.00  0.00     0.056 C 
BRANCH   7   8
ATOM      8  C1  UNL d   1      -0.436  -2.619  -0.810  0.00  0.00     0.007 C 
ATOM      9  C   UNL d   1      -0.042  -3.850  -0.005  0.00  0.00     0.009 C 
ENDBRANCH   7   8
ENDBRANCH   1   7
TORSDOF 2
ENDMDL
