MODEL 1
REMARK minimizedAffinity 0.976819277
REMARK minimizedRMSD -1
REMARK  2 active torsions:
REMARK  status: ('A' for Active; 'I' for Inactive)
REMARK    1  A    between atoms: C1_2  and  C2_3 
REMARK    2  A    between atoms: C2_3  and  C3_4 
ROOT
ATOM      1  C3  UNL d   1       3.905   3.460  -2.967  0.00  0.00    -0.075 A 
ATOM      2  C4  UNL d   1       3.317   4.733  -2.944  0.00  0.00     0.002 A 
ATOM      3  C5  UNL d   1       4.060   5.863  -3.285  0.00  0.00     0.002 A 
ATOM      4  C6  UNL d   1       5.401   5.737  -3.643  0.00  0.00    -0.004 A 
ATOM      5  C7  UNL d   1       6.000   4.479  -3.653  0.00  0.00     0.002 A 
ATOM      6  C8  UNL d   1       5.257   3.346  -3.316  0.00  0.00     0.002 A 
ENDROOT
BRANCH   1   7
ATOM      7  C2  UNL d   1       3.098   2.230  -2.627  0.00  0.00     0.056 C 
BRANCH   7   8
ATOM      8  C1  UNL d   1       2.586   2.199  -1.183  0.00  0.00     0.007 C 
ATOM      9  C   UNL d   1       3.153   1.044  -0.369  0.00  0.00     0.009 C 
ENDBRANCH   7   8
ENDBRANCH   1   7
TORSDOF 2
ENDMDL
