MODEL 1
REMARK minimizedAffinity 5.95543671
REMARK minimizedRMSD -1
REMARK  2 active torsions:
REMARK  status: ('A' for Active; 'I' for Inactive)
REMARK    1  A    between atoms: C1_2  and  C2_3 
REMARK    2  A    between atoms: C2_3  and  C3_4 
ROOT
ATOM      1  C3  UNL d   1       0.432  -2.093  -0.883  0.00  0.00    -0.075 A 
ATOM      2  C4  UNL d   1      -0.919  -2.182  -0.516  0.00  0.00     0.002 A 
ATOM      3  C5  UNL d   1      -1.318  -3.033   0.516  0.00  0.00     0.002 A 
ATOM      4  C6  UNL d   1      -0.376  -3.811   1.185  0.00  0.00    -0.004 A 
ATOM      5  C7  UNL d   1       0.966  -3.743   0.817  0.00  0.00     0.002 A 
ATOM      6  C8  UNL d   1       1.369  -2.890  -0.212  0.00  0.00     0.002 A 
ENDROOT
BRANCH   1   7
ATOM      7  C2  UNL d   1       0.874  -1.153  -1.978  0.00  0.00     0.056 C 
BRANCH   7   8
ATOM      8  C1  UNL d   1       0.653   0.329  -1.656  0.00  0.00     0.007 C 
ATOM      9  C   UNL d   1       1.914   1.033  -1.174  0.00  0.00     0.009 C 
ENDBRANCH   7   8
ENDBRANCH   1   7
TORSDOF 2
ENDMDL
