MODEL 1
REMARK minimizedAffinity 10.5211325
REMARK minimizedRMSD -1
REMARK  2 active torsions:
REMARK  status: ('A' for Active; 'I' for Inactive)
REMARK    1  A    between atoms: C1_2  and  C2_3 
REMARK    2  A    between atoms: C2_3  and  C3_4 
ROOT
ATOM      1  C3  UNL d   1      -0.531   3.465  -0.042  0.00  0.00    -0.075 A 
ATOM      2  C4  UNL d   1      -1.232   2.736  -1.013  0.00  0.00     0.002 A 
ATOM      3  C5  UNL d   1      -0.667   1.599  -1.591  0.00  0.00     0.002 A 
ATOM      4  C6  UNL d   1       0.609   1.183  -1.214  0.00  0.00    -0.004 A 
ATOM      5  C7  UNL d   1       1.321   1.910  -0.262  0.00  0.00     0.002 A 
ATOM      6  C8  UNL d   1       0.756   3.045   0.321  0.00  0.00     0.002 A 
ENDROOT
BRANCH   1   7
ATOM      7  C2  UNL d   1      -1.149   4.680   0.609  0.00  0.00     0.056 C 
BRANCH   7   8
ATOM      8  C1  UNL d   1      -0.835   5.998  -0.106  0.00  0.00     0.007 C 
ATOM      9  C   UNL d   1       0.522   5.998  -0.797  0.00  0.00     0.009 C 
ENDBRANCH   7   8
ENDBRANCH   1   7
TORSDOF 2
ENDMDL
