MODEL 1
REMARK minimizedAffinity 0.719567358
REMARK minimizedRMSD -1
REMARK  2 active torsions:
REMARK  status: ('A' for Active; 'I' for Inactive)
REMARK    1  A    between atoms: C1_2  and  C2_3 
REMARK    2  A    between atoms: C2_3  and  C3_4 
ROOT
ATOM      1  C3  UNL d   1      -0.431  -1.555  -0.616  0.00  0.00    -0.075 A 
ATOM      2  C4  UNL d   1      -0.813  -0.511   0.240  0.00  0.00     0.002 A 
ATOM      3  C5  UNL d   1      -1.204  -0.778   1.552  0.00  0.00     0.002 A 
ATOM      4  C6  UNL d   1      -1.227  -2.090   2.022  0.00  0.00    -0.004 A 
ATOM      5  C7  UNL d   1      -0.865  -3.136   1.176  0.00  0.00     0.002 A 
ATOM      6  C8  UNL d   1      -0.470  -2.871  -0.136  0.00  0.00     0.002 A 
ENDROOT
BRANCH   1   7
ATOM      7  C2  UNL d   1       0.021  -1.270  -2.028  0.00  0.00     0.056 C 
BRANCH   7   8
ATOM      8  C1  UNL d   1       0.128   0.222  -2.359  0.00  0.00     0.007 C 
ATOM      9  C   UNL d   1       1.423   0.587  -3.072  0.00  0.00     0.009 C 
ENDBRANCH   7   8
ENDBRANCH   1   7
TORSDOF 2
ENDMDL
