MODEL 1
REMARK minimizedAffinity -1.91426253
REMARK minimizedRMSD -1
REMARK  2 active torsions:
REMARK  status: ('A' for Active; 'I' for Inactive)
REMARK    1  A    between atoms: C1_2  and  C2_3 
REMARK    2  A    between atoms: C2_3  and  C3_4 
ROOT
ATOM      1  C3  UNL d   1       0.555   1.942   0.255  0.00  0.00    -0.075 A 
ATOM      2  C4  UNL d   1       1.283   1.329  -0.775  0.00  0.00     0.002 A 
ATOM      3  C5  UNL d   1       1.093  -0.021  -1.071  0.00  0.00     0.002 A 
ATOM      4  C6  UNL d   1       0.184  -0.777  -0.335  0.00  0.00    -0.004 A 
ATOM      5  C7  UNL d   1      -0.533  -0.183   0.702  0.00  0.00     0.002 A 
ATOM      6  C8  UNL d   1      -0.348   1.169   0.997  0.00  0.00     0.002 A 
ENDROOT
BRANCH   1   7
ATOM      7  C2  UNL d   1       0.735   3.409   0.561  0.00  0.00     0.056 C 
BRANCH   7   8
ATOM      8  C1  UNL d   1       0.731   3.740   2.057  0.00  0.00     0.007 C 
ATOM      9  C   UNL d   1      -0.463   4.584   2.482  0.00  0.00     0.009 C 
ENDBRANCH   7   8
ENDBRANCH   1   7
TORSDOF 2
ENDMDL
