MODEL 1
REMARK minimizedAffinity -5.43201256
REMARK minimizedRMSD -1
REMARK  2 active torsions:
REMARK  status: ('A' for Active; 'I' for Inactive)
REMARK    1  A    between atoms: C1_2  and  C2_3 
REMARK    2  A    between atoms: C2_3  and  C3_4 
ROOT
ATOM      1  C3  UNL d   1       0.524  -0.933  -0.661  0.00  0.00    -0.075 A 
ATOM      2  C4  UNL d   1       0.797   0.229  -1.396  0.00  0.00     0.002 A 
ATOM      3  C5  UNL d   1       0.151   1.428  -1.092  0.00  0.00     0.002 A 
ATOM      4  C6  UNL d   1      -0.782   1.477  -0.058  0.00  0.00    -0.004 A 
ATOM      5  C7  UNL d   1      -1.073   0.324   0.668  0.00  0.00     0.002 A 
ATOM      6  C8  UNL d   1      -0.425  -0.875   0.369  0.00  0.00     0.002 A 
ENDROOT
BRANCH   1   7
ATOM      7  C2  UNL d   1       1.242  -2.227  -0.966  0.00  0.00     0.056 C 
BRANCH   7   8
ATOM      8  C1  UNL d   1       1.310  -3.196   0.219  0.00  0.00     0.007 C 
ATOM      9  C   UNL d   1       0.510  -4.473  -0.003  0.00  0.00     0.009 C 
ENDBRANCH   7   8
ENDBRANCH   1   7
TORSDOF 2
ENDMDL
