MODEL 1
REMARK minimizedAffinity 8.90047455
REMARK minimizedRMSD -1
REMARK  2 active torsions:
REMARK  status: ('A' for Active; 'I' for Inactive)
REMARK    1  A    between atoms: C1_2  and  C2_3 
REMARK    2  A    between atoms: C2_3  and  C3_4 
ROOT
ATOM      1  C3  UNL d   1       3.748  -3.319  -3.664  0.00  0.00    -0.075 A 
ATOM      2  C4  UNL d   1       3.052  -4.433  -4.157  0.00  0.00     0.002 A 
ATOM      3  C5  UNL d   1       3.482  -5.080  -5.315  0.00  0.00     0.002 A 
ATOM      4  C6  UNL d   1       4.604  -4.618  -6.000  0.00  0.00    -0.004 A 
ATOM      5  C7  UNL d   1       5.293  -3.502  -5.528  0.00  0.00     0.002 A 
ATOM      6  C8  UNL d   1       4.867  -2.855  -4.367  0.00  0.00     0.002 A 
ENDROOT
BRANCH   1   7
ATOM      7  C2  UNL d   1       3.305  -2.632  -2.394  0.00  0.00     0.056 C 
BRANCH   7   8
ATOM      8  C1  UNL d   1       3.816  -1.194  -2.252  0.00  0.00     0.007 C 
ATOM      9  C   UNL d   1       2.842  -0.279  -1.522  0.00  0.00     0.009 C 
ENDBRANCH   7   8
ENDBRANCH   1   7
TORSDOF 2
ENDMDL
