MODEL 1
REMARK minimizedAffinity 4.10394001
REMARK minimizedRMSD -1
REMARK  2 active torsions:
REMARK  status: ('A' for Active; 'I' for Inactive)
REMARK    1  A    between atoms: C1_2  and  C2_3 
REMARK    2  A    between atoms: C2_3  and  C3_4 
ROOT
ATOM      1  C3  UNL d   1      -0.802  -1.340  -0.289  0.00  0.00    -0.075 A 
ATOM      2  C4  UNL d   1      -1.542  -2.227   0.505  0.00  0.00     0.002 A 
ATOM      3  C5  UNL d   1      -1.973  -1.849   1.777  0.00  0.00     0.002 A 
ATOM      4  C6  UNL d   1      -1.661  -0.585   2.274  0.00  0.00    -0.004 A 
ATOM      5  C7  UNL d   1      -0.913   0.299   1.499  0.00  0.00     0.002 A 
ATOM      6  C8  UNL d   1      -0.484  -0.076   0.225  0.00  0.00     0.002 A 
ENDROOT
BRANCH   1   7
ATOM      7  C2  UNL d   1      -0.358  -1.733  -1.678  0.00  0.00     0.056 C 
BRANCH   7   8
ATOM      8  C1  UNL d   1      -1.204  -2.841  -2.313  0.00  0.00     0.007 C 
ATOM      9  C   UNL d   1      -0.650  -3.332  -3.644  0.00  0.00     0.009 C 
ENDBRANCH   7   8
ENDBRANCH   1   7
TORSDOF 2
ENDMDL
