MODEL 1
REMARK minimizedAffinity -1.13875127
REMARK minimizedRMSD -1
REMARK  2 active torsions:
REMARK  status: ('A' for Active; 'I' for Inactive)
REMARK    1  A    between atoms: C1_2  and  C2_3 
REMARK    2  A    between atoms: C2_3  and  C3_4 
ROOT
ATOM      1  C3  UNL d   1      -0.797  -2.171  -0.318  0.00  0.00    -0.075 A 
ATOM      2  C4  UNL d   1      -0.713  -1.939   1.063  0.00  0.00     0.002 A 
ATOM      3  C5  UNL d   1      -0.201  -0.736   1.549  0.00  0.00     0.002 A 
ATOM      4  C6  UNL d   1       0.242   0.244   0.664  0.00  0.00    -0.004 A 
ATOM      5  C7  UNL d   1       0.179   0.018  -0.709  0.00  0.00     0.002 A 
ATOM      6  C8  UNL d   1      -0.337  -1.183  -1.199  0.00  0.00     0.002 A 
ENDROOT
BRANCH   1   7
ATOM      7  C2  UNL d   1      -1.378  -3.459  -0.851  0.00  0.00     0.056 C 
BRANCH   7   8
ATOM      8  C1  UNL d   1      -1.509  -3.500  -2.377  0.00  0.00     0.007 C 
ATOM      9  C   UNL d   1      -2.906  -3.878  -2.850  0.00  0.00     0.009 C 
ENDBRANCH   7   8
ENDBRANCH   1   7
TORSDOF 2
ENDMDL
