MODEL 1
REMARK minimizedAffinity -0.694621623
REMARK minimizedRMSD -1
REMARK  0 active torsions:
REMARK  status: ('A' for Active; 'I' for Inactive)
ROOT
ATOM      1  C   UNL d   1      -2.973   4.270  -5.986  0.00  0.00     0.023 A 
ATOM      2  C1  UNL d   1      -2.333   5.509  -5.989  0.00  0.00     0.003 A 
ATOM      3  C2  UNL d   1      -0.939   5.576  -5.993  0.00  0.00     0.048 A 
ATOM      4  C3  UNL d   1      -0.190   4.400  -5.994  0.00  0.00     0.023 A 
ATOM      5  C4  UNL d   1      -0.826   3.158  -5.991  0.00  0.00     0.048 A 
ATOM      6  C5  UNL d   1      -2.221   3.095  -5.987  0.00  0.00     0.003 A 
ATOM      7  I   UNL d   1       1.886   4.497  -6.000  0.00  0.00    -0.146 I 
ENDROOT
TORSDOF 0
ENDMDL
