MODEL 1
REMARK minimizedAffinity 3.60196042
REMARK minimizedRMSD -1
REMARK  0 active torsions:
REMARK  status: ('A' for Active; 'I' for Inactive)
ROOT
ATOM      1  C   UNL d   1       0.820  -2.053  -3.612  0.00  0.00     0.023 A 
ATOM      2  C1  UNL d   1       0.485  -3.386  -3.847  0.00  0.00     0.003 A 
ATOM      3  C2  UNL d   1      -0.572  -3.975  -3.150  0.00  0.00     0.048 A 
ATOM      4  C3  UNL d   1      -1.290  -3.225  -2.220  0.00  0.00     0.023 A 
ATOM      5  C4  UNL d   1      -0.959  -1.890  -1.983  0.00  0.00     0.048 A 
ATOM      6  C5  UNL d   1       0.099  -1.305  -2.681  0.00  0.00     0.003 A 
ATOM      7  I   UNL d   1      -2.864  -4.099  -1.181  0.00  0.00    -0.146 I 
ENDROOT
TORSDOF 0
ENDMDL
