MODEL 1
REMARK minimizedAffinity 0.718784034
REMARK minimizedRMSD -1
REMARK  0 active torsions:
REMARK  status: ('A' for Active; 'I' for Inactive)
ROOT
ATOM      1  C   UNL d   1       1.190   4.353  -5.916  0.00  0.00     0.023 A 
ATOM      2  C1  UNL d   1       2.085   3.284  -5.976  0.00  0.00     0.003 A 
ATOM      3  C2  UNL d   1       3.460   3.524  -6.000  0.00  0.00     0.048 A 
ATOM      4  C3  UNL d   1       3.934   4.835  -5.963  0.00  0.00     0.023 A 
ATOM      5  C4  UNL d   1       3.043   5.907  -5.902  0.00  0.00     0.048 A 
ATOM      6  C5  UNL d   1       1.668   5.662  -5.879  0.00  0.00     0.003 A 
ATOM      7  I   UNL d   1       5.981   5.195  -5.998  0.00  0.00    -0.146 I 
ENDROOT
TORSDOF 0
ENDMDL
