MODEL 1
REMARK minimizedAffinity -1.54989445
REMARK minimizedRMSD -1
REMARK  0 active torsions:
REMARK  status: ('A' for Active; 'I' for Inactive)
ROOT
ATOM      1  C   UNL d   1      -3.448   3.826  -5.987  0.00  0.00     0.023 A 
ATOM      2  C1  UNL d   1      -2.759   5.039  -5.984  0.00  0.00     0.003 A 
ATOM      3  C2  UNL d   1      -1.362   5.051  -5.987  0.00  0.00     0.048 A 
ATOM      4  C3  UNL d   1      -0.661   3.845  -5.994  0.00  0.00     0.023 A 
ATOM      5  C4  UNL d   1      -1.346   2.629  -5.998  0.00  0.00     0.048 A 
ATOM      6  C5  UNL d   1      -2.742   2.623  -5.994  0.00  0.00     0.003 A 
ATOM      7  I   UNL d   1       1.417   3.860  -5.999  0.00  0.00    -0.146 I 
ENDROOT
TORSDOF 0
ENDMDL
