MODEL 1
REMARK minimizedAffinity -0.727533996
REMARK minimizedRMSD -1
REMARK  0 active torsions:
REMARK  status: ('A' for Active; 'I' for Inactive)
ROOT
ATOM      1  C   UNL d   1       1.129   4.781  -5.992  0.00  0.00     0.023 A 
ATOM      2  C1  UNL d   1       1.683   3.500  -5.987  0.00  0.00     0.003 A 
ATOM      3  C2  UNL d   1       3.070   3.339  -5.990  0.00  0.00     0.048 A 
ATOM      4  C3  UNL d   1       3.897   4.462  -5.996  0.00  0.00     0.023 A 
ATOM      5  C4  UNL d   1       3.347   5.744  -6.000  0.00  0.00     0.048 A 
ATOM      6  C5  UNL d   1       1.960   5.901  -5.998  0.00  0.00     0.003 A 
ATOM      7  I   UNL d   1       5.962   4.224  -5.999  0.00  0.00    -0.146 I 
ENDROOT
TORSDOF 0
ENDMDL
