MODEL 1
REMARK minimizedAffinity 2.56716657
REMARK minimizedRMSD -1
REMARK  0 active torsions:
REMARK  status: ('A' for Active; 'I' for Inactive)
ROOT
ATOM      1  C   UNL d   1       2.948   2.556  -2.437  0.00  0.00     0.023 A 
ATOM      2  C1  UNL d   1       2.067   3.325  -1.676  0.00  0.00     0.003 A 
ATOM      3  C2  UNL d   1       2.557   4.157  -0.667  0.00  0.00     0.048 A 
ATOM      4  C3  UNL d   1       3.929   4.216  -0.425  0.00  0.00     0.023 A 
ATOM      5  C4  UNL d   1       4.814   3.450  -1.184  0.00  0.00     0.048 A 
ATOM      6  C5  UNL d   1       4.320   2.619  -2.191  0.00  0.00     0.003 A 
ATOM      7  I   UNL d   1       4.660   5.454   1.077  0.00  0.00    -0.146 I 
ENDROOT
TORSDOF 0
ENDMDL
