MODEL 1
REMARK minimizedAffinity 0.508289993
REMARK minimizedRMSD -1
REMARK  0 active torsions:
REMARK  status: ('A' for Active; 'I' for Inactive)
ROOT
ATOM      1  C   UNL d   1       0.284   3.997  -5.979  0.00  0.00     0.023 A 
ATOM      2  C1  UNL d   1       0.673   5.336  -5.992  0.00  0.00     0.003 A 
ATOM      3  C2  UNL d   1       2.029   5.671  -5.997  0.00  0.00     0.048 A 
ATOM      4  C3  UNL d   1       2.990   4.661  -5.991  0.00  0.00     0.023 A 
ATOM      5  C4  UNL d   1       2.606   3.319  -5.979  0.00  0.00     0.048 A 
ATOM      6  C5  UNL d   1       1.249   2.989  -5.973  0.00  0.00     0.003 A 
ATOM      7  I   UNL d   1       5.009   5.157  -5.999  0.00  0.00    -0.146 I 
ENDROOT
TORSDOF 0
ENDMDL
