MODEL 1
REMARK minimizedAffinity -1.9800992
REMARK minimizedRMSD -1
REMARK  0 active torsions:
REMARK  status: ('A' for Active; 'I' for Inactive)
ROOT
ATOM      1  C   UNL d   1       0.141   3.000  -5.995  0.00  0.00     0.023 A 
ATOM      2  C1  UNL d   1       1.220   2.116  -5.990  0.00  0.00     0.003 A 
ATOM      3  C2  UNL d   1       2.527   2.608  -5.990  0.00  0.00     0.048 A 
ATOM      4  C3  UNL d   1       2.748   3.985  -5.993  0.00  0.00     0.023 A 
ATOM      5  C4  UNL d   1       1.671   4.873  -5.998  0.00  0.00     0.048 A 
ATOM      6  C5  UNL d   1       0.366   4.376  -5.999  0.00  0.00     0.003 A 
ATOM      7  I   UNL d   1       4.692   4.719  -5.993  0.00  0.00    -0.146 I 
ENDROOT
TORSDOF 0
ENDMDL
