MODEL 1
REMARK minimizedAffinity 2.02319217
REMARK minimizedRMSD -1
REMARK  0 active torsions:
REMARK  status: ('A' for Active; 'I' for Inactive)
ROOT
ATOM      1  C   UNL d   1      -2.751   4.606  -5.962  0.00  0.00     0.023 A 
ATOM      2  C1  UNL d   1      -2.067   3.391  -5.986  0.00  0.00     0.003 A 
ATOM      3  C2  UNL d   1      -0.670   3.374  -5.998  0.00  0.00     0.048 A 
ATOM      4  C3  UNL d   1       0.035   4.577  -5.983  0.00  0.00     0.023 A 
ATOM      5  C4  UNL d   1      -0.646   5.795  -5.958  0.00  0.00     0.048 A 
ATOM      6  C5  UNL d   1      -2.042   5.807  -5.948  0.00  0.00     0.003 A 
ATOM      7  I   UNL d   1       2.113   4.556  -6.000  0.00  0.00    -0.146 I 
ENDROOT
TORSDOF 0
ENDMDL
