MODEL 1
REMARK minimizedAffinity -2.80998421
REMARK minimizedRMSD -1
REMARK  0 active torsions:
REMARK  status: ('A' for Active; 'I' for Inactive)
ROOT
ATOM      1  C   UNL d   1      -2.438   3.004  -6.000  0.00  0.00     0.023 A 
ATOM      2  C1  UNL d   1      -1.926   4.302  -5.999  0.00  0.00     0.003 A 
ATOM      3  C2  UNL d   1      -0.545   4.509  -5.998  0.00  0.00     0.048 A 
ATOM      4  C3  UNL d   1       0.318   3.414  -5.998  0.00  0.00     0.023 A 
ATOM      5  C4  UNL d   1      -0.190   2.114  -6.000  0.00  0.00     0.048 A 
ATOM      6  C5  UNL d   1      -1.571   1.911  -6.000  0.00  0.00     0.003 A 
ATOM      7  I   UNL d   1       2.374   3.719  -5.996  0.00  0.00    -0.146 I 
ENDROOT
TORSDOF 0
ENDMDL
