MODEL 1
REMARK minimizedAffinity 5.58671713
REMARK minimizedRMSD -1
REMARK  0 active torsions:
REMARK  status: ('A' for Active; 'I' for Inactive)
ROOT
ATOM      1  N1  IND d   1      -0.651  -1.522   1.174  0.00  0.00    -0.196 N 
ATOM      2  C2  IND d   1      -0.999  -2.389   0.176  0.00  0.00     0.054 A 
ATOM      3  C3  IND d   1      -0.127  -3.421   0.124  0.00  0.00    -0.031 A 
ATOM      4  C4  IND d   1       1.884  -3.940   1.645  0.00  0.00     0.051 A 
ATOM      5  C5  IND d   1       2.619  -3.421   2.674  0.00  0.00    -0.031 A 
ATOM      6  C6  IND d   1       2.294  -2.219   3.268  0.00  0.00     0.015 A 
ATOM      7  C7  IND d   1       1.209  -1.494   2.863  0.00  0.00    -0.016 A 
ATOM      8  C8  IND d   1       0.465  -2.015   1.814  0.00  0.00    -0.047 A 
ATOM      9  C9  IND d   1       0.815  -3.213   1.178  0.00  0.00    -0.096 A 
ATOM     10  HN1 IND d   1      -1.060  -0.791   1.369  0.00  0.00     0.298 HD
ENDROOT
TORSDOF 0
ENDMDL
