MODEL 1
REMARK minimizedAffinity 7.24018049
REMARK minimizedRMSD -1
REMARK  0 active torsions:
REMARK  status: ('A' for Active; 'I' for Inactive)
ROOT
ATOM      1  N1  IND d   1       3.299  -3.246   5.895  0.00  0.00    -0.196 N 
ATOM      2  C2  IND d   1       4.554  -2.713   5.992  0.00  0.00     0.054 A 
ATOM      3  C3  IND d   1       4.737  -1.765   5.045  0.00  0.00    -0.031 A 
ATOM      4  C4  IND d   1       3.077  -0.855   3.301  0.00  0.00     0.051 A 
ATOM      5  C5  IND d   1       1.820  -1.056   2.802  0.00  0.00    -0.031 A 
ATOM      6  C6  IND d   1       0.974  -2.014   3.322  0.00  0.00     0.015 A 
ATOM      7  C7  IND d   1       1.351  -2.804   4.371  0.00  0.00    -0.016 A 
ATOM      8  C8  IND d   1       2.629  -2.608   4.875  0.00  0.00    -0.047 A 
ATOM      9  C9  IND d   1       3.507  -1.666   4.325  0.00  0.00    -0.096 A 
ATOM     10  HN1 IND d   1       2.982  -3.875   6.389  0.00  0.00     0.298 HD
ENDROOT
TORSDOF 0
ENDMDL
