MODEL 1
REMARK minimizedAffinity 1.72926486
REMARK minimizedRMSD -1
REMARK  0 active torsions:
REMARK  status: ('A' for Active; 'I' for Inactive)
ROOT
ATOM      1  N1  IND d   1       4.778  -2.816   5.725  0.00  0.00    -0.196 N 
ATOM      2  C2  IND d   1       5.999  -2.383   5.289  0.00  0.00     0.054 A 
ATOM      3  C3  IND d   1       5.869  -1.692   4.134  0.00  0.00    -0.031 A 
ATOM      4  C4  IND d   1       3.736  -1.064   2.836  0.00  0.00     0.051 A 
ATOM      5  C5  IND d   1       2.384  -1.266   2.823  0.00  0.00    -0.031 A 
ATOM      6  C6  IND d   1       1.748  -2.007   3.798  0.00  0.00     0.015 A 
ATOM      7  C7  IND d   1       2.442  -2.567   4.833  0.00  0.00    -0.016 A 
ATOM      8  C8  IND d   1       3.816  -2.371   4.845  0.00  0.00    -0.047 A 
ATOM      9  C9  IND d   1       4.472  -1.655   3.835  0.00  0.00    -0.096 A 
ATOM     10  HN1 IND d   1       4.635  -3.287   6.429  0.00  0.00     0.298 HD
ENDROOT
TORSDOF 0
ENDMDL
