MODEL 1
REMARK minimizedAffinity 9.75209522
REMARK minimizedRMSD -1
REMARK  0 active torsions:
REMARK  status: ('A' for Active; 'I' for Inactive)
ROOT
ATOM      1  N1  IND d   1       2.309  -2.084   3.027  0.00  0.00    -0.196 N 
ATOM      2  C2  IND d   1       2.318  -2.712   4.241  0.00  0.00     0.054 A 
ATOM      3  C3  IND d   1       2.370  -1.803   5.240  0.00  0.00    -0.031 A 
ATOM      4  C4  IND d   1       2.345   0.768   5.115  0.00  0.00     0.051 A 
ATOM      5  C5  IND d   1       2.378   1.804   4.224  0.00  0.00    -0.031 A 
ATOM      6  C6  IND d   1       2.388   1.592   2.860  0.00  0.00     0.015 A 
ATOM      7  C7  IND d   1       2.353   0.331   2.335  0.00  0.00    -0.016 A 
ATOM      8  C8  IND d   1       2.326  -0.723   3.237  0.00  0.00    -0.047 A 
ATOM      9  C9  IND d   1       2.359  -0.515   4.622  0.00  0.00    -0.096 A 
ATOM     10  HN1 IND d   1       2.295  -2.474   2.261  0.00  0.00     0.298 HD
ENDROOT
TORSDOF 0
ENDMDL
