MODEL 1
REMARK minimizedAffinity 3.08894324
REMARK minimizedRMSD -1
REMARK  0 active torsions:
REMARK  status: ('A' for Active; 'I' for Inactive)
ROOT
ATOM      1  N1  IND d   1       4.763  -2.878   5.736  0.00  0.00    -0.196 N 
ATOM      2  C2  IND d   1       6.000  -2.849   5.155  0.00  0.00     0.054 A 
ATOM      3  C3  IND d   1       5.911  -2.399   3.884  0.00  0.00    -0.031 A 
ATOM      4  C4  IND d   1       3.853  -1.560   2.584  0.00  0.00     0.051 A 
ATOM      5  C5  IND d   1       2.496  -1.431   2.683  0.00  0.00    -0.031 A 
ATOM      6  C6  IND d   1       1.812  -1.782   3.829  0.00  0.00     0.015 A 
ATOM      7  C7  IND d   1       2.463  -2.267   4.927  0.00  0.00    -0.016 A 
ATOM      8  C8  IND d   1       3.840  -2.407   4.828  0.00  0.00    -0.047 A 
ATOM      9  C9  IND d   1       4.535  -2.092   3.653  0.00  0.00    -0.096 A 
ATOM     10  HN1 IND d   1       4.589  -3.147   6.535  0.00  0.00     0.298 HD
ENDROOT
TORSDOF 0
ENDMDL
