MODEL 1
REMARK minimizedAffinity 9.29345226
REMARK minimizedRMSD -1
REMARK  0 active torsions:
REMARK  status: ('A' for Active; 'I' for Inactive)
ROOT
ATOM      1  N1  IND d   1      -5.689  -0.358  -5.999  0.00  0.00    -0.196 N 
ATOM      2  C2  IND d   1      -5.867  -1.540  -5.335  0.00  0.00     0.054 A 
ATOM      3  C3  IND d   1      -5.978  -1.320  -4.006  0.00  0.00    -0.031 A 
ATOM      4  C4  IND d   1      -6.000   0.905  -2.712  0.00  0.00     0.051 A 
ATOM      5  C5  IND d   1      -5.833   2.251  -2.880  0.00  0.00    -0.031 A 
ATOM      6  C6  IND d   1      -5.608   2.808  -4.123  0.00  0.00     0.015 A 
ATOM      7  C7  IND d   1      -5.552   2.037  -5.249  0.00  0.00    -0.016 A 
ATOM      8  C8  IND d   1      -5.714   0.669  -5.081  0.00  0.00    -0.047 A 
ATOM      9  C9  IND d   1      -5.900   0.094  -3.817  0.00  0.00    -0.096 A 
ATOM     10  HN1 IND d   1      -5.579  -0.271  -6.847  0.00  0.00     0.298 HD
ENDROOT
TORSDOF 0
ENDMDL
