MODEL 1
REMARK minimizedAffinity 6.63406467
REMARK minimizedRMSD -1
REMARK  0 active torsions:
REMARK  status: ('A' for Active; 'I' for Inactive)
ROOT
ATOM      1  N1  IND d   1       5.503  -1.669   4.140  0.00  0.00    -0.196 N 
ATOM      2  C2  IND d   1       5.998  -2.256   5.271  0.00  0.00     0.054 A 
ATOM      3  C3  IND d   1       4.995  -2.795   5.999  0.00  0.00    -0.031 A 
ATOM      4  C4  IND d   1       2.478  -2.920   5.475  0.00  0.00     0.051 A 
ATOM      5  C5  IND d   1       1.542  -2.494   4.574  0.00  0.00    -0.031 A 
ATOM      6  C6  IND d   1       1.887  -1.758   3.459  0.00  0.00     0.015 A 
ATOM      7  C7  IND d   1       3.186  -1.430   3.195  0.00  0.00    -0.016 A 
ATOM      8  C8  IND d   1       4.138  -1.855   4.111  0.00  0.00    -0.047 A 
ATOM      9  C9  IND d   1       3.790  -2.566   5.267  0.00  0.00    -0.096 A 
ATOM     10  HN1 IND d   1       5.966  -1.254   3.546  0.00  0.00     0.298 HD
ENDROOT
TORSDOF 0
ENDMDL
