MODEL 1
REMARK minimizedAffinity 1.70674717
REMARK minimizedRMSD -1
REMARK  0 active torsions:
REMARK  status: ('A' for Active; 'I' for Inactive)
ROOT
ATOM      1  C   UNL d   1      -0.938  -0.235  -1.128  0.00  0.00     0.124 A 
ATOM      2  C1  UNL d   1       0.440  -0.394  -1.179  0.00  0.00     0.062 A 
ATOM      3  C2  UNL d   1       1.155  -0.674  -0.019  0.00  0.00     0.162 A 
ATOM      4  C3  UNL d   1       0.494  -0.798   1.203  0.00  0.00    -0.034 A 
ATOM      5  C4  UNL d   1      -0.892  -0.636   1.247  0.00  0.00     0.162 A 
ATOM      6  C5  UNL d   1      -1.602  -0.356   0.084  0.00  0.00     0.062 A 
ATOM      7  F   UNL d   1      -2.934  -0.203   0.135  0.00  0.00    -0.097 F 
ATOM      8  F1  UNL d   1      -1.559  -0.748   2.405  0.00  0.00    -0.096 F 
ATOM      9  I   UNL d   1       1.561  -1.217   2.941  0.00  0.00    -0.060 I 
ATOM     10  F2  UNL d   1       2.486  -0.823  -0.098  0.00  0.00    -0.096 F 
ATOM     11  F3  UNL d   1       1.084  -0.277  -2.349  0.00  0.00    -0.097 F 
ATOM     12  F4  UNL d   1      -1.624   0.035  -2.246  0.00  0.00    -0.092 F 
ENDROOT
TORSDOF 0
ENDMDL
