MODEL 1
REMARK minimizedAffinity -3.86112499
REMARK minimizedRMSD -1
REMARK  0 active torsions:
REMARK  status: ('A' for Active; 'I' for Inactive)
ROOT
ATOM      1  C   UNL d   1      -0.761  -0.849   2.233  0.00  0.00     0.124 A 
ATOM      2  C1  UNL d   1      -1.742  -0.450   1.336  0.00  0.00     0.062 A 
ATOM      3  C2  UNL d   1      -1.389   0.179   0.146  0.00  0.00     0.162 A 
ATOM      4  C3  UNL d   1      -0.047   0.411  -0.157  0.00  0.00    -0.034 A 
ATOM      5  C4  UNL d   1       0.934   0.007   0.750  0.00  0.00     0.162 A 
ATOM      6  C5  UNL d   1       0.576  -0.621   1.939  0.00  0.00     0.062 A 
ATOM      7  F   UNL d   1       1.526  -1.006   2.803  0.00  0.00    -0.097 F 
ATOM      8  F1  UNL d   1       2.234   0.215   0.491  0.00  0.00    -0.096 F 
ATOM      9  I   UNL d   1       0.485   1.350  -1.936  0.00  0.00    -0.060 I 
ATOM     10  F2  UNL d   1      -2.359   0.554  -0.702  0.00  0.00    -0.096 F 
ATOM     11  F3  UNL d   1      -3.035  -0.669   1.618  0.00  0.00    -0.097 F 
ATOM     12  F4  UNL d   1      -1.103  -1.453   3.378  0.00  0.00    -0.092 F 
ENDROOT
TORSDOF 0
ENDMDL
