MODEL 1
REMARK minimizedAffinity -3.92159438
REMARK minimizedRMSD -1
REMARK  0 active torsions:
REMARK  status: ('A' for Active; 'I' for Inactive)
ROOT
ATOM      1  C   UNL d   1      -0.464  -0.631   2.657  0.00  0.00     0.124 A 
ATOM      2  C1  UNL d   1       0.836  -0.635   2.169  0.00  0.00     0.062 A 
ATOM      3  C2  UNL d   1       1.081  -0.356   0.828  0.00  0.00     0.162 A 
ATOM      4  C3  UNL d   1       0.024  -0.069  -0.036  0.00  0.00    -0.034 A 
ATOM      5  C4  UNL d   1      -1.280  -0.068   0.462  0.00  0.00     0.162 A 
ATOM      6  C5  UNL d   1      -1.520  -0.348   1.803  0.00  0.00     0.062 A 
ATOM      7  F   UNL d   1      -2.777  -0.343   2.272  0.00  0.00    -0.097 F 
ATOM      8  F1  UNL d   1      -2.320   0.204  -0.341  0.00  0.00    -0.096 F 
ATOM      9  I   UNL d   1       0.386   0.350  -2.042  0.00  0.00    -0.060 I 
ATOM     10  F2  UNL d   1       2.347  -0.366   0.384  0.00  0.00    -0.096 F 
ATOM     11  F3  UNL d   1       1.858  -0.910   2.992  0.00  0.00    -0.097 F 
ATOM     12  F4  UNL d   1      -0.697  -0.902   3.948  0.00  0.00    -0.092 F 
ENDROOT
TORSDOF 0
ENDMDL
