MODEL 1
REMARK minimizedAffinity -2.40783429
REMARK minimizedRMSD -1
REMARK  0 active torsions:
REMARK  status: ('A' for Active; 'I' for Inactive)
ROOT
ATOM      1  C   UNL d   1       0.030  -2.505   2.682  0.00  0.00     0.124 A 
ATOM      2  C1  UNL d   1       0.691  -2.574   1.463  0.00  0.00     0.062 A 
ATOM      3  C2  UNL d   1       0.179  -1.910   0.351  0.00  0.00     0.162 A 
ATOM      4  C3  UNL d   1      -1.000  -1.172   0.453  0.00  0.00    -0.034 A 
ATOM      5  C4  UNL d   1      -1.659  -1.109   1.682  0.00  0.00     0.162 A 
ATOM      6  C5  UNL d   1      -1.144  -1.774   2.790  0.00  0.00     0.062 A 
ATOM      7  F   UNL d   1      -1.783  -1.707   3.967  0.00  0.00    -0.097 F 
ATOM      8  F1  UNL d   1      -2.795  -0.408   1.815  0.00  0.00    -0.096 F 
ATOM      9  I   UNL d   1      -1.768  -0.179  -1.207  0.00  0.00    -0.060 I 
ATOM     10  F2  UNL d   1       0.839  -1.994  -0.814  0.00  0.00    -0.096 F 
ATOM     11  F3  UNL d   1       1.825  -3.281   1.355  0.00  0.00    -0.097 F 
ATOM     12  F4  UNL d   1       0.524  -3.145   3.749  0.00  0.00    -0.092 F 
ENDROOT
TORSDOF 0
ENDMDL
