MODEL 1
REMARK minimizedAffinity 0.900246978
REMARK minimizedRMSD -1
REMARK  0 active torsions:
REMARK  status: ('A' for Active; 'I' for Inactive)
ROOT
ATOM      1  C   UNL d   1      -0.821  -0.619   2.537  0.00  0.00     0.124 A 
ATOM      2  C1  UNL d   1       0.485  -0.596   2.067  0.00  0.00     0.062 A 
ATOM      3  C2  UNL d   1       0.748  -0.255   0.743  0.00  0.00     0.162 A 
ATOM      4  C3  UNL d   1      -0.298   0.067  -0.121  0.00  0.00    -0.034 A 
ATOM      5  C4  UNL d   1      -1.609   0.042   0.358  0.00  0.00     0.162 A 
ATOM      6  C5  UNL d   1      -1.866  -0.299   1.682  0.00  0.00     0.062 A 
ATOM      7  F   UNL d   1      -3.129  -0.320   2.134  0.00  0.00    -0.097 F 
ATOM      8  F1  UNL d   1      -2.639   0.347  -0.446  0.00  0.00    -0.096 F 
ATOM      9  I   UNL d   1       0.090   0.578  -2.101  0.00  0.00    -0.060 I 
ATOM     10  F2  UNL d   1       2.020  -0.242   0.317  0.00  0.00    -0.096 F 
ATOM     11  F3  UNL d   1       1.498  -0.905   2.890  0.00  0.00    -0.097 F 
ATOM     12  F4  UNL d   1      -1.070  -0.948   3.810  0.00  0.00    -0.092 F 
ENDROOT
TORSDOF 0
ENDMDL
