MODEL 1
REMARK minimizedAffinity -0.330908686
REMARK minimizedRMSD -1
REMARK  0 active torsions:
REMARK  status: ('A' for Active; 'I' for Inactive)
ROOT
ATOM      1  C   UNL d   1      -0.960   2.602  -2.652  0.00  0.00     0.124 A 
ATOM      2  C1  UNL d   1      -1.691   1.485  -2.272  0.00  0.00     0.062 A 
ATOM      3  C2  UNL d   1      -1.128   0.535  -1.425  0.00  0.00     0.162 A 
ATOM      4  C3  UNL d   1       0.174   0.698  -0.951  0.00  0.00    -0.034 A 
ATOM      5  C4  UNL d   1       0.903   1.824  -1.339  0.00  0.00     0.162 A 
ATOM      6  C5  UNL d   1       0.336   2.770  -2.186  0.00  0.00     0.062 A 
ATOM      7  F   UNL d   1       1.044   3.849  -2.552  0.00  0.00    -0.097 F 
ATOM      8  F1  UNL d   1       2.158   2.012  -0.902  0.00  0.00    -0.096 F 
ATOM      9  I   UNL d   1       1.020  -0.720   0.316  0.00  0.00    -0.060 I 
ATOM     10  F2  UNL d   1      -1.857  -0.535  -1.073  0.00  0.00    -0.096 F 
ATOM     11  F3  UNL d   1      -2.943   1.319  -2.722  0.00  0.00    -0.097 F 
ATOM     12  F4  UNL d   1      -1.504   3.514  -3.468  0.00  0.00    -0.092 F 
ENDROOT
TORSDOF 0
ENDMDL
