MODEL 1
REMARK minimizedAffinity 10.5395565
REMARK minimizedRMSD -1
REMARK  2 active torsions:
REMARK  status: ('A' for Active; 'I' for Inactive)
REMARK    1  A    between atoms: C2'_3  and  C1'_4 
REMARK    2  A    between atoms: C1'_4  and  C1_5 
ROOT
ATOM      1  C1  I4B d   1      -1.965  -1.337  -0.810  0.00  0.00    -0.075 A 
ATOM      2  C2  I4B d   1      -0.711  -1.820  -0.533  0.00  0.00     0.003 A 
ATOM      3  C3  I4B d   1      -0.282  -1.962   0.809  0.00  0.00     0.002 A 
ATOM      4  C4  I4B d   1      -1.115  -1.564   1.835  0.00  0.00    -0.004 A 
ATOM      5  C5  I4B d   1      -2.395  -1.095   1.553  0.00  0.00     0.002 A 
ATOM      6  C6  I4B d   1      -2.828  -0.993   0.223  0.00  0.00     0.003 A 
ENDROOT
BRANCH   1   7
ATOM      7  C1' I4B d   1      -2.374  -1.169  -2.239  0.00  0.00     0.060 C 
BRANCH   7   8
ATOM      8  C2' I4B d   1      -2.128  -2.483  -2.952  0.00  0.00    -0.013 C 
ATOM      9  C4' I4B d   1      -3.299  -3.417  -2.792  0.00  0.00     0.013 C 
ATOM     10  C3' I4B d   1      -1.869  -2.184  -4.398  0.00  0.00     0.013 C 
ENDBRANCH   7   8
ENDBRANCH   1   7
TORSDOF 2
ENDMDL
