MODEL 1
REMARK minimizedAffinity -1.17849553
REMARK minimizedRMSD -1
REMARK  2 active torsions:
REMARK  status: ('A' for Active; 'I' for Inactive)
REMARK    1  A    between atoms: C2'_3  and  C1'_4 
REMARK    2  A    between atoms: C1'_4  and  C1_5 
ROOT
ATOM      1  C1  I4B d   1       4.116   2.563  -0.378  0.00  0.00    -0.075 A 
ATOM      2  C2  I4B d   1       2.994   3.260  -0.002  0.00  0.00     0.003 A 
ATOM      3  C3  I4B d   1       2.225   2.828   1.106  0.00  0.00     0.002 A 
ATOM      4  C4  I4B d   1       2.582   1.674   1.772  0.00  0.00    -0.004 A 
ATOM      5  C5  I4B d   1       3.731   0.982   1.404  0.00  0.00     0.002 A 
ATOM      6  C6  I4B d   1       4.510   1.435   0.330  0.00  0.00     0.003 A 
ENDROOT
BRANCH   1   7
ATOM      7  C1' I4B d   1       4.886   3.028  -1.573  0.00  0.00     0.060 C 
BRANCH   7   8
ATOM      8  C2' I4B d   1       4.679   2.019  -2.684  0.00  0.00    -0.013 C 
ATOM      9  C4' I4B d   1       4.142   2.679  -3.926  0.00  0.00     0.013 C 
ATOM     10  C3' I4B d   1       5.994   1.350  -2.952  0.00  0.00     0.013 C 
ENDBRANCH   7   8
ENDBRANCH   1   7
TORSDOF 2
ENDMDL
