MODEL 1
REMARK minimizedAffinity 14.0165329
REMARK minimizedRMSD -1
REMARK  2 active torsions:
REMARK  status: ('A' for Active; 'I' for Inactive)
REMARK    1  A    between atoms: C2'_3  and  C1'_4 
REMARK    2  A    between atoms: C1'_4  and  C1_5 
ROOT
ATOM      1  C1  I4B d   1       2.731   2.244  -5.951  0.00  0.00    -0.075 A 
ATOM      2  C2  I4B d   1       2.390   0.914  -5.962  0.00  0.00     0.003 A 
ATOM      3  C3  I4B d   1       3.398  -0.080  -5.954  0.00  0.00     0.002 A 
ATOM      4  C4  I4B d   1       4.725   0.297  -5.984  0.00  0.00    -0.004 A 
ATOM      5  C5  I4B d   1       5.069   1.645  -5.949  0.00  0.00     0.002 A 
ATOM      6  C6  I4B d   1       4.066   2.625  -5.920  0.00  0.00     0.003 A 
ENDROOT
BRANCH   1   7
ATOM      7  C1' I4B d   1       1.642   3.268  -5.994  0.00  0.00     0.060 C 
BRANCH   7   8
ATOM      8  C2' I4B d   1       2.094   4.465  -5.183  0.00  0.00    -0.013 C 
ATOM      9  C4' I4B d   1       1.788   5.755  -5.898  0.00  0.00     0.013 C 
ATOM     10  C3' I4B d   1       1.407   4.408  -3.851  0.00  0.00     0.013 C 
ENDBRANCH   7   8
ENDBRANCH   1   7
TORSDOF 2
ENDMDL
