MODEL 1
REMARK minimizedAffinity 3.24761987
REMARK minimizedRMSD -1
REMARK  2 active torsions:
REMARK  status: ('A' for Active; 'I' for Inactive)
REMARK    1  A    between atoms: C2'_3  and  C1'_4 
REMARK    2  A    between atoms: C1'_4  and  C1_5 
ROOT
ATOM      1  C1  I4B d   1      -2.116  -2.000  -2.941  0.00  0.00    -0.075 A 
ATOM      2  C2  I4B d   1      -1.795  -1.698  -4.241  0.00  0.00     0.003 A 
ATOM      3  C3  I4B d   1      -2.195  -2.559  -5.292  0.00  0.00     0.002 A 
ATOM      4  C4  I4B d   1      -2.865  -3.728  -4.995  0.00  0.00    -0.004 A 
ATOM      5  C5  I4B d   1      -3.208  -4.022  -3.679  0.00  0.00     0.002 A 
ATOM      6  C6  I4B d   1      -2.842  -3.146  -2.646  0.00  0.00     0.003 A 
ENDROOT
BRANCH   1   7
ATOM      7  C1' I4B d   1      -1.649  -1.086  -1.853  0.00  0.00     0.060 C 
BRANCH   7   8
ATOM      8  C2' I4B d   1      -1.077  -1.940  -0.739  0.00  0.00    -0.013 C 
ATOM      9  C4' I4B d   1       0.366  -1.597  -0.476  0.00  0.00     0.013 C 
ATOM     10  C3' I4B d   1      -1.916  -1.727   0.485  0.00  0.00     0.013 C 
ENDBRANCH   7   8
ENDBRANCH   1   7
TORSDOF 2
ENDMDL
