MODEL 1
REMARK minimizedAffinity 12.0536623
REMARK minimizedRMSD -1
REMARK  2 active torsions:
REMARK  status: ('A' for Active; 'I' for Inactive)
REMARK    1  A    between atoms: C2'_3  and  C1'_4 
REMARK    2  A    between atoms: C1'_4  and  C1_5 
ROOT
ATOM      1  C1  I4B d   1       3.520   2.552  -3.464  0.00  0.00    -0.075 A 
ATOM      2  C2  I4B d   1       3.983   1.632  -4.371  0.00  0.00     0.003 A 
ATOM      3  C3  I4B d   1       3.423   1.567  -5.670  0.00  0.00     0.002 A 
ATOM      4  C4  I4B d   1       2.374   2.402  -6.000  0.00  0.00    -0.004 A 
ATOM      5  C5  I4B d   1       1.921   3.349  -5.086  0.00  0.00     0.002 A 
ATOM      6  C6  I4B d   1       2.506   3.434  -3.814  0.00  0.00     0.003 A 
ENDROOT
BRANCH   1   7
ATOM      7  C1' I4B d   1       4.113   2.571  -2.090  0.00  0.00     0.060 C 
BRANCH   7   8
ATOM      8  C2' I4B d   1       4.496   1.151  -1.728  0.00  0.00    -0.013 C 
ATOM      9  C4' I4B d   1       5.982   0.937  -1.856  0.00  0.00     0.013 C 
ATOM     10  C3' I4B d   1       4.030   0.889  -0.327  0.00  0.00     0.013 C 
ENDBRANCH   7   8
ENDBRANCH   1   7
TORSDOF 2
ENDMDL
