MODEL 1
REMARK minimizedAffinity 6.72442961
REMARK minimizedRMSD -1
REMARK  2 active torsions:
REMARK  status: ('A' for Active; 'I' for Inactive)
REMARK    1  A    between atoms: C2'_3  and  C1'_4 
REMARK    2  A    between atoms: C1'_4  and  C1_5 
ROOT
ATOM      1  C1  I4B d   1       2.099   0.033   2.427  0.00  0.00    -0.075 A 
ATOM      2  C2  I4B d   1       3.042  -0.467   3.291  0.00  0.00     0.003 A 
ATOM      3  C3  I4B d   1       4.267  -0.974   2.793  0.00  0.00     0.002 A 
ATOM      4  C4  I4B d   1       4.485  -1.009   1.431  0.00  0.00    -0.004 A 
ATOM      5  C5  I4B d   1       3.538  -0.481   0.559  0.00  0.00     0.002 A 
ATOM      6  C6  I4B d   1       2.342   0.054   1.060  0.00  0.00     0.003 A 
ENDROOT
BRANCH   1   7
ATOM      7  C1' I4B d   1       0.803   0.531   2.984  0.00  0.00     0.060 C 
BRANCH   7   8
ATOM      8  C2' I4B d   1       0.198  -0.578   3.820  0.00  0.00    -0.013 C 
ATOM      9  C4' I4B d   1      -0.002  -0.138   5.247  0.00  0.00     0.013 C 
ATOM     10  C3' I4B d   1      -1.103  -0.977   3.190  0.00  0.00     0.013 C 
ENDBRANCH   7   8
ENDBRANCH   1   7
TORSDOF 2
ENDMDL
