MODEL 1
REMARK minimizedAffinity 6.82846022
REMARK minimizedRMSD -1
REMARK  2 active torsions:
REMARK  status: ('A' for Active; 'I' for Inactive)
REMARK    1  A    between atoms: C2'_3  and  C1'_4 
REMARK    2  A    between atoms: C1'_4  and  C1_5 
ROOT
ATOM      1  C1  I4B d   1       2.718   3.575  -5.299  0.00  0.00    -0.075 A 
ATOM      2  C2  I4B d   1       3.307   4.739  -5.727  0.00  0.00     0.003 A 
ATOM      3  C3  I4B d   1       2.987   5.970  -5.106  0.00  0.00     0.002 A 
ATOM      4  C4  I4B d   1       2.042   5.999  -4.101  0.00  0.00    -0.004 A 
ATOM      5  C5  I4B d   1       1.462   4.816  -3.653  0.00  0.00     0.002 A 
ATOM      6  C6  I4B d   1       1.811   3.594  -4.247  0.00  0.00     0.003 A 
ENDROOT
BRANCH   1   7
ATOM      7  C1' I4B d   1       3.054   2.297  -6.000  0.00  0.00     0.060 C 
BRANCH   7   8
ATOM      8  C2' I4B d   1       4.138   1.599  -5.204  0.00  0.00    -0.013 C 
ATOM      9  C4' I4B d   1       5.417   1.503  -5.992  0.00  0.00     0.013 C 
ATOM     10  C3' I4B d   1       4.343   2.365  -3.931  0.00  0.00     0.013 C 
ENDBRANCH   7   8
ENDBRANCH   1   7
TORSDOF 2
ENDMDL
