MODEL 1
REMARK minimizedAffinity 8.89145851
REMARK minimizedRMSD -1
REMARK  2 active torsions:
REMARK  status: ('A' for Active; 'I' for Inactive)
REMARK    1  A    between atoms: C2'_3  and  C1'_4 
REMARK    2  A    between atoms: C1'_4  and  C1_5 
ROOT
ATOM      1  C1  I4B d   1      -2.000  -2.570  -1.706  0.00  0.00    -0.075 A 
ATOM      2  C2  I4B d   1      -2.574  -3.565  -2.458  0.00  0.00     0.003 A 
ATOM      3  C3  I4B d   1      -2.325  -3.639  -3.850  0.00  0.00     0.002 A 
ATOM      4  C4  I4B d   1      -1.543  -2.676  -4.453  0.00  0.00    -0.004 A 
ATOM      5  C5  I4B d   1      -0.943  -1.682  -3.685  0.00  0.00     0.002 A 
ATOM      6  C6  I4B d   1      -1.163  -1.636  -2.301  0.00  0.00     0.003 A 
ENDROOT
BRANCH   1   7
ATOM      7  C1' I4B d   1      -2.311  -2.502  -0.244  0.00  0.00     0.060 C 
BRANCH   7   8
ATOM      8  C2' I4B d   1      -0.998  -2.511   0.513  0.00  0.00    -0.013 C 
ATOM      9  C4' I4B d   1      -1.176  -1.999   1.918  0.00  0.00     0.013 C 
ATOM     10  C3' I4B d   1      -0.473  -3.916   0.511  0.00  0.00     0.013 C 
ENDBRANCH   7   8
ENDBRANCH   1   7
TORSDOF 2
ENDMDL
