MODEL 1
REMARK minimizedAffinity 22.7983189
REMARK minimizedRMSD -1
REMARK  2 active torsions:
REMARK  status: ('A' for Active; 'I' for Inactive)
REMARK    1  A    between atoms: C2'_3  and  C1'_4 
REMARK    2  A    between atoms: C1'_4  and  C1_5 
ROOT
ATOM      1  C1  I4B d   1      -3.006  -1.477   4.617  0.00  0.00    -0.075 A 
ATOM      2  C2  I4B d   1      -1.940  -0.777   4.110  0.00  0.00     0.003 A 
ATOM      3  C3  I4B d   1      -1.221  -1.280   2.999  0.00  0.00     0.002 A 
ATOM      4  C4  I4B d   1      -1.569  -2.502   2.461  0.00  0.00    -0.004 A 
ATOM      5  C5  I4B d   1      -2.665  -3.199   2.962  0.00  0.00     0.002 A 
ATOM      6  C6  I4B d   1      -3.396  -2.678   4.039  0.00  0.00     0.003 A 
ENDROOT
BRANCH   1   7
ATOM      7  C1' I4B d   1      -3.722  -0.933   5.813  0.00  0.00     0.060 C 
BRANCH   7   8
ATOM      8  C2' I4B d   1      -5.187  -0.789   5.454  0.00  0.00    -0.013 C 
ATOM      9  C4' I4B d   1      -5.998  -1.936   6.000  0.00  0.00     0.013 C 
ATOM     10  C3' I4B d   1      -5.670   0.522   5.997  0.00  0.00     0.013 C 
ENDBRANCH   7   8
ENDBRANCH   1   7
TORSDOF 2
ENDMDL
