MODEL 1
REMARK minimizedAffinity 9.12241459
REMARK minimizedRMSD -1
REMARK  2 active torsions:
REMARK  status: ('A' for Active; 'I' for Inactive)
REMARK    1  A    between atoms: C2'_3  and  C1'_4 
REMARK    2  A    between atoms: C1'_4  and  C1_5 
ROOT
ATOM      1  C1  I4B d   1      -2.661  -2.404  -0.244  0.00  0.00    -0.075 A 
ATOM      2  C2  I4B d   1      -1.823  -2.067   0.789  0.00  0.00     0.003 A 
ATOM      3  C3  I4B d   1      -0.422  -2.222   0.650  0.00  0.00     0.002 A 
ATOM      4  C4  I4B d   1       0.090  -2.761  -0.512  0.00  0.00    -0.004 A 
ATOM      5  C5  I4B d   1      -0.760  -3.081  -1.567  0.00  0.00     0.002 A 
ATOM      6  C6  I4B d   1      -2.143  -2.890  -1.438  0.00  0.00     0.003 A 
ENDROOT
BRANCH   1   7
ATOM      7  C1' I4B d   1      -4.137  -2.259  -0.051  0.00  0.00     0.060 C 
BRANCH   7   8
ATOM      8  C2' I4B d   1      -4.813  -3.442  -0.714  0.00  0.00    -0.013 C 
ATOM      9  C4' I4B d   1      -5.625  -4.232   0.279  0.00  0.00     0.013 C 
ATOM     10  C3' I4B d   1      -5.675  -2.921  -1.825  0.00  0.00     0.013 C 
ENDBRANCH   7   8
ENDBRANCH   1   7
TORSDOF 2
ENDMDL
