MODEL 1
REMARK minimizedAffinity 5.5014987
REMARK minimizedRMSD -1
REMARK  2 active torsions:
REMARK  status: ('A' for Active; 'I' for Inactive)
REMARK    1  A    between atoms: C2'_3  and  C1'_4 
REMARK    2  A    between atoms: C1'_4  and  C1_5 
ROOT
ATOM      1  C1  I4B d   1       2.999   3.391  -4.573  0.00  0.00    -0.075 A 
ATOM      2  C2  I4B d   1       1.822   3.384  -5.279  0.00  0.00     0.003 A 
ATOM      3  C3  I4B d   1       1.416   4.533  -6.000  0.00  0.00     0.002 A 
ATOM      4  C4  I4B d   1       2.188   5.676  -5.947  0.00  0.00    -0.004 A 
ATOM      5  C5  I4B d   1       3.393   5.674  -5.249  0.00  0.00     0.002 A 
ATOM      6  C6  I4B d   1       3.807   4.521  -4.568  0.00  0.00     0.003 A 
ENDROOT
BRANCH   1   7
ATOM      7  C1' I4B d   1       3.381   2.171  -3.796  0.00  0.00     0.060 C 
BRANCH   7   8
ATOM      8  C2' I4B d   1       4.026   2.625  -2.502  0.00  0.00    -0.013 C 
ATOM      9  C4' I4B d   1       3.048   2.573  -1.358  0.00  0.00     0.013 C 
ATOM     10  C3' I4B d   1       5.211   1.743  -2.241  0.00  0.00     0.013 C 
ENDBRANCH   7   8
ENDBRANCH   1   7
TORSDOF 2
ENDMDL
