MODEL 1
REMARK minimizedAffinity 2.32217622
REMARK minimizedRMSD -1
REMARK  2 active torsions:
REMARK  status: ('A' for Active; 'I' for Inactive)
REMARK    1  A    between atoms: C2'_3  and  C1'_4 
REMARK    2  A    between atoms: C1'_4  and  C1_5 
ROOT
ATOM      1  C1  I4B d   1      -3.493  -4.084  -1.358  0.00  0.00    -0.075 A 
ATOM      2  C2  I4B d   1      -4.117  -5.232  -1.777  0.00  0.00     0.003 A 
ATOM      3  C3  I4B d   1      -5.398  -5.571  -1.276  0.00  0.00     0.002 A 
ATOM      4  C4  I4B d   1      -5.992  -4.764  -0.327  0.00  0.00    -0.004 A 
ATOM      5  C5  I4B d   1      -5.368  -3.588   0.079  0.00  0.00     0.002 A 
ATOM      6  C6  I4B d   1      -4.116  -3.239  -0.449  0.00  0.00     0.003 A 
ENDROOT
BRANCH   1   7
ATOM      7  C1' I4B d   1      -2.127  -3.774  -1.883  0.00  0.00     0.060 C 
BRANCH   7   8
ATOM      8  C2' I4B d   1      -1.593  -2.581  -1.117  0.00  0.00    -0.013 C 
ATOM      9  C4' I4B d   1      -0.219  -2.857  -0.565  0.00  0.00     0.013 C 
ATOM     10  C3' I4B d   1      -1.576  -1.404  -2.046  0.00  0.00     0.013 C 
ENDBRANCH   7   8
ENDBRANCH   1   7
TORSDOF 2
ENDMDL
