MODEL 1
REMARK minimizedAffinity 2.85936904
REMARK minimizedRMSD -1
REMARK  2 active torsions:
REMARK  status: ('A' for Active; 'I' for Inactive)
REMARK    1  A    between atoms: C2'_3  and  C1'_4 
REMARK    2  A    between atoms: C1'_4  and  C1_5 
ROOT
ATOM      1  C1  I4B d   1       4.555   4.304  -5.285  0.00  0.00    -0.075 A 
ATOM      2  C2  I4B d   1       4.870   4.311  -3.949  0.00  0.00     0.003 A 
ATOM      3  C3  I4B d   1       5.186   3.102  -3.283  0.00  0.00     0.002 A 
ATOM      4  C4  I4B d   1       5.126   1.910  -3.976  0.00  0.00    -0.004 A 
ATOM      5  C5  I4B d   1       4.830   1.906  -5.336  0.00  0.00     0.002 A 
ATOM      6  C6  I4B d   1       4.554   3.112  -5.998  0.00  0.00     0.003 A 
ENDROOT
BRANCH   1   7
ATOM      7  C1' I4B d   1       4.195   5.595  -5.948  0.00  0.00     0.060 C 
BRANCH   7   8
ATOM      8  C2' I4B d   1       2.817   6.000  -5.464  0.00  0.00    -0.013 C 
ATOM      9  C4' I4B d   1       1.757   5.073  -5.998  0.00  0.00     0.013 C 
ATOM     10  C3' I4B d   1       2.834   5.996  -3.964  0.00  0.00     0.013 C 
ENDBRANCH   7   8
ENDBRANCH   1   7
TORSDOF 2
ENDMDL
