MODEL 1
REMARK minimizedAffinity 14.5995016
REMARK minimizedRMSD -1
REMARK  2 active torsions:
REMARK  status: ('A' for Active; 'I' for Inactive)
REMARK    1  A    between atoms: C2'_3  and  C1'_4 
REMARK    2  A    between atoms: C1'_4  and  C1_5 
ROOT
ATOM      1  C1  I4B d   1       0.847   3.261   0.590  0.00  0.00    -0.075 A 
ATOM      2  C2  I4B d   1       0.054   4.170   1.245  0.00  0.00     0.003 A 
ATOM      3  C3  I4B d   1      -1.063   4.743   0.590  0.00  0.00     0.002 A 
ATOM      4  C4  I4B d   1      -1.319   4.419  -0.727  0.00  0.00    -0.004 A 
ATOM      5  C5  I4B d   1      -0.527   3.480  -1.382  0.00  0.00     0.002 A 
ATOM      6  C6  I4B d   1       0.556   2.887  -0.715  0.00  0.00     0.003 A 
ENDROOT
BRANCH   1   7
ATOM      7  C1' I4B d   1       2.038   2.700   1.301  0.00  0.00     0.060 C 
BRANCH   7   8
ATOM      8  C2' I4B d   1       1.929   1.189   1.274  0.00  0.00    -0.013 C 
ATOM      9  C4' I4B d   1       3.290   0.545   1.258  0.00  0.00     0.013 C 
ATOM     10  C3' I4B d   1       1.141   0.760   2.476  0.00  0.00     0.013 C 
ENDBRANCH   7   8
ENDBRANCH   1   7
TORSDOF 2
ENDMDL
