MODEL 1
REMARK minimizedAffinity 8.32813168
REMARK minimizedRMSD -1
REMARK  2 active torsions:
REMARK  status: ('A' for Active; 'I' for Inactive)
REMARK    1  A    between atoms: C2'_3  and  C1'_4 
REMARK    2  A    between atoms: C1'_4  and  C1_5 
ROOT
ATOM      1  C1  I4B d   1      -2.386  -2.037  -1.744  0.00  0.00    -0.075 A 
ATOM      2  C2  I4B d   1      -1.965  -2.520  -2.958  0.00  0.00     0.003 A 
ATOM      3  C3  I4B d   1      -2.888  -3.130  -3.841  0.00  0.00     0.002 A 
ATOM      4  C4  I4B d   1      -4.204  -3.280  -3.452  0.00  0.00    -0.004 A 
ATOM      5  C5  I4B d   1      -4.633  -2.769  -2.231  0.00  0.00     0.002 A 
ATOM      6  C6  I4B d   1      -3.722  -2.132  -1.376  0.00  0.00     0.003 A 
ENDROOT
BRANCH   1   7
ATOM      7  C1' I4B d   1      -1.378  -1.428  -0.821  0.00  0.00     0.060 C 
BRANCH   7   8
ATOM      8  C2' I4B d   1      -0.900  -2.508   0.126  0.00  0.00    -0.013 C 
ATOM      9  C4' I4B d   1       0.582  -2.737  -0.011  0.00  0.00     0.013 C 
ATOM     10  C3' I4B d   1      -1.256  -2.091   1.522  0.00  0.00     0.013 C 
ENDBRANCH   7   8
ENDBRANCH   1   7
TORSDOF 2
ENDMDL
