MODEL 1
REMARK minimizedAffinity -2.14855504
REMARK minimizedRMSD -1
REMARK  0 active torsions:
REMARK  status: ('A' for Active; 'I' for Inactive)
ROOT
ATOM      1  C   UNL d   1      -5.251   2.038  -6.000  0.00  0.00     0.023 A 
ATOM      2  C1  UNL d   1      -5.611   3.376  -5.840  0.00  0.00     0.003 A 
ATOM      3  C2  UNL d   1      -4.625   4.350  -5.670  0.00  0.00     0.048 A 
ATOM      4  C3  UNL d   1      -3.281   3.980  -5.662  0.00  0.00     0.023 A 
ATOM      5  C4  UNL d   1      -2.916   2.642  -5.822  0.00  0.00     0.048 A 
ATOM      6  C5  UNL d   1      -3.905   1.671  -5.991  0.00  0.00     0.003 A 
ATOM      7  I   UNL d   1      -1.812   5.428  -5.410  0.00  0.00    -0.146 I 
ENDROOT
TORSDOF 0
ENDMDL
