MODEL 1
REMARK minimizedAffinity -0.341918439
REMARK minimizedRMSD -1
REMARK  0 active torsions:
REMARK  status: ('A' for Active; 'I' for Inactive)
ROOT
ATOM      1  C   UNL d   1      -3.930   4.444  -5.984  0.00  0.00     0.023 A 
ATOM      2  C1  UNL d   1      -2.661   3.862  -5.990  0.00  0.00     0.003 A 
ATOM      3  C2  UNL d   1      -2.529   2.472  -5.994  0.00  0.00     0.048 A 
ATOM      4  C3  UNL d   1      -3.669   1.669  -5.993  0.00  0.00     0.023 A 
ATOM      5  C4  UNL d   1      -4.940   2.246  -5.988  0.00  0.00     0.048 A 
ATOM      6  C5  UNL d   1      -5.067   3.636  -5.983  0.00  0.00     0.003 A 
ATOM      7  I   UNL d   1      -3.474  -0.400  -5.999  0.00  0.00    -0.146 I 
ENDROOT
TORSDOF 0
ENDMDL
