MODEL 1
REMARK minimizedAffinity 0.777189136
REMARK minimizedRMSD -1
REMARK  0 active torsions:
REMARK  status: ('A' for Active; 'I' for Inactive)
ROOT
ATOM      1  C   UNL d   1       0.282  -1.359  -1.957  0.00  0.00     0.023 A 
ATOM      2  C1  UNL d   1       1.440  -0.637  -2.245  0.00  0.00     0.003 A 
ATOM      3  C2  UNL d   1       1.856   0.388  -1.392  0.00  0.00     0.048 A 
ATOM      4  C3  UNL d   1       1.109   0.684  -0.252  0.00  0.00     0.023 A 
ATOM      5  C4  UNL d   1      -0.050  -0.037   0.041  0.00  0.00     0.048 A 
ATOM      6  C5  UNL d   1      -0.462  -1.059  -0.815  0.00  0.00     0.003 A 
ATOM      7  I   UNL d   1       1.727   2.208   1.020  0.00  0.00    -0.146 I 
ENDROOT
TORSDOF 0
ENDMDL
