MODEL 1
REMARK minimizedAffinity 7.41153002
REMARK minimizedRMSD -1
REMARK  0 active torsions:
REMARK  status: ('A' for Active; 'I' for Inactive)
ROOT
ATOM      1  C   UNL d   1      -5.556  -2.264   1.459  0.00  0.00     0.023 A 
ATOM      2  C1  UNL d   1      -4.341  -2.182   2.140  0.00  0.00     0.003 A 
ATOM      3  C2  UNL d   1      -3.567  -1.023   2.053  0.00  0.00     0.048 A 
ATOM      4  C3  UNL d   1      -4.015   0.051   1.285  0.00  0.00     0.023 A 
ATOM      5  C4  UNL d   1      -5.231  -0.026   0.603  0.00  0.00     0.048 A 
ATOM      6  C5  UNL d   1      -6.000  -1.188   0.692  0.00  0.00     0.003 A 
ATOM      7  I   UNL d   1      -2.866   1.778   1.155  0.00  0.00    -0.146 I 
ENDROOT
TORSDOF 0
ENDMDL
