MODEL 1
REMARK minimizedAffinity -0.526634574
REMARK minimizedRMSD -1
REMARK  0 active torsions:
REMARK  status: ('A' for Active; 'I' for Inactive)
ROOT
ATOM      1  C   UNL d   1      -5.568  -3.022  -5.497  0.00  0.00     0.023 A 
ATOM      2  C1  UNL d   1      -4.377  -2.577  -4.922  0.00  0.00     0.003 A 
ATOM      3  C2  UNL d   1      -3.275  -3.431  -4.848  0.00  0.00     0.048 A 
ATOM      4  C3  UNL d   1      -3.369  -4.727  -5.352  0.00  0.00     0.023 A 
ATOM      5  C4  UNL d   1      -4.559  -5.176  -5.929  0.00  0.00     0.048 A 
ATOM      6  C5  UNL d   1      -5.658  -4.320  -6.000  0.00  0.00     0.003 A 
ATOM      7  I   UNL d   1      -1.730  -6.000  -5.243  0.00  0.00    -0.146 I 
ENDROOT
TORSDOF 0
ENDMDL
