MODEL 1
REMARK minimizedAffinity -0.863299727
REMARK minimizedRMSD -1
REMARK  0 active torsions:
REMARK  status: ('A' for Active; 'I' for Inactive)
ROOT
ATOM      1  C   UNL d   1      -3.839   5.977  -5.946  0.00  0.00     0.023 A 
ATOM      2  C1  UNL d   1      -5.191   5.634  -5.945  0.00  0.00     0.003 A 
ATOM      3  C2  UNL d   1      -5.572   4.290  -5.961  0.00  0.00     0.048 A 
ATOM      4  C3  UNL d   1      -4.595   3.295  -5.976  0.00  0.00     0.023 A 
ATOM      5  C4  UNL d   1      -3.241   3.634  -5.977  0.00  0.00     0.048 A 
ATOM      6  C5  UNL d   1      -2.865   4.979  -5.962  0.00  0.00     0.003 A 
ATOM      7  I   UNL d   1      -5.159   1.295  -5.999  0.00  0.00    -0.146 I 
ENDROOT
TORSDOF 0
ENDMDL
