MODEL 1
REMARK minimizedAffinity 0.689753711
REMARK minimizedRMSD -1
REMARK  0 active torsions:
REMARK  status: ('A' for Active; 'I' for Inactive)
ROOT
ATOM      1  C   UNL d   1       2.265   1.170  -1.546  0.00  0.00     0.023 A 
ATOM      2  C1  UNL d   1       1.897   0.068  -2.317  0.00  0.00     0.003 A 
ATOM      3  C2  UNL d   1       0.985  -0.863  -1.816  0.00  0.00     0.048 A 
ATOM      4  C3  UNL d   1       0.444  -0.685  -0.543  0.00  0.00     0.023 A 
ATOM      5  C4  UNL d   1       0.809   0.418   0.232  0.00  0.00     0.048 A 
ATOM      6  C5  UNL d   1       1.722   1.345  -0.273  0.00  0.00     0.003 A 
ATOM      7  I   UNL d   1      -0.914  -2.069   0.205  0.00  0.00    -0.146 I 
ENDROOT
TORSDOF 0
ENDMDL
