MODEL 1
REMARK minimizedAffinity -0.717481315
REMARK minimizedRMSD -1
REMARK  0 active torsions:
REMARK  status: ('A' for Active; 'I' for Inactive)
ROOT
ATOM      1  C   UNL d   1      -3.987   4.267  -5.996  0.00  0.00     0.023 A 
ATOM      2  C1  UNL d   1      -2.986   3.295  -5.999  0.00  0.00     0.003 A 
ATOM      3  C2  UNL d   1      -3.327   1.941  -5.999  0.00  0.00     0.048 A 
ATOM      4  C3  UNL d   1      -4.669   1.565  -5.998  0.00  0.00     0.023 A 
ATOM      5  C4  UNL d   1      -5.674   2.534  -5.997  0.00  0.00     0.048 A 
ATOM      6  C5  UNL d   1      -5.329   3.887  -5.995  0.00  0.00     0.003 A 
ATOM      7  I   UNL d   1      -5.178  -0.450  -5.999  0.00  0.00    -0.146 I 
ENDROOT
TORSDOF 0
ENDMDL
