MODEL 1
REMARK minimizedAffinity 0.500173211
REMARK minimizedRMSD -1
REMARK  0 active torsions:
REMARK  status: ('A' for Active; 'I' for Inactive)
ROOT
ATOM      1  C   UNL d   1      -4.866   4.871  -5.975  0.00  0.00     0.023 A 
ATOM      2  C1  UNL d   1      -3.490   4.638  -5.981  0.00  0.00     0.003 A 
ATOM      3  C2  UNL d   1      -3.002   3.330  -5.988  0.00  0.00     0.048 A 
ATOM      4  C3  UNL d   1      -3.895   2.259  -5.989  0.00  0.00     0.023 A 
ATOM      5  C4  UNL d   1      -5.272   2.486  -5.984  0.00  0.00     0.048 A 
ATOM      6  C5  UNL d   1      -5.756   3.796  -5.976  0.00  0.00     0.003 A 
ATOM      7  I   UNL d   1      -3.171   0.311  -6.000  0.00  0.00    -0.146 I 
ENDROOT
TORSDOF 0
ENDMDL
