MODEL 1
REMARK minimizedAffinity 2.03091311
REMARK minimizedRMSD -1
REMARK  0 active torsions:
REMARK  status: ('A' for Active; 'I' for Inactive)
ROOT
ATOM      1  C   UNL d   1      -4.956   1.338  -5.989  0.00  0.00     0.023 A 
ATOM      2  C1  UNL d   1      -3.570   1.182  -5.985  0.00  0.00     0.003 A 
ATOM      3  C2  UNL d   1      -2.739   2.304  -5.988  0.00  0.00     0.048 A 
ATOM      4  C3  UNL d   1      -3.301   3.580  -5.995  0.00  0.00     0.023 A 
ATOM      5  C4  UNL d   1      -4.687   3.742  -5.998  0.00  0.00     0.048 A 
ATOM      6  C5  UNL d   1      -5.514   2.617  -5.996  0.00  0.00     0.003 A 
ATOM      7  I   UNL d   1      -2.066   5.252  -6.000  0.00  0.00    -0.146 I 
ENDROOT
TORSDOF 0
ENDMDL
