MODEL 1
REMARK minimizedAffinity -0.874317765
REMARK minimizedRMSD -1
REMARK  0 active torsions:
REMARK  status: ('A' for Active; 'I' for Inactive)
ROOT
ATOM      1  C   UNL d   1      -2.888   0.731  -5.953  0.00  0.00     0.023 A 
ATOM      2  C1  UNL d   1      -2.397   2.037  -5.933  0.00  0.00     0.003 A 
ATOM      3  C2  UNL d   1      -3.281   3.117  -5.947  0.00  0.00     0.048 A 
ATOM      4  C3  UNL d   1      -4.655   2.886  -5.979  0.00  0.00     0.023 A 
ATOM      5  C4  UNL d   1      -5.152   1.582  -5.998  0.00  0.00     0.048 A 
ATOM      6  C5  UNL d   1      -4.264   0.504  -5.985  0.00  0.00     0.003 A 
ATOM      7  I   UNL d   1      -5.973   4.493  -5.999  0.00  0.00    -0.146 I 
ENDROOT
TORSDOF 0
ENDMDL
