MODEL 1
REMARK minimizedAffinity -2.72244835
REMARK minimizedRMSD -1
REMARK  0 active torsions:
REMARK  status: ('A' for Active; 'I' for Inactive)
ROOT
ATOM      1  C   UNL d   1      -1.836   2.355  -5.772  0.00  0.00     0.023 A 
ATOM      2  C1  UNL d   1      -3.047   1.682  -5.934  0.00  0.00     0.003 A 
ATOM      3  C2  UNL d   1      -4.243   2.400  -5.999  0.00  0.00     0.048 A 
ATOM      4  C3  UNL d   1      -4.220   3.791  -5.902  0.00  0.00     0.023 A 
ATOM      5  C4  UNL d   1      -3.011   4.469  -5.741  0.00  0.00     0.048 A 
ATOM      6  C5  UNL d   1      -1.818   3.746  -5.675  0.00  0.00     0.003 A 
ATOM      7  I   UNL d   1      -5.999   4.862  -6.000  0.00  0.00    -0.146 I 
ENDROOT
TORSDOF 0
ENDMDL
