MODEL 1
REMARK minimizedAffinity -1.47320449
REMARK minimizedRMSD -1
REMARK  0 active torsions:
REMARK  status: ('A' for Active; 'I' for Inactive)
ROOT
ATOM      1  C   UNL d   1      -3.869   4.763  -5.985  0.00  0.00     0.023 A 
ATOM      2  C1  UNL d   1      -5.226   4.438  -5.985  0.00  0.00     0.003 A 
ATOM      3  C2  UNL d   1      -5.624   3.099  -5.985  0.00  0.00     0.048 A 
ATOM      4  C3  UNL d   1      -4.661   2.091  -5.983  0.00  0.00     0.023 A 
ATOM      5  C4  UNL d   1      -3.302   2.412  -5.982  0.00  0.00     0.048 A 
ATOM      6  C5  UNL d   1      -2.909   3.751  -5.983  0.00  0.00     0.003 A 
ATOM      7  I   UNL d   1      -5.251   0.098  -5.983  0.00  0.00    -0.146 I 
ENDROOT
TORSDOF 0
ENDMDL
