MODEL 1
REMARK minimizedAffinity 7.33182144
REMARK minimizedRMSD -1
REMARK  0 active torsions:
REMARK  status: ('A' for Active; 'I' for Inactive)
ROOT
ATOM      1  C   UNL d   1      -2.797   3.250  -5.979  0.00  0.00     0.023 A 
ATOM      2  C1  UNL d   1      -4.165   3.519  -5.993  0.00  0.00     0.003 A 
ATOM      3  C2  UNL d   1      -5.085   2.468  -5.996  0.00  0.00     0.048 A 
ATOM      4  C3  UNL d   1      -4.629   1.150  -5.983  0.00  0.00     0.023 A 
ATOM      5  C4  UNL d   1      -3.260   0.876  -5.968  0.00  0.00     0.048 A 
ATOM      6  C5  UNL d   1      -2.345   1.931  -5.967  0.00  0.00     0.003 A 
ATOM      7  I   UNL d   1      -5.995  -0.416  -5.986  0.00  0.00    -0.146 I 
ENDROOT
TORSDOF 0
ENDMDL
