MODEL 1
REMARK minimizedAffinity -0.219860017
REMARK minimizedRMSD -1
REMARK  0 active torsions:
REMARK  status: ('A' for Active; 'I' for Inactive)
ROOT
ATOM      1  C   UNL d   1       0.452  -1.598  -1.534  0.00  0.00     0.023 A 
ATOM      2  C1  UNL d   1       1.245  -0.949  -2.481  0.00  0.00     0.003 A 
ATOM      3  C2  UNL d   1       1.851   0.270  -2.168  0.00  0.00     0.048 A 
ATOM      4  C3  UNL d   1       1.661   0.832  -0.906  0.00  0.00     0.023 A 
ATOM      5  C4  UNL d   1       0.870   0.186   0.045  0.00  0.00     0.048 A 
ATOM      6  C5  UNL d   1       0.265  -1.032  -0.273  0.00  0.00     0.003 A 
ATOM      7  I   UNL d   1       2.563   2.646  -0.438  0.00  0.00    -0.146 I 
ENDROOT
TORSDOF 0
ENDMDL
