MODEL 1
REMARK minimizedAffinity 10.4089146
REMARK minimizedRMSD -1
REMARK  0 active torsions:
REMARK  status: ('A' for Active; 'I' for Inactive)
ROOT
ATOM      1  C4' PXY d   1       4.501   0.374   0.417  0.00  0.00     0.077 C 
ATOM      2  C1' PXY d   1       5.999   0.339   6.000  0.00  0.00     0.077 C 
ATOM      3  C1  PXY d   1       5.605   0.335   4.536  0.00  0.00    -0.082 A 
ATOM      4  C2  PXY d   1       5.999   1.324   3.750  0.00  0.00     0.003 A 
ATOM      5  C3  PXY d   1       5.624   1.353   2.431  0.00  0.00     0.003 A 
ATOM      6  C4  PXY d   1       4.884   0.332   1.899  0.00  0.00    -0.082 A 
ATOM      7  C5  PXY d   1       4.487  -0.687   2.692  0.00  0.00     0.003 A 
ATOM      8  C6  PXY d   1       4.843  -0.676   4.037  0.00  0.00     0.003 A 
ENDROOT
TORSDOF 0
ENDMDL
