MODEL 1
REMARK minimizedAffinity 0.978803158
REMARK minimizedRMSD -1
REMARK  0 active torsions:
REMARK  status: ('A' for Active; 'I' for Inactive)
ROOT
ATOM      1  C4' PXY d   1       5.962   0.380   2.526  0.00  0.00     0.077 C 
ATOM      2  C1' PXY d   1       6.000   5.985   3.939  0.00  0.00     0.077 C 
ATOM      3  C1  PXY d   1       5.985   4.518   3.557  0.00  0.00    -0.082 A 
ATOM      4  C2  PXY d   1       5.980   3.595   4.505  0.00  0.00     0.003 A 
ATOM      5  C3  PXY d   1       5.999   2.263   4.177  0.00  0.00     0.003 A 
ATOM      6  C4  PXY d   1       5.968   1.873   2.865  0.00  0.00    -0.082 A 
ATOM      7  C5  PXY d   1       5.962   2.808   1.892  0.00  0.00     0.003 A 
ATOM      8  C6  PXY d   1       5.985   4.154   2.246  0.00  0.00     0.003 A 
ENDROOT
TORSDOF 0
ENDMDL
