MODEL 1
REMARK minimizedAffinity 5.94159269
REMARK minimizedRMSD -1
REMARK  0 active torsions:
REMARK  status: ('A' for Active; 'I' for Inactive)
ROOT
ATOM      1  C4' PXY d   1       5.972   0.827   2.646  0.00  0.00     0.077 C 
ATOM      2  C1' PXY d   1       5.998   5.940   5.344  0.00  0.00     0.077 C 
ATOM      3  C1  PXY d   1       5.997   4.593   4.647  0.00  0.00    -0.082 A 
ATOM      4  C2  PXY d   1       5.993   4.541   3.325  0.00  0.00     0.003 A 
ATOM      5  C3  PXY d   1       5.960   3.333   2.678  0.00  0.00     0.003 A 
ATOM      6  C4  PXY d   1       5.983   2.164   3.392  0.00  0.00    -0.082 A 
ATOM      7  C5  PXY d   1       5.997   2.209   4.741  0.00  0.00     0.003 A 
ATOM      8  C6  PXY d   1       5.990   3.446   5.379  0.00  0.00     0.003 A 
ENDROOT
TORSDOF 0
ENDMDL
