MODEL 1
REMARK minimizedAffinity 10.716876
REMARK minimizedRMSD -1
REMARK  0 active torsions:
REMARK  status: ('A' for Active; 'I' for Inactive)
ROOT
ATOM      1  C4' PXY d   1       5.999   5.998   5.087  0.00  0.00     0.077 C 
ATOM      2  C1' PXY d   1       5.938   1.279   1.749  0.00  0.00     0.077 C 
ATOM      3  C1  PXY d   1       5.959   2.523   2.614  0.00  0.00    -0.082 A 
ATOM      4  C2  PXY d   1       5.997   2.403   3.932  0.00  0.00     0.003 A 
ATOM      5  C3  PXY d   1       5.984   3.518   4.730  0.00  0.00     0.003 A 
ATOM      6  C4  PXY d   1       5.987   4.769   4.174  0.00  0.00    -0.082 A 
ATOM      7  C5  PXY d   1       5.960   4.900   2.831  0.00  0.00     0.003 A 
ATOM      8  C6  PXY d   1       5.931   3.756   2.038  0.00  0.00     0.003 A 
ENDROOT
TORSDOF 0
ENDMDL
