MODEL 1
REMARK minimizedAffinity 6.34948874
REMARK minimizedRMSD -1
REMARK  0 active torsions:
REMARK  status: ('A' for Active; 'I' for Inactive)
ROOT
ATOM      1  C4' PXY d   1      -0.905  -2.965  -0.415  0.00  0.00     0.077 C 
ATOM      2  C1' PXY d   1       1.145   2.302   0.797  0.00  0.00     0.077 C 
ATOM      3  C1  PXY d   1       0.605   0.924   0.466  0.00  0.00    -0.082 A 
ATOM      4  C2  PXY d   1       0.084   0.179   1.427  0.00  0.00     0.003 A 
ATOM      5  C3  PXY d   1      -0.379  -1.082   1.152  0.00  0.00     0.003 A 
ATOM      6  C4  PXY d   1      -0.357  -1.564  -0.130  0.00  0.00    -0.082 A 
ATOM      7  C5  PXY d   1       0.164  -0.805  -1.117  0.00  0.00     0.003 A 
ATOM      8  C6  PXY d   1       0.666   0.456  -0.810  0.00  0.00     0.003 A 
ENDROOT
TORSDOF 0
ENDMDL
