MODEL 1
REMARK minimizedAffinity 9.17380524
REMARK minimizedRMSD -1
REMARK  0 active torsions:
REMARK  status: ('A' for Active; 'I' for Inactive)
ROOT
ATOM      1  C4' PXY d   1       1.416   3.258   3.080  0.00  0.00     0.077 C 
ATOM      2  C1' PXY d   1       0.614  -0.452  -1.279  0.00  0.00     0.077 C 
ATOM      3  C1  PXY d   1       0.837   0.520  -0.138  0.00  0.00    -0.082 A 
ATOM      4  C2  PXY d   1      -0.098   0.670   0.786  0.00  0.00     0.003 A 
ATOM      5  C3  PXY d   1       0.074   1.568   1.808  0.00  0.00     0.003 A 
ATOM      6  C4  PXY d   1       1.237   2.281   1.915  0.00  0.00    -0.082 A 
ATOM      7  C5  PXY d   1       2.201   2.126   0.982  0.00  0.00     0.003 A 
ATOM      8  C6  PXY d   1       1.990   1.240  -0.070  0.00  0.00     0.003 A 
ENDROOT
TORSDOF 0
ENDMDL
