MODEL 1
REMARK minimizedAffinity 3.11964989
REMARK minimizedRMSD -1
REMARK  0 active torsions:
REMARK  status: ('A' for Active; 'I' for Inactive)
ROOT
ATOM      1  C4' PXY d   1       1.311   2.636   1.415  0.00  0.00     0.077 C 
ATOM      2  C1' PXY d   1       0.645  -2.208  -1.669  0.00  0.00     0.077 C 
ATOM      3  C1  PXY d   1       0.807  -0.934  -0.863  0.00  0.00    -0.082 A 
ATOM      4  C2  PXY d   1       2.009  -0.402  -0.716  0.00  0.00     0.003 A 
ATOM      5  C3  PXY d   1       2.178   0.732   0.037  0.00  0.00     0.003 A 
ATOM      6  C4  PXY d   1       1.098   1.356   0.601  0.00  0.00    -0.082 A 
ATOM      7  C5  PXY d   1      -0.133   0.825   0.447  0.00  0.00     0.003 A 
ATOM      8  C6  PXY d   1      -0.278  -0.349  -0.287  0.00  0.00     0.003 A 
ENDROOT
TORSDOF 0
ENDMDL
