MODEL 1
REMARK minimizedAffinity 7.55669546
REMARK minimizedRMSD -1
REMARK  0 active torsions:
REMARK  status: ('A' for Active; 'I' for Inactive)
ROOT
ATOM      1  C4' PXY d   1       6.000   6.000   3.077  0.00  0.00     0.077 C 
ATOM      2  C1' PXY d   1       2.444   1.572   4.156  0.00  0.00     0.077 C 
ATOM      3  C1  PXY d   1       3.385   2.728   3.882  0.00  0.00    -0.082 A 
ATOM      4  C2  PXY d   1       2.902   3.867   3.411  0.00  0.00     0.003 A 
ATOM      5  C3  PXY d   1       3.743   4.912   3.127  0.00  0.00     0.003 A 
ATOM      6  C4  PXY d   1       5.085   4.809   3.377  0.00  0.00    -0.082 A 
ATOM      7  C5  PXY d   1       5.584   3.654   3.867  0.00  0.00     0.003 A 
ATOM      8  C6  PXY d   1       4.719   2.591   4.110  0.00  0.00     0.003 A 
ENDROOT
TORSDOF 0
ENDMDL
