MODEL 1
REMARK minimizedAffinity 3.60096622
REMARK minimizedRMSD -1
REMARK  0 active torsions:
REMARK  status: ('A' for Active; 'I' for Inactive)
ROOT
ATOM      1  C4' PXY d   1       3.368   0.793  -0.242  0.00  0.00     0.077 C 
ATOM      2  C1' PXY d   1       4.825   6.000  -2.289  0.00  0.00     0.077 C 
ATOM      3  C1  PXY d   1       4.436   4.640  -1.742  0.00  0.00    -0.082 A 
ATOM      4  C2  PXY d   1       5.175   3.582  -2.035  0.00  0.00     0.003 A 
ATOM      5  C3  PXY d   1       4.820   2.340  -1.575  0.00  0.00     0.003 A 
ATOM      6  C4  PXY d   1       3.728   2.187  -0.764  0.00  0.00    -0.082 A 
ATOM      7  C5  PXY d   1       2.975   3.264  -0.452  0.00  0.00     0.003 A 
ATOM      8  C6  PXY d   1       3.329   4.509  -0.962  0.00  0.00     0.003 A 
ENDROOT
TORSDOF 0
ENDMDL
