MODEL 1
REMARK minimizedAffinity 8.11216259
REMARK minimizedRMSD -1
REMARK  0 active torsions:
REMARK  status: ('A' for Active; 'I' for Inactive)
ROOT
ATOM      1  C4' PXY d   1       0.430  -5.786   1.889  0.00  0.00     0.077 C 
ATOM      2  C1' PXY d   1       5.970  -5.030   3.359  0.00  0.00     0.077 C 
ATOM      3  C1  PXY d   1       4.513  -5.228   2.986  0.00  0.00    -0.082 A 
ATOM      4  C2  PXY d   1       4.205  -5.841   1.855  0.00  0.00     0.003 A 
ATOM      5  C3  PXY d   1       2.894  -6.000   1.487  0.00  0.00     0.003 A 
ATOM      6  C4  PXY d   1       1.887  -5.573   2.311  0.00  0.00    -0.082 A 
ATOM      7  C5  PXY d   1       2.193  -4.955   3.471  0.00  0.00     0.003 A 
ATOM      8  C6  PXY d   1       3.531  -4.768   3.807  0.00  0.00     0.003 A 
ENDROOT
TORSDOF 0
ENDMDL
