MODEL 1
REMARK minimizedAffinity 3.40901732
REMARK minimizedRMSD -1
REMARK  0 active torsions:
REMARK  status: ('A' for Active; 'I' for Inactive)
ROOT
ATOM      1  C4' PXY d   1       5.998   6.000   6.000  0.00  0.00     0.077 C 
ATOM      2  C1' PXY d   1       3.294   2.586   2.199  0.00  0.00     0.077 C 
ATOM      3  C1  PXY d   1       4.014   3.476   3.192  0.00  0.00    -0.082 A 
ATOM      4  C2  PXY d   1       3.352   3.975   4.223  0.00  0.00     0.003 A 
ATOM      5  C3  PXY d   1       3.980   4.808   5.114  0.00  0.00     0.003 A 
ATOM      6  C4  PXY d   1       5.313   5.089   4.977  0.00  0.00    -0.082 A 
ATOM      7  C5  PXY d   1       5.998   4.575   3.934  0.00  0.00     0.003 A 
ATOM      8  C6  PXY d   1       5.332   3.765   3.018  0.00  0.00     0.003 A 
ENDROOT
TORSDOF 0
ENDMDL
