MODEL 1
REMARK minimizedAffinity 4.1491437
REMARK minimizedRMSD -1
REMARK  0 active torsions:
REMARK  status: ('A' for Active; 'I' for Inactive)
ROOT
ATOM      1  C4' PXY d   1       5.915   3.398   5.632  0.00  0.00     0.077 C 
ATOM      2  C1' PXY d   1       6.000   5.935   0.438  0.00  0.00     0.077 C 
ATOM      3  C1  PXY d   1       5.973   5.258   1.795  0.00  0.00    -0.082 A 
ATOM      4  C2  PXY d   1       5.931   5.996   2.893  0.00  0.00     0.003 A 
ATOM      5  C3  PXY d   1       5.938   5.402   4.128  0.00  0.00     0.003 A 
ATOM      6  C4  PXY d   1       5.934   4.037   4.241  0.00  0.00    -0.082 A 
ATOM      7  C5  PXY d   1       5.966   3.277   3.125  0.00  0.00     0.003 A 
ATOM      8  C6  PXY d   1       6.000   3.901   1.881  0.00  0.00     0.003 A 
ENDROOT
TORSDOF 0
ENDMDL
