MODEL 1
REMARK minimizedAffinity 1.84841442
REMARK minimizedRMSD -1
REMARK  0 active torsions:
REMARK  status: ('A' for Active; 'I' for Inactive)
ROOT
ATOM      1  C4' PXY d   1       2.838  -0.258  -0.752  0.00  0.00     0.077 C 
ATOM      2  C1' PXY d   1      -0.126   3.709   2.231  0.00  0.00     0.077 C 
ATOM      3  C1  PXY d   1       0.649   2.660   1.458  0.00  0.00    -0.082 A 
ATOM      4  C2  PXY d   1       1.571   3.037   0.587  0.00  0.00     0.003 A 
ATOM      5  C3  PXY d   1       2.259   2.103  -0.144  0.00  0.00     0.003 A 
ATOM      6  C4  PXY d   1       2.038   0.766   0.058  0.00  0.00    -0.082 A 
ATOM      7  C5  PXY d   1       1.106   0.373   0.952  0.00  0.00     0.003 A 
ATOM      8  C6  PXY d   1       0.390   1.339   1.654  0.00  0.00     0.003 A 
ENDROOT
TORSDOF 0
ENDMDL
