MODEL 1
REMARK minimizedAffinity 4.50709057
REMARK minimizedRMSD -1
REMARK  0 active torsions:
REMARK  status: ('A' for Active; 'I' for Inactive)
ROOT
ATOM      1  C4' PXY d   1       0.364  -2.261   0.338  0.00  0.00     0.077 C 
ATOM      2  C1' PXY d   1       3.341  -5.996   3.595  0.00  0.00     0.077 C 
ATOM      3  C1  PXY d   1       2.560  -5.025   2.731  0.00  0.00    -0.082 A 
ATOM      4  C2  PXY d   1       2.567  -3.735   3.027  0.00  0.00     0.003 A 
ATOM      5  C3  PXY d   1       1.841  -2.847   2.275  0.00  0.00     0.003 A 
ATOM      6  C4  PXY d   1       1.144  -3.277   1.177  0.00  0.00    -0.082 A 
ATOM      7  C5  PXY d   1       1.141  -4.589   0.863  0.00  0.00     0.003 A 
ATOM      8  C6  PXY d   1       1.851  -5.480   1.663  0.00  0.00     0.003 A 
ENDROOT
TORSDOF 0
ENDMDL
