MODEL 1
REMARK minimizedAffinity 2.79294109
REMARK minimizedRMSD -1
REMARK  0 active torsions:
REMARK  status: ('A' for Active; 'I' for Inactive)
ROOT
ATOM      1  C4' PXY d   1      -0.627  -0.738  -0.172  0.00  0.00     0.077 C 
ATOM      2  C1' PXY d   1      -3.420  -5.749   0.537  0.00  0.00     0.077 C 
ATOM      3  C1  PXY d   1      -2.678  -4.440   0.359  0.00  0.00    -0.082 A 
ATOM      4  C2  PXY d   1      -3.350  -3.344   0.044  0.00  0.00     0.003 A 
ATOM      5  C3  PXY d   1      -2.691  -2.158  -0.152  0.00  0.00     0.003 A 
ATOM      6  C4  PXY d   1      -1.336  -2.081   0.027  0.00  0.00    -0.082 A 
ATOM      7  C5  PXY d   1      -0.644  -3.191   0.359  0.00  0.00     0.003 A 
ATOM      8  C6  PXY d   1      -1.327  -4.395   0.513  0.00  0.00     0.003 A 
ENDROOT
TORSDOF 0
ENDMDL
