MODEL 1
REMARK minimizedAffinity 12.9050522
REMARK minimizedRMSD -1
REMARK  0 active torsions:
REMARK  status: ('A' for Active; 'I' for Inactive)
ROOT
ATOM      1  C4' PXY d   1       5.999   3.367  -4.479  0.00  0.00     0.077 C 
ATOM      2  C1' PXY d   1       1.283   0.164  -3.520  0.00  0.00     0.077 C 
ATOM      3  C1  PXY d   1       2.517   1.004  -3.784  0.00  0.00    -0.082 A 
ATOM      4  C2  PXY d   1       3.521   0.981  -2.922  0.00  0.00     0.003 A 
ATOM      5  C3  PXY d   1       4.631   1.758  -3.130  0.00  0.00     0.003 A 
ATOM      6  C4  PXY d   1       4.738   2.528  -4.257  0.00  0.00    -0.082 A 
ATOM      7  C5  PXY d   1       3.722   2.549  -5.146  0.00  0.00     0.003 A 
ATOM      8  C6  PXY d   1       2.586   1.784  -4.897  0.00  0.00     0.003 A 
ENDROOT
TORSDOF 0
ENDMDL
