MODEL 1
REMARK minimizedAffinity 12.4066486
REMARK minimizedRMSD -1
REMARK  0 active torsions:
REMARK  status: ('A' for Active; 'I' for Inactive)
ROOT
ATOM      1  C4' PXY d   1      -0.133  -0.736  -0.709  0.00  0.00     0.077 C 
ATOM      2  C1' PXY d   1       1.310   3.987   2.297  0.00  0.00     0.077 C 
ATOM      3  C1  PXY d   1       0.924   2.744   1.518  0.00  0.00    -0.082 A 
ATOM      4  C2  PXY d   1       1.713   2.308   0.550  0.00  0.00     0.003 A 
ATOM      5  C3  PXY d   1       1.364   1.204  -0.185  0.00  0.00     0.003 A 
ATOM      6  C4  PXY d   1       0.221   0.509   0.109  0.00  0.00    -0.082 A 
ATOM      7  C5  PXY d   1      -0.584   0.942   1.103  0.00  0.00     0.003 A 
ATOM      8  C6  PXY d   1      -0.232   2.088   1.810  0.00  0.00     0.003 A 
ENDROOT
TORSDOF 0
ENDMDL
