MODEL 1
REMARK minimizedAffinity -2.93840909
REMARK minimizedRMSD -1
REMARK  0 active torsions:
REMARK  status: ('A' for Active; 'I' for Inactive)
ROOT
ATOM      1  C4' PXY d   1       1.553  -0.164  -0.526  0.00  0.00     0.077 C 
ATOM      2  C1' PXY d   1      -2.784  -3.976  -0.256  0.00  0.00     0.077 C 
ATOM      3  C1  PXY d   1      -1.654  -2.969  -0.335  0.00  0.00    -0.082 A 
ATOM      4  C2  PXY d   1      -0.406  -3.370  -0.154  0.00  0.00     0.003 A 
ATOM      5  C3  PXY d   1       0.625  -2.467  -0.190  0.00  0.00     0.003 A 
ATOM      6  C4  PXY d   1       0.381  -1.148  -0.465  0.00  0.00    -0.082 A 
ATOM      7  C5  PXY d   1      -0.888  -0.733  -0.661  0.00  0.00     0.003 A 
ATOM      8  C6  PXY d   1      -1.925  -1.658  -0.580  0.00  0.00     0.003 A 
ENDROOT
TORSDOF 0
ENDMDL
