MODEL 1
REMARK minimizedAffinity 14.7852755
REMARK minimizedRMSD -1
REMARK  0 active torsions:
REMARK  status: ('A' for Active; 'I' for Inactive)
ROOT
ATOM      1  C4' PXY d   1       6.000   1.594  -4.054  0.00  0.00     0.077 C 
ATOM      2  C1' PXY d   1       2.185   5.485  -5.984  0.00  0.00     0.077 C 
ATOM      3  C1  PXY d   1       3.178   4.455  -5.482  0.00  0.00    -0.082 A 
ATOM      4  C2  PXY d   1       4.050   4.789  -4.544  0.00  0.00     0.003 A 
ATOM      5  C3  PXY d   1       4.975   3.880  -4.101  0.00  0.00     0.003 A 
ATOM      6  C4  PXY d   1       4.973   2.598  -4.585  0.00  0.00    -0.082 A 
ATOM      7  C5  PXY d   1       4.080   2.246  -5.533  0.00  0.00     0.003 A 
ATOM      8  C6  PXY d   1       3.176   3.196  -5.999  0.00  0.00     0.003 A 
ENDROOT
TORSDOF 0
ENDMDL
