MODEL 1
REMARK minimizedAffinity 9.90042877
REMARK minimizedRMSD -1
REMARK  0 active torsions:
REMARK  status: ('A' for Active; 'I' for Inactive)
ROOT
ATOM      1  C4' PXY d   1       0.094  -5.880   2.064  0.00  0.00     0.077 C 
ATOM      2  C1' PXY d   1       5.767  -6.000   3.169  0.00  0.00     0.077 C 
ATOM      3  C1  PXY d   1       4.281  -5.962   2.868  0.00  0.00    -0.082 A 
ATOM      4  C2  PXY d   1       3.411  -5.999   3.863  0.00  0.00     0.003 A 
ATOM      5  C3  PXY d   1       2.064  -5.999   3.608  0.00  0.00     0.003 A 
ATOM      6  C4  PXY d   1       1.603  -5.906   2.322  0.00  0.00    -0.082 A 
ATOM      7  C5  PXY d   1       2.485  -5.857   1.301  0.00  0.00     0.003 A 
ATOM      8  C6  PXY d   1       3.848  -5.900   1.579  0.00  0.00     0.003 A 
ENDROOT
TORSDOF 0
ENDMDL
