MODEL 1
REMARK minimizedAffinity -4.28333998
REMARK minimizedRMSD -1
REMARK  0 active torsions:
REMARK  status: ('A' for Active; 'I' for Inactive)
ROOT
ATOM      1  C4' PXY d   1       0.969  -0.790  -2.001  0.00  0.00     0.077 C 
ATOM      2  C1' PXY d   1      -1.159   1.065   3.043  0.00  0.00     0.077 C 
ATOM      3  C1  PXY d   1      -0.589   0.583   1.724  0.00  0.00    -0.082 A 
ATOM      4  C2  PXY d   1      -1.392   0.418   0.685  0.00  0.00     0.003 A 
ATOM      5  C3  PXY d   1      -0.899  -0.047  -0.506  0.00  0.00     0.003 A 
ATOM      6  C4  PXY d   1       0.439  -0.296  -0.652  0.00  0.00    -0.082 A 
ATOM      7  C5  PXY d   1       1.267  -0.121   0.399  0.00  0.00     0.003 A 
ATOM      8  C6  PXY d   1       0.740   0.313   1.612  0.00  0.00     0.003 A 
ENDROOT
TORSDOF 0
ENDMDL
