MODEL 1
REMARK minimizedAffinity -3.31108427
REMARK minimizedRMSD -1
REMARK  0 active torsions:
REMARK  status: ('A' for Active; 'I' for Inactive)
ROOT
ATOM      1  C4' PXY d   1       0.773  -1.101  -2.236  0.00  0.00     0.077 C 
ATOM      2  C1' PXY d   1      -1.605   1.068   2.566  0.00  0.00     0.077 C 
ATOM      3  C1  PXY d   1      -0.970   0.505   1.309  0.00  0.00    -0.082 A 
ATOM      4  C2  PXY d   1      -1.735   0.177   0.281  0.00  0.00     0.003 A 
ATOM      5  C3  PXY d   1      -1.181  -0.363  -0.851  0.00  0.00     0.003 A 
ATOM      6  C4  PXY d   1       0.176  -0.520  -0.951  0.00  0.00    -0.082 A 
ATOM      7  C5  PXY d   1       0.964  -0.177   0.090  0.00  0.00     0.003 A 
ATOM      8  C6  PXY d   1       0.378   0.331   1.245  0.00  0.00     0.003 A 
ENDROOT
TORSDOF 0
ENDMDL
