MODEL 1
REMARK minimizedAffinity -2.85290694
REMARK minimizedRMSD -1
REMARK  0 active torsions:
REMARK  status: ('A' for Active; 'I' for Inactive)
ROOT
ATOM      1  C4' PXY d   1       0.950  -0.035  -2.664  0.00  0.00     0.077 C 
ATOM      2  C1' PXY d   1      -1.092   0.330   2.732  0.00  0.00     0.077 C 
ATOM      3  C1  PXY d   1      -0.562   0.222   1.316  0.00  0.00    -0.082 A 
ATOM      4  C2  PXY d   1       0.493   0.935   0.956  0.00  0.00     0.003 A 
ATOM      5  C3  PXY d   1       0.966   0.875  -0.329  0.00  0.00     0.003 A 
ATOM      6  C4  PXY d   1       0.386   0.035  -1.242  0.00  0.00    -0.082 A 
ATOM      7  C5  PXY d   1      -0.684  -0.704  -0.880  0.00  0.00     0.003 A 
ATOM      8  C6  PXY d   1      -1.174  -0.597   0.418  0.00  0.00     0.003 A 
ENDROOT
TORSDOF 0
ENDMDL
