MODEL 1
REMARK minimizedAffinity -3.58281112
REMARK minimizedRMSD -1
REMARK  0 active torsions:
REMARK  status: ('A' for Active; 'I' for Inactive)
ROOT
ATOM      1  C4' PXY d   1      -0.440   1.550   2.934  0.00  0.00     0.077 C 
ATOM      2  C1' PXY d   1       0.043  -1.379  -2.025  0.00  0.00     0.077 C 
ATOM      3  C1  PXY d   1      -0.072  -0.616  -0.721  0.00  0.00    -0.082 A 
ATOM      4  C2  PXY d   1      -1.266  -0.265  -0.272  0.00  0.00     0.003 A 
ATOM      5  C3  PXY d   1      -1.386   0.454   0.890  0.00  0.00     0.003 A 
ATOM      6  C4  PXY d   1      -0.277   0.770   1.627  0.00  0.00    -0.082 A 
ATOM      7  C5  PXY d   1       0.944   0.406   1.181  0.00  0.00     0.003 A 
ATOM      8  C6  PXY d   1       1.048  -0.287  -0.022  0.00  0.00     0.003 A 
ENDROOT
TORSDOF 0
ENDMDL
