MODEL 1
REMARK minimizedAffinity -4.02474213
REMARK minimizedRMSD -1
REMARK  0 active torsions:
REMARK  status: ('A' for Active; 'I' for Inactive)
ROOT
ATOM      1  C4' PXY d   1       1.463   0.105  -2.918  0.00  0.00     0.077 C 
ATOM      2  C1' PXY d   1      -1.485   0.497   2.039  0.00  0.00     0.077 C 
ATOM      3  C1  PXY d   1      -0.712   0.381   0.741  0.00  0.00    -0.082 A 
ATOM      4  C2  PXY d   1       0.003   1.409   0.311  0.00  0.00     0.003 A 
ATOM      5  C3  PXY d   1       0.682   1.332  -0.877  0.00  0.00     0.003 A 
ATOM      6  C4  PXY d   1       0.674   0.174  -1.607  0.00  0.00    -0.082 A 
ATOM      7  C5  PXY d   1      -0.044  -0.883  -1.170  0.00  0.00     0.003 A 
ATOM      8  C6  PXY d   1      -0.760  -0.771   0.018  0.00  0.00     0.003 A 
ENDROOT
TORSDOF 0
ENDMDL
