MODEL 1
REMARK minimizedAffinity -3.95859146
REMARK minimizedRMSD -1
REMARK  0 active torsions:
REMARK  status: ('A' for Active; 'I' for Inactive)
ROOT
ATOM      1  C4' PXY d   1      -0.887   1.325   2.901  0.00  0.00     0.077 C 
ATOM      2  C1' PXY d   1       0.171  -1.014  -2.278  0.00  0.00     0.077 C 
ATOM      3  C1  PXY d   1      -0.117  -0.396  -0.924  0.00  0.00    -0.082 A 
ATOM      4  C2  PXY d   1       0.884  -0.111  -0.108  0.00  0.00     0.003 A 
ATOM      5  C3  PXY d   1       0.639   0.419   1.132  0.00  0.00     0.003 A 
ATOM      6  C4  PXY d   1      -0.642   0.709   1.521  0.00  0.00    -0.082 A 
ATOM      7  C5  PXY d   1      -1.668   0.430   0.690  0.00  0.00     0.003 A 
ATOM      8  C6  PXY d   1      -1.401  -0.145  -0.549  0.00  0.00     0.003 A 
ENDROOT
TORSDOF 0
ENDMDL
