MODEL 1
REMARK minimizedAffinity -0.905457616
REMARK minimizedRMSD -1
REMARK  0 active torsions:
REMARK  status: ('A' for Active; 'I' for Inactive)
ROOT
ATOM      1  C4' PXY d   1       0.586  -0.744  -3.056  0.00  0.00     0.077 C 
ATOM      2  C1' PXY d   1      -1.301   0.420   2.283  0.00  0.00     0.077 C 
ATOM      3  C1  PXY d   1      -0.794   0.119   0.886  0.00  0.00    -0.082 A 
ATOM      4  C2  PXY d   1      -1.653   0.031  -0.117  0.00  0.00     0.003 A 
ATOM      5  C3  PXY d   1      -1.216  -0.271  -1.381  0.00  0.00     0.003 A 
ATOM      6  C4  PXY d   1       0.121  -0.433  -1.631  0.00  0.00    -0.082 A 
ATOM      7  C5  PXY d   1       1.005  -0.334  -0.616  0.00  0.00     0.003 A 
ATOM      8  C6  PXY d   1       0.536  -0.067   0.668  0.00  0.00     0.003 A 
ENDROOT
TORSDOF 0
ENDMDL
