MODEL 1
REMARK minimizedAffinity -3.86511707
REMARK minimizedRMSD -1
REMARK  0 active torsions:
REMARK  status: ('A' for Active; 'I' for Inactive)
ROOT
ATOM      1  C4' PXY d   1       0.395  -0.868  -1.302  0.00  0.00     0.077 C 
ATOM      2  C1' PXY d   1      -0.859   2.193   3.439  0.00  0.00     0.077 C 
ATOM      3  C1  PXY d   1      -0.535   1.379   2.201  0.00  0.00    -0.082 A 
ATOM      4  C2  PXY d   1       0.441   1.770   1.398  0.00  0.00     0.003 A 
ATOM      5  C3  PXY d   1       0.726   1.065   0.258  0.00  0.00     0.003 A 
ATOM      6  C4  PXY d   1       0.040  -0.083  -0.037  0.00  0.00    -0.082 A 
ATOM      7  C5  PXY d   1      -0.951  -0.494   0.783  0.00  0.00     0.003 A 
ATOM      8  C6  PXY d   1      -1.252   0.259   1.914  0.00  0.00     0.003 A 
ENDROOT
TORSDOF 0
ENDMDL
