MODEL 1
REMARK minimizedAffinity -4.4717207
REMARK minimizedRMSD -1
REMARK  0 active torsions:
REMARK  status: ('A' for Active; 'I' for Inactive)
ROOT
ATOM      1  C4' PXY d   1       0.719  -0.845  -2.074  0.00  0.00     0.077 C 
ATOM      2  C1' PXY d   1      -1.166   1.531   2.846  0.00  0.00     0.077 C 
ATOM      3  C1  PXY d   1      -0.661   0.915   1.557  0.00  0.00    -0.082 A 
ATOM      4  C2  PXY d   1      -1.526   0.462   0.665  0.00  0.00     0.003 A 
ATOM      5  C3  PXY d   1      -1.086  -0.128  -0.492  0.00  0.00     0.003 A 
ATOM      6  C4  PXY d   1       0.254  -0.206  -0.763  0.00  0.00    -0.082 A 
ATOM      7  C5  PXY d   1       1.143   0.263   0.138  0.00  0.00     0.003 A 
ATOM      8  C6  PXY d   1       0.677   0.821   1.325  0.00  0.00     0.003 A 
ENDROOT
TORSDOF 0
ENDMDL
