MODEL 1
REMARK minimizedAffinity 36.743866
REMARK minimizedRMSD -1
REMARK  0 active torsions:
REMARK  status: ('A' for Active; 'I' for Inactive)
ROOT
ATOM      1  C   UNL d   1       3.301  -1.522  -1.560  0.00  0.00     0.124 A 
ATOM      2  C1  UNL d   1       3.126  -0.153  -1.708  0.00  0.00     0.062 A 
ATOM      3  C2  UNL d   1       2.570   0.598  -0.677  0.00  0.00     0.162 A 
ATOM      4  C3  UNL d   1       2.185  -0.019   0.514  0.00  0.00    -0.034 A 
ATOM      5  C4  UNL d   1       2.363  -1.396   0.655  0.00  0.00     0.162 A 
ATOM      6  C5  UNL d   1       2.919  -2.142  -0.379  0.00  0.00     0.062 A 
ATOM      7  F   UNL d   1       3.088  -3.465  -0.233  0.00  0.00    -0.097 F 
ATOM      8  F1  UNL d   1       2.004  -2.021   1.787  0.00  0.00    -0.096 F 
ATOM      9  I   UNL d   1       1.353   1.100   2.059  0.00  0.00    -0.060 I 
ATOM     10  F2  UNL d   1       2.413   1.919  -0.848  0.00  0.00    -0.096 F 
ATOM     11  F3  UNL d   1       3.493   0.449  -2.849  0.00  0.00    -0.097 F 
ATOM     12  F4  UNL d   1       3.836  -2.242  -2.555  0.00  0.00    -0.092 F 
ENDROOT
TORSDOF 0
ENDMDL
