MODEL 1
REMARK minimizedAffinity 33.5864563
REMARK minimizedRMSD -1
REMARK  0 active torsions:
REMARK  status: ('A' for Active; 'I' for Inactive)
ROOT
ATOM      1  C   UNL d   1       0.318  -2.422   3.961  0.00  0.00     0.124 A 
ATOM      2  C1  UNL d   1       1.104  -2.101   2.863  0.00  0.00     0.062 A 
ATOM      3  C2  UNL d   1       1.020  -2.857   1.697  0.00  0.00     0.162 A 
ATOM      4  C3  UNL d   1       0.147  -3.942   1.623  0.00  0.00    -0.034 A 
ATOM      5  C4  UNL d   1      -0.639  -4.260   2.733  0.00  0.00     0.162 A 
ATOM      6  C5  UNL d   1      -0.552  -3.501   3.895  0.00  0.00     0.062 A 
ATOM      7  F   UNL d   1      -1.311  -3.813   4.955  0.00  0.00    -0.097 F 
ATOM      8  F1  UNL d   1      -1.490  -5.297   2.696  0.00  0.00    -0.096 F 
ATOM      9  I   UNL d   1       0.019  -5.076  -0.118  0.00  0.00    -0.060 I 
ATOM     10  F2  UNL d   1       1.791  -2.524   0.651  0.00  0.00    -0.096 F 
ATOM     11  F3  UNL d   1       1.946  -1.060   2.924  0.00  0.00    -0.097 F 
ATOM     12  F4  UNL d   1       0.402  -1.694   5.082  0.00  0.00    -0.092 F 
ENDROOT
TORSDOF 0
ENDMDL
