MODEL 1
REMARK minimizedAffinity 19.1410561
REMARK minimizedRMSD -1
REMARK  0 active torsions:
REMARK  status: ('A' for Active; 'I' for Inactive)
ROOT
ATOM      1  C   UNL d   1       2.878   0.726   0.495  0.00  0.00     0.124 A 
ATOM      2  C1  UNL d   1       2.441  -0.564   0.764  0.00  0.00     0.062 A 
ATOM      3  C2  UNL d   1       2.465  -1.534  -0.233  0.00  0.00     0.162 A 
ATOM      4  C3  UNL d   1       2.929  -1.219  -1.510  0.00  0.00    -0.034 A 
ATOM      5  C4  UNL d   1       3.366   0.080  -1.774  0.00  0.00     0.162 A 
ATOM      6  C5  UNL d   1       3.340   1.046  -0.774  0.00  0.00     0.062 A 
ATOM      7  F   UNL d   1       3.763   2.292  -1.037  0.00  0.00    -0.097 F 
ATOM      8  F1  UNL d   1       3.818   0.417  -2.991  0.00  0.00    -0.096 F 
ATOM      9  I   UNL d   1       2.966  -2.667  -3.005  0.00  0.00    -0.060 I 
ATOM     10  F2  UNL d   1       2.037  -2.772   0.056  0.00  0.00    -0.096 F 
ATOM     11  F3  UNL d   1       1.993  -0.876   1.989  0.00  0.00    -0.097 F 
ATOM     12  F4  UNL d   1       2.853   1.658   1.456  0.00  0.00    -0.092 F 
ENDROOT
TORSDOF 0
ENDMDL
