MODEL 1
REMARK minimizedAffinity 18.6560364
REMARK minimizedRMSD -1
REMARK  0 active torsions:
REMARK  status: ('A' for Active; 'I' for Inactive)
ROOT
ATOM      1  C   UNL d   1      -5.234   2.616  -0.404  0.00  0.00     0.124 A 
ATOM      2  C1  UNL d   1      -5.602   3.953  -0.451  0.00  0.00     0.062 A 
ATOM      3  C2  UNL d   1      -5.640   4.710   0.717  0.00  0.00     0.162 A 
ATOM      4  C3  UNL d   1      -5.307   4.131   1.942  0.00  0.00    -0.034 A 
ATOM      5  C4  UNL d   1      -4.938   2.785   1.981  0.00  0.00     0.162 A 
ATOM      6  C5  UNL d   1      -4.902   2.033   0.811  0.00  0.00     0.062 A 
ATOM      7  F   UNL d   1      -4.546   0.741   0.858  0.00  0.00    -0.097 F 
ATOM      8  F1  UNL d   1      -4.612   2.197   3.141  0.00  0.00    -0.096 F 
ATOM      9  I   UNL d   1      -5.362   5.259   3.690  0.00  0.00    -0.060 I 
ATOM     10  F2  UNL d   1      -6.000   6.000   0.642  0.00  0.00    -0.096 F 
ATOM     11  F3  UNL d   1      -5.924   4.518  -1.623  0.00  0.00    -0.097 F 
ATOM     12  F4  UNL d   1      -5.199   1.890  -1.529  0.00  0.00    -0.092 F 
ENDROOT
TORSDOF 0
ENDMDL
