MODEL 1
REMARK minimizedAffinity 12.8612938
REMARK minimizedRMSD -1
REMARK  0 active torsions:
REMARK  status: ('A' for Active; 'I' for Inactive)
ROOT
ATOM      1  C   UNL d   1       3.803   0.690  -1.860  0.00  0.00     0.124 A 
ATOM      2  C1  UNL d   1       3.726   1.688  -0.897  0.00  0.00     0.062 A 
ATOM      3  C2  UNL d   1       3.081   1.445   0.312  0.00  0.00     0.162 A 
ATOM      4  C3  UNL d   1       2.509   0.198   0.567  0.00  0.00    -0.034 A 
ATOM      5  C4  UNL d   1       2.590  -0.799  -0.406  0.00  0.00     0.162 A 
ATOM      6  C5  UNL d   1       3.235  -0.552  -1.614  0.00  0.00     0.062 A 
ATOM      7  F   UNL d   1       3.308  -1.516  -2.542  0.00  0.00    -0.097 F 
ATOM      8  F1  UNL d   1       2.050  -2.009  -0.194  0.00  0.00    -0.096 F 
ATOM      9  I   UNL d   1       1.544  -0.169   2.374  0.00  0.00    -0.060 I 
ATOM     10  F2  UNL d   1       3.022   2.427   1.224  0.00  0.00    -0.096 F 
ATOM     11  F3  UNL d   1       4.273   2.889  -1.133  0.00  0.00    -0.097 F 
ATOM     12  F4  UNL d   1       4.423   0.927  -3.023  0.00  0.00    -0.092 F 
ENDROOT
TORSDOF 0
ENDMDL
