MODEL 1
REMARK minimizedAffinity 23.1561756
REMARK minimizedRMSD -1
REMARK  0 active torsions:
REMARK  status: ('A' for Active; 'I' for Inactive)
ROOT
ATOM      1  C   UNL d   1       2.509   0.737  -0.735  0.00  0.00     0.124 A 
ATOM      2  C1  UNL d   1       2.245  -0.423  -0.019  0.00  0.00     0.062 A 
ATOM      3  C2  UNL d   1       3.240  -1.006   0.761  0.00  0.00     0.162 A 
ATOM      4  C3  UNL d   1       4.508  -0.430   0.830  0.00  0.00    -0.034 A 
ATOM      5  C4  UNL d   1       4.767   0.735   0.106  0.00  0.00     0.162 A 
ATOM      6  C5  UNL d   1       3.770   1.314  -0.672  0.00  0.00     0.062 A 
ATOM      7  F   UNL d   1       4.027   2.434  -1.363  0.00  0.00    -0.097 F 
ATOM      8  F1  UNL d   1       5.976   1.315   0.149  0.00  0.00    -0.096 F 
ATOM      9  I   UNL d   1       5.999  -1.299   1.994  0.00  0.00    -0.060 I 
ATOM     10  F2  UNL d   1       2.956  -2.126   1.443  0.00  0.00    -0.096 F 
ATOM     11  F3  UNL d   1       1.029  -0.983  -0.078  0.00  0.00    -0.097 F 
ATOM     12  F4  UNL d   1       1.551   1.295  -1.485  0.00  0.00    -0.092 F 
ENDROOT
TORSDOF 0
ENDMDL
