MODEL 1
REMARK minimizedAffinity 0.511954963
REMARK minimizedRMSD -1
REMARK  1 active torsions:
REMARK  status: ('A' for Active; 'I' for Inactive)
REMARK    1  A    between atoms: C3_4  and  O_7 
ROOT
ATOM      1  C   UNL d   1       1.220  -0.090   0.513  0.00  0.00    -0.033 A 
ATOM      2  C1  UNL d   1      -0.121  -0.471   0.587  0.00  0.00     0.039 A 
ATOM      3  C2  UNL d   1      -0.906  -0.064   1.667  0.00  0.00    -0.080 A 
ATOM      4  C3  UNL d   1      -0.339   0.724   2.665  0.00  0.00     0.150 A 
ATOM      5  C4  UNL d   1       0.995   1.110   2.596  0.00  0.00    -0.007 A 
ATOM      6  C5  UNL d   1       1.778   0.702   1.517  0.00  0.00     0.039 A 
ENDROOT
BRANCH   4   7
ATOM      7  O   UNL d   1      -1.064   1.142   3.741  0.00  0.00    -0.526 OA
ATOM      8  H5  UNL d   1      -1.961   0.775   3.669  0.00  0.00     0.418 HD
ENDBRANCH   4   7
TORSDOF 1
ENDMDL
