MODEL 1
REMARK minimizedAffinity -5.15610123
REMARK minimizedRMSD -1
REMARK  1 active torsions:
REMARK  status: ('A' for Active; 'I' for Inactive)
REMARK    1  A    between atoms: C3_4  and  O_7 
ROOT
ATOM      1  C   UNL d   1       1.148  -0.041   0.172  0.00  0.00    -0.033 A 
ATOM      2  C1  UNL d   1      -0.246  -0.071   0.259  0.00  0.00     0.039 A 
ATOM      3  C2  UNL d   1      -0.897   0.597   1.298  0.00  0.00    -0.080 A 
ATOM      4  C3  UNL d   1      -0.145   1.291   2.241  0.00  0.00     0.150 A 
ATOM      5  C4  UNL d   1       1.243   1.329   2.158  0.00  0.00    -0.007 A 
ATOM      6  C5  UNL d   1       1.892   0.661   1.121  0.00  0.00     0.039 A 
ENDROOT
BRANCH   4   7
ATOM      7  O   UNL d   1      -0.735   1.954   3.276  0.00  0.00    -0.526 OA
ATOM      8  H5  UNL d   1      -1.696   1.816   3.221  0.00  0.00     0.418 HD
ENDBRANCH   4   7
TORSDOF 1
ENDMDL
