MODEL 1
REMARK minimizedAffinity -1.4290123
REMARK minimizedRMSD -1
REMARK  1 active torsions:
REMARK  status: ('A' for Active; 'I' for Inactive)
REMARK    1  A    between atoms: C3_4  and  O_7 
ROOT
ATOM      1  C   UNL d   1       2.135  -0.744  -0.161  0.00  0.00    -0.033 A 
ATOM      2  C1  UNL d   1       0.779  -0.914   0.124  0.00  0.00     0.039 A 
ATOM      3  C2  UNL d   1       0.129  -0.030   0.988  0.00  0.00    -0.080 A 
ATOM      4  C3  UNL d   1       0.845   1.019   1.558  0.00  0.00     0.150 A 
ATOM      5  C4  UNL d   1       2.196   1.196   1.275  0.00  0.00    -0.007 A 
ATOM      6  C5  UNL d   1       2.843   0.312   0.413  0.00  0.00     0.039 A 
ENDROOT
BRANCH   4   7
ATOM      7  O   UNL d   1       0.255   1.904   2.411  0.00  0.00    -0.526 OA
ATOM      8  H5  UNL d   1      -0.672   1.640   2.535  0.00  0.00     0.418 HD
ENDBRANCH   4   7
TORSDOF 1
ENDMDL
