MODEL 1
REMARK minimizedAffinity -4.96816397
REMARK minimizedRMSD -1
REMARK  1 active torsions:
REMARK  status: ('A' for Active; 'I' for Inactive)
REMARK    1  A    between atoms: C3_4  and  O_7 
ROOT
ATOM      1  C   UNL d   1      -0.535   1.760   1.487  0.00  0.00    -0.033 A 
ATOM      2  C1  UNL d   1       0.643   1.485   2.184  0.00  0.00     0.039 A 
ATOM      3  C2  UNL d   1       1.409   0.367   1.850  0.00  0.00    -0.080 A 
ATOM      4  C3  UNL d   1       0.989  -0.466   0.816  0.00  0.00     0.150 A 
ATOM      5  C4  UNL d   1      -0.181  -0.195   0.114  0.00  0.00    -0.007 A 
ATOM      6  C5  UNL d   1      -0.946   0.921   0.451  0.00  0.00     0.039 A 
ENDROOT
BRANCH   4   7
ATOM      7  O   UNL d   1       1.701  -1.571   0.457  0.00  0.00    -0.526 OA
ATOM      8  H5  UNL d   1       2.469  -1.648   1.047  0.00  0.00     0.418 HD
ENDBRANCH   4   7
TORSDOF 1
ENDMDL
