MODEL 1
REMARK minimizedAffinity -3.97085929
REMARK minimizedRMSD -1
REMARK  1 active torsions:
REMARK  status: ('A' for Active; 'I' for Inactive)
REMARK    1  A    between atoms: C3_4  and  O_7 
ROOT
ATOM      1  C   UNL d   1       1.122  -0.366   0.534  0.00  0.00    -0.033 A 
ATOM      2  C1  UNL d   1      -0.162   0.096   0.240  0.00  0.00     0.039 A 
ATOM      3  C2  UNL d   1      -0.871   0.842   1.184  0.00  0.00    -0.080 A 
ATOM      4  C3  UNL d   1      -0.285   1.118   2.416  0.00  0.00     0.150 A 
ATOM      5  C4  UNL d   1       0.995   0.664   2.715  0.00  0.00    -0.007 A 
ATOM      6  C5  UNL d   1       1.701  -0.081   1.771  0.00  0.00     0.039 A 
ENDROOT
BRANCH   4   7
ATOM      7  O   UNL d   1      -0.940   1.837   3.371  0.00  0.00    -0.526 OA
ATOM      8  H5  UNL d   1      -1.825   2.060   3.036  0.00  0.00     0.418 HD
ENDBRANCH   4   7
TORSDOF 1
ENDMDL
