MODEL 1
REMARK minimizedAffinity -4.46792603
REMARK minimizedRMSD -1
REMARK  1 active torsions:
REMARK  status: ('A' for Active; 'I' for Inactive)
REMARK    1  A    between atoms: C3_4  and  O_7 
ROOT
ATOM      1  C   UNL d   1      -3.333  -3.613  -1.583  0.00  0.00    -0.033 A 
ATOM      2  C1  UNL d   1      -1.937  -3.619  -1.579  0.00  0.00     0.039 A 
ATOM      3  C2  UNL d   1      -1.233  -2.502  -1.127  0.00  0.00    -0.080 A 
ATOM      4  C3  UNL d   1      -1.936  -1.386  -0.681  0.00  0.00     0.150 A 
ATOM      5  C4  UNL d   1      -3.327  -1.374  -0.679  0.00  0.00    -0.007 A 
ATOM      6  C5  UNL d   1      -4.028  -2.490  -1.131  0.00  0.00     0.039 A 
ENDROOT
BRANCH   4   7
ATOM      7  O   UNL d   1      -1.292  -0.270  -0.235  0.00  0.00    -0.526 OA
ATOM      8  H5  UNL d   1      -0.335  -0.411  -0.322  0.00  0.00     0.418 HD
ENDBRANCH   4   7
TORSDOF 1
ENDMDL
