MODEL 1
REMARK minimizedAffinity -4.716187
REMARK minimizedRMSD -1
REMARK  1 active torsions:
REMARK  status: ('A' for Active; 'I' for Inactive)
REMARK    1  A    between atoms: C3_4  and  O_7 
ROOT
ATOM      1  C   UNL d   1       0.568   1.229   2.515  0.00  0.00    -0.033 A 
ATOM      2  C1  UNL d   1       0.895   0.809   1.225  0.00  0.00     0.039 A 
ATOM      3  C2  UNL d   1      -0.049   0.131   0.450  0.00  0.00    -0.080 A 
ATOM      4  C3  UNL d   1      -1.313  -0.118   0.976  0.00  0.00     0.150 A 
ATOM      5  C4  UNL d   1      -1.647   0.301   2.260  0.00  0.00    -0.007 A 
ATOM      6  C5  UNL d   1      -0.703   0.976   3.032  0.00  0.00     0.039 A 
ENDROOT
BRANCH   4   7
ATOM      7  O   UNL d   1      -2.266  -0.780   0.259  0.00  0.00    -0.526 OA
ATOM      8  H5  UNL d   1      -1.885  -1.034  -0.598  0.00  0.00     0.418 HD
ENDBRANCH   4   7
TORSDOF 1
ENDMDL
