MODEL 1
REMARK minimizedAffinity -4.41335392
REMARK minimizedRMSD -1
REMARK  1 active torsions:
REMARK  status: ('A' for Active; 'I' for Inactive)
REMARK    1  A    between atoms: C3_4  and  O_7 
ROOT
ATOM      1  C   UNL d   1       1.160  -0.222   0.365  0.00  0.00    -0.033 A 
ATOM      2  C1  UNL d   1      -0.166   0.153   0.145  0.00  0.00     0.039 A 
ATOM      3  C2  UNL d   1      -0.850   0.902   1.105  0.00  0.00    -0.080 A 
ATOM      4  C3  UNL d   1      -0.196   1.270   2.277  0.00  0.00     0.150 A 
ATOM      5  C4  UNL d   1       1.127   0.903   2.501  0.00  0.00    -0.007 A 
ATOM      6  C5  UNL d   1       1.808   0.154   1.542  0.00  0.00     0.039 A 
ENDROOT
BRANCH   4   7
ATOM      7  O   UNL d   1      -0.823   1.998   3.245  0.00  0.00    -0.526 OA
ATOM      8  H5  UNL d   1      -1.741   2.154   2.966  0.00  0.00     0.418 HD
ENDBRANCH   4   7
TORSDOF 1
ENDMDL
