MODEL 1
REMARK minimizedAffinity -3.65982485
REMARK minimizedRMSD -1
REMARK  1 active torsions:
REMARK  status: ('A' for Active; 'I' for Inactive)
REMARK    1  A    between atoms: C3_4  and  O_7 
ROOT
ATOM      1  C   UNL d   1       1.922   0.362  -3.505  0.00  0.00    -0.033 A 
ATOM      2  C1  UNL d   1       1.840   1.205  -4.615  0.00  0.00     0.039 A 
ATOM      3  C2  UNL d   1       0.649   1.298  -5.337  0.00  0.00    -0.080 A 
ATOM      4  C3  UNL d   1      -0.452   0.545  -4.938  0.00  0.00     0.150 A 
ATOM      5  C4  UNL d   1      -0.379  -0.294  -3.831  0.00  0.00    -0.007 A 
ATOM      6  C5  UNL d   1       0.812  -0.387  -3.112  0.00  0.00     0.039 A 
ENDROOT
BRANCH   4   7
ATOM      7  O   UNL d   1      -1.635   0.600  -5.614  0.00  0.00    -0.526 OA
ATOM      8  H5  UNL d   1      -1.529   1.198  -6.372  0.00  0.00     0.418 HD
ENDBRANCH   4   7
TORSDOF 1
ENDMDL
