MODEL 1
REMARK minimizedAffinity 3.95590186
REMARK minimizedRMSD -1
REMARK  0 active torsions:
REMARK  status: ('A' for Active; 'I' for Inactive)
ROOT
ATOM      1  C   UNL d   1       1.626  -0.219   0.758  0.00  0.00     0.078 C 
ATOM      2  C1  UNL d   1       0.158  -0.064   0.496  0.00  0.00    -0.077 A 
ATOM      3  C2  UNL d   1      -0.424  -0.574  -0.671  0.00  0.00    -0.001 A 
ATOM      4  C3  UNL d   1      -1.791  -0.414  -0.906  0.00  0.00     0.003 A 
ATOM      5  C4  UNL d   1      -2.586   0.258   0.021  0.00  0.00    -0.005 A 
ATOM      6  C5  UNL d   1      -2.015   0.771   1.183  0.00  0.00     0.003 A 
ATOM      7  C6  UNL d   1      -0.649   0.612   1.420  0.00  0.00    -0.001 A 
ENDROOT
TORSDOF 0
ENDMDL
