MODEL 1
REMARK minimizedAffinity -1.09620404
REMARK minimizedRMSD -1
REMARK  0 active torsions:
REMARK  status: ('A' for Active; 'I' for Inactive)
ROOT
ATOM      1  C   UNL d   1       1.224  -0.927   3.657  0.00  0.00     0.078 C 
ATOM      2  C1  UNL d   1      -0.262  -0.857   3.468  0.00  0.00    -0.077 A 
ATOM      3  C2  UNL d   1      -1.119  -1.719   4.163  0.00  0.00    -0.001 A 
ATOM      4  C3  UNL d   1      -2.499  -1.649   3.970  0.00  0.00     0.003 A 
ATOM      5  C4  UNL d   1      -3.036  -0.720   3.081  0.00  0.00    -0.005 A 
ATOM      6  C5  UNL d   1      -2.191   0.140   2.383  0.00  0.00     0.003 A 
ATOM      7  C6  UNL d   1      -0.810   0.072   2.574  0.00  0.00    -0.001 A 
ENDROOT
TORSDOF 0
ENDMDL
