MODEL 1
REMARK minimizedAffinity 4.74929237
REMARK minimizedRMSD -1
REMARK  0 active torsions:
REMARK  status: ('A' for Active; 'I' for Inactive)
ROOT
ATOM      1  C   UNL d   1       1.449   0.160   1.009  0.00  0.00     0.078 C 
ATOM      2  C1  UNL d   1      -0.009   0.264   0.674  0.00  0.00    -0.077 A 
ATOM      3  C2  UNL d   1      -0.878   1.029   1.463  0.00  0.00    -0.001 A 
ATOM      4  C3  UNL d   1      -2.235   1.108   1.145  0.00  0.00     0.003 A 
ATOM      5  C4  UNL d   1      -2.736   0.424   0.040  0.00  0.00    -0.005 A 
ATOM      6  C5  UNL d   1      -1.880  -0.341  -0.749  0.00  0.00     0.003 A 
ATOM      7  C6  UNL d   1      -0.523  -0.422  -0.433  0.00  0.00    -0.001 A 
ENDROOT
TORSDOF 0
ENDMDL
