MODEL 1
REMARK minimizedAffinity 6.20086861
REMARK minimizedRMSD -1
REMARK  0 active torsions:
REMARK  status: ('A' for Active; 'I' for Inactive)
ROOT
ATOM      1  C   UNL d   1       4.033   2.251  -1.037  0.00  0.00     0.078 C 
ATOM      2  C1  UNL d   1       3.259   1.334  -0.139  0.00  0.00    -0.077 A 
ATOM      3  C2  UNL d   1       3.151   1.589   1.233  0.00  0.00    -0.001 A 
ATOM      4  C3  UNL d   1       2.435   0.721   2.059  0.00  0.00     0.003 A 
ATOM      5  C4  UNL d   1       1.821  -0.409   1.521  0.00  0.00    -0.005 A 
ATOM      6  C5  UNL d   1       1.925  -0.673   0.157  0.00  0.00     0.003 A 
ATOM      7  C6  UNL d   1       2.641   0.194  -0.670  0.00  0.00    -0.001 A 
ENDROOT
TORSDOF 0
ENDMDL
