MODEL 1
REMARK minimizedAffinity 0.535935283
REMARK minimizedRMSD -1
REMARK  0 active torsions:
REMARK  status: ('A' for Active; 'I' for Inactive)
ROOT
ATOM      1  C   UNL d   1       1.708  -0.093   0.684  0.00  0.00     0.078 C 
ATOM      2  C1  UNL d   1       0.711  -0.167   1.802  0.00  0.00    -0.077 A 
ATOM      3  C2  UNL d   1       1.031  -0.793   3.013  0.00  0.00    -0.001 A 
ATOM      4  C3  UNL d   1       0.090  -0.863   4.041  0.00  0.00     0.003 A 
ATOM      5  C4  UNL d   1      -1.178  -0.310   3.869  0.00  0.00    -0.005 A 
ATOM      6  C5  UNL d   1      -1.506   0.312   2.666  0.00  0.00     0.003 A 
ATOM      7  C6  UNL d   1      -0.566   0.383   1.637  0.00  0.00    -0.001 A 
ENDROOT
TORSDOF 0
ENDMDL
