MODEL 1
REMARK minimizedAffinity -2.05937743
REMARK minimizedRMSD -1
REMARK  0 active torsions:
REMARK  status: ('A' for Active; 'I' for Inactive)
ROOT
ATOM      1  C   UNL d   1       1.439  -0.214   1.480  0.00  0.00     0.078 C 
ATOM      2  C1  UNL d   1       0.272  -0.382   2.407  0.00  0.00    -0.077 A 
ATOM      3  C2  UNL d   1      -0.961   0.221   2.129  0.00  0.00    -0.001 A 
ATOM      4  C3  UNL d   1      -2.036   0.064   3.005  0.00  0.00     0.003 A 
ATOM      5  C4  UNL d   1      -1.889  -0.693   4.166  0.00  0.00    -0.005 A 
ATOM      6  C5  UNL d   1      -0.665  -1.294   4.451  0.00  0.00     0.003 A 
ATOM      7  C6  UNL d   1       0.411  -1.139   3.576  0.00  0.00    -0.001 A 
ENDROOT
TORSDOF 0
ENDMDL
