MODEL 1
REMARK minimizedAffinity -0.985265791
REMARK minimizedRMSD -1
REMARK  0 active torsions:
REMARK  status: ('A' for Active; 'I' for Inactive)
ROOT
ATOM      1  C   UNL d   1       0.564  -1.094   4.087  0.00  0.00     0.078 C 
ATOM      2  C1  UNL d   1      -0.174  -0.683   2.847  0.00  0.00    -0.077 A 
ATOM      3  C2  UNL d   1      -1.550  -0.427   2.879  0.00  0.00    -0.001 A 
ATOM      4  C3  UNL d   1      -2.226  -0.055   1.715  0.00  0.00     0.003 A 
ATOM      5  C4  UNL d   1      -1.534   0.062   0.512  0.00  0.00    -0.005 A 
ATOM      6  C5  UNL d   1      -0.164  -0.193   0.470  0.00  0.00     0.003 A 
ATOM      7  C6  UNL d   1       0.513  -0.565   1.632  0.00  0.00    -0.001 A 
ENDROOT
TORSDOF 0
ENDMDL
