MODEL 1
REMARK minimizedAffinity -5.43621922
REMARK minimizedRMSD -1
REMARK  1 active torsions:
REMARK  status: ('A' for Active; 'I' for Inactive)
REMARK    1  A    between atoms: C1_2  and  C2_3 
ROOT
ATOM      1  C2  UNL d   1       1.744   1.534   0.478  0.00  0.00    -0.077 A 
ATOM      2  C3  UNL d   1       1.042   2.136   1.532  0.00  0.00     0.002 A 
ATOM      3  C4  UNL d   1      -0.119   1.546   2.036  0.00  0.00     0.002 A 
ATOM      4  C5  UNL d   1      -0.584   0.348   1.496  0.00  0.00    -0.004 A 
ATOM      5  C6  UNL d   1       0.106  -0.257   0.447  0.00  0.00     0.002 A 
ATOM      6  C7  UNL d   1       1.265   0.333  -0.059  0.00  0.00     0.002 A 
ENDROOT
BRANCH   1   7
ATOM      7  C1  UNL d   1       3.022   2.144  -0.034  0.00  0.00     0.055 C 
ATOM      8  C   UNL d   1       3.824   1.143  -0.853  0.00  0.00     0.019 C 
ENDBRANCH   1   7
TORSDOF 1
ENDMDL
