MODEL 1
REMARK minimizedAffinity -3.90500212
REMARK minimizedRMSD -1
REMARK  1 active torsions:
REMARK  status: ('A' for Active; 'I' for Inactive)
REMARK    1  A    between atoms: C1_2  and  C2_3 
ROOT
ATOM      1  C2  UNL d   1       1.340   0.941  -0.261  0.00  0.00    -0.077 A 
ATOM      2  C3  UNL d   1       1.435   2.084   0.546  0.00  0.00     0.002 A 
ATOM      3  C4  UNL d   1       2.680   2.651   0.823  0.00  0.00     0.002 A 
ATOM      4  C5  UNL d   1       3.838   2.085   0.295  0.00  0.00    -0.004 A 
ATOM      5  C6  UNL d   1       3.755   0.947  -0.506  0.00  0.00     0.002 A 
ATOM      6  C7  UNL d   1       2.511   0.378  -0.784  0.00  0.00     0.002 A 
ENDROOT
BRANCH   1   7
ATOM      7  C1  UNL d   1      -0.006   0.357  -0.601  0.00  0.00     0.055 C 
ATOM      8  C   UNL d   1       0.045  -1.163  -0.647  0.00  0.00     0.019 C 
ENDBRANCH   1   7
TORSDOF 1
ENDMDL
