MODEL 1
REMARK minimizedAffinity -5.67645502
REMARK minimizedRMSD -1
REMARK  1 active torsions:
REMARK  status: ('A' for Active; 'I' for Inactive)
REMARK    1  A    between atoms: C1_2  and  C2_3 
ROOT
ATOM      1  C2  UNL d   1       0.304   0.322   0.381  0.00  0.00    -0.077 A 
ATOM      2  C3  UNL d   1       1.669   0.422   0.080  0.00  0.00     0.002 A 
ATOM      3  C4  UNL d   1       2.401   1.541   0.483  0.00  0.00     0.002 A 
ATOM      4  C5  UNL d   1       1.778   2.564   1.193  0.00  0.00    -0.004 A 
ATOM      5  C6  UNL d   1       0.420   2.475   1.496  0.00  0.00     0.002 A 
ATOM      6  C7  UNL d   1      -0.314   1.358   1.093  0.00  0.00     0.002 A 
ENDROOT
BRANCH   1   7
ATOM      7  C1  UNL d   1      -0.476  -0.907  -0.009  0.00  0.00     0.055 C 
ATOM      8  C   UNL d   1      -1.111  -0.745  -1.383  0.00  0.00     0.019 C 
ENDBRANCH   1   7
TORSDOF 1
ENDMDL
