MODEL 1
REMARK minimizedAffinity -4.63264275
REMARK minimizedRMSD -1
REMARK  1 active torsions:
REMARK  status: ('A' for Active; 'I' for Inactive)
REMARK    1  A    between atoms: C1_2  and  C2_3 
ROOT
ATOM      1  C2  UNL d   1       0.827   0.841   0.439  0.00  0.00    -0.077 A 
ATOM      2  C3  UNL d   1       2.003   0.467  -0.226  0.00  0.00     0.002 A 
ATOM      3  C4  UNL d   1       3.190   1.169  -0.008  0.00  0.00     0.002 A 
ATOM      4  C5  UNL d   1       3.214   2.244   0.877  0.00  0.00    -0.004 A 
ATOM      5  C6  UNL d   1       2.049   2.625   1.542  0.00  0.00     0.002 A 
ATOM      6  C7  UNL d   1       0.861   1.926   1.324  0.00  0.00     0.002 A 
ENDROOT
BRANCH   1   7
ATOM      7  C1  UNL d   1      -0.443   0.055   0.243  0.00  0.00     0.055 C 
ATOM      8  C   UNL d   1      -0.177  -1.255  -0.485  0.00  0.00     0.019 C 
ENDBRANCH   1   7
TORSDOF 1
ENDMDL
