MODEL 1
REMARK minimizedAffinity -3.53104043
REMARK minimizedRMSD -1
REMARK  1 active torsions:
REMARK  status: ('A' for Active; 'I' for Inactive)
REMARK    1  A    between atoms: C1_2  and  C2_3 
ROOT
ATOM      1  C2  UNL d   1       0.477   1.504   0.790  0.00  0.00    -0.077 A 
ATOM      2  C3  UNL d   1      -0.070   1.044  -0.416  0.00  0.00     0.002 A 
ATOM      3  C4  UNL d   1      -1.014   0.016  -0.416  0.00  0.00     0.002 A 
ATOM      4  C5  UNL d   1      -1.423  -0.558   0.786  0.00  0.00    -0.004 A 
ATOM      5  C6  UNL d   1      -0.883  -0.109   1.990  0.00  0.00     0.002 A 
ATOM      6  C7  UNL d   1       0.062   0.918   1.993  0.00  0.00     0.002 A 
ENDROOT
BRANCH   1   7
ATOM      7  C1  UNL d   1       1.459   2.646   0.797  0.00  0.00     0.055 C 
ATOM      8  C   UNL d   1       2.495   2.480   1.899  0.00  0.00     0.019 C 
ENDBRANCH   1   7
TORSDOF 1
ENDMDL
