MODEL 1
REMARK minimizedAffinity -3.90937233
REMARK minimizedRMSD -1
REMARK  1 active torsions:
REMARK  status: ('A' for Active; 'I' for Inactive)
REMARK    1  A    between atoms: C1_2  and  C2_3 
ROOT
ATOM      1  C2  UNL d   1       0.127   1.355   0.909  0.00  0.00    -0.077 A 
ATOM      2  C3  UNL d   1      -1.127   0.934   1.372  0.00  0.00     0.002 A 
ATOM      3  C4  UNL d   1      -1.699  -0.245   0.890  0.00  0.00     0.002 A 
ATOM      4  C5  UNL d   1      -1.021  -1.014  -0.054  0.00  0.00    -0.004 A 
ATOM      5  C6  UNL d   1       0.226  -0.603  -0.522  0.00  0.00     0.002 A 
ATOM      6  C7  UNL d   1       0.798   0.576  -0.043  0.00  0.00     0.002 A 
ENDROOT
BRANCH   1   7
ATOM      7  C1  UNL d   1       0.767   2.601   1.464  0.00  0.00     0.055 C 
ATOM      8  C   UNL d   1       2.275   2.439   1.592  0.00  0.00     0.019 C 
ENDBRANCH   1   7
TORSDOF 1
ENDMDL
