MODEL 1
REMARK minimizedAffinity -4.67452192
REMARK minimizedRMSD -1
REMARK  1 active torsions:
REMARK  status: ('A' for Active; 'I' for Inactive)
REMARK    1  A    between atoms: C1_2  and  C2_3 
ROOT
ATOM      1  C2  UNL d   1       0.309   1.307   0.906  0.00  0.00    -0.077 A 
ATOM      2  C3  UNL d   1      -0.815   0.643   1.419  0.00  0.00     0.002 A 
ATOM      3  C4  UNL d   1      -1.176  -0.614   0.931  0.00  0.00     0.002 A 
ATOM      4  C5  UNL d   1      -0.418  -1.220  -0.068  0.00  0.00    -0.004 A 
ATOM      5  C6  UNL d   1       0.700  -0.567  -0.586  0.00  0.00     0.002 A 
ATOM      6  C7  UNL d   1       1.062   0.690  -0.101  0.00  0.00     0.002 A 
ENDROOT
BRANCH   1   7
ATOM      7  C1  UNL d   1       0.729   2.641   1.464  0.00  0.00     0.055 C 
ATOM      8  C   UNL d   1       2.244   2.787   1.470  0.00  0.00     0.019 C 
ENDBRANCH   1   7
TORSDOF 1
ENDMDL
