MODEL 1
REMARK minimizedAffinity -4.91422796
REMARK minimizedRMSD -1
REMARK  1 active torsions:
REMARK  status: ('A' for Active; 'I' for Inactive)
REMARK    1  A    between atoms: C1_2  and  C2_3 
ROOT
ATOM      1  C2  UNL d   1       0.317   0.035   0.103  0.00  0.00    -0.077 A 
ATOM      2  C3  UNL d   1       1.394   0.786  -0.386  0.00  0.00     0.002 A 
ATOM      3  C4  UNL d   1       1.797   1.952   0.268  0.00  0.00     0.002 A 
ATOM      4  C5  UNL d   1       1.130   2.374   1.417  0.00  0.00    -0.004 A 
ATOM      5  C6  UNL d   1       0.056   1.634   1.910  0.00  0.00     0.002 A 
ATOM      6  C7  UNL d   1      -0.348   0.469   1.257  0.00  0.00     0.002 A 
ENDROOT
BRANCH   1   7
ATOM      7  C1  UNL d   1      -0.087  -1.249  -0.573  0.00  0.00     0.055 C 
ATOM      8  C   UNL d   1      -1.230  -1.024  -1.552  0.00  0.00     0.019 C 
ENDBRANCH   1   7
TORSDOF 1
ENDMDL
