MODEL 1
REMARK minimizedAffinity -4.93355322
REMARK minimizedRMSD -1
REMARK  1 active torsions:
REMARK  status: ('A' for Active; 'I' for Inactive)
REMARK    1  A    between atoms: C1_2  and  C2_3 
ROOT
ATOM      1  C2  UNL d   1       0.640   1.364   0.855  0.00  0.00    -0.077 A 
ATOM      2  C3  UNL d   1      -0.547   1.191   1.582  0.00  0.00     0.002 A 
ATOM      3  C4  UNL d   1      -1.418   0.145   1.274  0.00  0.00     0.002 A 
ATOM      4  C5  UNL d   1      -1.110  -0.740   0.242  0.00  0.00    -0.004 A 
ATOM      5  C6  UNL d   1       0.066  -0.576  -0.488  0.00  0.00     0.002 A 
ATOM      6  C7  UNL d   1       0.938   0.471  -0.183  0.00  0.00     0.002 A 
ENDROOT
BRANCH   1   7
ATOM      7  C1  UNL d   1       1.604   2.463   1.217  0.00  0.00     0.055 C 
ATOM      8  C   UNL d   1       3.047   2.013   1.040  0.00  0.00     0.019 C 
ENDBRANCH   1   7
TORSDOF 1
ENDMDL
