MODEL 1
REMARK minimizedAffinity -3.99583459
REMARK minimizedRMSD -1
REMARK  1 active torsions:
REMARK  status: ('A' for Active; 'I' for Inactive)
REMARK    1  A    between atoms: C1_2  and  C2_3 
ROOT
ATOM      1  C2  UNL d   1       1.878   1.542   0.323  0.00  0.00    -0.077 A 
ATOM      2  C3  UNL d   1       1.539   2.163   1.533  0.00  0.00     0.002 A 
ATOM      3  C4  UNL d   1       0.312   1.899   2.144  0.00  0.00     0.002 A 
ATOM      4  C5  UNL d   1      -0.585   1.011   1.554  0.00  0.00    -0.004 A 
ATOM      5  C6  UNL d   1      -0.259   0.390   0.349  0.00  0.00     0.002 A 
ATOM      6  C7  UNL d   1       0.967   0.653  -0.263  0.00  0.00     0.002 A 
ENDROOT
BRANCH   1   7
ATOM      7  C1  UNL d   1       3.221   1.787  -0.312  0.00  0.00     0.055 C 
ATOM      8  C   UNL d   1       3.923   0.479  -0.646  0.00  0.00     0.019 C 
ENDBRANCH   1   7
TORSDOF 1
ENDMDL
