MODEL 1
REMARK minimizedAffinity -1.53996623
REMARK minimizedRMSD -1
REMARK  1 active torsions:
REMARK  status: ('A' for Active; 'I' for Inactive)
REMARK    1  A    between atoms: C1_2  and  C2_3 
ROOT
ATOM      1  C2  UNL d   1      -1.030  -1.307  -1.540  0.00  0.00    -0.077 A 
ATOM      2  C3  UNL d   1      -1.149  -0.872  -2.868  0.00  0.00     0.002 A 
ATOM      3  C4  UNL d   1      -2.156  -1.380  -3.690  0.00  0.00     0.002 A 
ATOM      4  C5  UNL d   1      -3.055  -2.321  -3.193  0.00  0.00    -0.004 A 
ATOM      5  C6  UNL d   1      -2.945  -2.761  -1.875  0.00  0.00     0.002 A 
ATOM      6  C7  UNL d   1      -1.937  -2.256  -1.051  0.00  0.00     0.002 A 
ENDROOT
BRANCH   1   7
ATOM      7  C1  UNL d   1       0.025  -0.724  -0.637  0.00  0.00     0.055 C 
ATOM      8  C   UNL d   1      -0.562   0.324   0.297  0.00  0.00     0.019 C 
ENDBRANCH   1   7
TORSDOF 1
ENDMDL
