MODEL 1
REMARK minimizedAffinity 2.26109862
REMARK minimizedRMSD -1
REMARK  1 active torsions:
REMARK  status: ('A' for Active; 'I' for Inactive)
REMARK    1  A    between atoms: C1_2  and  C2_3 
ROOT
ATOM      1  C2  UNL d   1      -0.735   0.007   1.995  0.00  0.00    -0.076 A 
ATOM      2  C3  UNL d   1      -0.408  -0.702   3.164  0.00  0.00     0.004 A 
ATOM      3  C4  UNL d   1      -1.384  -1.388   3.884  0.00  0.00    -0.003 A 
ATOM      4  C5  UNL d   1      -2.704  -1.377   3.446  0.00  0.00     0.000 A 
ATOM      5  C6  UNL d   1      -3.044  -0.693   2.280  0.00  0.00     0.000 A 
ATOM      6  C7  UNL d   1      -2.069  -0.010   1.533  0.00  0.00    -0.073 A 
ATOM      7  C8  UNL d   1      -2.492   0.716   0.285  0.00  0.00     0.078 C 
ENDROOT
BRANCH   1   8
ATOM      8  C1  UNL d   1       0.361   0.756   1.271  0.00  0.00     0.053 C 
ATOM      9  C   UNL d   1       1.160  -0.141   0.339  0.00  0.00     0.018 C 
ENDBRANCH   1   8
TORSDOF 1
ENDMDL
