MODEL 1
REMARK minimizedAffinity 2.36835194
REMARK minimizedRMSD -1
REMARK  1 active torsions:
REMARK  status: ('A' for Active; 'I' for Inactive)
REMARK    1  A    between atoms: C1_2  and  C2_3 
ROOT
ATOM      1  C2  UNL d   1       0.519   0.843  -1.806  0.00  0.00    -0.076 A 
ATOM      2  C3  UNL d   1       1.837   1.251  -1.538  0.00  0.00     0.004 A 
ATOM      3  C4  UNL d   1       2.378   1.132  -0.259  0.00  0.00    -0.003 A 
ATOM      4  C5  UNL d   1       1.611   0.602   0.772  0.00  0.00     0.000 A 
ATOM      5  C6  UNL d   1       0.307   0.175   0.520  0.00  0.00     0.000 A 
ATOM      6  C7  UNL d   1      -0.248   0.274  -0.767  0.00  0.00    -0.073 A 
ATOM      7  C8  UNL d   1      -1.661  -0.196  -0.981  0.00  0.00     0.078 C 
ENDROOT
BRANCH   1   8
ATOM      8  C1  UNL d   1      -0.024   1.022  -3.206  0.00  0.00     0.053 C 
ATOM      9  C   UNL d   1       1.072   1.026  -4.260  0.00  0.00     0.018 C 
ENDBRANCH   1   8
TORSDOF 1
ENDMDL
