MODEL 1
REMARK minimizedAffinity 8.63507843
REMARK minimizedRMSD -1
REMARK  1 active torsions:
REMARK  status: ('A' for Active; 'I' for Inactive)
REMARK    1  A    between atoms: C1_2  and  C2_3 
ROOT
ATOM      1  C2  UNL d   1      -1.231   0.215   1.166  0.00  0.00    -0.076 A 
ATOM      2  C3  UNL d   1       0.160   0.340   1.320  0.00  0.00     0.004 A 
ATOM      3  C4  UNL d   1       1.029   0.015   0.280  0.00  0.00    -0.003 A 
ATOM      4  C5  UNL d   1       0.521  -0.440  -0.932  0.00  0.00     0.000 A 
ATOM      5  C6  UNL d   1      -0.858  -0.553  -1.108  0.00  0.00     0.000 A 
ATOM      6  C7  UNL d   1      -1.748  -0.214  -0.075  0.00  0.00    -0.073 A 
ATOM      7  C8  UNL d   1      -3.226  -0.362  -0.318  0.00  0.00     0.078 C 
ENDROOT
BRANCH   1   8
ATOM      8  C1  UNL d   1      -2.123   0.557   2.338  0.00  0.00     0.053 C 
ATOM      9  C   UNL d   1      -2.557  -0.675   3.118  0.00  0.00     0.018 C 
ENDBRANCH   1   8
TORSDOF 1
ENDMDL
