MODEL 1
REMARK minimizedAffinity 11.3668423
REMARK minimizedRMSD -1
REMARK  1 active torsions:
REMARK  status: ('A' for Active; 'I' for Inactive)
REMARK    1  A    between atoms: C1_2  and  C2_3 
ROOT
ATOM      1  C2  UNL d   1      -0.240   0.349   0.532  0.00  0.00    -0.076 A 
ATOM      2  C3  UNL d   1      -0.389  -0.302  -0.706  0.00  0.00     0.004 A 
ATOM      3  C4  UNL d   1      -1.651  -0.505  -1.261  0.00  0.00    -0.003 A 
ATOM      4  C5  UNL d   1      -2.784  -0.061  -0.589  0.00  0.00     0.000 A 
ATOM      5  C6  UNL d   1      -2.653   0.602   0.631  0.00  0.00     0.000 A 
ATOM      6  C7  UNL d   1      -1.387   0.830   1.197  0.00  0.00    -0.073 A 
ATOM      7  C8  UNL d   1      -1.305   1.544   2.518  0.00  0.00     0.078 C 
ENDROOT
BRANCH   1   8
ATOM      8  C1  UNL d   1       1.152   0.516   1.098  0.00  0.00     0.053 C 
ATOM      9  C   UNL d   1       2.162   0.944   0.045  0.00  0.00     0.018 C 
ENDBRANCH   1   8
TORSDOF 1
ENDMDL
