MODEL 1
REMARK minimizedAffinity 7.58294773
REMARK minimizedRMSD -1
REMARK  1 active torsions:
REMARK  status: ('A' for Active; 'I' for Inactive)
REMARK    1  A    between atoms: C1_2  and  C2_3 
ROOT
ATOM      1  C2  UNL d   1      -1.380  -0.003   1.793  0.00  0.00    -0.076 A 
ATOM      2  C3  UNL d   1      -2.507  -0.323   2.569  0.00  0.00     0.004 A 
ATOM      3  C4  UNL d   1      -2.371  -0.956   3.804  0.00  0.00    -0.003 A 
ATOM      4  C5  UNL d   1      -1.106  -1.278   4.283  0.00  0.00     0.000 A 
ATOM      5  C6  UNL d   1       0.024  -0.951   3.534  0.00  0.00     0.000 A 
ATOM      6  C7  UNL d   1      -0.094  -0.299   2.294  0.00  0.00    -0.073 A 
ATOM      7  C8  UNL d   1       1.158   0.024   1.526  0.00  0.00     0.078 C 
ENDROOT
BRANCH   1   8
ATOM      8  C1  UNL d   1      -1.590   0.658   0.449  0.00  0.00     0.053 C 
ATOM      9  C   UNL d   1      -2.359  -0.225  -0.521  0.00  0.00     0.018 C 
ENDBRANCH   1   8
TORSDOF 1
ENDMDL
