MODEL 1
REMARK minimizedAffinity -3.8064208
REMARK minimizedRMSD -1
REMARK  1 active torsions:
REMARK  status: ('A' for Active; 'I' for Inactive)
REMARK    1  A    between atoms: C1_2  and  C2_3 
ROOT
ATOM      1  C2  UNL d   1       0.423  -0.203  -1.055  0.00  0.00    -0.073 A 
ATOM      2  C3  UNL d   1      -0.971  -0.306  -1.134  0.00  0.00    -0.002 A 
ATOM      3  C4  UNL d   1      -1.774   0.188  -0.106  0.00  0.00     0.004 A 
ATOM      4  C5  UNL d   1      -1.194   0.796   1.008  0.00  0.00    -0.004 A 
ATOM      5  C6  UNL d   1       0.196   0.919   1.100  0.00  0.00    -0.075 A 
ATOM      6  C7  UNL d   1       0.836   1.567   2.292  0.00  0.00     0.076 C 
ATOM      7  C8  UNL d   1       0.996   0.417   0.065  0.00  0.00     0.001 A 
ENDROOT
BRANCH   1   8
ATOM      8  C1  UNL d   1       1.294  -0.730  -2.166  0.00  0.00     0.053 C 
ATOM      9  C   UNL d   1       0.774  -0.327  -3.537  0.00  0.00     0.018 C 
ENDBRANCH   1   8
TORSDOF 1
ENDMDL
