MODEL 1
REMARK minimizedAffinity -4.80737925
REMARK minimizedRMSD -1
REMARK  1 active torsions:
REMARK  status: ('A' for Active; 'I' for Inactive)
REMARK    1  A    between atoms: C1_2  and  C2_3 
ROOT
ATOM      1  C2  UNL d   1       0.101  -0.011  -0.442  0.00  0.00    -0.073 A 
ATOM      2  C3  UNL d   1      -1.073  -0.755  -0.604  0.00  0.00    -0.002 A 
ATOM      3  C4  UNL d   1      -2.040  -0.773   0.402  0.00  0.00     0.004 A 
ATOM      4  C5  UNL d   1      -1.848  -0.043   1.574  0.00  0.00    -0.004 A 
ATOM      5  C6  UNL d   1      -0.687   0.717   1.749  0.00  0.00    -0.075 A 
ATOM      6  C7  UNL d   1      -0.464   1.507   3.006  0.00  0.00     0.076 C 
ATOM      7  C8  UNL d   1       0.281   0.728   0.736  0.00  0.00     0.001 A 
ENDROOT
BRANCH   1   8
ATOM      8  C1  UNL d   1       1.146   0.017  -1.527  0.00  0.00     0.053 C 
ATOM      9  C   UNL d   1       0.540  -0.183  -2.907  0.00  0.00     0.018 C 
ENDBRANCH   1   8
TORSDOF 1
ENDMDL
