MODEL 1
REMARK minimizedAffinity -2.54593754
REMARK minimizedRMSD -1
REMARK  1 active torsions:
REMARK  status: ('A' for Active; 'I' for Inactive)
REMARK    1  A    between atoms: C1_2  and  C2_3 
ROOT
ATOM      1  C2  UNL d   1      -0.244   0.625   0.233  0.00  0.00    -0.073 A 
ATOM      2  C3  UNL d   1      -0.390  -0.752   0.438  0.00  0.00    -0.002 A 
ATOM      3  C4  UNL d   1       0.039  -1.657  -0.534  0.00  0.00     0.004 A 
ATOM      4  C5  UNL d   1       0.622  -1.197  -1.714  0.00  0.00    -0.004 A 
ATOM      5  C6  UNL d   1       0.786   0.174  -1.932  0.00  0.00    -0.075 A 
ATOM      6  C7  UNL d   1       1.410   0.686  -3.197  0.00  0.00     0.076 C 
ATOM      7  C8  UNL d   1       0.351   1.078  -0.953  0.00  0.00     0.001 A 
ENDROOT
BRANCH   1   8
ATOM      8  C1  UNL d   1      -0.699   1.607   1.282  0.00  0.00     0.053 C 
ATOM      9  C   UNL d   1      -1.511   0.935   2.378  0.00  0.00     0.018 C 
ENDBRANCH   1   8
TORSDOF 1
ENDMDL
