MODEL 1
REMARK minimizedAffinity -5.79670858
REMARK minimizedRMSD -1
REMARK  1 active torsions:
REMARK  status: ('A' for Active; 'I' for Inactive)
REMARK    1  A    between atoms: C1_2  and  C2_3 
ROOT
ATOM      1  C2  UNL d   1      -0.443   0.442   0.353  0.00  0.00    -0.073 A 
ATOM      2  C3  UNL d   1       0.138  -0.765   0.756  0.00  0.00    -0.002 A 
ATOM      3  C4  UNL d   1       0.993  -1.457  -0.103  0.00  0.00     0.004 A 
ATOM      4  C5  UNL d   1       1.281  -0.946  -1.369  0.00  0.00    -0.004 A 
ATOM      5  C6  UNL d   1       0.720   0.266  -1.784  0.00  0.00    -0.075 A 
ATOM      6  C7  UNL d   1       1.018   0.828  -3.143  0.00  0.00     0.076 C 
ATOM      7  C8  UNL d   1      -0.140   0.953  -0.917  0.00  0.00     0.001 A 
ENDROOT
BRANCH   1   8
ATOM      8  C1  UNL d   1      -1.362   1.196   1.280  0.00  0.00     0.053 C 
ATOM      9  C   UNL d   1      -0.614   1.798   2.459  0.00  0.00     0.018 C 
ENDBRANCH   1   8
TORSDOF 1
ENDMDL
