MODEL 1
REMARK minimizedAffinity -2.70700336
REMARK minimizedRMSD -1
REMARK  1 active torsions:
REMARK  status: ('A' for Active; 'I' for Inactive)
REMARK    1  A    between atoms: C1_2  and  C2_3 
ROOT
ATOM      1  C2  UNL d   1       0.110   0.031   2.309  0.00  0.00    -0.073 A 
ATOM      2  C3  UNL d   1      -1.156   0.621   2.403  0.00  0.00    -0.002 A 
ATOM      3  C4  UNL d   1      -1.890   0.902   1.250  0.00  0.00     0.004 A 
ATOM      4  C5  UNL d   1      -1.371   0.590  -0.006  0.00  0.00    -0.004 A 
ATOM      5  C6  UNL d   1      -0.113  -0.011  -0.120  0.00  0.00    -0.075 A 
ATOM      6  C7  UNL d   1       0.461  -0.350  -1.465  0.00  0.00     0.076 C 
ATOM      7  C8  UNL d   1       0.620  -0.287   1.042  0.00  0.00     0.001 A 
ENDROOT
BRANCH   1   8
ATOM      8  C1  UNL d   1       0.904  -0.281   3.551  0.00  0.00     0.053 C 
ATOM      9  C   UNL d   1       2.343  -0.650   3.230  0.00  0.00     0.018 C 
ENDBRANCH   1   8
TORSDOF 1
ENDMDL
