MODEL 1
REMARK minimizedAffinity -5.76347971
REMARK minimizedRMSD -1
REMARK  1 active torsions:
REMARK  status: ('A' for Active; 'I' for Inactive)
REMARK    1  A    between atoms: C1_2  and  C2_3 
ROOT
ATOM      1  C2  UNL d   1      -0.380   0.309   0.844  0.00  0.00    -0.073 A 
ATOM      2  C3  UNL d   1      -1.318   1.290   1.185  0.00  0.00    -0.002 A 
ATOM      3  C4  UNL d   1      -1.618   1.543   2.524  0.00  0.00     0.004 A 
ATOM      4  C5  UNL d   1      -0.980   0.824   3.535  0.00  0.00    -0.004 A 
ATOM      5  C6  UNL d   1      -0.031  -0.152   3.214  0.00  0.00    -0.075 A 
ATOM      6  C7  UNL d   1       0.664  -0.936   4.289  0.00  0.00     0.076 C 
ATOM      7  C8  UNL d   1       0.263  -0.402   1.867  0.00  0.00     0.001 A 
ENDROOT
BRANCH   1   8
ATOM      8  C1  UNL d   1      -0.048   0.037  -0.601  0.00  0.00     0.053 C 
ATOM      9  C   UNL d   1       0.584  -1.333  -0.792  0.00  0.00     0.018 C 
ENDBRANCH   1   8
TORSDOF 1
ENDMDL
