MODEL 1
REMARK minimizedAffinity -0.880286396
REMARK minimizedRMSD -1
REMARK  1 active torsions:
REMARK  status: ('A' for Active; 'I' for Inactive)
REMARK    1  A    between atoms: C1_2  and  C2_3 
ROOT
ATOM      1  C2  UNL d   1      -0.517   0.492   0.817  0.00  0.00    -0.073 A 
ATOM      2  C3  UNL d   1      -1.563   0.870   1.667  0.00  0.00    -0.002 A 
ATOM      3  C4  UNL d   1      -1.395   0.829   3.052  0.00  0.00     0.004 A 
ATOM      4  C5  UNL d   1      -0.179   0.419   3.600  0.00  0.00    -0.004 A 
ATOM      5  C6  UNL d   1       0.881   0.049   2.766  0.00  0.00    -0.075 A 
ATOM      6  C7  UNL d   1       2.194  -0.398   3.340  0.00  0.00     0.076 C 
ATOM      7  C8  UNL d   1       0.703   0.090   1.377  0.00  0.00     0.001 A 
ENDROOT
BRANCH   1   8
ATOM      8  C1  UNL d   1      -0.692   0.541  -0.679  0.00  0.00     0.053 C 
ATOM      9  C   UNL d   1       0.297  -0.363  -1.398  0.00  0.00     0.018 C 
ENDBRANCH   1   8
TORSDOF 1
ENDMDL
