MODEL 1
REMARK minimizedAffinity -2.90135288
REMARK minimizedRMSD -1
REMARK  0 active torsions:
REMARK  status: ('A' for Active; 'I' for Inactive)
ROOT
ATOM      1  C1  BNZ d   1      -0.513   0.089   0.447  0.00  0.00     0.000 A 
ATOM      2  C2  BNZ d   1       0.367  -0.293   1.424  0.00  0.00     0.000 A 
ATOM      3  C3  BNZ d   1       1.630  -0.707   1.106  0.00  0.00     0.000 A 
ATOM      4  C4  BNZ d   1       1.998  -0.778  -0.190  0.00  0.00     0.000 A 
ATOM      5  C5  BNZ d   1       1.119  -0.406  -1.187  0.00  0.00     0.000 A 
ATOM      6  C6  BNZ d   1      -0.138   0.048  -0.861  0.00  0.00     0.000 A 
ENDROOT
TORSDOF 0
ENDMDL
