MODEL 1
REMARK minimizedAffinity -4.13542604
REMARK minimizedRMSD -1
REMARK  0 active torsions:
REMARK  status: ('A' for Active; 'I' for Inactive)
ROOT
ATOM      1  C1  BNZ d   1      -1.513  -0.581   1.238  0.00  0.00     0.000 A 
ATOM      2  C2  BNZ d   1      -0.693  -0.748   2.322  0.00  0.00     0.000 A 
ATOM      3  C3  BNZ d   1       0.666  -0.704   2.184  0.00  0.00     0.000 A 
ATOM      4  C4  BNZ d   1       1.203  -0.533   0.959  0.00  0.00     0.000 A 
ATOM      5  C5  BNZ d   1       0.390  -0.373  -0.145  0.00  0.00     0.000 A 
ATOM      6  C6  BNZ d   1      -0.978  -0.379   0.003  0.00  0.00     0.000 A 
ENDROOT
TORSDOF 0
ENDMDL
