MODEL 1
REMARK minimizedAffinity -2.60100675
REMARK minimizedRMSD -1
REMARK  0 active torsions:
REMARK  status: ('A' for Active; 'I' for Inactive)
ROOT
ATOM      1  C1  BNZ d   1      -0.540   0.353  -0.041  0.00  0.00     0.000 A 
ATOM      2  C2  BNZ d   1       0.777   0.382   0.333  0.00  0.00     0.000 A 
ATOM      3  C3  BNZ d   1       1.222  -0.369   1.386  0.00  0.00     0.000 A 
ATOM      4  C4  BNZ d   1       0.343  -1.114   2.087  0.00  0.00     0.000 A 
ATOM      5  C5  BNZ d   1      -0.990  -1.146   1.728  0.00  0.00     0.000 A 
ATOM      6  C6  BNZ d   1      -1.426  -0.419   0.644  0.00  0.00     0.000 A 
ENDROOT
TORSDOF 0
ENDMDL
