MODEL 1
REMARK minimizedAffinity -3.40246725
REMARK minimizedRMSD -1
REMARK  0 active torsions:
REMARK  status: ('A' for Active; 'I' for Inactive)
ROOT
ATOM      1  C1  BNZ d   1       1.206  -0.190   1.648  0.00  0.00     0.000 A 
ATOM      2  C2  BNZ d   1       0.410   0.337   0.667  0.00  0.00     0.000 A 
ATOM      3  C3  BNZ d   1      -0.922   0.035   0.609  0.00  0.00     0.000 A 
ATOM      4  C4  BNZ d   1      -1.447  -0.824   1.507  0.00  0.00     0.000 A 
ATOM      5  C5  BNZ d   1      -0.655  -1.371   2.496  0.00  0.00     0.000 A 
ATOM      6  C6  BNZ d   1       0.677  -1.035   2.575  0.00  0.00     0.000 A 
ENDROOT
TORSDOF 0
ENDMDL
