MODEL 1
REMARK minimizedAffinity -2.70949006
REMARK minimizedRMSD -1
REMARK  0 active torsions:
REMARK  status: ('A' for Active; 'I' for Inactive)
ROOT
ATOM      1  C1  BNZ d   1       2.249   4.476   5.587  0.00  0.00     0.000 A 
ATOM      2  C2  BNZ d   1       3.000   4.480   4.442  0.00  0.00     0.000 A 
ATOM      3  C3  BNZ d   1       2.647   5.258   3.375  0.00  0.00     0.000 A 
ATOM      4  C4  BNZ d   1       1.522   6.000   3.439  0.00  0.00     0.000 A 
ATOM      5  C5  BNZ d   1       0.749   6.000   4.583  0.00  0.00     0.000 A 
ATOM      6  C6  BNZ d   1       1.129   5.245   5.669  0.00  0.00     0.000 A 
ENDROOT
TORSDOF 0
ENDMDL
