MODEL 1
REMARK minimizedAffinity -4.79130459
REMARK minimizedRMSD -1
REMARK  0 active torsions:
REMARK  status: ('A' for Active; 'I' for Inactive)
ROOT
ATOM      1  C1  BNZ d   1       1.889  -2.277   2.237  0.00  0.00     0.000 A 
ATOM      2  C2  BNZ d   1       0.870  -1.406   2.520  0.00  0.00     0.000 A 
ATOM      3  C3  BNZ d   1       0.325  -0.624   1.540  0.00  0.00     0.000 A 
ATOM      4  C4  BNZ d   1       0.826  -0.684   0.289  0.00  0.00     0.000 A 
ATOM      5  C5  BNZ d   1       1.859  -1.549  -0.010  0.00  0.00     0.000 A 
ATOM      6  C6  BNZ d   1       2.379  -2.363   0.970  0.00  0.00     0.000 A 
ENDROOT
TORSDOF 0
ENDMDL
