MODEL 1
REMARK minimizedAffinity -2.93068409
REMARK minimizedRMSD -1
REMARK  0 active torsions:
REMARK  status: ('A' for Active; 'I' for Inactive)
ROOT
ATOM      1  C1  BNZ d   1      -0.979   0.000  -0.961  0.00  0.00     0.000 A 
ATOM      2  C2  BNZ d   1       0.373   0.068  -1.164  0.00  0.00     0.000 A 
ATOM      3  C3  BNZ d   1       1.248  -0.202  -0.150  0.00  0.00     0.000 A 
ATOM      4  C4  BNZ d   1       0.771  -0.500   1.076  0.00  0.00     0.000 A 
ATOM      5  C5  BNZ d   1      -0.590  -0.563   1.300  0.00  0.00     0.000 A 
ATOM      6  C6  BNZ d   1      -1.468  -0.328   0.266  0.00  0.00     0.000 A 
ENDROOT
TORSDOF 0
ENDMDL
