MODEL 1
REMARK minimizedAffinity -3.57149816
REMARK minimizedRMSD -1
REMARK  0 active torsions:
REMARK  status: ('A' for Active; 'I' for Inactive)
ROOT
ATOM      1  C1  BNZ d   1       1.204  -0.687   1.151  0.00  0.00     0.000 A 
ATOM      2  C2  BNZ d   1       0.550  -0.788   2.350  0.00  0.00     0.000 A 
ATOM      3  C3  BNZ d   1      -0.802  -0.599   2.427  0.00  0.00     0.000 A 
ATOM      4  C4  BNZ d   1      -1.490  -0.271   1.315  0.00  0.00     0.000 A 
ATOM      5  C5  BNZ d   1      -0.843  -0.157   0.101  0.00  0.00     0.000 A 
ATOM      6  C6  BNZ d   1       0.511  -0.386   0.019  0.00  0.00     0.000 A 
ENDROOT
TORSDOF 0
ENDMDL
