MODEL 1
REMARK minimizedAffinity -1.03065753
REMARK minimizedRMSD -1
REMARK  0 active torsions:
REMARK  status: ('A' for Active; 'I' for Inactive)
ROOT
ATOM      1  C1  BNZ d   1       2.950  -1.151   1.342  0.00  0.00     0.000 A 
ATOM      2  C2  BNZ d   1       2.126  -1.199   2.435  0.00  0.00     0.000 A 
ATOM      3  C3  BNZ d   1       0.780  -1.383   2.289  0.00  0.00     0.000 A 
ATOM      4  C4  BNZ d   1       0.254  -1.479   1.051  0.00  0.00     0.000 A 
ATOM      5  C5  BNZ d   1       1.070  -1.423  -0.061  0.00  0.00     0.000 A 
ATOM      6  C6  BNZ d   1       2.429  -1.277   0.091  0.00  0.00     0.000 A 
ENDROOT
TORSDOF 0
ENDMDL
