MODEL 1
REMARK minimizedAffinity -3.05246019
REMARK minimizedRMSD -1
REMARK  0 active torsions:
REMARK  status: ('A' for Active; 'I' for Inactive)
ROOT
ATOM      1  C   UNL d   1       2.989   0.339   0.781  0.00  0.00    -0.002 A 
ATOM      2  C1  UNL d   1       2.310   1.502   1.117  0.00  0.00     0.010 A 
ATOM      3  C2  UNL d   1       0.956   1.648   0.809  0.00  0.00     0.041 A 
ATOM      4  C3  UNL d   1       0.289   0.594   0.154  0.00  0.00    -0.075 A 
ATOM      5  S   UNL d   1      -1.368   0.549  -0.321  0.00  0.00     0.015 SA
ATOM      6  C4  UNL d   1      -1.214  -1.016  -0.980  0.00  0.00     0.022 A 
ATOM      7  C5  UNL d   1       0.064  -1.507  -0.849  0.00  0.00     0.026 A 
ATOM      8  C6  UNL d   1       0.950  -0.587  -0.193  0.00  0.00    -0.082 A 
ATOM      9  C7  UNL d   1       2.323  -0.704   0.132  0.00  0.00     0.045 A 
ENDROOT
TORSDOF 0
ENDMDL
