MODEL 1
REMARK minimizedAffinity -4.07149649
REMARK minimizedRMSD -1
REMARK  0 active torsions:
REMARK  status: ('A' for Active; 'I' for Inactive)
ROOT
ATOM      1  C   UNL d   1       3.033  -1.571   1.985  0.00  0.00    -0.002 A 
ATOM      2  C1  UNL d   1       3.592  -0.305   2.090  0.00  0.00     0.010 A 
ATOM      3  C2  UNL d   1       2.920   0.811   1.588  0.00  0.00     0.041 A 
ATOM      4  C3  UNL d   1       1.664   0.632   0.974  0.00  0.00    -0.075 A 
ATOM      5  S   UNL d   1       0.659   1.853   0.288  0.00  0.00     0.015 SA
ATOM      6  C4  UNL d   1      -0.536   0.723  -0.159  0.00  0.00     0.022 A 
ATOM      7  C5  UNL d   1      -0.192  -0.559   0.198  0.00  0.00     0.026 A 
ATOM      8  C6  UNL d   1       1.081  -0.633   0.858  0.00  0.00    -0.082 A 
ATOM      9  C7  UNL d   1       1.788  -1.745   1.376  0.00  0.00     0.045 A 
ENDROOT
TORSDOF 0
ENDMDL
