MODEL 1
REMARK minimizedAffinity 3.7918818
REMARK minimizedRMSD -1
REMARK  0 active torsions:
REMARK  status: ('A' for Active; 'I' for Inactive)
ROOT
ATOM      1  C   UNL d   1      -1.313  -0.733  -0.266  0.00  0.00    -0.002 A 
ATOM      2  C1  UNL d   1      -1.428   0.643  -0.411  0.00  0.00     0.010 A 
ATOM      3  C2  UNL d   1      -0.402   1.489   0.015  0.00  0.00     0.041 A 
ATOM      4  C3  UNL d   1       0.753   0.925   0.591  0.00  0.00    -0.075 A 
ATOM      5  S   UNL d   1       2.136   1.766   1.183  0.00  0.00     0.015 SA
ATOM      6  C4  UNL d   1       2.913   0.320   1.641  0.00  0.00     0.022 A 
ATOM      7  C5  UNL d   1       2.149  -0.788   1.356  0.00  0.00     0.026 A 
ATOM      8  C6  UNL d   1       0.892  -0.457   0.746  0.00  0.00    -0.082 A 
ATOM      9  C7  UNL d   1      -0.166  -1.289   0.306  0.00  0.00     0.045 A 
ENDROOT
TORSDOF 0
ENDMDL
