MODEL 1
REMARK minimizedAffinity -0.416492432
REMARK minimizedRMSD -1
REMARK  0 active torsions:
REMARK  status: ('A' for Active; 'I' for Inactive)
ROOT
ATOM      1  C   UNL d   1       3.472  -0.019   0.479  0.00  0.00    -0.002 A 
ATOM      2  C1  UNL d   1       3.036   1.245   0.851  0.00  0.00     0.010 A 
ATOM      3  C2  UNL d   1       1.673   1.515   0.986  0.00  0.00     0.041 A 
ATOM      4  C3  UNL d   1       0.746   0.483   0.741  0.00  0.00    -0.075 A 
ATOM      5  S   UNL d   1      -0.972   0.582   0.845  0.00  0.00     0.015 SA
ATOM      6  C4  UNL d   1      -1.168  -1.052   0.399  0.00  0.00     0.022 A 
ATOM      7  C5  UNL d   1       0.038  -1.672   0.172  0.00  0.00     0.026 A 
ATOM      8  C6  UNL d   1       1.161  -0.799   0.366  0.00  0.00    -0.082 A 
ATOM      9  C7  UNL d   1       2.550  -1.040   0.236  0.00  0.00     0.045 A 
ENDROOT
TORSDOF 0
ENDMDL
