MODEL 1
REMARK minimizedAffinity 7.63758707
REMARK minimizedRMSD -1
REMARK  2 active torsions:
REMARK  status: ('A' for Active; 'I' for Inactive)
REMARK    1  A    between atoms: C1_2  and  C2_3 
REMARK    2  A    between atoms: C2_3  and  C3_4 
ROOT
ATOM      1  C3  UNL d   1       3.502  -5.746   3.911  0.00  0.00    -0.075 A 
ATOM      2  C4  UNL d   1       4.691  -5.865   3.176  0.00  0.00     0.002 A 
ATOM      3  C5  UNL d   1       5.917  -5.996   3.829  0.00  0.00     0.002 A 
ATOM      4  C6  UNL d   1       5.972  -6.000   5.221  0.00  0.00    -0.004 A 
ATOM      5  C7  UNL d   1       4.799  -5.866   5.961  0.00  0.00     0.002 A 
ATOM      6  C8  UNL d   1       3.570  -5.739   5.310  0.00  0.00     0.002 A 
ENDROOT
BRANCH   1   7
ATOM      7  C2  UNL d   1       2.169  -5.634   3.210  0.00  0.00     0.056 C 
BRANCH   7   8
ATOM      8  C1  UNL d   1       2.275  -5.326   1.713  0.00  0.00     0.007 C 
ATOM      9  C   UNL d   1       1.041  -5.744   0.925  0.00  0.00     0.009 C 
ENDBRANCH   7   8
ENDBRANCH   1   7
TORSDOF 2
ENDMDL
