MODEL 1
REMARK minimizedAffinity 1.46642923
REMARK minimizedRMSD -1
REMARK  2 active torsions:
REMARK  status: ('A' for Active; 'I' for Inactive)
REMARK    1  A    between atoms: C1_2  and  C2_3 
REMARK    2  A    between atoms: C2_3  and  C3_4 
ROOT
ATOM      1  C3  UNL d   1       2.316  -0.021  -2.311  0.00  0.00    -0.075 A 
ATOM      2  C4  UNL d   1       2.878   0.342  -3.544  0.00  0.00     0.002 A 
ATOM      3  C5  UNL d   1       2.421   1.470  -4.226  0.00  0.00     0.002 A 
ATOM      4  C6  UNL d   1       1.392   2.242  -3.691  0.00  0.00    -0.004 A 
ATOM      5  C7  UNL d   1       0.816   1.881  -2.475  0.00  0.00     0.002 A 
ATOM      6  C8  UNL d   1       1.274   0.756  -1.788  0.00  0.00     0.002 A 
ENDROOT
BRANCH   1   7
ATOM      7  C2  UNL d   1       2.826  -1.224  -1.554  0.00  0.00     0.056 C 
BRANCH   7   8
ATOM      8  C1  UNL d   1       1.857  -2.411  -1.542  0.00  0.00     0.007 C 
ATOM      9  C   UNL d   1       2.091  -3.365  -0.379  0.00  0.00     0.009 C 
ENDBRANCH   7   8
ENDBRANCH   1   7
TORSDOF 2
ENDMDL
