MODEL 1
REMARK minimizedAffinity -1.39735091
REMARK minimizedRMSD -1
REMARK  2 active torsions:
REMARK  status: ('A' for Active; 'I' for Inactive)
REMARK    1  A    between atoms: C1_2  and  C2_3 
REMARK    2  A    between atoms: C2_3  and  C3_4 
ROOT
ATOM      1  C3  UNL d   1       3.304   2.010  -3.860  0.00  0.00    -0.075 A 
ATOM      2  C4  UNL d   1       3.999   3.223  -3.967  0.00  0.00     0.002 A 
ATOM      3  C5  UNL d   1       5.303   3.252  -4.461  0.00  0.00     0.002 A 
ATOM      4  C6  UNL d   1       5.932   2.069  -4.845  0.00  0.00    -0.004 A 
ATOM      5  C7  UNL d   1       5.257   0.856  -4.728  0.00  0.00     0.002 A 
ATOM      6  C8  UNL d   1       3.951   0.825  -4.237  0.00  0.00     0.002 A 
ENDROOT
BRANCH   1   7
ATOM      7  C2  UNL d   1       1.882   1.975  -3.352  0.00  0.00     0.056 C 
BRANCH   7   8
ATOM      8  C1  UNL d   1       1.264   0.573  -3.323  0.00  0.00     0.007 C 
ATOM      9  C   UNL d   1       0.547   0.261  -2.017  0.00  0.00     0.009 C 
ENDBRANCH   7   8
ENDBRANCH   1   7
TORSDOF 2
ENDMDL
