MODEL 1
REMARK minimizedAffinity 7.67483091
REMARK minimizedRMSD -1
REMARK  2 active torsions:
REMARK  status: ('A' for Active; 'I' for Inactive)
REMARK    1  A    between atoms: C1_2  and  C2_3 
REMARK    2  A    between atoms: C2_3  and  C3_4 
ROOT
ATOM      1  C3  UNL d   1      -0.181  -0.249  -0.912  0.00  0.00    -0.075 A 
ATOM      2  C4  UNL d   1       0.803   0.599  -1.442  0.00  0.00     0.002 A 
ATOM      3  C5  UNL d   1       2.082   0.114  -1.718  0.00  0.00     0.002 A 
ATOM      4  C6  UNL d   1       2.396  -1.218  -1.459  0.00  0.00    -0.004 A 
ATOM      5  C7  UNL d   1       1.432  -2.065  -0.916  0.00  0.00     0.002 A 
ATOM      6  C8  UNL d   1       0.150  -1.584  -0.643  0.00  0.00     0.002 A 
ENDROOT
BRANCH   1   7
ATOM      7  C2  UNL d   1      -1.575   0.262  -0.638  0.00  0.00     0.056 C 
BRANCH   7   8
ATOM      8  C1  UNL d   1      -2.674  -0.787  -0.836  0.00  0.00     0.007 C 
ATOM      9  C   UNL d   1      -4.060  -0.285  -0.454  0.00  0.00     0.009 C 
ENDBRANCH   7   8
ENDBRANCH   1   7
TORSDOF 2
ENDMDL
