MODEL 1
REMARK minimizedAffinity -0.585449994
REMARK minimizedRMSD -1
REMARK  2 active torsions:
REMARK  status: ('A' for Active; 'I' for Inactive)
REMARK    1  A    between atoms: C1_2  and  C2_3 
REMARK    2  A    between atoms: C2_3  and  C3_4 
ROOT
ATOM      1  C3  UNL d   1       0.785  -0.834  -0.929  0.00  0.00    -0.075 A 
ATOM      2  C4  UNL d   1       1.706  -0.609  -1.963  0.00  0.00     0.002 A 
ATOM      3  C5  UNL d   1       2.852  -1.397  -2.074  0.00  0.00     0.002 A 
ATOM      4  C6  UNL d   1       3.097  -2.411  -1.151  0.00  0.00    -0.004 A 
ATOM      5  C7  UNL d   1       2.197  -2.633  -0.110  0.00  0.00     0.002 A 
ATOM      6  C8  UNL d   1       1.047  -1.848   0.001  0.00  0.00     0.002 A 
ENDROOT
BRANCH   1   7
ATOM      7  C2  UNL d   1      -0.471  -0.004  -0.820  0.00  0.00     0.056 C 
BRANCH   7   8
ATOM      8  C1  UNL d   1      -0.214   1.494  -0.623  0.00  0.00     0.007 C 
ATOM      9  C   UNL d   1      -0.376   2.304  -1.902  0.00  0.00     0.009 C 
ENDBRANCH   7   8
ENDBRANCH   1   7
TORSDOF 2
ENDMDL
