MODEL 1
REMARK minimizedAffinity 7.88924694
REMARK minimizedRMSD -1
REMARK  2 active torsions:
REMARK  status: ('A' for Active; 'I' for Inactive)
REMARK    1  A    between atoms: C1_2  and  C2_3 
REMARK    2  A    between atoms: C2_3  and  C3_4 
ROOT
ATOM      1  C3  UNL d   1      -0.207  -0.180  -1.018  0.00  0.00    -0.075 A 
ATOM      2  C4  UNL d   1       0.160  -1.530  -0.923  0.00  0.00     0.002 A 
ATOM      3  C5  UNL d   1       1.479  -1.923  -1.150  0.00  0.00     0.002 A 
ATOM      4  C6  UNL d   1       2.443  -0.976  -1.486  0.00  0.00    -0.004 A 
ATOM      5  C7  UNL d   1       2.086   0.366  -1.600  0.00  0.00     0.002 A 
ATOM      6  C8  UNL d   1       0.768   0.763  -1.368  0.00  0.00     0.002 A 
ENDROOT
BRANCH   1   7
ATOM      7  C2  UNL d   1      -1.627   0.256  -0.744  0.00  0.00     0.056 C 
BRANCH   7   8
ATOM      8  C1  UNL d   1      -2.679  -0.812  -1.059  0.00  0.00     0.007 C 
ATOM      9  C   UNL d   1      -4.104  -0.350  -0.785  0.00  0.00     0.009 C 
ENDBRANCH   7   8
ENDBRANCH   1   7
TORSDOF 2
ENDMDL
