MODEL 1
REMARK minimizedAffinity 7.03460455
REMARK minimizedRMSD -1
REMARK  2 active torsions:
REMARK  status: ('A' for Active; 'I' for Inactive)
REMARK    1  A    between atoms: C1_2  and  C2_3 
REMARK    2  A    between atoms: C2_3  and  C3_4 
ROOT
ATOM      1  C3  UNL d   1      -0.142  -1.205  -1.085  0.00  0.00    -0.075 A 
ATOM      2  C4  UNL d   1       1.110  -1.083  -0.465  0.00  0.00     0.002 A 
ATOM      3  C5  UNL d   1       2.263  -1.545  -1.101  0.00  0.00     0.002 A 
ATOM      4  C6  UNL d   1       2.177  -2.143  -2.357  0.00  0.00    -0.004 A 
ATOM      5  C7  UNL d   1       0.936  -2.285  -2.974  0.00  0.00     0.002 A 
ATOM      6  C8  UNL d   1      -0.218  -1.819  -2.342  0.00  0.00     0.002 A 
ENDROOT
BRANCH   1   7
ATOM      7  C2  UNL d   1      -1.390  -0.681  -0.415  0.00  0.00     0.056 C 
BRANCH   7   8
ATOM      8  C1  UNL d   1      -2.689  -1.046  -1.142  0.00  0.00     0.007 C 
ATOM      9  C   UNL d   1      -3.937  -0.547  -0.426  0.00  0.00     0.009 C 
ENDBRANCH   7   8
ENDBRANCH   1   7
TORSDOF 2
ENDMDL
