MODEL 1
REMARK minimizedAffinity 9.74769211
REMARK minimizedRMSD -1
REMARK  2 active torsions:
REMARK  status: ('A' for Active; 'I' for Inactive)
REMARK    1  A    between atoms: C1_2  and  C2_3 
REMARK    2  A    between atoms: C2_3  and  C3_4 
ROOT
ATOM      1  C3  UNL d   1       1.616   1.070  -0.707  0.00  0.00    -0.075 A 
ATOM      2  C4  UNL d   1       1.894   1.493   0.601  0.00  0.00     0.002 A 
ATOM      3  C5  UNL d   1       0.899   2.084   1.381  0.00  0.00     0.002 A 
ATOM      4  C6  UNL d   1      -0.380   2.269   0.861  0.00  0.00    -0.004 A 
ATOM      5  C7  UNL d   1      -0.662   1.868  -0.443  0.00  0.00     0.002 A 
ATOM      6  C8  UNL d   1       0.330   1.273  -1.224  0.00  0.00     0.002 A 
ENDROOT
BRANCH   1   7
ATOM      7  C2  UNL d   1       2.680   0.403  -1.545  0.00  0.00     0.056 C 
BRANCH   7   8
ATOM      8  C1  UNL d   1       2.893  -1.079  -1.219  0.00  0.00     0.007 C 
ATOM      9  C   UNL d   1       3.889  -1.308  -0.090  0.00  0.00     0.009 C 
ENDBRANCH   7   8
ENDBRANCH   1   7
TORSDOF 2
ENDMDL
