MODEL 1
REMARK minimizedAffinity 11.3043756
REMARK minimizedRMSD -1
REMARK  2 active torsions:
REMARK  status: ('A' for Active; 'I' for Inactive)
REMARK    1  A    between atoms: C1_2  and  C2_3 
REMARK    2  A    between atoms: C2_3  and  C3_4 
ROOT
ATOM      1  C3  UNL d   1       2.995  -3.225  -0.321  0.00  0.00    -0.075 A 
ATOM      2  C4  UNL d   1       2.610  -4.561  -0.136  0.00  0.00     0.002 A 
ATOM      3  C5  UNL d   1       2.508  -5.097   1.148  0.00  0.00     0.002 A 
ATOM      4  C6  UNL d   1       2.800  -4.311   2.260  0.00  0.00    -0.004 A 
ATOM      5  C7  UNL d   1       3.199  -2.987   2.087  0.00  0.00     0.002 A 
ATOM      6  C8  UNL d   1       3.298  -2.446   0.804  0.00  0.00     0.002 A 
ENDROOT
BRANCH   1   7
ATOM      7  C2  UNL d   1       3.078  -2.629  -1.706  0.00  0.00     0.056 C 
BRANCH   7   8
ATOM      8  C1  UNL d   1       2.583  -1.182  -1.794  0.00  0.00     0.007 C 
ATOM      9  C   UNL d   1       1.140  -1.069  -2.267  0.00  0.00     0.009 C 
ENDBRANCH   7   8
ENDBRANCH   1   7
TORSDOF 2
ENDMDL
