MODEL 1
REMARK minimizedAffinity 9.92066765
REMARK minimizedRMSD -1
REMARK  2 active torsions:
REMARK  status: ('A' for Active; 'I' for Inactive)
REMARK    1  A    between atoms: C1_2  and  C2_3 
REMARK    2  A    between atoms: C2_3  and  C3_4 
ROOT
ATOM      1  C3  UNL d   1       3.947   4.131  -0.385  0.00  0.00    -0.075 A 
ATOM      2  C4  UNL d   1       3.811   4.778  -1.622  0.00  0.00     0.002 A 
ATOM      3  C5  UNL d   1       4.766   5.701  -2.048  0.00  0.00     0.002 A 
ATOM      4  C6  UNL d   1       5.862   5.996  -1.241  0.00  0.00    -0.004 A 
ATOM      5  C7  UNL d   1       6.000   5.372  -0.003  0.00  0.00     0.002 A 
ATOM      6  C8  UNL d   1       5.047   4.445   0.424  0.00  0.00     0.002 A 
ENDROOT
BRANCH   1   7
ATOM      7  C2  UNL d   1       2.933   3.109   0.069  0.00  0.00     0.056 C 
BRANCH   7   8
ATOM      8  C1  UNL d   1       2.911   2.881   1.584  0.00  0.00     0.007 C 
ATOM      9  C   UNL d   1       1.605   2.277   2.082  0.00  0.00     0.009 C 
ENDBRANCH   7   8
ENDBRANCH   1   7
TORSDOF 2
ENDMDL
