MODEL 1
REMARK minimizedAffinity -1.30738819
REMARK minimizedRMSD -1
REMARK  2 active torsions:
REMARK  status: ('A' for Active; 'I' for Inactive)
REMARK    1  A    between atoms: C1_2  and  C2_3 
REMARK    2  A    between atoms: C2_3  and  C3_4 
ROOT
ATOM      1  C3  UNL d   1       1.013   0.016  -1.489  0.00  0.00    -0.075 A 
ATOM      2  C4  UNL d   1       0.117  -0.694  -0.677  0.00  0.00     0.002 A 
ATOM      3  C5  UNL d   1       0.397  -2.005  -0.291  0.00  0.00     0.002 A 
ATOM      4  C6  UNL d   1       1.568  -2.626  -0.720  0.00  0.00    -0.004 A 
ATOM      5  C7  UNL d   1       2.458  -1.936  -1.541  0.00  0.00     0.002 A 
ATOM      6  C8  UNL d   1       2.182  -0.622  -1.925  0.00  0.00     0.002 A 
ENDROOT
BRANCH   1   7
ATOM      7  C2  UNL d   1       0.731   1.445  -1.886  0.00  0.00     0.056 C 
BRANCH   7   8
ATOM      8  C1  UNL d   1      -0.652   1.949  -1.459  0.00  0.00     0.007 C 
ATOM      9  C   UNL d   1      -0.624   2.759  -0.170  0.00  0.00     0.009 C 
ENDBRANCH   7   8
ENDBRANCH   1   7
TORSDOF 2
ENDMDL
