MODEL 1
REMARK minimizedAffinity -4.25434589
REMARK minimizedRMSD -1
REMARK  2 active torsions:
REMARK  status: ('A' for Active; 'I' for Inactive)
REMARK    1  A    between atoms: C1_2  and  C2_3 
REMARK    2  A    between atoms: C2_3  and  C3_4 
ROOT
ATOM      1  C3  UNL d   1       2.162  -2.448  -0.679  0.00  0.00    -0.075 A 
ATOM      2  C4  UNL d   1       0.853  -1.951  -0.772  0.00  0.00     0.002 A 
ATOM      3  C5  UNL d   1       0.611  -0.694  -1.327  0.00  0.00     0.002 A 
ATOM      4  C6  UNL d   1       1.671   0.085  -1.786  0.00  0.00    -0.004 A 
ATOM      5  C7  UNL d   1       2.976  -0.392  -1.683  0.00  0.00     0.002 A 
ATOM      6  C8  UNL d   1       3.221  -1.651  -1.133  0.00  0.00     0.002 A 
ENDROOT
BRANCH   1   7
ATOM      7  C2  UNL d   1       2.428  -3.820  -0.107  0.00  0.00     0.056 C 
BRANCH   7   8
ATOM      8  C1  UNL d   1       1.762  -4.070   1.250  0.00  0.00     0.007 C 
ATOM      9  C   UNL d   1       1.518  -5.545   1.536  0.00  0.00     0.009 C 
ENDBRANCH   7   8
ENDBRANCH   1   7
TORSDOF 2
ENDMDL
