MODEL 1
REMARK minimizedAffinity 1.26179624
REMARK minimizedRMSD -1
REMARK  2 active torsions:
REMARK  status: ('A' for Active; 'I' for Inactive)
REMARK    1  A    between atoms: C1_2  and  C2_3 
REMARK    2  A    between atoms: C2_3  and  C3_4 
ROOT
ATOM      1  C3  UNL d   1       2.400  -1.144  -1.690  0.00  0.00    -0.075 A 
ATOM      2  C4  UNL d   1       1.637  -0.071  -2.171  0.00  0.00     0.002 A 
ATOM      3  C5  UNL d   1       2.235   1.163  -2.433  0.00  0.00     0.002 A 
ATOM      4  C6  UNL d   1       3.598   1.341  -2.207  0.00  0.00    -0.004 A 
ATOM      5  C7  UNL d   1       4.363   0.287  -1.714  0.00  0.00     0.002 A 
ATOM      6  C8  UNL d   1       3.768  -0.950  -1.456  0.00  0.00     0.002 A 
ENDROOT
BRANCH   1   7
ATOM      7  C2  UNL d   1       1.765  -2.490  -1.433  0.00  0.00     0.056 C 
BRANCH   7   8
ATOM      8  C1  UNL d   1       2.634  -3.441  -0.603  0.00  0.00     0.007 C 
ATOM      9  C   UNL d   1       1.833  -4.273   0.389  0.00  0.00     0.009 C 
ENDBRANCH   7   8
ENDBRANCH   1   7
TORSDOF 2
ENDMDL
