MODEL 1
REMARK minimizedAffinity -6.20174408
REMARK minimizedRMSD -1
REMARK  0 active torsions:
REMARK  status: ('A' for Active; 'I' for Inactive)
ROOT
ATOM      1  O1  BZF d   1       0.454   0.146  -0.794  0.00  0.00    -0.204 OA
ATOM      2  C2  BZF d   1       0.330  -0.977   0.002  0.00  0.00     0.174 A 
ATOM      3  C3  BZF d   1      -0.424  -0.713   1.088  0.00  0.00    -0.012 A 
ATOM      4  C3A BZF d   1      -0.872   0.635   0.917  0.00  0.00    -0.107 A 
ATOM      5  C4  BZF d   1      -1.668   1.461   1.658  0.00  0.00     0.055 A 
ATOM      6  C5  BZF d   1      -1.849   2.745   1.249  0.00  0.00    -0.016 A 
ATOM      7  C6  BZF d   1      -1.247   3.236   0.109  0.00  0.00     0.022 A 
ATOM      8  C7  BZF d   1      -0.453   2.453  -0.661  0.00  0.00     0.029 A 
ATOM      9  C7A BZF d   1      -0.294   1.146  -0.268  0.00  0.00     0.058 A 
ENDROOT
TORSDOF 0
ENDMDL
