MODEL 1
REMARK minimizedAffinity -2.22083569
REMARK minimizedRMSD -1
REMARK  0 active torsions:
REMARK  status: ('A' for Active; 'I' for Inactive)
ROOT
ATOM      1  O1  BZF d   1       0.829   0.536  -0.911  0.00  0.00    -0.204 OA
ATOM      2  C2  BZF d   1       1.197  -0.790  -1.030  0.00  0.00     0.174 A 
ATOM      3  C3  BZF d   1       0.717  -1.514   0.001  0.00  0.00    -0.012 A 
ATOM      4  C3A BZF d   1      -0.074  -0.600   0.767  0.00  0.00    -0.107 A 
ATOM      5  C4  BZF d   1      -0.821  -0.728   1.903  0.00  0.00     0.055 A 
ATOM      6  C5  BZF d   1      -1.410   0.375   2.434  0.00  0.00    -0.016 A 
ATOM      7  C6  BZF d   1      -1.269   1.621   1.859  0.00  0.00     0.022 A 
ATOM      8  C7  BZF d   1      -0.542   1.797   0.729  0.00  0.00     0.029 A 
ATOM      9  C7A BZF d   1       0.028   0.678   0.172  0.00  0.00     0.058 A 
ENDROOT
TORSDOF 0
ENDMDL
