MODEL 1
REMARK minimizedAffinity -4.62732506
REMARK minimizedRMSD -1
REMARK  0 active torsions:
REMARK  status: ('A' for Active; 'I' for Inactive)
ROOT
ATOM      1  O1  BZF d   1       0.493   0.609  -0.936  0.00  0.00    -0.204 OA
ATOM      2  C2  BZF d   1       0.270  -0.577  -0.263  0.00  0.00     0.174 A 
ATOM      3  C3  BZF d   1      -0.496  -0.370   0.828  0.00  0.00    -0.012 A 
ATOM      4  C3A BZF d   1      -0.846   1.017   0.785  0.00  0.00    -0.107 A 
ATOM      5  C4  BZF d   1      -1.605   1.819   1.589  0.00  0.00     0.055 A 
ATOM      6  C5  BZF d   1      -1.686   3.146   1.309  0.00  0.00    -0.016 A 
ATOM      7  C6  BZF d   1      -1.018   3.705   0.240  0.00  0.00     0.022 A 
ATOM      8  C7  BZF d   1      -0.257   2.949  -0.588  0.00  0.00     0.029 A 
ATOM      9  C7A BZF d   1      -0.199   1.602  -0.328  0.00  0.00     0.058 A 
ENDROOT
TORSDOF 0
ENDMDL
