MODEL 1
REMARK minimizedAffinity -5.17186165
REMARK minimizedRMSD -1
REMARK  0 active torsions:
REMARK  status: ('A' for Active; 'I' for Inactive)
ROOT
ATOM      1  O1  BZF d   1      -0.371   2.266  -0.696  0.00  0.00    -0.204 OA
ATOM      2  C2  BZF d   1      -1.089   3.248  -0.041  0.00  0.00     0.174 A 
ATOM      3  C3  BZF d   1      -1.498   2.815   1.169  0.00  0.00    -0.012 A 
ATOM      4  C3A BZF d   1      -0.925   1.512   1.316  0.00  0.00    -0.107 A 
ATOM      5  C4  BZF d   1      -0.957   0.580   2.313  0.00  0.00     0.055 A 
ATOM      6  C5  BZF d   1      -0.355  -0.622   2.113  0.00  0.00    -0.016 A 
ATOM      7  C6  BZF d   1       0.283  -0.926   0.929  0.00  0.00     0.022 A 
ATOM      8  C7  BZF d   1       0.346  -0.031  -0.087  0.00  0.00     0.029 A 
ATOM      9  C7A BZF d   1      -0.234   1.196   0.124  0.00  0.00     0.058 A 
ENDROOT
TORSDOF 0
ENDMDL
