MODEL 1
REMARK minimizedAffinity -5.18264771
REMARK minimizedRMSD -1
REMARK  0 active torsions:
REMARK  status: ('A' for Active; 'I' for Inactive)
ROOT
ATOM      1  O1  BZF d   1       0.794   1.104   0.325  0.00  0.00    -0.204 OA
ATOM      2  C2  BZF d   1       0.794  -0.269   0.485  0.00  0.00     0.174 A 
ATOM      3  C3  BZF d   1      -0.400  -0.697   0.940  0.00  0.00    -0.012 A 
ATOM      4  C3A BZF d   1      -1.227   0.470   0.985  0.00  0.00    -0.107 A 
ATOM      5  C4  BZF d   1      -2.528   0.686   1.339  0.00  0.00     0.055 A 
ATOM      6  C5  BZF d   1      -3.010   1.957   1.341  0.00  0.00    -0.016 A 
ATOM      7  C6  BZF d   1      -2.218   3.034   1.000  0.00  0.00     0.022 A 
ATOM      8  C7  BZF d   1      -0.923   2.869   0.637  0.00  0.00     0.029 A 
ATOM      9  C7A BZF d   1      -0.442   1.582   0.602  0.00  0.00     0.058 A 
ENDROOT
TORSDOF 0
ENDMDL
