MODEL 1
REMARK minimizedAffinity -4.71490526
REMARK minimizedRMSD -1
REMARK  0 active torsions:
REMARK  status: ('A' for Active; 'I' for Inactive)
ROOT
ATOM      1  O1  BZF d   1       0.648   2.193  -0.820  0.00  0.00    -0.204 OA
ATOM      2  C2  BZF d   1       0.135   3.439  -0.517  0.00  0.00     0.174 A 
ATOM      3  C3  BZF d   1      -0.711   3.368   0.531  0.00  0.00    -0.012 A 
ATOM      4  C3A BZF d   1      -0.657   2.005   0.965  0.00  0.00    -0.107 A 
ATOM      5  C4  BZF d   1      -1.265   1.318   1.976  0.00  0.00     0.055 A 
ATOM      6  C5  BZF d   1      -1.054  -0.021   2.084  0.00  0.00    -0.016 A 
ATOM      7  C6  BZF d   1      -0.247  -0.703   1.198  0.00  0.00     0.022 A 
ATOM      8  C7  BZF d   1       0.382  -0.062   0.182  0.00  0.00     0.029 A 
ATOM      9  C7A BZF d   1       0.197   1.295   0.090  0.00  0.00     0.058 A 
ENDROOT
TORSDOF 0
ENDMDL
