MODEL 1
REMARK minimizedAffinity -6.26999807
REMARK minimizedRMSD -1
REMARK  0 active torsions:
REMARK  status: ('A' for Active; 'I' for Inactive)
ROOT
ATOM      1  O1  BZF d   1       0.554   0.848  -1.060  0.00  0.00    -0.204 OA
ATOM      2  C2  BZF d   1       0.638  -0.380  -0.433  0.00  0.00     0.174 A 
ATOM      3  C3  BZF d   1      -0.023  -0.363   0.742  0.00  0.00    -0.012 A 
ATOM      4  C3A BZF d   1      -0.630   0.930   0.814  0.00  0.00    -0.107 A 
ATOM      5  C4  BZF d   1      -1.430   1.542   1.737  0.00  0.00     0.055 A 
ATOM      6  C5  BZF d   1      -1.793   2.837   1.541  0.00  0.00    -0.016 A 
ATOM      7  C6  BZF d   1      -1.370   3.551   0.439  0.00  0.00     0.022 A 
ATOM      8  C7  BZF d   1      -0.580   2.985  -0.506  0.00  0.00     0.029 A 
ATOM      9  C7A BZF d   1      -0.239   1.667  -0.328  0.00  0.00     0.058 A 
ENDROOT
TORSDOF 0
ENDMDL
