MODEL 1
REMARK minimizedAffinity -4.45323229
REMARK minimizedRMSD -1
REMARK  0 active torsions:
REMARK  status: ('A' for Active; 'I' for Inactive)
ROOT
ATOM      1  O1  BZF d   1      -0.032   2.639  -0.953  0.00  0.00    -0.204 OA
ATOM      2  C2  BZF d   1      -0.529   3.830  -0.460  0.00  0.00     0.174 A 
ATOM      3  C3  BZF d   1      -1.240   3.621   0.667  0.00  0.00    -0.012 A 
ATOM      4  C3A BZF d   1      -1.105   2.224   0.944  0.00  0.00    -0.107 A 
ATOM      5  C4  BZF d   1      -1.572   1.415   1.941  0.00  0.00     0.055 A 
ATOM      6  C5  BZF d   1      -1.323   0.081   1.879  0.00  0.00    -0.016 A 
ATOM      7  C6  BZF d   1      -0.616  -0.479   0.835  0.00  0.00     0.022 A 
ATOM      8  C7  BZF d   1      -0.129   0.284  -0.174  0.00  0.00     0.029 A 
ATOM      9  C7A BZF d   1      -0.351   1.637  -0.098  0.00  0.00     0.058 A 
ENDROOT
TORSDOF 0
ENDMDL
