MODEL 1
REMARK minimizedAffinity -5.52656794
REMARK minimizedRMSD -1
REMARK  0 active torsions:
REMARK  status: ('A' for Active; 'I' for Inactive)
ROOT
ATOM      1  O1  BZF d   1      -0.317   0.367  -0.920  0.00  0.00    -0.204 OA
ATOM      2  C2  BZF d   1      -0.068  -0.679  -0.052  0.00  0.00     0.174 A 
ATOM      3  C3  BZF d   1      -0.413  -0.346   1.209  0.00  0.00    -0.012 A 
ATOM      4  C3A BZF d   1      -0.993   0.958   1.108  0.00  0.00    -0.107 A 
ATOM      5  C4  BZF d   1      -1.541   1.815   2.020  0.00  0.00     0.055 A 
ATOM      6  C5  BZF d   1      -1.951   3.043   1.609  0.00  0.00    -0.016 A 
ATOM      7  C6  BZF d   1      -1.825   3.449   0.296  0.00  0.00     0.022 A 
ATOM      8  C7  BZF d   1      -1.293   2.632  -0.645  0.00  0.00     0.029 A 
ATOM      9  C7A BZF d   1      -0.908   1.378  -0.239  0.00  0.00     0.058 A 
ENDROOT
TORSDOF 0
ENDMDL
