MODEL 1
REMARK minimizedAffinity -5.77215242
REMARK minimizedRMSD -1
REMARK  0 active torsions:
REMARK  status: ('A' for Active; 'I' for Inactive)
ROOT
ATOM      1  O1  BZF d   1       0.313   0.504  -0.882  0.00  0.00    -0.204 OA
ATOM      2  C2  BZF d   1       0.400  -0.590  -0.043  0.00  0.00     0.174 A 
ATOM      3  C3  BZF d   1      -0.225  -0.347   1.127  0.00  0.00    -0.012 A 
ATOM      4  C3A BZF d   1      -0.814   0.948   0.977  0.00  0.00    -0.107 A 
ATOM      5  C4  BZF d   1      -1.579   1.733   1.793  0.00  0.00     0.055 A 
ATOM      6  C5  BZF d   1      -1.931   2.976   1.373  0.00  0.00    -0.016 A 
ATOM      7  C6  BZF d   1      -1.533   3.469   0.148  0.00  0.00     0.022 A 
ATOM      8  C7  BZF d   1      -0.778   2.726  -0.698  0.00  0.00     0.029 A 
ATOM      9  C7A BZF d   1      -0.448   1.456  -0.291  0.00  0.00     0.058 A 
ENDROOT
TORSDOF 0
ENDMDL
