MODEL 1
REMARK minimizedAffinity -5.01441193
REMARK minimizedRMSD -1
REMARK  0 active torsions:
REMARK  status: ('A' for Active; 'I' for Inactive)
ROOT
ATOM      1  O1  BZF d   1       0.957   1.201  -1.201  0.00  0.00    -0.204 OA
ATOM      2  C2  BZF d   1       1.110  -0.132  -0.873  0.00  0.00     0.174 A 
ATOM      3  C3  BZF d   1       0.292  -0.472   0.144  0.00  0.00    -0.012 A 
ATOM      4  C3A BZF d   1      -0.483   0.700   0.412  0.00  0.00    -0.107 A 
ATOM      5  C4  BZF d   1      -1.478   0.985   1.302  0.00  0.00     0.055 A 
ATOM      6  C5  BZF d   1      -1.975   2.249   1.356  0.00  0.00    -0.016 A 
ATOM      7  C6  BZF d   1      -1.497   3.252   0.540  0.00  0.00     0.022 A 
ATOM      8  C7  BZF d   1      -0.514   3.017  -0.363  0.00  0.00     0.029 A 
ATOM      9  C7A BZF d   1      -0.032   1.733  -0.443  0.00  0.00     0.058 A 
ENDROOT
TORSDOF 0
ENDMDL
