MODEL 1
REMARK minimizedAffinity -6.53297234
REMARK minimizedRMSD -1
REMARK  0 active torsions:
REMARK  status: ('A' for Active; 'I' for Inactive)
ROOT
ATOM      1  O1  BZF d   1       0.731   0.059  -0.542  0.00  0.00    -0.204 OA
ATOM      2  C2  BZF d   1       0.806  -0.951   0.397  0.00  0.00     0.174 A 
ATOM      3  C3  BZF d   1       0.027  -0.673   1.463  0.00  0.00    -0.012 A 
ATOM      4  C3A BZF d   1      -0.643   0.547   1.130  0.00  0.00    -0.107 A 
ATOM      5  C4  BZF d   1      -1.560   1.322   1.781  0.00  0.00     0.055 A 
ATOM      6  C5  BZF d   1      -1.959   2.490   1.214  0.00  0.00    -0.016 A 
ATOM      7  C6  BZF d   1      -1.458   2.917   0.001  0.00  0.00     0.022 A 
ATOM      8  C7  BZF d   1      -0.550   2.180  -0.684  0.00  0.00     0.029 A 
ATOM      9  C7A BZF d   1      -0.170   0.983  -0.129  0.00  0.00     0.058 A 
ENDROOT
TORSDOF 0
ENDMDL
