MODEL 1
REMARK minimizedAffinity -5.87426043
REMARK minimizedRMSD -1
REMARK  0 active torsions:
REMARK  status: ('A' for Active; 'I' for Inactive)
ROOT
ATOM      1  O1  BZF d   1       0.720   0.539  -0.673  0.00  0.00    -0.204 OA
ATOM      2  C2  BZF d   1       0.521  -0.656  -0.010  0.00  0.00     0.174 A 
ATOM      3  C3  BZF d   1      -0.463  -0.538   0.905  0.00  0.00    -0.012 A 
ATOM      4  C3A BZF d   1      -0.968   0.791   0.744  0.00  0.00    -0.107 A 
ATOM      5  C4  BZF d   1      -1.964   1.497   1.357  0.00  0.00     0.055 A 
ATOM      6  C5  BZF d   1      -2.155   2.799   1.017  0.00  0.00    -0.016 A 
ATOM      7  C6  BZF d   1      -1.368   3.427   0.074  0.00  0.00     0.022 A 
ATOM      8  C7  BZF d   1      -0.371   2.766  -0.564  0.00  0.00     0.029 A 
ATOM      9  C7A BZF d   1      -0.197   1.441  -0.247  0.00  0.00     0.058 A 
ENDROOT
TORSDOF 0
ENDMDL
