MODEL 1
REMARK minimizedAffinity -6.22835159
REMARK minimizedRMSD -1
REMARK  0 active torsions:
REMARK  status: ('A' for Active; 'I' for Inactive)
ROOT
ATOM      1  O1  BZF d   1       0.901   0.574  -0.911  0.00  0.00    -0.204 OA
ATOM      2  C2  BZF d   1       0.547  -0.663  -0.407  0.00  0.00     0.174 A 
ATOM      3  C3  BZF d   1      -0.296  -0.531   0.637  0.00  0.00    -0.012 A 
ATOM      4  C3A BZF d   1      -0.553   0.873   0.738  0.00  0.00    -0.107 A 
ATOM      5  C4  BZF d   1      -1.327   1.628   1.571  0.00  0.00     0.055 A 
ATOM      6  C5  BZF d   1      -1.302   2.981   1.451  0.00  0.00    -0.016 A 
ATOM      7  C6  BZF d   1      -0.510   3.612   0.514  0.00  0.00     0.022 A 
ATOM      8  C7  BZF d   1       0.271   2.905  -0.339  0.00  0.00     0.029 A 
ATOM      9  C7A BZF d   1       0.222   1.536  -0.242  0.00  0.00     0.058 A 
ENDROOT
TORSDOF 0
ENDMDL
