MODEL 1
REMARK minimizedAffinity -3.54939318
REMARK minimizedRMSD -1
REMARK  0 active torsions:
REMARK  status: ('A' for Active; 'I' for Inactive)
ROOT
ATOM      1  O1  BZF d   1      -1.814   1.961  -0.138  0.00  0.00    -0.204 OA
ATOM      2  C2  BZF d   1      -2.339   2.129   1.129  0.00  0.00     0.174 A 
ATOM      3  C3  BZF d   1      -1.881   1.176   1.967  0.00  0.00    -0.012 A 
ATOM      4  C3A BZF d   1      -0.945   0.417   1.197  0.00  0.00    -0.107 A 
ATOM      5  C4  BZF d   1      -0.147  -0.655   1.480  0.00  0.00     0.055 A 
ATOM      6  C5  BZF d   1       0.597  -1.206   0.486  0.00  0.00    -0.016 A 
ATOM      7  C6  BZF d   1       0.565  -0.714  -0.803  0.00  0.00     0.022 A 
ATOM      8  C7  BZF d   1      -0.207   0.351  -1.131  0.00  0.00     0.029 A 
ATOM      9  C7A BZF d   1      -0.935   0.930  -0.120  0.00  0.00     0.058 A 
ENDROOT
TORSDOF 0
ENDMDL
