MODEL 1
REMARK minimizedAffinity -5.32137299
REMARK minimizedRMSD -1
REMARK  0 active torsions:
REMARK  status: ('A' for Active; 'I' for Inactive)
ROOT
ATOM      1  O1  BZF d   1       0.335   0.007  -0.740  0.00  0.00    -0.204 OA
ATOM      2  C2  BZF d   1       0.449  -1.046   0.148  0.00  0.00     0.174 A 
ATOM      3  C3  BZF d   1      -0.150  -0.750   1.319  0.00  0.00    -0.012 A 
ATOM      4  C3A BZF d   1      -0.750   0.533   1.122  0.00  0.00    -0.107 A 
ATOM      5  C4  BZF d   1      -1.500   1.352   1.918  0.00  0.00     0.055 A 
ATOM      6  C5  BZF d   1      -1.869   2.572   1.449  0.00  0.00    -0.016 A 
ATOM      7  C6  BZF d   1      -1.503   3.008   0.192  0.00  0.00     0.022 A 
ATOM      8  C7  BZF d   1      -0.765   2.230  -0.636  0.00  0.00     0.029 A 
ATOM      9  C7A BZF d   1      -0.417   0.982  -0.177  0.00  0.00     0.058 A 
ENDROOT
TORSDOF 0
ENDMDL
