MODEL 1
REMARK minimizedAffinity -4.65196753
REMARK minimizedRMSD -1
REMARK  0 active torsions:
REMARK  status: ('A' for Active; 'I' for Inactive)
ROOT
ATOM      1  O1  BZF d   1      -2.048   2.673   1.602  0.00  0.00    -0.204 OA
ATOM      2  C2  BZF d   1      -1.677   3.492   0.554  0.00  0.00     0.174 A 
ATOM      3  C3  BZF d   1      -0.885   2.830  -0.314  0.00  0.00    -0.012 A 
ATOM      4  C3A BZF d   1      -0.828   1.488   0.178  0.00  0.00    -0.107 A 
ATOM      5  C4  BZF d   1      -0.210   0.352  -0.262  0.00  0.00     0.055 A 
ATOM      6  C5  BZF d   1      -0.293  -0.778   0.488  0.00  0.00    -0.016 A 
ATOM      7  C6  BZF d   1      -0.981  -0.807   1.683  0.00  0.00     0.022 A 
ATOM      8  C7  BZF d   1      -1.615   0.293   2.158  0.00  0.00     0.029 A 
ATOM      9  C7A BZF d   1      -1.560   1.428   1.386  0.00  0.00     0.058 A 
ENDROOT
TORSDOF 0
ENDMDL
