MODEL 1
REMARK minimizedAffinity -4.88519526
REMARK minimizedRMSD -1
REMARK  0 active torsions:
REMARK  status: ('A' for Active; 'I' for Inactive)
ROOT
ATOM      1  O1  BZF d   1       0.078  -0.709  -0.876  0.00  0.00    -0.204 OA
ATOM      2  C2  BZF d   1       1.244  -0.021  -1.154  0.00  0.00     0.174 A 
ATOM      3  C3  BZF d   1       1.697   0.615  -0.055  0.00  0.00    -0.012 A 
ATOM      4  C3A BZF d   1       0.807   0.231   0.997  0.00  0.00    -0.107 A 
ATOM      5  C4  BZF d   1       0.745   0.524   2.329  0.00  0.00     0.055 A 
ATOM      6  C5  BZF d   1      -0.293   0.045   3.064  0.00  0.00    -0.016 A 
ATOM      7  C6  BZF d   1      -1.288  -0.725   2.499  0.00  0.00     0.022 A 
ATOM      8  C7  BZF d   1      -1.267  -1.047   1.182  0.00  0.00     0.029 A 
ATOM      9  C7A BZF d   1      -0.202  -0.592   0.444  0.00  0.00     0.058 A 
ENDROOT
TORSDOF 0
ENDMDL
