MODEL 1
REMARK minimizedAffinity -3.50387073
REMARK minimizedRMSD -1
REMARK  0 active torsions:
REMARK  status: ('A' for Active; 'I' for Inactive)
ROOT
ATOM      1  O1  BZF d   1       0.004  -1.104  -0.568  0.00  0.00    -0.204 OA
ATOM      2  C2  BZF d   1       0.571   0.046  -1.084  0.00  0.00     0.174 A 
ATOM      3  C3  BZF d   1       0.470   1.065  -0.206  0.00  0.00    -0.012 A 
ATOM      4  C3A BZF d   1      -0.120   0.494   0.967  0.00  0.00    -0.107 A 
ATOM      5  C4  BZF d   1      -0.458   1.001   2.189  0.00  0.00     0.055 A 
ATOM      6  C5  BZF d   1      -1.084   0.196   3.087  0.00  0.00    -0.016 A 
ATOM      7  C6  BZF d   1      -1.391  -1.117   2.795  0.00  0.00     0.022 A 
ATOM      8  C7  BZF d   1      -1.070  -1.666   1.598  0.00  0.00     0.029 A 
ATOM      9  C7A BZF d   1      -0.408  -0.864   0.700  0.00  0.00     0.058 A 
ENDROOT
TORSDOF 0
ENDMDL
