MODEL 1
REMARK minimizedAffinity -1.88599157
REMARK minimizedRMSD -1
REMARK  0 active torsions:
REMARK  status: ('A' for Active; 'I' for Inactive)
ROOT
ATOM      1  O1  BZF d   1       0.993  -0.184  -0.718  0.00  0.00    -0.204 OA
ATOM      2  C2  BZF d   1      -0.054  -0.730  -1.434  0.00  0.00     0.174 A 
ATOM      3  C3  BZF d   1      -1.024  -1.167  -0.604  0.00  0.00    -0.012 A 
ATOM      4  C3A BZF d   1      -0.594  -0.792   0.708  0.00  0.00    -0.107 A 
ATOM      5  C4  BZF d   1      -1.139  -0.936   1.952  0.00  0.00     0.055 A 
ATOM      6  C5  BZF d   1      -0.430  -0.525   3.035  0.00  0.00    -0.016 A 
ATOM      7  C6  BZF d   1       0.827   0.030   2.913  0.00  0.00     0.022 A 
ATOM      8  C7  BZF d   1       1.407   0.198   1.700  0.00  0.00     0.029 A 
ATOM      9  C7A BZF d   1       0.679  -0.186   0.600  0.00  0.00     0.058 A 
ENDROOT
TORSDOF 0
ENDMDL
