MODEL 1
REMARK minimizedAffinity -3.78134608
REMARK minimizedRMSD -1
REMARK  0 active torsions:
REMARK  status: ('A' for Active; 'I' for Inactive)
ROOT
ATOM      1  O1  BZF d   1       2.018  -2.382  -1.671  0.00  0.00    -0.204 OA
ATOM      2  C2  BZF d   1       1.677  -2.118  -2.984  0.00  0.00     0.174 A 
ATOM      3  C3  BZF d   1       0.687  -1.205  -3.047  0.00  0.00    -0.012 A 
ATOM      4  C3A BZF d   1       0.453  -0.810  -1.692  0.00  0.00    -0.107 A 
ATOM      5  C4  BZF d   1      -0.401   0.081  -1.108  0.00  0.00     0.055 A 
ATOM      6  C5  BZF d   1      -0.431   0.178   0.248  0.00  0.00    -0.016 A 
ATOM      7  C6  BZF d   1       0.376  -0.604   1.048  0.00  0.00     0.022 A 
ATOM      8  C7  BZF d   1       1.243  -1.499   0.515  0.00  0.00     0.029 A 
ATOM      9  C7A BZF d   1       1.298  -1.575  -0.855  0.00  0.00     0.058 A 
ENDROOT
TORSDOF 0
ENDMDL
