MODEL 1
REMARK minimizedAffinity -6.13625479
REMARK minimizedRMSD -1
REMARK  0 active torsions:
REMARK  status: ('A' for Active; 'I' for Inactive)
ROOT
ATOM      1  O1  BZF d   1      -0.803   0.703  -0.597  0.00  0.00    -0.204 OA
ATOM      2  C2  BZF d   1       0.545   0.975  -0.728  0.00  0.00     0.174 A 
ATOM      3  C3  BZF d   1       1.181   0.820   0.451  0.00  0.00    -0.012 A 
ATOM      4  C3A BZF d   1       0.184   0.337   1.356  0.00  0.00    -0.107 A 
ATOM      5  C4  BZF d   1       0.206  -0.020   2.674  0.00  0.00     0.055 A 
ATOM      6  C5  BZF d   1      -0.955  -0.380   3.280  0.00  0.00    -0.016 A 
ATOM      7  C6  BZF d   1      -2.156  -0.388   2.602  0.00  0.00     0.022 A 
ATOM      8  C7  BZF d   1      -2.228  -0.047   1.292  0.00  0.00     0.029 A 
ATOM      9  C7A BZF d   1      -1.050   0.286   0.668  0.00  0.00     0.058 A 
ENDROOT
TORSDOF 0
ENDMDL
