MODEL 1
REMARK minimizedAffinity -4.33742571
REMARK minimizedRMSD -1
REMARK  0 active torsions:
REMARK  status: ('A' for Active; 'I' for Inactive)
ROOT
ATOM      1  O1  BZF d   1      -0.811  -0.588  -1.142  0.00  0.00    -0.204 OA
ATOM      2  C2  BZF d   1       0.288  -0.478  -1.972  0.00  0.00     0.174 A 
ATOM      3  C3  BZF d   1       1.377  -0.096  -1.275  0.00  0.00    -0.012 A 
ATOM      4  C3A BZF d   1       0.953  -0.048   0.091  0.00  0.00    -0.107 A 
ATOM      5  C4  BZF d   1       1.589   0.252   1.262  0.00  0.00     0.055 A 
ATOM      6  C5  BZF d   1       0.871   0.277   2.415  0.00  0.00    -0.016 A 
ATOM      7  C6  BZF d   1      -0.483   0.013   2.434  0.00  0.00     0.022 A 
ATOM      8  C7  BZF d   1      -1.156  -0.294   1.298  0.00  0.00     0.029 A 
ATOM      9  C7A BZF d   1      -0.427  -0.352   0.136  0.00  0.00     0.058 A 
ENDROOT
TORSDOF 0
ENDMDL
