MODEL 1
REMARK minimizedAffinity -5.07777262
REMARK minimizedRMSD -1
REMARK  0 active torsions:
REMARK  status: ('A' for Active; 'I' for Inactive)
ROOT
ATOM      1  O1  BZF d   1      -1.858   1.256  -0.107  0.00  0.00    -0.204 OA
ATOM      2  C2  BZF d   1      -0.784   1.422  -0.960  0.00  0.00     0.174 A 
ATOM      3  C3  BZF d   1       0.317   0.820  -0.465  0.00  0.00    -0.012 A 
ATOM      4  C3A BZF d   1      -0.118   0.163   0.730  0.00  0.00    -0.107 A 
ATOM      5  C4  BZF d   1       0.515  -0.614   1.657  0.00  0.00     0.055 A 
ATOM      6  C5  BZF d   1      -0.179  -1.039   2.746  0.00  0.00    -0.016 A 
ATOM      7  C6  BZF d   1      -1.502  -0.702   2.942  0.00  0.00     0.022 A 
ATOM      8  C7  BZF d   1      -2.173   0.063   2.046  0.00  0.00     0.029 A 
ATOM      9  C7A BZF d   1      -1.485   0.467   0.929  0.00  0.00     0.058 A 
ENDROOT
TORSDOF 0
ENDMDL
