MODEL 1
REMARK minimizedAffinity -5.56268978
REMARK minimizedRMSD -1
REMARK  0 active torsions:
REMARK  status: ('A' for Active; 'I' for Inactive)
ROOT
ATOM      1  O1  BZF d   1      -0.790   0.469  -0.643  0.00  0.00    -0.204 OA
ATOM      2  C2  BZF d   1       0.516   0.908  -0.747  0.00  0.00     0.174 A 
ATOM      3  C3  BZF d   1       1.140   0.842   0.447  0.00  0.00    -0.012 A 
ATOM      4  C3A BZF d   1       0.191   0.243   1.335  0.00  0.00    -0.107 A 
ATOM      5  C4  BZF d   1       0.228  -0.101   2.656  0.00  0.00     0.055 A 
ATOM      6  C5  BZF d   1      -0.892  -0.601   3.240  0.00  0.00    -0.016 A 
ATOM      7  C6  BZF d   1      -2.067  -0.765   2.536  0.00  0.00     0.022 A 
ATOM      8  C7  BZF d   1      -2.151  -0.443   1.222  0.00  0.00     0.029 A 
ATOM      9  C7A BZF d   1      -1.011   0.032   0.620  0.00  0.00     0.058 A 
ENDROOT
TORSDOF 0
ENDMDL
