MODEL 1
REMARK minimizedAffinity -3.61736989
REMARK minimizedRMSD -1
REMARK  0 active torsions:
REMARK  status: ('A' for Active; 'I' for Inactive)
ROOT
ATOM      1  O1  BZF d   1       0.471   1.501   0.088  0.00  0.00    -0.204 OA
ATOM      2  C2  BZF d   1      -0.242   1.531  -1.095  0.00  0.00     0.174 A 
ATOM      3  C3  BZF d   1      -1.234   0.617  -1.079  0.00  0.00    -0.012 A 
ATOM      4  C3A BZF d   1      -1.192   0.040   0.230  0.00  0.00    -0.107 A 
ATOM      5  C4  BZF d   1      -1.938  -0.915   0.858  0.00  0.00     0.055 A 
ATOM      6  C5  BZF d   1      -1.593  -1.304   2.114  0.00  0.00    -0.016 A 
ATOM      7  C6  BZF d   1      -0.505  -0.762   2.767  0.00  0.00     0.022 A 
ATOM      8  C7  BZF d   1       0.262   0.192   2.187  0.00  0.00     0.029 A 
ATOM      9  C7A BZF d   1      -0.105   0.610   0.931  0.00  0.00     0.058 A 
ENDROOT
TORSDOF 0
ENDMDL
