MODEL 1
REMARK minimizedAffinity 4.29610586
REMARK minimizedRMSD -1
REMARK  0 active torsions:
REMARK  status: ('A' for Active; 'I' for Inactive)
ROOT
ATOM      1  O1  BZF d   1       0.601   1.313   3.694  0.00  0.00    -0.204 OA
ATOM      2  C2  BZF d   1      -0.604   0.673   3.912  0.00  0.00     0.174 A 
ATOM      3  C3  BZF d   1      -1.088   0.159   2.763  0.00  0.00    -0.012 A 
ATOM      4  C3A BZF d   1      -0.081   0.419   1.781  0.00  0.00    -0.107 A 
ATOM      5  C4  BZF d   1       0.027   0.137   0.449  0.00  0.00     0.055 A 
ATOM      6  C5  BZF d   1       1.107   0.594  -0.238  0.00  0.00    -0.016 A 
ATOM      7  C6  BZF d   1       2.093   1.341   0.373  0.00  0.00     0.022 A 
ATOM      8  C7  BZF d   1       2.032   1.642   1.693  0.00  0.00     0.029 A 
ATOM      9  C7A BZF d   1       0.959   1.153   2.397  0.00  0.00     0.058 A 
ENDROOT
TORSDOF 0
ENDMDL
