MODEL 1
REMARK minimizedAffinity 5.57694578
REMARK minimizedRMSD -1
REMARK  0 active torsions:
REMARK  status: ('A' for Active; 'I' for Inactive)
ROOT
ATOM      1  O1  BZF d   1      -1.272   1.587  -1.295  0.00  0.00    -0.204 OA
ATOM      2  C2  BZF d   1       0.096   1.754  -1.385  0.00  0.00     0.174 A 
ATOM      3  C3  BZF d   1       0.741   0.808  -0.673  0.00  0.00    -0.012 A 
ATOM      4  C3A BZF d   1      -0.286  -0.055  -0.177  0.00  0.00    -0.107 A 
ATOM      5  C4  BZF d   1      -0.273  -1.188   0.586  0.00  0.00     0.055 A 
ATOM      6  C5  BZF d   1      -1.454  -1.749   0.955  0.00  0.00    -0.016 A 
ATOM      7  C6  BZF d   1      -2.665  -1.202   0.585  0.00  0.00     0.022 A 
ATOM      8  C7  BZF d   1      -2.729  -0.082  -0.176  0.00  0.00     0.029 A 
ATOM      9  C7A BZF d   1      -1.537   0.469  -0.578  0.00  0.00     0.058 A 
ENDROOT
TORSDOF 0
ENDMDL
