MODEL 1
REMARK minimizedAffinity -2.67324853
REMARK minimizedRMSD -1
REMARK  0 active torsions:
REMARK  status: ('A' for Active; 'I' for Inactive)
ROOT
ATOM      1  O1  BZF d   1       0.047  -1.156  -1.223  0.00  0.00    -0.204 OA
ATOM      2  C2  BZF d   1       0.499  -0.052  -1.919  0.00  0.00     0.174 A 
ATOM      3  C3  BZF d   1       0.674   0.997  -1.090  0.00  0.00    -0.012 A 
ATOM      4  C3A BZF d   1       0.396   0.492   0.220  0.00  0.00    -0.107 A 
ATOM      5  C4  BZF d   1       0.414   1.052   1.465  0.00  0.00     0.055 A 
ATOM      6  C5  BZF d   1       0.019   0.305   2.530  0.00  0.00    -0.016 A 
ATOM      7  C6  BZF d   1      -0.404  -1.000   2.386  0.00  0.00     0.022 A 
ATOM      8  C7  BZF d   1      -0.434  -1.600   1.171  0.00  0.00     0.029 A 
ATOM      9  C7A BZF d   1      -0.004  -0.859   0.097  0.00  0.00     0.058 A 
ENDROOT
TORSDOF 0
ENDMDL
