MODEL 1
REMARK minimizedAffinity -4.11085796
REMARK minimizedRMSD -1
REMARK  0 active torsions:
REMARK  status: ('A' for Active; 'I' for Inactive)
ROOT
ATOM      1  O1  BZF d   1       0.064   0.486   3.058  0.00  0.00    -0.204 OA
ATOM      2  C2  BZF d   1      -1.068  -0.231   3.395  0.00  0.00     0.174 A 
ATOM      3  C3  BZF d   1      -1.723  -0.639   2.289  0.00  0.00    -0.012 A 
ATOM      4  C3A BZF d   1      -0.903  -0.226   1.192  0.00  0.00    -0.107 A 
ATOM      5  C4  BZF d   1      -1.013  -0.356  -0.163  0.00  0.00     0.055 A 
ATOM      6  C5  BZF d   1      -0.078   0.225  -0.960  0.00  0.00    -0.016 A 
ATOM      7  C6  BZF d   1       0.975   0.947  -0.437  0.00  0.00     0.022 A 
ATOM      8  C7  BZF d   1       1.128   1.100   0.901  0.00  0.00     0.029 A 
ATOM      9  C7A BZF d   1       0.203   0.486   1.710  0.00  0.00     0.058 A 
ENDROOT
TORSDOF 0
ENDMDL
