MODEL 1
REMARK minimizedAffinity 0.887441337
REMARK minimizedRMSD -1
REMARK  0 active torsions:
REMARK  status: ('A' for Active; 'I' for Inactive)
ROOT
ATOM      1  O1  BZF d   1       0.978   0.685   2.610  0.00  0.00    -0.204 OA
ATOM      2  C2  BZF d   1       0.133   0.897   3.682  0.00  0.00     0.174 A 
ATOM      3  C3  BZF d   1      -1.147   1.003   3.268  0.00  0.00    -0.012 A 
ATOM      4  C3A BZF d   1      -1.108   0.756   1.859  0.00  0.00    -0.107 A 
ATOM      5  C4  BZF d   1      -2.067   0.707   0.888  0.00  0.00     0.055 A 
ATOM      6  C5  BZF d   1      -1.690   0.514  -0.403  0.00  0.00    -0.016 A 
ATOM      7  C6  BZF d   1      -0.365   0.372  -0.759  0.00  0.00     0.022 A 
ATOM      8  C7  BZF d   1       0.621   0.409   0.169  0.00  0.00     0.029 A 
ATOM      9  C7A BZF d   1       0.241   0.570   1.479  0.00  0.00     0.058 A 
ENDROOT
TORSDOF 0
ENDMDL
