MODEL 1
REMARK minimizedAffinity -1.57391155
REMARK minimizedRMSD -1
REMARK  0 active torsions:
REMARK  status: ('A' for Active; 'I' for Inactive)
ROOT
ATOM      1  O1  BZF d   1      -0.031  -0.569  -0.602  0.00  0.00    -0.204 OA
ATOM      2  C2  BZF d   1       0.602   0.607  -0.958  0.00  0.00     0.174 A 
ATOM      3  C3  BZF d   1       0.806   1.386   0.124  0.00  0.00    -0.012 A 
ATOM      4  C3A BZF d   1       0.350   0.611   1.237  0.00  0.00    -0.107 A 
ATOM      5  C4  BZF d   1       0.307   0.837   2.583  0.00  0.00     0.055 A 
ATOM      6  C5  BZF d   1      -0.266  -0.093   3.391  0.00  0.00    -0.016 A 
ATOM      7  C6  BZF d   1      -0.809  -1.257   2.887  0.00  0.00     0.022 A 
ATOM      8  C7  BZF d   1      -0.785  -1.528   1.560  0.00  0.00     0.029 A 
ATOM      9  C7A BZF d   1      -0.177  -0.604   0.744  0.00  0.00     0.058 A 
ENDROOT
TORSDOF 0
ENDMDL
