MODEL 1
REMARK minimizedAffinity -2.72382998
REMARK minimizedRMSD -1
REMARK  0 active torsions:
REMARK  status: ('A' for Active; 'I' for Inactive)
ROOT
ATOM      1  O1  BZF d   1      -1.825  -0.047   0.286  0.00  0.00    -0.204 OA
ATOM      2  C2  BZF d   1      -1.415   0.264  -0.995  0.00  0.00     0.174 A 
ATOM      3  C3  BZF d   1      -0.092   0.525  -1.024  0.00  0.00    -0.012 A 
ATOM      4  C3A BZF d   1       0.370   0.276   0.307  0.00  0.00    -0.107 A 
ATOM      5  C4  BZF d   1       1.596   0.345   0.904  0.00  0.00     0.055 A 
ATOM      6  C5  BZF d   1       1.695   0.110   2.239  0.00  0.00    -0.016 A 
ATOM      7  C6  BZF d   1       0.589  -0.191   3.007  0.00  0.00     0.022 A 
ATOM      8  C7  BZF d   1      -0.647  -0.275   2.459  0.00  0.00     0.029 A 
ATOM      9  C7A BZF d   1      -0.746  -0.071   1.105  0.00  0.00     0.058 A 
ENDROOT
TORSDOF 0
ENDMDL
