MODEL 1
REMARK minimizedAffinity -3.59954929
REMARK minimizedRMSD -1
REMARK  0 active torsions:
REMARK  status: ('A' for Active; 'I' for Inactive)
ROOT
ATOM      1  O1  BZF d   1       0.696   1.213  -0.014  0.00  0.00    -0.204 OA
ATOM      2  C2  BZF d   1       0.150   0.495  -1.060  0.00  0.00     0.174 A 
ATOM      3  C3  BZF d   1      -0.463  -0.618  -0.608  0.00  0.00    -0.012 A 
ATOM      4  C3A BZF d   1      -0.369  -0.546   0.818  0.00  0.00    -0.107 A 
ATOM      5  C4  BZF d   1      -0.805  -1.354   1.830  0.00  0.00     0.055 A 
ATOM      6  C5  BZF d   1      -0.487  -1.037   3.112  0.00  0.00    -0.016 A 
ATOM      7  C6  BZF d   1       0.270   0.076   3.418  0.00  0.00     0.022 A 
ATOM      8  C7  BZF d   1       0.721   0.909   2.449  0.00  0.00     0.029 A 
ATOM      9  C7A BZF d   1       0.373   0.609   1.155  0.00  0.00     0.058 A 
ENDROOT
TORSDOF 0
ENDMDL
