MODEL 1
REMARK minimizedAffinity 1.38171875
REMARK minimizedRMSD -1
REMARK  0 active torsions:
REMARK  status: ('A' for Active; 'I' for Inactive)
ROOT
ATOM      1  C4' PXY d   1       2.335   3.115   3.412  0.00  0.00     0.077 C 
ATOM      2  C1' PXY d   1       0.095   5.255  -1.468  0.00  0.00     0.077 C 
ATOM      3  C1  PXY d   1       0.671   4.690  -0.184  0.00  0.00    -0.082 A 
ATOM      4  C2  PXY d   1       1.824   5.150   0.273  0.00  0.00     0.003 A 
ATOM      5  C3  PXY d   1       2.374   4.628   1.416  0.00  0.00     0.003 A 
ATOM      6  C4  PXY d   1       1.712   3.663   2.125  0.00  0.00    -0.082 A 
ATOM      7  C5  PXY d   1       0.529   3.196   1.671  0.00  0.00     0.003 A 
ATOM      8  C6  PXY d   1       0.008   3.710   0.487  0.00  0.00     0.003 A 
ENDROOT
TORSDOF 0
ENDMDL
