MODEL 1
REMARK minimizedAffinity 5.54375458
REMARK minimizedRMSD -1
REMARK  0 active torsions:
REMARK  status: ('A' for Active; 'I' for Inactive)
ROOT
ATOM      1  C4' PXY d   1       0.845   5.577  -2.429  0.00  0.00     0.077 C 
ATOM      2  C1' PXY d   1      -0.468   3.078   2.615  0.00  0.00     0.077 C 
ATOM      3  C1  PXY d   1      -0.131   3.743   1.296  0.00  0.00    -0.082 A 
ATOM      4  C2  PXY d   1       0.234   3.001   0.263  0.00  0.00     0.003 A 
ATOM      5  C3  PXY d   1       0.574   3.589  -0.928  0.00  0.00     0.003 A 
ATOM      6  C4  PXY d   1       0.486   4.947  -1.080  0.00  0.00    -0.082 A 
ATOM      7  C5  PXY d   1       0.104   5.710  -0.035  0.00  0.00     0.003 A 
ATOM      8  C6  PXY d   1      -0.196   5.097   1.178  0.00  0.00     0.003 A 
ENDROOT
TORSDOF 0
ENDMDL
