MODEL 1
REMARK minimizedAffinity 6.95269442
REMARK minimizedRMSD -1
REMARK  0 active torsions:
REMARK  status: ('A' for Active; 'I' for Inactive)
ROOT
ATOM      1  C4' PXY d   1      -0.669   6.000   1.472  0.00  0.00     0.077 C 
ATOM      2  C1' PXY d   1       0.152   0.691  -0.663  0.00  0.00     0.077 C 
ATOM      3  C1  PXY d   1      -0.069   2.078  -0.092  0.00  0.00    -0.082 A 
ATOM      4  C2  PXY d   1      -0.180   3.112  -0.910  0.00  0.00     0.003 A 
ATOM      5  C3  PXY d   1      -0.348   4.377  -0.410  0.00  0.00     0.003 A 
ATOM      6  C4  PXY d   1      -0.455   4.580   0.940  0.00  0.00    -0.082 A 
ATOM      7  C5  PXY d   1      -0.353   3.529   1.781  0.00  0.00     0.003 A 
ATOM      8  C6  PXY d   1      -0.142   2.258   1.255  0.00  0.00     0.003 A 
ENDROOT
TORSDOF 0
ENDMDL
