MODEL 1
REMARK minimizedAffinity 8.47854233
REMARK minimizedRMSD -1
REMARK  0 active torsions:
REMARK  status: ('A' for Active; 'I' for Inactive)
ROOT
ATOM      1  C4' PXY d   1       1.826   2.863   3.805  0.00  0.00     0.077 C 
ATOM      2  C1' PXY d   1       0.462   5.373  -1.220  0.00  0.00     0.077 C 
ATOM      3  C1  PXY d   1       0.832   4.718   0.096  0.00  0.00    -0.082 A 
ATOM      4  C2  PXY d   1       0.044   3.786   0.608  0.00  0.00     0.003 A 
ATOM      5  C3  PXY d   1       0.347   3.206   1.812  0.00  0.00     0.003 A 
ATOM      6  C4  PXY d   1       1.496   3.545   2.474  0.00  0.00    -0.082 A 
ATOM      7  C5  PXY d   1       2.311   4.486   1.954  0.00  0.00     0.003 A 
ATOM      8  C6  PXY d   1       1.965   5.093   0.750  0.00  0.00     0.003 A 
ENDROOT
TORSDOF 0
ENDMDL
