MODEL 1
REMARK minimizedAffinity 13.6323643
REMARK minimizedRMSD -1
REMARK  0 active torsions:
REMARK  status: ('A' for Active; 'I' for Inactive)
ROOT
ATOM      1  C4' PXY d   1       5.760  -3.337  -4.912  0.00  0.00     0.077 C 
ATOM      2  C1' PXY d   1       4.573  -2.991   0.734  0.00  0.00     0.077 C 
ATOM      3  C1  PXY d   1       4.881  -3.094  -0.746  0.00  0.00    -0.082 A 
ATOM      4  C2  PXY d   1       5.733  -2.245  -1.298  0.00  0.00     0.003 A 
ATOM      5  C3  PXY d   1       5.998  -2.304  -2.642  0.00  0.00     0.003 A 
ATOM      6  C4  PXY d   1       5.427  -3.276  -3.419  0.00  0.00    -0.082 A 
ATOM      7  C5  PXY d   1       4.565  -4.153  -2.862  0.00  0.00     0.003 A 
ATOM      8  C6  PXY d   1       4.277  -4.050  -1.504  0.00  0.00     0.003 A 
ENDROOT
TORSDOF 0
ENDMDL
