MODEL 1
REMARK minimizedAffinity 8.24666119
REMARK minimizedRMSD -1
REMARK  0 active torsions:
REMARK  status: ('A' for Active; 'I' for Inactive)
ROOT
ATOM      1  C4' PXY d   1       1.177   2.297   2.655  0.00  0.00     0.077 C 
ATOM      2  C1' PXY d   1      -0.276   5.529  -1.912  0.00  0.00     0.077 C 
ATOM      3  C1  PXY d   1       0.094   4.675  -0.716  0.00  0.00    -0.082 A 
ATOM      4  C2  PXY d   1       0.937   5.146   0.189  0.00  0.00     0.003 A 
ATOM      5  C3  PXY d   1       1.307   4.374   1.260  0.00  0.00     0.003 A 
ATOM      6  C4  PXY d   1       0.768   3.128   1.436  0.00  0.00    -0.082 A 
ATOM      7  C5  PXY d   1      -0.102   2.645   0.524  0.00  0.00     0.003 A 
ATOM      8  C6  PXY d   1      -0.433   3.428  -0.579  0.00  0.00     0.003 A 
ENDROOT
TORSDOF 0
ENDMDL
