MODEL 1
REMARK minimizedAffinity 8.71593761
REMARK minimizedRMSD -1
REMARK  0 active torsions:
REMARK  status: ('A' for Active; 'I' for Inactive)
ROOT
ATOM      1  C4' PXY d   1       5.261  -3.642  -4.224  0.00  0.00     0.077 C 
ATOM      2  C1' PXY d   1       5.124  -1.213   1.020  0.00  0.00     0.077 C 
ATOM      3  C1  PXY d   1       5.163  -1.838  -0.361  0.00  0.00    -0.082 A 
ATOM      4  C2  PXY d   1       4.419  -2.901  -0.619  0.00  0.00     0.003 A 
ATOM      5  C3  PXY d   1       4.467  -3.499  -1.852  0.00  0.00     0.003 A 
ATOM      6  C4  PXY d   1       5.245  -2.971  -2.848  0.00  0.00    -0.082 A 
ATOM      7  C5  PXY d   1       6.000  -1.881  -2.595  0.00  0.00     0.003 A 
ATOM      8  C6  PXY d   1       5.968  -1.314  -1.325  0.00  0.00     0.003 A 
ENDROOT
TORSDOF 0
ENDMDL
