MODEL 1
REMARK minimizedAffinity 10.8031063
REMARK minimizedRMSD -1
REMARK  0 active torsions:
REMARK  status: ('A' for Active; 'I' for Inactive)
ROOT
ATOM      1  C4' PXY d   1      -0.416   1.620   3.493  0.00  0.00     0.077 C 
ATOM      2  C1' PXY d   1       0.919   5.419  -0.655  0.00  0.00     0.077 C 
ATOM      3  C1  PXY d   1       0.574   4.413   0.426  0.00  0.00    -0.082 A 
ATOM      4  C2  PXY d   1      -0.381   4.692   1.298  0.00  0.00     0.003 A 
ATOM      5  C3  PXY d   1      -0.685   3.807   2.301  0.00  0.00     0.003 A 
ATOM      6  C4  PXY d   1      -0.040   2.602   2.380  0.00  0.00    -0.082 A 
ATOM      7  C5  PXY d   1       0.928   2.305   1.487  0.00  0.00     0.003 A 
ATOM      8  C6  PXY d   1       1.250   3.234   0.502  0.00  0.00     0.003 A 
ENDROOT
TORSDOF 0
ENDMDL
