MODEL 1
REMARK minimizedAffinity 11.1242428
REMARK minimizedRMSD -1
REMARK  0 active torsions:
REMARK  status: ('A' for Active; 'I' for Inactive)
ROOT
ATOM      1  C4' PXY d   1       0.405   0.744  -0.661  0.00  0.00     0.077 C 
ATOM      2  C1' PXY d   1      -0.801   6.000   1.421  0.00  0.00     0.077 C 
ATOM      3  C1  PXY d   1      -0.480   4.618   0.887  0.00  0.00    -0.082 A 
ATOM      4  C2  PXY d   1      -0.277   4.449  -0.410  0.00  0.00     0.003 A 
ATOM      5  C3  PXY d   1      -0.017   3.201  -0.914  0.00  0.00     0.003 A 
ATOM      6  C4  PXY d   1       0.087   2.123  -0.076  0.00  0.00    -0.082 A 
ATOM      7  C5  PXY d   1      -0.108   2.289   1.249  0.00  0.00     0.003 A 
ATOM      8  C6  PXY d   1      -0.411   3.557   1.736  0.00  0.00     0.003 A 
ENDROOT
TORSDOF 0
ENDMDL
