MODEL 1
REMARK minimizedAffinity 2.23055267
REMARK minimizedRMSD -1
REMARK  0 active torsions:
REMARK  status: ('A' for Active; 'I' for Inactive)
ROOT
ATOM      1  C4' PXY d   1       0.105   5.998  -1.631  0.00  0.00     0.077 C 
ATOM      2  C1' PXY d   1      -0.180   2.676   3.090  0.00  0.00     0.077 C 
ATOM      3  C1  PXY d   1      -0.115   3.554   1.857  0.00  0.00    -0.082 A 
ATOM      4  C2  PXY d   1       0.376   3.065   0.730  0.00  0.00     0.003 A 
ATOM      5  C3  PXY d   1       0.472   3.855  -0.386  0.00  0.00     0.003 A 
ATOM      6  C4  PXY d   1       0.011   5.144  -0.364  0.00  0.00    -0.082 A 
ATOM      7  C5  PXY d   1      -0.501   5.648   0.779  0.00  0.00     0.003 A 
ATOM      8  C6  PXY d   1      -0.552   4.842   1.912  0.00  0.00     0.003 A 
ENDROOT
TORSDOF 0
ENDMDL
