MODEL 1
REMARK minimizedAffinity 6.56485653
REMARK minimizedRMSD -1
REMARK  0 active torsions:
REMARK  status: ('A' for Active; 'I' for Inactive)
ROOT
ATOM      1  C4' PXY d   1      -1.496   6.000  -2.392  0.00  0.00     0.077 C 
ATOM      2  C1' PXY d   1       0.558   3.325   2.303  0.00  0.00     0.077 C 
ATOM      3  C1  PXY d   1       0.011   4.033   1.079  0.00  0.00    -0.082 A 
ATOM      4  C2  PXY d   1       0.112   3.459  -0.109  0.00  0.00     0.003 A 
ATOM      5  C3  PXY d   1      -0.349   4.100  -1.230  0.00  0.00     0.003 A 
ATOM      6  C4  PXY d   1      -0.966   5.317  -1.128  0.00  0.00    -0.082 A 
ATOM      7  C5  PXY d   1      -1.082   5.905   0.082  0.00  0.00     0.003 A 
ATOM      8  C6  PXY d   1      -0.571   5.257   1.202  0.00  0.00     0.003 A 
ENDROOT
TORSDOF 0
ENDMDL
