MODEL 1
REMARK minimizedAffinity 3.06208253
REMARK minimizedRMSD -1
REMARK  2 active torsions:
REMARK  status: ('A' for Active; 'I' for Inactive)
REMARK    1  A    between atoms: C1_2  and  C2_3 
REMARK    2  A    between atoms: C2_3  and  C3_4 
ROOT
ATOM      1  C3  UNL d   1       0.217  -0.873   0.955  0.00  0.00    -0.075 A 
ATOM      2  C4  UNL d   1       0.993   0.139   0.371  0.00  0.00     0.002 A 
ATOM      3  C5  UNL d   1       2.266  -0.143  -0.125  0.00  0.00     0.002 A 
ATOM      4  C6  UNL d   1       2.783  -1.433  -0.035  0.00  0.00    -0.004 A 
ATOM      5  C7  UNL d   1       2.028  -2.442   0.559  0.00  0.00     0.002 A 
ATOM      6  C8  UNL d   1       0.751  -2.165   1.052  0.00  0.00     0.002 A 
ENDROOT
BRANCH   1   7
ATOM      7  C2  UNL d   1      -1.173  -0.582   1.468  0.00  0.00     0.056 C 
BRANCH   7   8
ATOM      8  C1  UNL d   1      -1.665   0.838   1.166  0.00  0.00     0.007 C 
ATOM      9  C   UNL d   1      -3.032   0.871   0.497  0.00  0.00     0.009 C 
ENDBRANCH   7   8
ENDBRANCH   1   7
TORSDOF 2
ENDMDL
