MODEL 1
REMARK minimizedAffinity 5.83632946
REMARK minimizedRMSD -1
REMARK  2 active torsions:
REMARK  status: ('A' for Active; 'I' for Inactive)
REMARK    1  A    between atoms: C1_2  and  C2_3 
REMARK    2  A    between atoms: C2_3  and  C3_4 
ROOT
ATOM      1  C3  UNL d   1       3.201  -0.773  -1.399  0.00  0.00    -0.075 A 
ATOM      2  C4  UNL d   1       2.752   0.148  -0.441  0.00  0.00     0.002 A 
ATOM      3  C5  UNL d   1       2.067  -0.288   0.694  0.00  0.00     0.002 A 
ATOM      4  C6  UNL d   1       1.814  -1.645   0.880  0.00  0.00    -0.004 A 
ATOM      5  C7  UNL d   1       2.241  -2.567  -0.073  0.00  0.00     0.002 A 
ATOM      6  C8  UNL d   1       2.931  -2.135  -1.207  0.00  0.00     0.002 A 
ENDROOT
BRANCH   1   7
ATOM      7  C2  UNL d   1       3.968  -0.311  -2.614  0.00  0.00     0.056 C 
BRANCH   7   8
ATOM      8  C1  UNL d   1       5.380  -0.898  -2.721  0.00  0.00     0.007 C 
ATOM      9  C   UNL d   1       5.609  -1.679  -4.008  0.00  0.00     0.009 C 
ENDBRANCH   7   8
ENDBRANCH   1   7
TORSDOF 2
ENDMDL
