MODEL 1
REMARK minimizedAffinity 2.7380662
REMARK minimizedRMSD -1
REMARK  2 active torsions:
REMARK  status: ('A' for Active; 'I' for Inactive)
REMARK    1  A    between atoms: C1_2  and  C2_3 
REMARK    2  A    between atoms: C2_3  and  C3_4 
ROOT
ATOM      1  C3  UNL d   1      -3.090   0.896  -1.379  0.00  0.00    -0.075 A 
ATOM      2  C4  UNL d   1      -4.337   1.538  -1.390  0.00  0.00     0.002 A 
ATOM      3  C5  UNL d   1      -4.652   2.456  -2.392  0.00  0.00     0.002 A 
ATOM      4  C6  UNL d   1      -3.723   2.752  -3.387  0.00  0.00    -0.004 A 
ATOM      5  C7  UNL d   1      -2.475   2.133  -3.376  0.00  0.00     0.002 A 
ATOM      6  C8  UNL d   1      -2.159   1.210  -2.377  0.00  0.00     0.002 A 
ENDROOT
BRANCH   1   7
ATOM      7  C2  UNL d   1      -2.754  -0.121  -0.314  0.00  0.00     0.056 C 
BRANCH   7   8
ATOM      8  C1  UNL d   1      -2.012   0.462   0.893  0.00  0.00     0.007 C 
ATOM      9  C   UNL d   1      -1.649  -0.586   1.937  0.00  0.00     0.009 C 
ENDBRANCH   7   8
ENDBRANCH   1   7
TORSDOF 2
ENDMDL
