MODEL 1
REMARK minimizedAffinity 8.44989109
REMARK minimizedRMSD -1
REMARK  2 active torsions:
REMARK  status: ('A' for Active; 'I' for Inactive)
REMARK    1  A    between atoms: C1_2  and  C2_3 
REMARK    2  A    between atoms: C2_3  and  C3_4 
ROOT
ATOM      1  C3  UNL d   1       2.719   1.120  -0.068  0.00  0.00    -0.075 A 
ATOM      2  C4  UNL d   1       2.866  -0.079  -0.781  0.00  0.00     0.002 A 
ATOM      3  C5  UNL d   1       1.804  -0.978  -0.881  0.00  0.00     0.002 A 
ATOM      4  C6  UNL d   1       0.588  -0.696  -0.264  0.00  0.00    -0.004 A 
ATOM      5  C7  UNL d   1       0.436   0.484   0.461  0.00  0.00     0.002 A 
ATOM      6  C8  UNL d   1       1.495   1.387   0.560  0.00  0.00     0.002 A 
ENDROOT
BRANCH   1   7
ATOM      7  C2  UNL d   1       3.855   2.111   0.020  0.00  0.00     0.056 C 
BRANCH   7   8
ATOM      8  C1  UNL d   1       4.329   2.638  -1.338  0.00  0.00     0.007 C 
ATOM      9  C   UNL d   1       5.205   3.879  -1.228  0.00  0.00     0.009 C 
ENDBRANCH   7   8
ENDBRANCH   1   7
TORSDOF 2
ENDMDL
