MODEL 1
REMARK minimizedAffinity -1.00120056
REMARK minimizedRMSD -1
REMARK  2 active torsions:
REMARK  status: ('A' for Active; 'I' for Inactive)
REMARK    1  A    between atoms: C1_2  and  C2_3 
REMARK    2  A    between atoms: C2_3  and  C3_4 
ROOT
ATOM      1  C3  UNL d   1       3.044  -1.550   1.160  0.00  0.00    -0.075 A 
ATOM      2  C4  UNL d   1       2.313  -1.847   2.319  0.00  0.00     0.002 A 
ATOM      3  C5  UNL d   1       2.846  -1.581   3.581  0.00  0.00     0.002 A 
ATOM      4  C6  UNL d   1       4.119  -1.027   3.700  0.00  0.00    -0.004 A 
ATOM      5  C7  UNL d   1       4.861  -0.744   2.556  0.00  0.00     0.002 A 
ATOM      6  C8  UNL d   1       4.328  -1.004   1.292  0.00  0.00     0.002 A 
ENDROOT
BRANCH   1   7
ATOM      7  C2  UNL d   1       2.461  -1.808  -0.209  0.00  0.00     0.056 C 
BRANCH   7   8
ATOM      8  C1  UNL d   1       2.218  -0.538  -1.032  0.00  0.00     0.007 C 
ATOM      9  C   UNL d   1       1.460   0.538  -0.266  0.00  0.00     0.009 C 
ENDBRANCH   7   8
ENDBRANCH   1   7
TORSDOF 2
ENDMDL
