MODEL 1
REMARK minimizedAffinity -4.40705538
REMARK minimizedRMSD -1
REMARK  2 active torsions:
REMARK  status: ('A' for Active; 'I' for Inactive)
REMARK    1  A    between atoms: C1_2  and  C2_3 
REMARK    2  A    between atoms: C2_3  and  C3_4 
ROOT
ATOM      1  C3  UNL d   1       1.307  -2.905   2.981  0.00  0.00    -0.075 A 
ATOM      2  C4  UNL d   1       0.029  -3.437   3.205  0.00  0.00     0.002 A 
ATOM      3  C5  UNL d   1      -0.155  -4.480   4.114  0.00  0.00     0.002 A 
ATOM      4  C6  UNL d   1       0.935  -5.010   4.800  0.00  0.00    -0.004 A 
ATOM      5  C7  UNL d   1       2.212  -4.500   4.573  0.00  0.00     0.002 A 
ATOM      6  C8  UNL d   1       2.398  -3.454   3.668  0.00  0.00     0.002 A 
ENDROOT
BRANCH   1   7
ATOM      7  C2  UNL d   1       1.508  -1.757   2.021  0.00  0.00     0.056 C 
BRANCH   7   8
ATOM      8  C1  UNL d   1       0.410  -1.632   0.960  0.00  0.00     0.007 C 
ATOM      9  C   UNL d   1       0.366  -0.259   0.301  0.00  0.00     0.009 C 
ENDBRANCH   7   8
ENDBRANCH   1   7
TORSDOF 2
ENDMDL
