MODEL 1
REMARK minimizedAffinity -2.37412262
REMARK minimizedRMSD -1
REMARK  2 active torsions:
REMARK  status: ('A' for Active; 'I' for Inactive)
REMARK    1  A    between atoms: C1_2  and  C2_3 
REMARK    2  A    between atoms: C2_3  and  C3_4 
ROOT
ATOM      1  C3  UNL d   1      -3.781  -5.977  -0.909  0.00  0.00    -0.075 A 
ATOM      2  C4  UNL d   1      -2.421  -5.993  -1.253  0.00  0.00     0.002 A 
ATOM      3  C5  UNL d   1      -2.029  -5.999  -2.592  0.00  0.00     0.002 A 
ATOM      4  C6  UNL d   1      -2.988  -5.999  -3.602  0.00  0.00    -0.004 A 
ATOM      5  C7  UNL d   1      -4.342  -6.000  -3.272  0.00  0.00     0.002 A 
ATOM      6  C8  UNL d   1      -4.737  -5.989  -1.933  0.00  0.00     0.002 A 
ENDROOT
BRANCH   1   7
ATOM      7  C2  UNL d   1      -4.212  -5.941   0.537  0.00  0.00     0.056 C 
BRANCH   7   8
ATOM      8  C1  UNL d   1      -3.160  -5.358   1.487  0.00  0.00     0.007 C 
ATOM      9  C   UNL d   1      -3.290  -5.872   2.915  0.00  0.00     0.009 C 
ENDBRANCH   7   8
ENDBRANCH   1   7
TORSDOF 2
ENDMDL
