MODEL 1
REMARK minimizedAffinity 1.05724549
REMARK minimizedRMSD -1
REMARK  2 active torsions:
REMARK  status: ('A' for Active; 'I' for Inactive)
REMARK    1  A    between atoms: C1_2  and  C2_3 
REMARK    2  A    between atoms: C2_3  and  C3_4 
ROOT
ATOM      1  C3  UNL d   1      -4.164  -5.357  -0.428  0.00  0.00    -0.075 A 
ATOM      2  C4  UNL d   1      -4.600  -5.452   0.901  0.00  0.00     0.002 A 
ATOM      3  C5  UNL d   1      -3.865  -4.865   1.932  0.00  0.00     0.002 A 
ATOM      4  C6  UNL d   1      -2.683  -4.186   1.649  0.00  0.00    -0.004 A 
ATOM      5  C7  UNL d   1      -2.231  -4.099   0.334  0.00  0.00     0.002 A 
ATOM      6  C8  UNL d   1      -2.966  -4.682  -0.700  0.00  0.00     0.002 A 
ENDROOT
BRANCH   1   7
ATOM      7  C2  UNL d   1      -4.969  -5.964  -1.551  0.00  0.00     0.056 C 
BRANCH   7   8
ATOM      8  C1  UNL d   1      -4.956  -5.142  -2.844  0.00  0.00     0.007 C 
ATOM      9  C   UNL d   1      -4.919  -6.000  -4.101  0.00  0.00     0.009 C 
ENDBRANCH   7   8
ENDBRANCH   1   7
TORSDOF 2
ENDMDL
