MODEL 1
REMARK minimizedAffinity 5.47853374
REMARK minimizedRMSD -1
REMARK  2 active torsions:
REMARK  status: ('A' for Active; 'I' for Inactive)
REMARK    1  A    between atoms: C1_2  and  C2_3 
REMARK    2  A    between atoms: C2_3  and  C3_4 
ROOT
ATOM      1  C3  UNL d   1       3.003   1.229  -0.427  0.00  0.00    -0.075 A 
ATOM      2  C4  UNL d   1       3.534   2.493  -0.720  0.00  0.00     0.002 A 
ATOM      3  C5  UNL d   1       4.820   2.836  -0.298  0.00  0.00     0.002 A 
ATOM      4  C6  UNL d   1       5.584   1.925   0.428  0.00  0.00    -0.004 A 
ATOM      5  C7  UNL d   1       5.059   0.672   0.738  0.00  0.00     0.002 A 
ATOM      6  C8  UNL d   1       3.775   0.325   0.314  0.00  0.00     0.002 A 
ENDROOT
BRANCH   1   7
ATOM      7  C2  UNL d   1       1.624   0.841  -0.905  0.00  0.00     0.056 C 
BRANCH   7   8
ATOM      8  C1  UNL d   1       0.540   0.935   0.174  0.00  0.00     0.007 C 
ATOM      9  C   UNL d   1      -0.103  -0.407   0.497  0.00  0.00     0.009 C 
ENDBRANCH   7   8
ENDBRANCH   1   7
TORSDOF 2
ENDMDL
