MODEL 1
REMARK minimizedAffinity 0.57897234
REMARK minimizedRMSD -1
REMARK  2 active torsions:
REMARK  status: ('A' for Active; 'I' for Inactive)
REMARK    1  A    between atoms: C1_2  and  C2_3 
REMARK    2  A    between atoms: C2_3  and  C3_4 
ROOT
ATOM      1  C3  UNL d   1      -0.563  -5.600  -3.660  0.00  0.00    -0.075 A 
ATOM      2  C4  UNL d   1       0.562  -4.887  -3.221  0.00  0.00     0.002 A 
ATOM      3  C5  UNL d   1       1.550  -4.496  -4.124  0.00  0.00     0.002 A 
ATOM      4  C6  UNL d   1       1.432  -4.820  -5.474  0.00  0.00    -0.004 A 
ATOM      5  C7  UNL d   1       0.327  -5.542  -5.919  0.00  0.00     0.002 A 
ATOM      6  C8  UNL d   1      -0.666  -5.931  -5.018  0.00  0.00     0.002 A 
ENDROOT
BRANCH   1   7
ATOM      7  C2  UNL d   1      -1.651  -6.000  -2.693  0.00  0.00     0.056 C 
BRANCH   7   8
ATOM      8  C1  UNL d   1      -3.058  -6.000  -3.300  0.00  0.00     0.007 C 
ATOM      9  C   UNL d   1      -4.142  -5.612  -2.304  0.00  0.00     0.009 C 
ENDBRANCH   7   8
ENDBRANCH   1   7
TORSDOF 2
ENDMDL
