MODEL 1
REMARK minimizedAffinity -1.95729709
REMARK minimizedRMSD -1
REMARK  2 active torsions:
REMARK  status: ('A' for Active; 'I' for Inactive)
REMARK    1  A    between atoms: C1_2  and  C2_3 
REMARK    2  A    between atoms: C2_3  and  C3_4 
ROOT
ATOM      1  C3  UNL d   1      -0.393  -5.926  -4.409  0.00  0.00    -0.075 A 
ATOM      2  C4  UNL d   1       0.248  -5.990  -3.164  0.00  0.00     0.002 A 
ATOM      3  C5  UNL d   1       1.638  -5.896  -3.077  0.00  0.00     0.002 A 
ATOM      4  C6  UNL d   1       2.403  -5.748  -4.231  0.00  0.00    -0.004 A 
ATOM      5  C7  UNL d   1       1.778  -5.700  -5.476  0.00  0.00     0.002 A 
ATOM      6  C8  UNL d   1       0.387  -5.789  -5.565  0.00  0.00     0.002 A 
ENDROOT
BRANCH   1   7
ATOM      7  C2  UNL d   1      -1.898  -5.997  -4.508  0.00  0.00     0.056 C 
BRANCH   7   8
ATOM      8  C1  UNL d   1      -2.612  -5.999  -3.152  0.00  0.00     0.007 C 
ATOM      9  C   UNL d   1      -4.125  -5.866  -3.271  0.00  0.00     0.009 C 
ENDBRANCH   7   8
ENDBRANCH   1   7
TORSDOF 2
ENDMDL
