MODEL 1
REMARK minimizedAffinity 3.77818847
REMARK minimizedRMSD -1
REMARK  2 active torsions:
REMARK  status: ('A' for Active; 'I' for Inactive)
REMARK    1  A    between atoms: C1_2  and  C2_3 
REMARK    2  A    between atoms: C2_3  and  C3_4 
ROOT
ATOM      1  C3  UNL d   1       0.536   0.355  -0.143  0.00  0.00    -0.075 A 
ATOM      2  C4  UNL d   1       1.671  -0.295  -0.647  0.00  0.00     0.002 A 
ATOM      3  C5  UNL d   1       1.985  -0.221  -2.005  0.00  0.00     0.002 A 
ATOM      4  C6  UNL d   1       1.165   0.494  -2.875  0.00  0.00    -0.004 A 
ATOM      5  C7  UNL d   1       0.026   1.130  -2.387  0.00  0.00     0.002 A 
ATOM      6  C8  UNL d   1      -0.289   1.061  -1.029  0.00  0.00     0.002 A 
ENDROOT
BRANCH   1   7
ATOM      7  C2  UNL d   1       0.206   0.303   1.330  0.00  0.00     0.056 C 
BRANCH   7   8
ATOM      8  C1  UNL d   1      -1.273   0.037   1.629  0.00  0.00     0.007 C 
ATOM      9  C   UNL d   1      -1.848  -1.122   0.827  0.00  0.00     0.009 C 
ENDBRANCH   7   8
ENDBRANCH   1   7
TORSDOF 2
ENDMDL
