MODEL 1
REMARK minimizedAffinity -0.269736588
REMARK minimizedRMSD -1
REMARK  2 active torsions:
REMARK  status: ('A' for Active; 'I' for Inactive)
REMARK    1  A    between atoms: C1_2  and  C2_3 
REMARK    2  A    between atoms: C2_3  and  C3_4 
ROOT
ATOM      1  C3  UNL d   1      -2.169   1.207  -0.763  0.00  0.00    -0.075 A 
ATOM      2  C4  UNL d   1      -1.747   1.358   0.566  0.00  0.00     0.002 A 
ATOM      3  C5  UNL d   1      -1.646   0.249   1.407  0.00  0.00     0.002 A 
ATOM      4  C6  UNL d   1      -1.974  -1.020   0.935  0.00  0.00    -0.004 A 
ATOM      5  C7  UNL d   1      -2.410  -1.179  -0.379  0.00  0.00     0.002 A 
ATOM      6  C8  UNL d   1      -2.507  -0.072  -1.224  0.00  0.00     0.002 A 
ENDROOT
BRANCH   1   7
ATOM      7  C2  UNL d   1      -2.252   2.399  -1.687  0.00  0.00     0.056 C 
BRANCH   7   8
ATOM      8  C1  UNL d   1      -1.542   2.197  -3.030  0.00  0.00     0.007 C 
ATOM      9  C   UNL d   1      -0.335   3.107  -3.214  0.00  0.00     0.009 C 
ENDBRANCH   7   8
ENDBRANCH   1   7
TORSDOF 2
ENDMDL
