MODEL 1
REMARK minimizedAffinity 5.58762503
REMARK minimizedRMSD -1
REMARK  0 active torsions:
REMARK  status: ('A' for Active; 'I' for Inactive)
ROOT
ATOM      1  C   UNL d   1      -2.424  -5.999  -5.790  0.00  0.00     0.172 C 
ATOM      2  N   UNL d   1      -3.248  -4.859  -5.468  0.00  0.00    -0.070 N 
ATOM      3  C1  UNL d   1      -2.921  -3.859  -4.592  0.00  0.00    -0.004 A 
ATOM      4  C2  UNL d   1      -3.968  -2.962  -4.564  0.00  0.00    -0.047 A 
ATOM      5  C3  UNL d   1      -4.958  -3.441  -5.454  0.00  0.00    -0.047 A 
ATOM      6  C4  UNL d   1      -4.487  -4.616  -6.000  0.00  0.00    -0.004 A 
ENDROOT
TORSDOF 0
ENDMDL
