MODEL 1
REMARK minimizedAffinity 2.83176041
REMARK minimizedRMSD -1
REMARK  0 active torsions:
REMARK  status: ('A' for Active; 'I' for Inactive)
ROOT
ATOM      1  C   UNL d   1      -0.066  -4.136  -2.546  0.00  0.00     0.172 C 
ATOM      2  N   UNL d   1       0.976  -3.443  -1.826  0.00  0.00    -0.070 N 
ATOM      3  C1  UNL d   1       1.111  -2.083  -1.729  0.00  0.00    -0.004 A 
ATOM      4  C2  UNL d   1       2.225  -1.824  -0.960  0.00  0.00    -0.047 A 
ATOM      5  C3  UNL d   1       2.778  -3.070  -0.581  0.00  0.00    -0.047 A 
ATOM      6  C4  UNL d   1       1.985  -4.055  -1.131  0.00  0.00    -0.004 A 
ENDROOT
TORSDOF 0
ENDMDL
