MODEL 1
REMARK minimizedAffinity 2.84484982
REMARK minimizedRMSD -1
REMARK  0 active torsions:
REMARK  status: ('A' for Active; 'I' for Inactive)
ROOT
ATOM      1  C   UNL d   1       3.888  -3.971  -1.258  0.00  0.00     0.172 C 
ATOM      2  N   UNL d   1       2.833  -3.017  -1.505  0.00  0.00    -0.070 N 
ATOM      3  C1  UNL d   1       1.935  -3.069  -2.538  0.00  0.00    -0.004 A 
ATOM      4  C2  UNL d   1       1.095  -1.982  -2.422  0.00  0.00    -0.047 A 
ATOM      5  C3  UNL d   1       1.503  -1.252  -1.280  0.00  0.00    -0.047 A 
ATOM      6  C4  UNL d   1       2.581  -1.914  -0.732  0.00  0.00    -0.004 A 
ENDROOT
TORSDOF 0
ENDMDL
