MODEL 1
REMARK minimizedAffinity 3.26241589
REMARK minimizedRMSD -1
REMARK  0 active torsions:
REMARK  status: ('A' for Active; 'I' for Inactive)
ROOT
ATOM      1  C   UNL d   1       2.977  -3.681  -0.276  0.00  0.00     0.172 C 
ATOM      2  N   UNL d   1       2.487  -2.429  -0.802  0.00  0.00    -0.070 N 
ATOM      3  C1  UNL d   1       2.888  -1.182  -0.402  0.00  0.00    -0.004 A 
ATOM      4  C2  UNL d   1       2.187  -0.255  -1.143  0.00  0.00    -0.047 A 
ATOM      5  C3  UNL d   1       1.334  -0.969  -2.018  0.00  0.00    -0.047 A 
ATOM      6  C4  UNL d   1       1.540  -2.313  -1.786  0.00  0.00    -0.004 A 
ENDROOT
TORSDOF 0
ENDMDL
