MODEL 1
REMARK minimizedAffinity 7.2213397
REMARK minimizedRMSD -1
REMARK  0 active torsions:
REMARK  status: ('A' for Active; 'I' for Inactive)
ROOT
ATOM      1  C   UNL d   1      -0.575  -3.225  -1.957  0.00  0.00     0.172 C 
ATOM      2  N   UNL d   1       0.686  -2.641  -1.564  0.00  0.00    -0.070 N 
ATOM      3  C1  UNL d   1       1.707  -3.297  -0.929  0.00  0.00    -0.004 A 
ATOM      4  C2  UNL d   1       2.730  -2.395  -0.732  0.00  0.00    -0.047 A 
ATOM      5  C3  UNL d   1       2.309  -1.153  -1.266  0.00  0.00    -0.047 A 
ATOM      6  C4  UNL d   1       1.040  -1.334  -1.775  0.00  0.00    -0.004 A 
ENDROOT
TORSDOF 0
ENDMDL
