MODEL 1
REMARK minimizedAffinity 6.02252626
REMARK minimizedRMSD -1
REMARK  0 active torsions:
REMARK  status: ('A' for Active; 'I' for Inactive)
ROOT
ATOM      1  C   UNL d   1       2.295  -2.978  -2.576  0.00  0.00     0.172 C 
ATOM      2  N   UNL d   1       2.619  -2.775  -3.969  0.00  0.00    -0.070 N 
ATOM      3  C1  UNL d   1       2.225  -1.708  -4.732  0.00  0.00    -0.004 A 
ATOM      4  C2  UNL d   1       2.736  -1.885  -6.000  0.00  0.00    -0.047 A 
ATOM      5  C3  UNL d   1       3.462  -3.100  -5.998  0.00  0.00    -0.047 A 
ATOM      6  C4  UNL d   1       3.373  -3.630  -4.728  0.00  0.00    -0.004 A 
ENDROOT
TORSDOF 0
ENDMDL
