MODEL 1
REMARK minimizedAffinity 3.50929427
REMARK minimizedRMSD -1
REMARK  0 active torsions:
REMARK  status: ('A' for Active; 'I' for Inactive)
ROOT
ATOM      1  C   UNL d   1      -0.560  -1.962   1.221  0.00  0.00     0.172 C 
ATOM      2  N   UNL d   1       0.362  -2.370   0.188  0.00  0.00    -0.070 N 
ATOM      3  C1  UNL d   1       0.460  -1.814  -1.060  0.00  0.00    -0.004 A 
ATOM      4  C2  UNL d   1       1.455  -2.481  -1.742  0.00  0.00    -0.047 A 
ATOM      5  C3  UNL d   1       1.972  -3.472  -0.875  0.00  0.00    -0.047 A 
ATOM      6  C4  UNL d   1       1.278  -3.382   0.313  0.00  0.00    -0.004 A 
ENDROOT
TORSDOF 0
ENDMDL
