MODEL 1
REMARK minimizedAffinity 4.5857749
REMARK minimizedRMSD -1
REMARK  0 active torsions:
REMARK  status: ('A' for Active; 'I' for Inactive)
ROOT
ATOM      1  C   UNL d   1       2.908  -2.246  -0.641  0.00  0.00     0.172 C 
ATOM      2  N   UNL d   1       2.432  -1.126  -1.418  0.00  0.00    -0.070 N 
ATOM      3  C1  UNL d   1       1.787  -1.207  -2.623  0.00  0.00    -0.004 A 
ATOM      4  C2  UNL d   1       1.499   0.076  -3.035  0.00  0.00    -0.047 A 
ATOM      5  C3  UNL d   1       1.989   0.959  -2.044  0.00  0.00    -0.047 A 
ATOM      6  C4  UNL d   1       2.562   0.189  -1.055  0.00  0.00    -0.004 A 
ENDROOT
TORSDOF 0
ENDMDL
