MODEL 1
REMARK minimizedAffinity 0.0509231985
REMARK minimizedRMSD -1
REMARK  0 active torsions:
REMARK  status: ('A' for Active; 'I' for Inactive)
ROOT
ATOM      1  C   UNL d   1      -4.763  -1.455   2.142  0.00  0.00     0.172 C 
ATOM      2  N   UNL d   1      -3.668  -0.526   2.299  0.00  0.00    -0.070 N 
ATOM      3  C1  UNL d   1      -2.413  -0.675   1.772  0.00  0.00    -0.004 A 
ATOM      4  C2  UNL d   1      -1.665   0.420   2.147  0.00  0.00    -0.047 A 
ATOM      5  C3  UNL d   1      -2.500   1.255   2.928  0.00  0.00    -0.047 A 
ATOM      6  C4  UNL d   1      -3.734   0.645   3.006  0.00  0.00    -0.004 A 
ENDROOT
TORSDOF 0
ENDMDL
