MODEL 1
REMARK minimizedAffinity 6.87632513
REMARK minimizedRMSD -1
REMARK  0 active torsions:
REMARK  status: ('A' for Active; 'I' for Inactive)
ROOT
ATOM      1  C   UNL d   1       2.533  -2.433  -0.495  0.00  0.00     0.172 C 
ATOM      2  N   UNL d   1       2.287  -1.212  -1.225  0.00  0.00    -0.070 N 
ATOM      3  C1  UNL d   1       1.650  -1.118  -2.433  0.00  0.00    -0.004 A 
ATOM      4  C2  UNL d   1       1.616   0.212  -2.790  0.00  0.00    -0.047 A 
ATOM      5  C3  UNL d   1       2.257   0.944  -1.762  0.00  0.00    -0.047 A 
ATOM      6  C4  UNL d   1       2.663   0.037  -0.805  0.00  0.00    -0.004 A 
ENDROOT
TORSDOF 0
ENDMDL
