MODEL 1
REMARK minimizedAffinity 2.92895699
REMARK minimizedRMSD -1
REMARK  0 active torsions:
REMARK  status: ('A' for Active; 'I' for Inactive)
ROOT
ATOM      1  C   UNL d   1      -2.630  -5.926   1.078  0.00  0.00     0.172 C 
ATOM      2  N   UNL d   1      -3.825  -5.954   0.268  0.00  0.00    -0.070 N 
ATOM      3  C1  UNL d   1      -5.110  -5.962   0.740  0.00  0.00    -0.004 A 
ATOM      4  C2  UNL d   1      -5.959  -5.990  -0.346  0.00  0.00    -0.047 A 
ATOM      5  C3  UNL d   1      -5.155  -5.999  -1.511  0.00  0.00    -0.047 A 
ATOM      6  C4  UNL d   1      -3.839  -5.977  -1.102  0.00  0.00    -0.004 A 
ENDROOT
TORSDOF 0
ENDMDL
