MODEL 1
REMARK minimizedAffinity 3.71434546
REMARK minimizedRMSD -1
REMARK  0 active torsions:
REMARK  status: ('A' for Active; 'I' for Inactive)
ROOT
ATOM      1  C   UNL d   1      -5.959   3.781  -5.995  0.00  0.00     0.172 C 
ATOM      2  N   UNL d   1      -4.562   4.148  -5.996  0.00  0.00    -0.070 N 
ATOM      3  C1  UNL d   1      -3.507   3.276  -5.999  0.00  0.00    -0.004 A 
ATOM      4  C2  UNL d   1      -2.346   4.018  -6.000  0.00  0.00    -0.047 A 
ATOM      5  C3  UNL d   1      -2.716   5.383  -5.996  0.00  0.00    -0.047 A 
ATOM      6  C4  UNL d   1      -4.094   5.436  -5.993  0.00  0.00    -0.004 A 
ENDROOT
TORSDOF 0
ENDMDL
