MODEL 1
REMARK minimizedAffinity 1.83647084
REMARK minimizedRMSD -1
REMARK  0 active torsions:
REMARK  status: ('A' for Active; 'I' for Inactive)
ROOT
ATOM      1  C   UNL d   1       2.607  -4.995  -0.522  0.00  0.00     0.172 C 
ATOM      2  N   UNL d   1       2.092  -3.695  -0.881  0.00  0.00    -0.070 N 
ATOM      3  C1  UNL d   1       0.768  -3.363  -0.991  0.00  0.00    -0.004 A 
ATOM      4  C2  UNL d   1       0.694  -2.035  -1.351  0.00  0.00    -0.047 A 
ATOM      5  C3  UNL d   1       2.020  -1.552  -1.461  0.00  0.00    -0.047 A 
ATOM      6  C4  UNL d   1       2.865  -2.600  -1.165  0.00  0.00    -0.004 A 
ENDROOT
TORSDOF 0
ENDMDL
