MODEL 1
REMARK minimizedAffinity 4.51618624
REMARK minimizedRMSD -1
REMARK  0 active torsions:
REMARK  status: ('A' for Active; 'I' for Inactive)
ROOT
ATOM      1  C   UNL d   1       1.883  -2.321  -0.674  0.00  0.00     0.172 C 
ATOM      2  N   UNL d   1       2.092  -1.008  -1.238  0.00  0.00    -0.070 N 
ATOM      3  C1  UNL d   1       2.504   0.101  -0.548  0.00  0.00    -0.004 A 
ATOM      4  C2  UNL d   1       2.581   1.148  -1.441  0.00  0.00    -0.047 A 
ATOM      5  C3  UNL d   1       2.201   0.652  -2.710  0.00  0.00    -0.047 A 
ATOM      6  C4  UNL d   1       1.903  -0.686  -2.556  0.00  0.00    -0.004 A 
ENDROOT
TORSDOF 0
ENDMDL
