MODEL 1
REMARK minimizedAffinity 4.33115625
REMARK minimizedRMSD -1
REMARK  0 active torsions:
REMARK  status: ('A' for Active; 'I' for Inactive)
ROOT
ATOM      1  C   UNL d   1      -4.843   1.880   4.725  0.00  0.00     0.172 C 
ATOM      2  N   UNL d   1      -4.474   0.879   3.752  0.00  0.00    -0.070 N 
ATOM      3  C1  UNL d   1      -5.236  -0.198   3.386  0.00  0.00    -0.004 A 
ATOM      4  C2  UNL d   1      -4.534  -0.909   2.437  0.00  0.00    -0.047 A 
ATOM      5  C3  UNL d   1      -3.307  -0.236   2.225  0.00  0.00    -0.047 A 
ATOM      6  C4  UNL d   1      -3.296   0.867   3.052  0.00  0.00    -0.004 A 
ENDROOT
TORSDOF 0
ENDMDL
