MODEL 1
REMARK minimizedAffinity -2.99503756
REMARK minimizedRMSD -1
REMARK  0 active torsions:
REMARK  status: ('A' for Active; 'I' for Inactive)
ROOT
ATOM      1  C   UNL d   1       0.709  -1.565  -0.062  0.00  0.00     0.023 A 
ATOM      2  C1  UNL d   1       0.668  -0.176  -0.182  0.00  0.00     0.003 A 
ATOM      3  C2  UNL d   1      -0.522   0.513   0.062  0.00  0.00     0.048 A 
ATOM      4  C3  UNL d   1      -1.667  -0.193   0.427  0.00  0.00     0.023 A 
ATOM      5  C4  UNL d   1      -1.631  -1.583   0.549  0.00  0.00     0.048 A 
ATOM      6  C5  UNL d   1      -0.439  -2.268   0.303  0.00  0.00     0.003 A 
ATOM      7  I   UNL d   1      -3.439   0.830   0.791  0.00  0.00    -0.146 I 
ENDROOT
TORSDOF 0
ENDMDL
