MODEL 1
REMARK minimizedAffinity 6.81316423
REMARK minimizedRMSD -1
REMARK  0 active torsions:
REMARK  status: ('A' for Active; 'I' for Inactive)
ROOT
ATOM      1  C   UNL d   1       1.932  -2.291  -0.413  0.00  0.00     0.023 A 
ATOM      2  C1  UNL d   1       1.268  -3.220   0.387  0.00  0.00     0.003 A 
ATOM      3  C2  UNL d   1       0.012  -2.917   0.917  0.00  0.00     0.048 A 
ATOM      4  C3  UNL d   1      -0.575  -1.683   0.640  0.00  0.00     0.023 A 
ATOM      5  C4  UNL d   1       0.085  -0.750  -0.162  0.00  0.00     0.048 A 
ATOM      6  C5  UNL d   1       1.341  -1.057  -0.688  0.00  0.00     0.003 A 
ATOM      7  I   UNL d   1      -2.445  -1.229   1.426  0.00  0.00    -0.146 I 
ENDROOT
TORSDOF 0
ENDMDL
