MODEL 1
REMARK minimizedAffinity -1.47696233
REMARK minimizedRMSD -1
REMARK  0 active torsions:
REMARK  status: ('A' for Active; 'I' for Inactive)
ROOT
ATOM      1  C   UNL d   1      -3.347   1.504   1.415  0.00  0.00     0.023 A 
ATOM      2  C1  UNL d   1      -2.380   0.869   2.194  0.00  0.00     0.003 A 
ATOM      3  C2  UNL d   1      -1.381   0.106   1.585  0.00  0.00     0.048 A 
ATOM      4  C3  UNL d   1      -1.356  -0.018   0.197  0.00  0.00     0.023 A 
ATOM      5  C4  UNL d   1      -2.322   0.616  -0.587  0.00  0.00     0.048 A 
ATOM      6  C5  UNL d   1      -3.319   1.377   0.027  0.00  0.00     0.003 A 
ATOM      7  I   UNL d   1       0.128  -1.153  -0.712  0.00  0.00    -0.146 I 
ENDROOT
TORSDOF 0
ENDMDL
