MODEL 1
REMARK minimizedAffinity -4.13850737
REMARK minimizedRMSD -1
REMARK  0 active torsions:
REMARK  status: ('A' for Active; 'I' for Inactive)
ROOT
ATOM      1  C   UNL d   1       2.435  -1.493   0.355  0.00  0.00     0.023 A 
ATOM      2  C1  UNL d   1       2.315  -0.227   0.927  0.00  0.00     0.003 A 
ATOM      3  C2  UNL d   1       1.185   0.552   0.672  0.00  0.00     0.048 A 
ATOM      4  C3  UNL d   1       0.177   0.058  -0.155  0.00  0.00     0.023 A 
ATOM      5  C4  UNL d   1       0.292  -1.209  -0.729  0.00  0.00     0.048 A 
ATOM      6  C5  UNL d   1       1.424  -1.984  -0.472  0.00  0.00     0.003 A 
ATOM      7  I   UNL d   1      -1.506   1.216  -0.536  0.00  0.00    -0.146 I 
ENDROOT
TORSDOF 0
ENDMDL
