MODEL 1
REMARK minimizedAffinity -5.0653758
REMARK minimizedRMSD -1
REMARK  0 active torsions:
REMARK  status: ('A' for Active; 'I' for Inactive)
ROOT
ATOM      1  O1  BZF d   1      -1.220   0.000   0.173  0.00  0.00    -0.204 OA
ATOM      2  C2  BZF d   1      -0.988  -0.573  -1.062  0.00  0.00     0.174 A 
ATOM      3  C3  BZF d   1       0.220  -0.209  -1.539  0.00  0.00    -0.012 A 
ATOM      4  C3A BZF d   1       0.816   0.571  -0.499  0.00  0.00    -0.107 A 
ATOM      5  C4  BZF d   1       2.021   1.201  -0.370  0.00  0.00     0.055 A 
ATOM      6  C5  BZF d   1       2.265   1.940   0.744  0.00  0.00    -0.016 A 
ATOM      7  C6  BZF d   1       1.325   2.075   1.745  0.00  0.00     0.022 A 
ATOM      8  C7  BZF d   1       0.118   1.465   1.665  0.00  0.00     0.029 A 
ATOM      9  C7A BZF d   1      -0.119   0.690   0.556  0.00  0.00     0.058 A 
ENDROOT
TORSDOF 0
ENDMDL
