MODEL 1
REMARK minimizedAffinity -4.92449236
REMARK minimizedRMSD -1
REMARK  0 active torsions:
REMARK  status: ('A' for Active; 'I' for Inactive)
ROOT
ATOM      1  O1  BZF d   1       1.088  -0.961  -0.756  0.00  0.00    -0.204 OA
ATOM      2  C2  BZF d   1       0.016  -1.736  -0.358  0.00  0.00     0.174 A 
ATOM      3  C3  BZF d   1      -0.699  -1.108   0.597  0.00  0.00    -0.012 A 
ATOM      4  C3A BZF d   1      -0.086   0.176   0.744  0.00  0.00    -0.107 A 
ATOM      5  C4  BZF d   1      -0.354   1.260   1.530  0.00  0.00     0.055 A 
ATOM      6  C5  BZF d   1       0.480   2.332   1.484  0.00  0.00    -0.016 A 
ATOM      7  C6  BZF d   1       1.593   2.351   0.669  0.00  0.00     0.022 A 
ATOM      8  C7  BZF d   1       1.897   1.302  -0.133  0.00  0.00     0.029 A 
ATOM      9  C7A BZF d   1       1.037   0.231  -0.113  0.00  0.00     0.058 A 
ENDROOT
TORSDOF 0
ENDMDL
