MODEL 1
REMARK minimizedAffinity -2.55913997
REMARK minimizedRMSD -1
REMARK  0 active torsions:
REMARK  status: ('A' for Active; 'I' for Inactive)
ROOT
ATOM      1  O1  BZF d   1      -4.851   5.943  -5.994  0.00  0.00    -0.204 OA
ATOM      2  C2  BZF d   1      -5.942   5.946  -5.146  0.00  0.00     0.174 A 
ATOM      3  C3  BZF d   1      -5.546   5.912  -3.858  0.00  0.00    -0.012 A 
ATOM      4  C3A BZF d   1      -4.117   5.979  -3.901  0.00  0.00    -0.107 A 
ATOM      5  C4  BZF d   1      -3.149   5.999  -2.938  0.00  0.00     0.055 A 
ATOM      6  C5  BZF d   1      -1.843   5.994  -3.315  0.00  0.00    -0.016 A 
ATOM      7  C6  BZF d   1      -1.470   5.964  -4.643  0.00  0.00     0.022 A 
ATOM      8  C7  BZF d   1      -2.395   5.949  -5.633  0.00  0.00     0.029 A 
ATOM      9  C7A BZF d   1      -3.716   5.987  -5.257  0.00  0.00     0.058 A 
ENDROOT
TORSDOF 0
ENDMDL
