MODEL 1
REMARK minimizedAffinity -4.50073624
REMARK minimizedRMSD -1
REMARK  0 active torsions:
REMARK  status: ('A' for Active; 'I' for Inactive)
ROOT
ATOM      1  O1  BZF d   1      -0.325  -0.246   1.405  0.00  0.00    -0.204 OA
ATOM      2  C2  BZF d   1      -0.454  -0.885   0.187  0.00  0.00     0.174 A 
ATOM      3  C3  BZF d   1       0.449  -0.415  -0.698  0.00  0.00    -0.012 A 
ATOM      4  C3A BZF d   1       1.249   0.515   0.039  0.00  0.00    -0.107 A 
ATOM      5  C4  BZF d   1       2.321   1.296  -0.288  0.00  0.00     0.055 A 
ATOM      6  C5  BZF d   1       2.825   2.147   0.644  0.00  0.00    -0.016 A 
ATOM      7  C6  BZF d   1       2.281   2.246   1.907  0.00  0.00     0.022 A 
ATOM      8  C7  BZF d   1       1.221   1.488   2.279  0.00  0.00     0.029 A 
ATOM      9  C7A BZF d   1       0.730   0.603   1.351  0.00  0.00     0.058 A 
ENDROOT
TORSDOF 0
ENDMDL
