MODEL 1
REMARK minimizedAffinity -3.28135729
REMARK minimizedRMSD -1
REMARK  0 active torsions:
REMARK  status: ('A' for Active; 'I' for Inactive)
ROOT
ATOM      1  O1  BZF d   1       2.288   0.033  -0.473  0.00  0.00    -0.204 OA
ATOM      2  C2  BZF d   1       3.431   0.608   0.047  0.00  0.00     0.174 A 
ATOM      3  C3  BZF d   1       3.126   1.457   1.050  0.00  0.00    -0.012 A 
ATOM      4  C3A BZF d   1       1.711   1.340   1.224  0.00  0.00    -0.107 A 
ATOM      5  C4  BZF d   1       0.820   1.922   2.080  0.00  0.00     0.055 A 
ATOM      6  C5  BZF d   1      -0.504   1.648   1.941  0.00  0.00    -0.016 A 
ATOM      7  C6  BZF d   1      -0.971   0.802   0.956  0.00  0.00     0.022 A 
ATOM      8  C7  BZF d   1      -0.125   0.198   0.088  0.00  0.00     0.029 A 
ATOM      9  C7A BZF d   1       1.217   0.447   0.246  0.00  0.00     0.058 A 
ENDROOT
TORSDOF 0
ENDMDL
