MODEL 1
REMARK minimizedAffinity -3.20136261
REMARK minimizedRMSD -1
REMARK  0 active torsions:
REMARK  status: ('A' for Active; 'I' for Inactive)
ROOT
ATOM      1  O1  BZF d   1       2.462   2.078   0.184  0.00  0.00    -0.204 OA
ATOM      2  C2  BZF d   1       1.819   2.823   1.154  0.00  0.00     0.174 A 
ATOM      3  C3  BZF d   1       0.662   2.235   1.520  0.00  0.00    -0.012 A 
ATOM      4  C3A BZF d   1       0.621   1.001   0.797  0.00  0.00    -0.107 A 
ATOM      5  C4  BZF d   1      -0.273  -0.030   0.750  0.00  0.00     0.055 A 
ATOM      6  C5  BZF d   1      -0.053  -1.056  -0.114  0.00  0.00    -0.016 A 
ATOM      7  C6  BZF d   1       1.046  -1.079  -0.948  0.00  0.00     0.022 A 
ATOM      8  C7  BZF d   1       1.963  -0.081  -0.934  0.00  0.00     0.029 A 
ATOM      9  C7A BZF d   1       1.761   0.940  -0.038  0.00  0.00     0.058 A 
ENDROOT
TORSDOF 0
ENDMDL
