MODEL 1
REMARK minimizedAffinity -0.945084989
REMARK minimizedRMSD -1
REMARK  0 active torsions:
REMARK  status: ('A' for Active; 'I' for Inactive)
ROOT
ATOM      1  O1  BZF d   1       1.280   0.287  -0.571  0.00  0.00    -0.204 OA
ATOM      2  C2  BZF d   1       0.733  -0.808  -1.212  0.00  0.00     0.174 A 
ATOM      3  C3  BZF d   1      -0.356  -1.253  -0.553  0.00  0.00    -0.012 A 
ATOM      4  C3A BZF d   1      -0.553  -0.326   0.518  0.00  0.00    -0.107 A 
ATOM      5  C4  BZF d   1      -1.484  -0.223   1.512  0.00  0.00     0.055 A 
ATOM      6  C5  BZF d   1      -1.352   0.758   2.443  0.00  0.00    -0.016 A 
ATOM      7  C6  BZF d   1      -0.300   1.650   2.413  0.00  0.00     0.022 A 
ATOM      8  C7  BZF d   1       0.646   1.591   1.444  0.00  0.00     0.029 A 
ATOM      9  C7A BZF d   1       0.497   0.621   0.483  0.00  0.00     0.058 A 
ENDROOT
TORSDOF 0
ENDMDL
