MODEL 1
REMARK minimizedAffinity -1.97290051
REMARK minimizedRMSD -1
REMARK  0 active torsions:
REMARK  status: ('A' for Active; 'I' for Inactive)
ROOT
ATOM      1  O1  BZF d   1      -4.308  -3.607  -3.541  0.00  0.00    -0.204 OA
ATOM      2  C2  BZF d   1      -4.884  -3.522  -2.288  0.00  0.00     0.174 A 
ATOM      3  C3  BZF d   1      -4.379  -2.479  -1.599  0.00  0.00    -0.012 A 
ATOM      4  C3A BZF d   1      -3.495  -1.818  -2.510  0.00  0.00    -0.107 A 
ATOM      5  C4  BZF d   1      -2.709  -0.706  -2.415  0.00  0.00     0.055 A 
ATOM      6  C5  BZF d   1      -1.909  -0.371  -3.461  0.00  0.00    -0.016 A 
ATOM      7  C6  BZF d   1      -1.868  -1.127  -4.614  0.00  0.00     0.022 A 
ATOM      8  C7  BZF d   1      -2.634  -2.236  -4.757  0.00  0.00     0.029 A 
ATOM      9  C7A BZF d   1      -3.467  -2.559  -3.714  0.00  0.00     0.058 A 
ENDROOT
TORSDOF 0
ENDMDL
