MODEL 1
REMARK minimizedAffinity -5.82803965
REMARK minimizedRMSD -1
REMARK  0 active torsions:
REMARK  status: ('A' for Active; 'I' for Inactive)
ROOT
ATOM      1  O1  BZF d   1       2.287  -0.377  -0.731  0.00  0.00    -0.204 OA
ATOM      2  C2  BZF d   1       3.554   0.165  -0.829  0.00  0.00     0.174 A 
ATOM      3  C3  BZF d   1       3.614   1.356  -0.198  0.00  0.00    -0.012 A 
ATOM      4  C3A BZF d   1       2.328   1.528   0.405  0.00  0.00    -0.107 A 
ATOM      5  C4  BZF d   1       1.778   2.509   1.179  0.00  0.00     0.055 A 
ATOM      6  C5  BZF d   1       0.473   2.409   1.543  0.00  0.00    -0.016 A 
ATOM      7  C6  BZF d   1      -0.312   1.346   1.148  0.00  0.00     0.022 A 
ATOM      8  C7  BZF d   1       0.191   0.346   0.384  0.00  0.00     0.029 A 
ATOM      9  C7A BZF d   1       1.518   0.427   0.041  0.00  0.00     0.058 A 
ENDROOT
TORSDOF 0
ENDMDL
