MODEL 1
REMARK minimizedAffinity -1.84315979
REMARK minimizedRMSD -1
REMARK  0 active torsions:
REMARK  status: ('A' for Active; 'I' for Inactive)
ROOT
ATOM      1  O1  BZF d   1      -4.352  -3.608  -0.041  0.00  0.00    -0.204 OA
ATOM      2  C2  BZF d   1      -5.696  -3.562  -0.358  0.00  0.00     0.174 A 
ATOM      3  C3  BZF d   1      -5.913  -2.736  -1.402  0.00  0.00    -0.012 A 
ATOM      4  C3A BZF d   1      -4.614  -2.306  -1.818  0.00  0.00    -0.107 A 
ATOM      5  C4  BZF d   1      -4.171  -1.487  -2.817  0.00  0.00     0.055 A 
ATOM      6  C5  BZF d   1      -2.843  -1.214  -2.908  0.00  0.00    -0.016 A 
ATOM      7  C6  BZF d   1      -1.931  -1.738  -2.015  0.00  0.00     0.022 A 
ATOM      8  C7  BZF d   1      -2.322  -2.560  -1.010  0.00  0.00     0.029 A 
ATOM      9  C7A BZF d   1      -3.660  -2.863  -0.936  0.00  0.00     0.058 A 
ENDROOT
TORSDOF 0
ENDMDL
