MODEL 1
REMARK minimizedAffinity -4.84952641
REMARK minimizedRMSD -1
REMARK  0 active torsions:
REMARK  status: ('A' for Active; 'I' for Inactive)
ROOT
ATOM      1  O1  BZF d   1       2.920   0.601  -0.242  0.00  0.00    -0.204 OA
ATOM      2  C2  BZF d   1       3.609   1.615   0.395  0.00  0.00     0.174 A 
ATOM      3  C3  BZF d   1       2.769   2.382   1.119  0.00  0.00    -0.012 A 
ATOM      4  C3A BZF d   1       1.488   1.756   0.997  0.00  0.00    -0.107 A 
ATOM      5  C4  BZF d   1       0.252   2.040   1.504  0.00  0.00     0.055 A 
ATOM      6  C5  BZF d   1      -0.806   1.273   1.133  0.00  0.00    -0.016 A 
ATOM      7  C6  BZF d   1      -0.666   0.219   0.255  0.00  0.00     0.022 A 
ATOM      8  C7  BZF d   1       0.540  -0.105  -0.270  0.00  0.00     0.029 A 
ATOM      9  C7A BZF d   1       1.618   0.648   0.128  0.00  0.00     0.058 A 
ENDROOT
TORSDOF 0
ENDMDL
