MODEL 1
REMARK minimizedAffinity -2.4563098
REMARK minimizedRMSD -1
REMARK  0 active torsions:
REMARK  status: ('A' for Active; 'I' for Inactive)
ROOT
ATOM      1  O1  BZF d   1       2.875  -0.001  -0.224  0.00  0.00    -0.204 OA
ATOM      2  C2  BZF d   1       3.803   0.762   0.458  0.00  0.00     0.174 A 
ATOM      3  C3  BZF d   1       3.196   1.566   1.355  0.00  0.00    -0.012 A 
ATOM      4  C3A BZF d   1       1.808   1.221   1.290  0.00  0.00    -0.107 A 
ATOM      5  C4  BZF d   1       0.699   1.663   1.954  0.00  0.00     0.055 A 
ATOM      6  C5  BZF d   1      -0.519   1.172   1.603  0.00  0.00    -0.016 A 
ATOM      7  C6  BZF d   1      -0.665   0.246   0.592  0.00  0.00     0.022 A 
ATOM      8  C7  BZF d   1       0.407  -0.226  -0.091  0.00  0.00     0.029 A 
ATOM      9  C7A BZF d   1       1.642   0.243   0.283  0.00  0.00     0.058 A 
ENDROOT
TORSDOF 0
ENDMDL
