MODEL 1
REMARK minimizedAffinity -3.77730441
REMARK minimizedRMSD -1
REMARK  0 active torsions:
REMARK  status: ('A' for Active; 'I' for Inactive)
ROOT
ATOM      1  O1  BZF d   1       0.259  -1.416  -0.389  0.00  0.00    -0.204 OA
ATOM      2  C2  BZF d   1      -0.760  -1.668  -1.287  0.00  0.00     0.174 A 
ATOM      3  C3  BZF d   1      -1.815  -0.861  -1.053  0.00  0.00    -0.012 A 
ATOM      4  C3A BZF d   1      -1.396   0.010   0.002  0.00  0.00    -0.107 A 
ATOM      5  C4  BZF d   1      -1.999   1.041   0.663  0.00  0.00     0.055 A 
ATOM      6  C5  BZF d   1      -1.344   1.638   1.694  0.00  0.00    -0.016 A 
ATOM      7  C6  BZF d   1      -0.089   1.225   2.093  0.00  0.00     0.022 A 
ATOM      8  C7  BZF d   1       0.551   0.210   1.464  0.00  0.00     0.029 A 
ATOM      9  C7A BZF d   1      -0.094  -0.373   0.401  0.00  0.00     0.058 A 
ENDROOT
TORSDOF 0
ENDMDL
