MODEL 1
REMARK minimizedAffinity -4.82915258
REMARK minimizedRMSD -1
REMARK  0 active torsions:
REMARK  status: ('A' for Active; 'I' for Inactive)
ROOT
ATOM      1  O1  BZF d   1       1.405  -1.528  -0.502  0.00  0.00    -0.204 OA
ATOM      2  C2  BZF d   1       2.711  -1.129  -0.712  0.00  0.00     0.174 A 
ATOM      3  C3  BZF d   1       2.943   0.069  -0.138  0.00  0.00    -0.012 A 
ATOM      4  C3A BZF d   1       1.731   0.400   0.547  0.00  0.00    -0.107 A 
ATOM      5  C4  BZF d   1       1.347   1.461   1.316  0.00  0.00     0.055 A 
ATOM      6  C5  BZF d   1       0.070   1.515   1.776  0.00  0.00    -0.016 A 
ATOM      7  C6  BZF d   1      -0.850   0.530   1.483  0.00  0.00     0.022 A 
ATOM      8  C7  BZF d   1      -0.514  -0.545   0.728  0.00  0.00     0.029 A 
ATOM      9  C7A BZF d   1       0.785  -0.619   0.289  0.00  0.00     0.058 A 
ENDROOT
TORSDOF 0
ENDMDL
