MODEL 1
REMARK minimizedAffinity -4.56416416
REMARK minimizedRMSD -1
REMARK  0 active torsions:
REMARK  status: ('A' for Active; 'I' for Inactive)
ROOT
ATOM      1  O1  BZF d   1      -0.485   0.489   1.569  0.00  0.00    -0.204 OA
ATOM      2  C2  BZF d   1       0.212   1.618   1.952  0.00  0.00     0.174 A 
ATOM      3  C3  BZF d   1       1.151   1.934   1.037  0.00  0.00    -0.012 A 
ATOM      4  C3A BZF d   1       0.971   0.994  -0.027  0.00  0.00    -0.107 A 
ATOM      5  C4  BZF d   1       1.593   0.804  -1.228  0.00  0.00     0.055 A 
ATOM      6  C5  BZF d   1       1.226  -0.251  -2.002  0.00  0.00    -0.016 A 
ATOM      7  C6  BZF d   1       0.247  -1.137  -1.605  0.00  0.00     0.022 A 
ATOM      8  C7  BZF d   1      -0.402  -0.988  -0.424  0.00  0.00     0.029 A 
ATOM      9  C7A BZF d   1      -0.056   0.096   0.346  0.00  0.00     0.058 A 
ENDROOT
TORSDOF 0
ENDMDL
