MODEL 1
REMARK minimizedAffinity 5.54864693
REMARK minimizedRMSD -1
REMARK  0 active torsions:
REMARK  status: ('A' for Active; 'I' for Inactive)
ROOT
ATOM      1  C1  BNZ d   1       1.044   0.903   0.837  0.00  0.00     0.000 A 
ATOM      2  C2  BNZ d   1       1.837  -0.090   0.327  0.00  0.00     0.000 A 
ATOM      3  C3  BNZ d   1       3.061   0.197  -0.210  0.00  0.00     0.000 A 
ATOM      4  C4  BNZ d   1       3.471   1.480  -0.274  0.00  0.00     0.000 A 
ATOM      5  C5  BNZ d   1       2.679   2.494   0.227  0.00  0.00     0.000 A 
ATOM      6  C6  BNZ d   1       1.465   2.196   0.802  0.00  0.00     0.000 A 
ENDROOT
TORSDOF 0
ENDMDL
