MODEL 1
REMARK minimizedAffinity 7.34515953
REMARK minimizedRMSD -1
REMARK  0 active torsions:
REMARK  status: ('A' for Active; 'I' for Inactive)
ROOT
ATOM      1  C1  BNZ d   1       2.050   1.343   1.697  0.00  0.00     0.000 A 
ATOM      2  C2  BNZ d   1       3.140   0.515   1.738  0.00  0.00     0.000 A 
ATOM      3  C3  BNZ d   1       3.768   0.128   0.587  0.00  0.00     0.000 A 
ATOM      4  C4  BNZ d   1       3.283   0.537  -0.603  0.00  0.00     0.000 A 
ATOM      5  C5  BNZ d   1       2.179   1.364  -0.661  0.00  0.00     0.000 A 
ATOM      6  C6  BNZ d   1       1.572   1.783   0.501  0.00  0.00     0.000 A 
ENDROOT
TORSDOF 0
ENDMDL
