MODEL 1
REMARK minimizedAffinity 6.15795755
REMARK minimizedRMSD -1
REMARK  0 active torsions:
REMARK  status: ('A' for Active; 'I' for Inactive)
ROOT
ATOM      1  C1  BNZ d   1      -2.934  -2.356   1.303  0.00  0.00     0.000 A 
ATOM      2  C2  BNZ d   1      -3.259  -2.332  -0.027  0.00  0.00     0.000 A 
ATOM      3  C3  BNZ d   1      -2.292  -2.436  -0.987  0.00  0.00     0.000 A 
ATOM      4  C4  BNZ d   1      -0.998  -2.523  -0.617  0.00  0.00     0.000 A 
ATOM      5  C5  BNZ d   1      -0.652  -2.539   0.720  0.00  0.00     0.000 A 
ATOM      6  C6  BNZ d   1      -1.632  -2.474   1.684  0.00  0.00     0.000 A 
ENDROOT
TORSDOF 0
ENDMDL
