MODEL 1
REMARK minimizedAffinity 6.73708773
REMARK minimizedRMSD -1
REMARK  0 active torsions:
REMARK  status: ('A' for Active; 'I' for Inactive)
ROOT
ATOM      1  C1  BNZ d   1      -1.579  -3.651   1.955  0.00  0.00     0.000 A 
ATOM      2  C2  BNZ d   1      -2.884  -3.678   1.543  0.00  0.00     0.000 A 
ATOM      3  C3  BNZ d   1      -3.587  -4.850   1.520  0.00  0.00     0.000 A 
ATOM      4  C4  BNZ d   1      -2.973  -5.998   1.870  0.00  0.00     0.000 A 
ATOM      5  C5  BNZ d   1      -1.654  -5.989   2.278  0.00  0.00     0.000 A 
ATOM      6  C6  BNZ d   1      -0.961  -4.802   2.338  0.00  0.00     0.000 A 
ENDROOT
TORSDOF 0
ENDMDL
