MODEL 1
REMARK minimizedAffinity 1.74465442
REMARK minimizedRMSD -1
REMARK  0 active torsions:
REMARK  status: ('A' for Active; 'I' for Inactive)
ROOT
ATOM      1  C1  BNZ d   1       3.488  -0.086  -0.168  0.00  0.00     0.000 A 
ATOM      2  C2  BNZ d   1       2.899   0.197   1.036  0.00  0.00     0.000 A 
ATOM      3  C3  BNZ d   1       2.009   1.228   1.154  0.00  0.00     0.000 A 
ATOM      4  C4  BNZ d   1       1.740   1.998   0.080  0.00  0.00     0.000 A 
ATOM      5  C5  BNZ d   1       2.333   1.731  -1.138  0.00  0.00     0.000 A 
ATOM      6  C6  BNZ d   1       3.198   0.669  -1.262  0.00  0.00     0.000 A 
ENDROOT
TORSDOF 0
ENDMDL
