MODEL 1
REMARK minimizedAffinity 4.03212309
REMARK minimizedRMSD -1
REMARK  0 active torsions:
REMARK  status: ('A' for Active; 'I' for Inactive)
ROOT
ATOM      1  C1  BNZ d   1       1.745   2.063   0.683  0.00  0.00     0.000 A 
ATOM      2  C2  BNZ d   1       2.441   2.155  -0.493  0.00  0.00     0.000 A 
ATOM      3  C3  BNZ d   1       3.154   1.091  -0.969  0.00  0.00     0.000 A 
ATOM      4  C4  BNZ d   1       3.203  -0.050  -0.250  0.00  0.00     0.000 A 
ATOM      5  C5  BNZ d   1       2.515  -0.155   0.942  0.00  0.00     0.000 A 
ATOM      6  C6  BNZ d   1       1.766   0.905   1.399  0.00  0.00     0.000 A 
ENDROOT
TORSDOF 0
ENDMDL
