MODEL 1
REMARK minimizedAffinity 12.4984941
REMARK minimizedRMSD -1
REMARK  0 active torsions:
REMARK  status: ('A' for Active; 'I' for Inactive)
ROOT
ATOM      1  C1  BNZ d   1      -0.459   0.035   2.422  0.00  0.00     0.000 A 
ATOM      2  C2  BNZ d   1       0.277   1.188   2.471  0.00  0.00     0.000 A 
ATOM      3  C3  BNZ d   1       1.186   1.481   1.494  0.00  0.00     0.000 A 
ATOM      4  C4  BNZ d   1       1.388   0.602   0.491  0.00  0.00     0.000 A 
ATOM      5  C5  BNZ d   1       0.660  -0.570   0.432  0.00  0.00     0.000 A 
ATOM      6  C6  BNZ d   1      -0.282  -0.843   1.396  0.00  0.00     0.000 A 
ENDROOT
TORSDOF 0
ENDMDL
