MODEL 1
REMARK minimizedAffinity 5.95681858
REMARK minimizedRMSD -1
REMARK  0 active torsions:
REMARK  status: ('A' for Active; 'I' for Inactive)
ROOT
ATOM      1  C1  BNZ d   1       4.537   3.390  -3.329  0.00  0.00     0.000 A 
ATOM      2  C2  BNZ d   1       5.640   3.060  -4.071  0.00  0.00     0.000 A 
ATOM      3  C3  BNZ d   1       5.961   1.752  -4.305  0.00  0.00     0.000 A 
ATOM      4  C4  BNZ d   1       5.203   0.777  -3.763  0.00  0.00     0.000 A 
ATOM      5  C5  BNZ d   1       4.093   1.093  -3.005  0.00  0.00     0.000 A 
ATOM      6  C6  BNZ d   1       3.751   2.411  -2.805  0.00  0.00     0.000 A 
ENDROOT
TORSDOF 0
ENDMDL
