MODEL 1
REMARK minimizedAffinity 12.7711277
REMARK minimizedRMSD -1
REMARK  0 active torsions:
REMARK  status: ('A' for Active; 'I' for Inactive)
ROOT
ATOM      1  C1  BNZ d   1      -2.979  -1.682  -0.394  0.00  0.00     0.000 A 
ATOM      2  C2  BNZ d   1      -2.145  -1.920   0.666  0.00  0.00     0.000 A 
ATOM      3  C3  BNZ d   1      -1.381  -3.052   0.714  0.00  0.00     0.000 A 
ATOM      4  C4  BNZ d   1      -1.482  -3.963  -0.275  0.00  0.00     0.000 A 
ATOM      5  C5  BNZ d   1      -2.326  -3.742  -1.345  0.00  0.00     0.000 A 
ATOM      6  C6  BNZ d   1      -3.064  -2.582  -1.410  0.00  0.00     0.000 A 
ENDROOT
TORSDOF 0
ENDMDL
