MODEL 1
REMARK minimizedAffinity 13.7958708
REMARK minimizedRMSD -1
REMARK  0 active torsions:
REMARK  status: ('A' for Active; 'I' for Inactive)
ROOT
ATOM      1  C1  BNZ d   1       3.174   0.005  -1.838  0.00  0.00     0.000 A 
ATOM      2  C2  BNZ d   1       2.673  -0.530  -0.682  0.00  0.00     0.000 A 
ATOM      3  C3  BNZ d   1       1.736   0.142   0.052  0.00  0.00     0.000 A 
ATOM      4  C4  BNZ d   1       1.331   1.365  -0.349  0.00  0.00     0.000 A 
ATOM      5  C5  BNZ d   1       1.834   1.922  -1.508  0.00  0.00     0.000 A 
ATOM      6  C6  BNZ d   1       2.748   1.226  -2.265  0.00  0.00     0.000 A 
ENDROOT
TORSDOF 0
ENDMDL
