MODEL 1
REMARK minimizedAffinity 12.4740715
REMARK minimizedRMSD -1
REMARK  0 active torsions:
REMARK  status: ('A' for Active; 'I' for Inactive)
ROOT
ATOM      1  C1  BNZ d   1      -5.322   0.115   3.694  0.00  0.00     0.000 A 
ATOM      2  C2  BNZ d   1      -5.993  -0.174   4.853  0.00  0.00     0.000 A 
ATOM      3  C3  BNZ d   1      -5.743   0.527   6.000  0.00  0.00     0.000 A 
ATOM      4  C4  BNZ d   1      -4.796   1.487   5.997  0.00  0.00     0.000 A 
ATOM      5  C5  BNZ d   1      -4.105   1.784   4.839  0.00  0.00     0.000 A 
ATOM      6  C6  BNZ d   1      -4.386   1.103   3.677  0.00  0.00     0.000 A 
ENDROOT
TORSDOF 0
ENDMDL
