MODEL 1
REMARK minimizedAffinity 6.15625858
REMARK minimizedRMSD -1
REMARK  0 active torsions:
REMARK  status: ('A' for Active; 'I' for Inactive)
ROOT
ATOM      1  C1  BNZ d   1       5.999  -0.384   0.379  0.00  0.00     0.000 A 
ATOM      2  C2  BNZ d   1       4.814  -0.469  -0.302  0.00  0.00     0.000 A 
ATOM      3  C3  BNZ d   1       3.621  -0.328   0.349  0.00  0.00     0.000 A 
ATOM      4  C4  BNZ d   1       3.613  -0.142   1.685  0.00  0.00     0.000 A 
ATOM      5  C5  BNZ d   1       4.799  -0.063   2.387  0.00  0.00     0.000 A 
ATOM      6  C6  BNZ d   1       5.999  -0.167   1.722  0.00  0.00     0.000 A 
ENDROOT
TORSDOF 0
ENDMDL
