MODEL 1
REMARK minimizedAffinity 7.88853264
REMARK minimizedRMSD -1
REMARK  0 active torsions:
REMARK  status: ('A' for Active; 'I' for Inactive)
ROOT
ATOM      1  C1  BNZ d   1      -3.961   4.738   5.998  0.00  0.00     0.000 A 
ATOM      2  C2  BNZ d   1      -4.909   5.727   5.999  0.00  0.00     0.000 A 
ATOM      3  C3  BNZ d   1      -5.937   5.712   5.099  0.00  0.00     0.000 A 
ATOM      4  C4  BNZ d   1      -5.995   4.731   4.175  0.00  0.00     0.000 A 
ATOM      5  C5  BNZ d   1      -5.042   3.732   4.155  0.00  0.00     0.000 A 
ATOM      6  C6  BNZ d   1      -4.030   3.729   5.087  0.00  0.00     0.000 A 
ENDROOT
TORSDOF 0
ENDMDL
