MODEL 1
REMARK minimizedAffinity 10.4903488
REMARK minimizedRMSD -1
REMARK  0 active torsions:
REMARK  status: ('A' for Active; 'I' for Inactive)
ROOT
ATOM      1  C1  BNZ d   1       5.998   1.566  -3.976  0.00  0.00     0.000 A 
ATOM      2  C2  BNZ d   1       5.091   0.790  -3.306  0.00  0.00     0.000 A 
ATOM      3  C3  BNZ d   1       4.057   1.359  -2.616  0.00  0.00     0.000 A 
ATOM      4  C4  BNZ d   1       3.954   2.702  -2.565  0.00  0.00     0.000 A 
ATOM      5  C5  BNZ d   1       4.866   3.499  -3.227  0.00  0.00     0.000 A 
ATOM      6  C6  BNZ d   1       5.884   2.922  -3.952  0.00  0.00     0.000 A 
ENDROOT
TORSDOF 0
ENDMDL
