MODEL 1
REMARK minimizedAffinity 7.57557964
REMARK minimizedRMSD -1
REMARK  0 active torsions:
REMARK  status: ('A' for Active; 'I' for Inactive)
ROOT
ATOM      1  C1  BNZ d   1      -4.853   4.339   3.662  0.00  0.00     0.000 A 
ATOM      2  C2  BNZ d   1      -5.859   5.256   3.809  0.00  0.00     0.000 A 
ATOM      3  C3  BNZ d   1      -5.996   5.965   4.970  0.00  0.00     0.000 A 
ATOM      4  C4  BNZ d   1      -5.152   5.728   5.995  0.00  0.00     0.000 A 
ATOM      5  C5  BNZ d   1      -4.138   4.800   5.865  0.00  0.00     0.000 A 
ATOM      6  C6  BNZ d   1      -3.980   4.116   4.682  0.00  0.00     0.000 A 
ENDROOT
TORSDOF 0
ENDMDL
