MODEL 1
REMARK minimizedAffinity 3.61006832
REMARK minimizedRMSD -1
REMARK  0 active torsions:
REMARK  status: ('A' for Active; 'I' for Inactive)
ROOT
ATOM      1  C1  BNZ d   1      -4.212   4.789   5.960  0.00  0.00     0.000 A 
ATOM      2  C2  BNZ d   1      -5.138   5.797   6.000  0.00  0.00     0.000 A 
ATOM      3  C3  BNZ d   1      -6.000   5.998   4.958  0.00  0.00     0.000 A 
ATOM      4  C4  BNZ d   1      -5.908   5.217   3.862  0.00  0.00     0.000 A 
ATOM      5  C5  BNZ d   1      -4.973   4.202   3.803  0.00  0.00     0.000 A 
ATOM      6  C6  BNZ d   1      -4.134   3.978   4.870  0.00  0.00     0.000 A 
ENDROOT
TORSDOF 0
ENDMDL
