MODEL 1
REMARK minimizedAffinity 8.74077606
REMARK minimizedRMSD -1
REMARK  0 active torsions:
REMARK  status: ('A' for Active; 'I' for Inactive)
ROOT
ATOM      1  C1  BNZ d   1       1.775   2.010  -0.160  0.00  0.00     0.000 A 
ATOM      2  C2  BNZ d   1       0.928   2.264   0.886  0.00  0.00     0.000 A 
ATOM      3  C3  BNZ d   1       0.690   1.315   1.840  0.00  0.00     0.000 A 
ATOM      4  C4  BNZ d   1       1.267   0.101   1.727  0.00  0.00     0.000 A 
ATOM      5  C5  BNZ d   1       2.116  -0.173   0.673  0.00  0.00     0.000 A 
ATOM      6  C6  BNZ d   1       2.384   0.798  -0.264  0.00  0.00     0.000 A 
ENDROOT
TORSDOF 0
ENDMDL
