MODEL 1
REMARK minimizedAffinity 8.29367542
REMARK minimizedRMSD -1
REMARK  0 active torsions:
REMARK  status: ('A' for Active; 'I' for Inactive)
ROOT
ATOM      1  C1  BNZ d   1       3.046   1.294   0.475  0.00  0.00     0.000 A 
ATOM      2  C2  BNZ d   1       3.464   2.193  -0.471  0.00  0.00     0.000 A 
ATOM      3  C3  BNZ d   1       3.879   1.770  -1.703  0.00  0.00     0.000 A 
ATOM      4  C4  BNZ d   1       3.913   0.450  -1.974  0.00  0.00     0.000 A 
ATOM      5  C5  BNZ d   1       3.504  -0.469  -1.028  0.00  0.00     0.000 A 
ATOM      6  C6  BNZ d   1       3.051  -0.038   0.197  0.00  0.00     0.000 A 
ENDROOT
TORSDOF 0
ENDMDL
