MODEL 1
REMARK minimizedAffinity 6.99383688
REMARK minimizedRMSD -1
REMARK  2 active torsions:
REMARK  status: ('A' for Active; 'I' for Inactive)
REMARK    1  A    between atoms: C1_2  and  C2_3 
REMARK    2  A    between atoms: C2_3  and  C3_4 
ROOT
ATOM      1  C3  UNL d   1      -3.699   2.205  -3.075  0.00  0.00    -0.075 A 
ATOM      2  C4  UNL d   1      -3.467   2.471  -4.432  0.00  0.00     0.002 A 
ATOM      3  C5  UNL d   1      -3.733   3.734  -4.962  0.00  0.00     0.002 A 
ATOM      4  C6  UNL d   1      -4.243   4.742  -4.147  0.00  0.00    -0.004 A 
ATOM      5  C7  UNL d   1      -4.493   4.484  -2.800  0.00  0.00     0.002 A 
ATOM      6  C8  UNL d   1      -4.223   3.222  -2.266  0.00  0.00     0.002 A 
ENDROOT
BRANCH   1   7
ATOM      7  C2  UNL d   1      -3.386   0.849  -2.489  0.00  0.00     0.056 C 
BRANCH   7   8
ATOM      8  C1  UNL d   1      -2.187   0.844  -1.534  0.00  0.00     0.007 C 
ATOM      9  C   UNL d   1      -2.425   0.020  -0.276  0.00  0.00     0.009 C 
ENDBRANCH   7   8
ENDBRANCH   1   7
TORSDOF 2
ENDMDL
