MODEL 1
REMARK minimizedAffinity 13.7156458
REMARK minimizedRMSD -1
REMARK  2 active torsions:
REMARK  status: ('A' for Active; 'I' for Inactive)
REMARK    1  A    between atoms: C1_2  and  C2_3 
REMARK    2  A    between atoms: C2_3  and  C3_4 
ROOT
ATOM      1  C3  UNL d   1      -3.757   2.475  -3.082  0.00  0.00    -0.075 A 
ATOM      2  C4  UNL d   1      -3.554   2.772  -4.437  0.00  0.00     0.002 A 
ATOM      3  C5  UNL d   1      -3.499   4.096  -4.872  0.00  0.00     0.002 A 
ATOM      4  C6  UNL d   1      -3.656   5.138  -3.961  0.00  0.00    -0.004 A 
ATOM      5  C7  UNL d   1      -3.874   4.855  -2.614  0.00  0.00     0.002 A 
ATOM      6  C8  UNL d   1      -3.925   3.530  -2.176  0.00  0.00     0.002 A 
ENDROOT
BRANCH   1   7
ATOM      7  C2  UNL d   1      -3.788   1.043  -2.601  0.00  0.00     0.056 C 
BRANCH   7   8
ATOM      8  C1  UNL d   1      -2.430   0.515  -2.126  0.00  0.00     0.007 C 
ATOM      9  C   UNL d   1      -2.009   1.072  -0.773  0.00  0.00     0.009 C 
ENDBRANCH   7   8
ENDBRANCH   1   7
TORSDOF 2
ENDMDL
