MODEL 1
REMARK minimizedAffinity 4.99245262
REMARK minimizedRMSD -1
REMARK  2 active torsions:
REMARK  status: ('A' for Active; 'I' for Inactive)
REMARK    1  A    between atoms: C1_2  and  C2_3 
REMARK    2  A    between atoms: C2_3  and  C3_4 
ROOT
ATOM      1  C3  UNL d   1       1.306  -2.205   3.532  0.00  0.00    -0.075 A 
ATOM      2  C4  UNL d   1       0.635  -1.612   4.611  0.00  0.00     0.002 A 
ATOM      3  C5  UNL d   1       0.540  -2.273   5.836  0.00  0.00     0.002 A 
ATOM      4  C6  UNL d   1       1.104  -3.537   5.995  0.00  0.00    -0.004 A 
ATOM      5  C7  UNL d   1       1.759  -4.143   4.925  0.00  0.00     0.002 A 
ATOM      6  C8  UNL d   1       1.859  -3.482   3.699  0.00  0.00     0.002 A 
ENDROOT
BRANCH   1   7
ATOM      7  C2  UNL d   1       1.438  -1.483   2.213  0.00  0.00     0.056 C 
BRANCH   7   8
ATOM      8  C1  UNL d   1       1.988  -2.353   1.077  0.00  0.00     0.007 C 
ATOM      9  C   UNL d   1       3.263  -1.797   0.458  0.00  0.00     0.009 C 
ENDBRANCH   7   8
ENDBRANCH   1   7
TORSDOF 2
ENDMDL
