MODEL 1
REMARK minimizedAffinity 8.43917751
REMARK minimizedRMSD -1
REMARK  2 active torsions:
REMARK  status: ('A' for Active; 'I' for Inactive)
REMARK    1  A    between atoms: C1_2  and  C2_3 
REMARK    2  A    between atoms: C2_3  and  C3_4 
ROOT
ATOM      1  C3  UNL d   1       1.227  -2.632   2.550  0.00  0.00    -0.075 A 
ATOM      2  C4  UNL d   1       1.195  -3.183   3.839  0.00  0.00     0.002 A 
ATOM      3  C5  UNL d   1       0.894  -2.385   4.944  0.00  0.00     0.002 A 
ATOM      4  C6  UNL d   1       0.631  -1.027   4.775  0.00  0.00    -0.004 A 
ATOM      5  C7  UNL d   1       0.677  -0.466   3.501  0.00  0.00     0.002 A 
ATOM      6  C8  UNL d   1       0.973  -1.262   2.393  0.00  0.00     0.002 A 
ENDROOT
BRANCH   1   7
ATOM      7  C2  UNL d   1       1.523  -3.496   1.348  0.00  0.00     0.056 C 
BRANCH   7   8
ATOM      8  C1  UNL d   1       0.341  -3.652   0.385  0.00  0.00     0.007 C 
ATOM      9  C   UNL d   1       0.735  -4.255  -0.957  0.00  0.00     0.009 C 
ENDBRANCH   7   8
ENDBRANCH   1   7
TORSDOF 2
ENDMDL
