MODEL 1
REMARK minimizedAffinity 8.79615498
REMARK minimizedRMSD -1
REMARK  2 active torsions:
REMARK  status: ('A' for Active; 'I' for Inactive)
REMARK    1  A    between atoms: C1_2  and  C2_3 
REMARK    2  A    between atoms: C2_3  and  C3_4 
ROOT
ATOM      1  C3  UNL d   1      -3.511   2.338  -3.046  0.00  0.00    -0.075 A 
ATOM      2  C4  UNL d   1      -3.222   2.644  -4.384  0.00  0.00     0.002 A 
ATOM      3  C5  UNL d   1      -3.455   3.926  -4.884  0.00  0.00     0.002 A 
ATOM      4  C6  UNL d   1      -3.989   4.912  -4.058  0.00  0.00    -0.004 A 
ATOM      5  C7  UNL d   1      -4.297   4.615  -2.732  0.00  0.00     0.002 A 
ATOM      6  C8  UNL d   1      -4.060   3.334  -2.228  0.00  0.00     0.002 A 
ENDROOT
BRANCH   1   7
ATOM      7  C2  UNL d   1      -3.234   0.961  -2.492  0.00  0.00     0.056 C 
BRANCH   7   8
ATOM      8  C1  UNL d   1      -2.095   0.920  -1.467  0.00  0.00     0.007 C 
ATOM      9  C   UNL d   1      -2.464   0.177  -0.189  0.00  0.00     0.009 C 
ENDBRANCH   7   8
ENDBRANCH   1   7
TORSDOF 2
ENDMDL
