MODEL 1
REMARK minimizedAffinity 9.33372879
REMARK minimizedRMSD -1
REMARK  2 active torsions:
REMARK  status: ('A' for Active; 'I' for Inactive)
REMARK    1  A    between atoms: C1_2  and  C2_3 
REMARK    2  A    between atoms: C2_3  and  C3_4 
ROOT
ATOM      1  C3  UNL d   1       0.199  -3.543   1.465  0.00  0.00    -0.075 A 
ATOM      2  C4  UNL d   1       0.246  -4.735   0.726  0.00  0.00     0.002 A 
ATOM      3  C5  UNL d   1      -0.883  -5.192   0.046  0.00  0.00     0.002 A 
ATOM      4  C6  UNL d   1      -2.074  -4.472   0.104  0.00  0.00    -0.004 A 
ATOM      5  C7  UNL d   1      -2.137  -3.295   0.848  0.00  0.00     0.002 A 
ATOM      6  C8  UNL d   1      -1.008  -2.833   1.526  0.00  0.00     0.002 A 
ENDROOT
BRANCH   1   7
ATOM      7  C2  UNL d   1       1.425  -3.028   2.179  0.00  0.00     0.056 C 
BRANCH   7   8
ATOM      8  C1  UNL d   1       1.153  -1.839   3.107  0.00  0.00     0.007 C 
ATOM      9  C   UNL d   1       0.976  -2.244   4.565  0.00  0.00     0.009 C 
ENDBRANCH   7   8
ENDBRANCH   1   7
TORSDOF 2
ENDMDL
