MODEL 1
REMARK minimizedAffinity 6.40180445
REMARK minimizedRMSD -1
REMARK  2 active torsions:
REMARK  status: ('A' for Active; 'I' for Inactive)
REMARK    1  A    between atoms: C1_2  and  C2_3 
REMARK    2  A    between atoms: C2_3  and  C3_4 
ROOT
ATOM      1  C3  UNL d   1      -0.037  -5.341  -0.696  0.00  0.00    -0.075 A 
ATOM      2  C4  UNL d   1      -1.277  -5.996  -0.678  0.00  0.00     0.002 A 
ATOM      3  C5  UNL d   1      -2.329  -5.500   0.093  0.00  0.00     0.002 A 
ATOM      4  C6  UNL d   1      -2.152  -4.351   0.862  0.00  0.00    -0.004 A 
ATOM      5  C7  UNL d   1      -0.919  -3.702   0.864  0.00  0.00     0.002 A 
ATOM      6  C8  UNL d   1       0.134  -4.194   0.090  0.00  0.00     0.002 A 
ENDROOT
BRANCH   1   7
ATOM      7  C2  UNL d   1       1.096  -5.857  -1.551  0.00  0.00     0.056 C 
BRANCH   7   8
ATOM      8  C1  UNL d   1       1.546  -4.882  -2.644  0.00  0.00     0.007 C 
ATOM      9  C   UNL d   1       3.026  -4.533  -2.566  0.00  0.00     0.009 C 
ENDBRANCH   7   8
ENDBRANCH   1   7
TORSDOF 2
ENDMDL
