MODEL 1
REMARK minimizedAffinity 7.0612359
REMARK minimizedRMSD -1
REMARK  2 active torsions:
REMARK  status: ('A' for Active; 'I' for Inactive)
REMARK    1  A    between atoms: C1_2  and  C2_3 
REMARK    2  A    between atoms: C2_3  and  C3_4 
ROOT
ATOM      1  C3  UNL d   1       1.566  -2.348   2.855  0.00  0.00    -0.075 A 
ATOM      2  C4  UNL d   1       1.921  -1.256   2.050  0.00  0.00     0.002 A 
ATOM      3  C5  UNL d   1       2.704  -1.440   0.910  0.00  0.00     0.002 A 
ATOM      4  C6  UNL d   1       3.150  -2.715   0.567  0.00  0.00    -0.004 A 
ATOM      5  C7  UNL d   1       2.817  -3.805   1.368  0.00  0.00     0.002 A 
ATOM      6  C8  UNL d   1       2.030  -3.623   2.507  0.00  0.00     0.002 A 
ENDROOT
BRANCH   1   7
ATOM      7  C2  UNL d   1       0.694  -2.159   4.073  0.00  0.00     0.056 C 
BRANCH   7   8
ATOM      8  C1  UNL d   1       1.473  -2.064   5.389  0.00  0.00     0.007 C 
ATOM      9  C   UNL d   1       1.868  -3.422   5.952  0.00  0.00     0.009 C 
ENDBRANCH   7   8
ENDBRANCH   1   7
TORSDOF 2
ENDMDL
