MODEL 1
REMARK minimizedAffinity 10.9598522
REMARK minimizedRMSD -1
REMARK  2 active torsions:
REMARK  status: ('A' for Active; 'I' for Inactive)
REMARK    1  A    between atoms: C1_2  and  C2_3 
REMARK    2  A    between atoms: C2_3  and  C3_4 
ROOT
ATOM      1  C3  UNL d   1       1.168  -2.385   3.479  0.00  0.00    -0.075 A 
ATOM      2  C4  UNL d   1       0.744  -1.741   4.651  0.00  0.00     0.002 A 
ATOM      3  C5  UNL d   1       1.136  -2.217   5.902  0.00  0.00     0.002 A 
ATOM      4  C6  UNL d   1       1.947  -3.346   5.999  0.00  0.00    -0.004 A 
ATOM      5  C7  UNL d   1       2.361  -4.003   4.843  0.00  0.00     0.002 A 
ATOM      6  C8  UNL d   1       1.974  -3.526   3.589  0.00  0.00     0.002 A 
ENDROOT
BRANCH   1   7
ATOM      7  C2  UNL d   1       0.772  -1.858   2.121  0.00  0.00     0.056 C 
BRANCH   7   8
ATOM      8  C1  UNL d   1       1.714  -0.782   1.570  0.00  0.00     0.007 C 
ATOM      9  C   UNL d   1       2.761  -1.334   0.612  0.00  0.00     0.009 C 
ENDBRANCH   7   8
ENDBRANCH   1   7
TORSDOF 2
ENDMDL
