MODEL 1
REMARK minimizedAffinity -4.62411022
REMARK minimizedRMSD -1
REMARK  0 active torsions:
REMARK  status: ('A' for Active; 'I' for Inactive)
ROOT
ATOM      1  N1  IND d   1      -0.266   0.748  -0.765  0.00  0.00    -0.196 N 
ATOM      2  C2  IND d   1       1.090   0.806  -0.596  0.00  0.00     0.054 A 
ATOM      3  C3  IND d   1       1.515  -0.234   0.154  0.00  0.00    -0.031 A 
ATOM      4  C4  IND d   1       0.176  -2.207   1.125  0.00  0.00     0.051 A 
ATOM      5  C5  IND d   1      -1.100  -2.677   1.266  0.00  0.00    -0.031 A 
ATOM      6  C6  IND d   1      -2.184  -2.018   0.724  0.00  0.00     0.015 A 
ATOM      7  C7  IND d   1      -2.031  -0.865   0.007  0.00  0.00    -0.016 A 
ATOM      8  C8  IND d   1      -0.738  -0.380  -0.132  0.00  0.00    -0.047 A 
ATOM      9  C9  IND d   1       0.362  -1.022   0.452  0.00  0.00    -0.096 A 
ATOM     10  HN1 IND d   1      -0.743   1.320  -1.195  0.00  0.00     0.298 HD
ENDROOT
TORSDOF 0
ENDMDL
