MODEL 1
REMARK minimizedAffinity -3.4956429
REMARK minimizedRMSD -1
REMARK  0 active torsions:
REMARK  status: ('A' for Active; 'I' for Inactive)
ROOT
ATOM      1  N1  IND d   1      -0.114  -2.449   1.893  0.00  0.00    -0.196 N 
ATOM      2  C2  IND d   1       1.212  -2.645   2.163  0.00  0.00     0.054 A 
ATOM      3  C3  IND d   1       1.971  -1.806   1.423  0.00  0.00    -0.031 A 
ATOM      4  C4  IND d   1       1.246   0.039  -0.219  0.00  0.00     0.051 A 
ATOM      5  C5  IND d   1       0.140   0.571  -0.822  0.00  0.00    -0.031 A 
ATOM      6  C6  IND d   1      -1.132   0.116  -0.542  0.00  0.00     0.015 A 
ATOM      7  C7  IND d   1      -1.349  -0.884   0.362  0.00  0.00    -0.016 A 
ATOM      8  C8  IND d   1      -0.228  -1.432   0.971  0.00  0.00    -0.047 A 
ATOM      9  C9  IND d   1       1.069  -1.004   0.660  0.00  0.00    -0.096 A 
ATOM     10  HN1 IND d   1      -0.767  -2.887   2.241  0.00  0.00     0.298 HD
ENDROOT
TORSDOF 0
ENDMDL
