MODEL 1
REMARK minimizedAffinity -4.76983118
REMARK minimizedRMSD -1
REMARK  0 active torsions:
REMARK  status: ('A' for Active; 'I' for Inactive)
ROOT
ATOM      1  N1  IND d   1       4.372   1.507  -4.222  0.00  0.00    -0.196 N 
ATOM      2  C2  IND d   1       5.245   1.572  -3.172  0.00  0.00     0.054 A 
ATOM      3  C3  IND d   1       4.574   1.743  -2.011  0.00  0.00    -0.031 A 
ATOM      4  C4  IND d   1       2.036   1.839  -1.588  0.00  0.00     0.051 A 
ATOM      5  C5  IND d   1       0.835   1.860  -2.241  0.00  0.00    -0.031 A 
ATOM      6  C6  IND d   1       0.750   1.760  -3.614  0.00  0.00     0.015 A 
ATOM      7  C7  IND d   1       1.867   1.623  -4.389  0.00  0.00    -0.016 A 
ATOM      8  C8  IND d   1       3.088   1.608  -3.731  0.00  0.00    -0.047 A 
ATOM      9  C9  IND d   1       3.184   1.752  -2.341  0.00  0.00    -0.096 A 
ATOM     10  HN1 IND d   1       4.587   1.418  -5.049  0.00  0.00     0.298 HD
ENDROOT
TORSDOF 0
ENDMDL
