MODEL 1
REMARK minimizedAffinity -4.57715654
REMARK minimizedRMSD -1
REMARK  0 active torsions:
REMARK  status: ('A' for Active; 'I' for Inactive)
ROOT
ATOM      1  N1  IND d   1      -0.121   0.382  -0.304  0.00  0.00    -0.196 N 
ATOM      2  C2  IND d   1       1.182  -0.032  -0.299  0.00  0.00     0.054 A 
ATOM      3  C3  IND d   1       1.334  -1.099   0.516  0.00  0.00    -0.031 A 
ATOM      4  C4  IND d   1      -0.438  -2.395   1.861  0.00  0.00     0.051 A 
ATOM      5  C5  IND d   1      -1.761  -2.371   2.203  0.00  0.00    -0.031 A 
ATOM      6  C6  IND d   1      -2.623  -1.411   1.714  0.00  0.00     0.015 A 
ATOM      7  C7  IND d   1      -2.195  -0.441   0.853  0.00  0.00    -0.016 A 
ATOM      8  C8  IND d   1      -0.850  -0.457   0.510  0.00  0.00    -0.047 A 
ATOM      9  C9  IND d   1       0.038  -1.404   1.036  0.00  0.00    -0.096 A 
ATOM     10  HN1 IND d   1      -0.433   1.054  -0.741  0.00  0.00     0.298 HD
ENDROOT
TORSDOF 0
ENDMDL
