MODEL 1
REMARK minimizedAffinity -2.84683084
REMARK minimizedRMSD -1
REMARK  0 active torsions:
REMARK  status: ('A' for Active; 'I' for Inactive)
ROOT
ATOM      1  N1  IND d   1      -0.305   1.624   0.307  0.00  0.00    -0.196 N 
ATOM      2  C2  IND d   1       0.763   1.481  -0.534  0.00  0.00     0.054 A 
ATOM      3  C3  IND d   1       1.166   0.191  -0.567  0.00  0.00    -0.031 A 
ATOM      4  C4  IND d   1       0.154  -1.869   0.601  0.00  0.00     0.051 A 
ATOM      5  C5  IND d   1      -0.808  -2.232   1.501  0.00  0.00    -0.031 A 
ATOM      6  C6  IND d   1      -1.670  -1.311   2.058  0.00  0.00     0.015 A 
ATOM      7  C7  IND d   1      -1.610   0.013   1.726  0.00  0.00    -0.016 A 
ATOM      8  C8  IND d   1      -0.630   0.387   0.817  0.00  0.00    -0.047 A 
ATOM      9  C9  IND d   1       0.276  -0.537   0.281  0.00  0.00    -0.096 A 
ATOM     10  HN1 IND d   1      -0.706   2.363   0.487  0.00  0.00     0.298 HD
ENDROOT
TORSDOF 0
ENDMDL
