MODEL 1
REMARK minimizedAffinity -4.07081842
REMARK minimizedRMSD -1
REMARK  0 active torsions:
REMARK  status: ('A' for Active; 'I' for Inactive)
ROOT
ATOM      1  N1  IND d   1      -0.173   1.105   0.491  0.00  0.00    -0.196 N 
ATOM      2  C2  IND d   1       0.536   1.553  -0.589  0.00  0.00     0.054 A 
ATOM      3  C3  IND d   1       1.121   0.518  -1.230  0.00  0.00    -0.031 A 
ATOM      4  C4  IND d   1       0.968  -2.006  -0.743  0.00  0.00     0.051 A 
ATOM      5  C5  IND d   1       0.467  -2.900   0.161  0.00  0.00    -0.031 A 
ATOM      6  C6  IND d   1      -0.290  -2.497   1.242  0.00  0.00     0.015 A 
ATOM      7  C7  IND d   1      -0.586  -1.180   1.453  0.00  0.00    -0.016 A 
ATOM      8  C8  IND d   1      -0.073  -0.269   0.541  0.00  0.00    -0.047 A 
ATOM      9  C9  IND d   1       0.732  -0.667  -0.534  0.00  0.00    -0.096 A 
ATOM     10  HN1 IND d   1      -0.608   1.597   1.046  0.00  0.00     0.298 HD
ENDROOT
TORSDOF 0
ENDMDL
