MODEL 1
REMARK minimizedAffinity -2.67260051
REMARK minimizedRMSD -1
REMARK  0 active torsions:
REMARK  status: ('A' for Active; 'I' for Inactive)
ROOT
ATOM      1  N1  IND d   1       2.138   0.101  -2.665  0.00  0.00    -0.196 N 
ATOM      2  C2  IND d   1       1.758   1.338  -3.105  0.00  0.00     0.054 A 
ATOM      3  C3  IND d   1       0.835   1.871  -2.273  0.00  0.00    -0.031 A 
ATOM      4  C4  IND d   1      -0.119   0.931  -0.074  0.00  0.00     0.051 A 
ATOM      5  C5  IND d   1      -0.103  -0.182   0.719  0.00  0.00    -0.031 A 
ATOM      6  C6  IND d   1       0.680  -1.279   0.420  0.00  0.00     0.015 A 
ATOM      7  C7  IND d   1       1.487  -1.299  -0.683  0.00  0.00    -0.016 A 
ATOM      8  C8  IND d   1       1.467  -0.173  -1.494  0.00  0.00    -0.047 A 
ATOM      9  C9  IND d   1       0.643   0.926  -1.219  0.00  0.00    -0.096 A 
ATOM     10  HN1 IND d   1       2.701  -0.419  -3.055  0.00  0.00     0.298 HD
ENDROOT
TORSDOF 0
ENDMDL
