MODEL 1
REMARK minimizedAffinity -1.48703599
REMARK minimizedRMSD -1
REMARK  0 active torsions:
REMARK  status: ('A' for Active; 'I' for Inactive)
ROOT
ATOM      1  N1  IND d   1       1.294  -0.177   0.193  0.00  0.00    -0.196 N 
ATOM      2  C2  IND d   1       1.810   1.087   0.258  0.00  0.00     0.054 A 
ATOM      3  C3  IND d   1       0.814   2.000   0.296  0.00  0.00    -0.031 A 
ATOM      4  C4  IND d   1      -1.734   1.640   0.367  0.00  0.00     0.051 A 
ATOM      5  C5  IND d   1      -2.686   0.662   0.292  0.00  0.00    -0.031 A 
ATOM      6  C6  IND d   1      -2.353  -0.672   0.180  0.00  0.00     0.015 A 
ATOM      7  C7  IND d   1      -1.050  -1.082   0.151  0.00  0.00    -0.016 A 
ATOM      8  C8  IND d   1      -0.080  -0.091   0.220  0.00  0.00    -0.047 A 
ATOM      9  C9  IND d   1      -0.412   1.268   0.291  0.00  0.00    -0.096 A 
ATOM     10  HN1 IND d   1       1.751  -0.904   0.144  0.00  0.00     0.298 HD
ENDROOT
TORSDOF 0
ENDMDL
