MODEL 1
REMARK minimizedAffinity -2.8318193
REMARK minimizedRMSD -1
REMARK  0 active torsions:
REMARK  status: ('A' for Active; 'I' for Inactive)
ROOT
ATOM      1  N1  IND d   1       1.233   0.789   0.573  0.00  0.00    -0.196 N 
ATOM      2  C2  IND d   1       2.305  -0.059   0.548  0.00  0.00     0.054 A 
ATOM      3  C3  IND d   1       1.894  -1.341   0.676  0.00  0.00    -0.031 A 
ATOM      4  C4  IND d   1      -0.496  -2.283   0.837  0.00  0.00     0.051 A 
ATOM      5  C5  IND d   1      -1.803  -1.895   0.938  0.00  0.00    -0.031 A 
ATOM      6  C6  IND d   1      -2.172  -0.566   0.918  0.00  0.00     0.015 A 
ATOM      7  C7  IND d   1      -1.245   0.429   0.786  0.00  0.00    -0.016 A 
ATOM      8  C8  IND d   1       0.083   0.039   0.691  0.00  0.00    -0.047 A 
ATOM      9  C9  IND d   1       0.468  -1.307   0.753  0.00  0.00    -0.096 A 
ATOM     10  HN1 IND d   1       1.270   1.646   0.524  0.00  0.00     0.298 HD
ENDROOT
TORSDOF 0
ENDMDL
