MODEL 1
REMARK minimizedAffinity -3.67940998
REMARK minimizedRMSD -1
REMARK  0 active torsions:
REMARK  status: ('A' for Active; 'I' for Inactive)
ROOT
ATOM      1  N1  IND d   1       0.018   1.476   0.389  0.00  0.00    -0.196 N 
ATOM      2  C2  IND d   1      -1.255   1.806   0.761  0.00  0.00     0.054 A 
ATOM      3  C3  IND d   1      -1.960   0.692   1.064  0.00  0.00    -0.031 A 
ATOM      4  C4  IND d   1      -1.193  -1.765   1.117  0.00  0.00     0.051 A 
ATOM      5  C5  IND d   1      -0.127  -2.567   0.821  0.00  0.00    -0.031 A 
ATOM      6  C6  IND d   1       1.067  -2.052   0.359  0.00  0.00     0.015 A 
ATOM      7  C7  IND d   1       1.244  -0.708   0.186  0.00  0.00    -0.016 A 
ATOM      8  C8  IND d   1       0.161   0.109   0.479  0.00  0.00    -0.047 A 
ATOM      9  C9  IND d   1      -1.067  -0.412   0.907  0.00  0.00    -0.096 A 
ATOM     10  HN1 IND d   1       0.627   2.029   0.140  0.00  0.00     0.298 HD
ENDROOT
TORSDOF 0
ENDMDL
