MODEL 1
REMARK minimizedAffinity -3.81408596
REMARK minimizedRMSD -1
REMARK  0 active torsions:
REMARK  status: ('A' for Active; 'I' for Inactive)
ROOT
ATOM      1  N1  IND d   1      -2.214   0.887   1.911  0.00  0.00    -0.196 N 
ATOM      2  C2  IND d   1      -2.834   0.098   2.839  0.00  0.00     0.054 A 
ATOM      3  C3  IND d   1      -2.265  -1.129   2.868  0.00  0.00    -0.031 A 
ATOM      4  C4  IND d   1      -0.242  -2.026   1.554  0.00  0.00     0.051 A 
ATOM      5  C5  IND d   1       0.634  -1.687   0.561  0.00  0.00    -0.031 A 
ATOM      6  C6  IND d   1       0.606  -0.446  -0.043  0.00  0.00     0.015 A 
ATOM      7  C7  IND d   1      -0.295   0.510   0.333  0.00  0.00    -0.016 A 
ATOM      8  C8  IND d   1      -1.190   0.166   1.336  0.00  0.00    -0.047 A 
ATOM      9  C9  IND d   1      -1.195  -1.106   1.923  0.00  0.00    -0.096 A 
ATOM     10  HN1 IND d   1      -2.427   1.697   1.718  0.00  0.00     0.298 HD
ENDROOT
TORSDOF 0
ENDMDL
