MODEL 1
REMARK minimizedAffinity -4.00678301
REMARK minimizedRMSD -1
REMARK  0 active torsions:
REMARK  status: ('A' for Active; 'I' for Inactive)
ROOT
ATOM      1  N1  IND d   1      -0.065   0.640  -0.094  0.00  0.00    -0.196 N 
ATOM      2  C2  IND d   1       1.078   0.146  -0.659  0.00  0.00     0.054 A 
ATOM      3  C3  IND d   1       1.222  -1.164  -0.359  0.00  0.00    -0.031 A 
ATOM      4  C4  IND d   1      -0.347  -2.724   0.957  0.00  0.00     0.051 A 
ATOM      5  C5  IND d   1      -1.495  -2.721   1.698  0.00  0.00    -0.031 A 
ATOM      6  C6  IND d   1      -2.242  -1.576   1.881  0.00  0.00     0.015 A 
ATOM      7  C7  IND d   1      -1.873  -0.387   1.318  0.00  0.00    -0.016 A 
ATOM      8  C8  IND d   1      -0.703  -0.384   0.571  0.00  0.00    -0.047 A 
ATOM      9  C9  IND d   1       0.081  -1.535   0.416  0.00  0.00    -0.096 A 
ATOM     10  HN1 IND d   1      -0.339   1.453  -0.145  0.00  0.00     0.298 HD
ENDROOT
TORSDOF 0
ENDMDL
