MODEL 1
REMARK minimizedAffinity -3.41022658
REMARK minimizedRMSD -1
REMARK  0 active torsions:
REMARK  status: ('A' for Active; 'I' for Inactive)
ROOT
ATOM      1  N1  IND d   1      -0.448   1.537   0.361  0.00  0.00    -0.196 N 
ATOM      2  C2  IND d   1       0.789   1.720  -0.192  0.00  0.00     0.054 A 
ATOM      3  C3  IND d   1       1.418   0.533  -0.339  0.00  0.00    -0.031 A 
ATOM      4  C4  IND d   1       0.567  -1.844   0.166  0.00  0.00     0.051 A 
ATOM      5  C5  IND d   1      -0.488  -2.516   0.716  0.00  0.00    -0.031 A 
ATOM      6  C6  IND d   1      -1.608  -1.858   1.183  0.00  0.00     0.015 A 
ATOM      7  C7  IND d   1      -1.719  -0.499   1.106  0.00  0.00    -0.016 A 
ATOM      8  C8  IND d   1      -0.647   0.187   0.555  0.00  0.00    -0.047 A 
ATOM      9  C9  IND d   1       0.510  -0.471   0.118  0.00  0.00    -0.096 A 
ATOM     10  HN1 IND d   1      -1.008   2.160   0.555  0.00  0.00     0.298 HD
ENDROOT
TORSDOF 0
ENDMDL
