MODEL 1
REMARK minimizedAffinity -5.36752176
REMARK minimizedRMSD -1
REMARK  0 active torsions:
REMARK  status: ('A' for Active; 'I' for Inactive)
ROOT
ATOM      1  N1  IND d   1      -0.002   1.249   0.115  0.00  0.00    -0.196 N 
ATOM      2  C2  IND d   1       1.115   0.646  -0.392  0.00  0.00     0.054 A 
ATOM      3  C3  IND d   1       1.107  -0.676  -0.106  0.00  0.00    -0.031 A 
ATOM      4  C4  IND d   1      -0.688  -2.078   1.094  0.00  0.00     0.051 A 
ATOM      5  C5  IND d   1      -1.871  -1.964   1.769  0.00  0.00    -0.031 A 
ATOM      6  C6  IND d   1      -2.506  -0.749   1.928  0.00  0.00     0.015 A 
ATOM      7  C7  IND d   1      -1.984   0.401   1.406  0.00  0.00    -0.016 A 
ATOM      8  C8  IND d   1      -0.779   0.290   0.726  0.00  0.00    -0.047 A 
ATOM      9  C9  IND d   1      -0.109  -0.934   0.598  0.00  0.00    -0.096 A 
ATOM     10  HN1 IND d   1      -0.187   2.087   0.062  0.00  0.00     0.298 HD
ENDROOT
TORSDOF 0
ENDMDL
