MODEL 1
REMARK minimizedAffinity -6.2246027
REMARK minimizedRMSD -1
REMARK  0 active torsions:
REMARK  status: ('A' for Active; 'I' for Inactive)
ROOT
ATOM      1  N1  IND d   1      -0.556   0.737  -0.141  0.00  0.00    -0.196 N 
ATOM      2  C2  IND d   1       0.603   0.139  -0.549  0.00  0.00     0.054 A 
ATOM      3  C3  IND d   1       0.623  -1.158  -0.169  0.00  0.00    -0.031 A 
ATOM      4  C4  IND d   1      -1.184  -2.535   1.043  0.00  0.00     0.051 A 
ATOM      5  C5  IND d   1      -2.402  -2.416   1.650  0.00  0.00    -0.031 A 
ATOM      6  C6  IND d   1      -3.083  -1.216   1.690  0.00  0.00     0.015 A 
ATOM      7  C7  IND d   1      -2.573  -0.088   1.111  0.00  0.00    -0.016 A 
ATOM      8  C8  IND d   1      -1.332  -0.204   0.500  0.00  0.00    -0.047 A 
ATOM      9  C9  IND d   1      -0.618  -1.409   0.493  0.00  0.00    -0.096 A 
ATOM     10  HN1 IND d   1      -0.766   1.562  -0.264  0.00  0.00     0.298 HD
ENDROOT
TORSDOF 0
ENDMDL
