MODEL 1
REMARK minimizedAffinity -5.16888666
REMARK minimizedRMSD -1
REMARK  0 active torsions:
REMARK  status: ('A' for Active; 'I' for Inactive)
ROOT
ATOM      1  N1  IND d   1      -0.033   0.971   0.049  0.00  0.00    -0.196 N 
ATOM      2  C2  IND d   1       1.202   0.491  -0.288  0.00  0.00     0.054 A 
ATOM      3  C3  IND d   1       1.287  -0.828  -0.003  0.00  0.00    -0.031 A 
ATOM      4  C4  IND d   1      -0.511  -2.421   0.922  0.00  0.00     0.051 A 
ATOM      5  C5  IND d   1      -1.785  -2.436   1.416  0.00  0.00    -0.031 A 
ATOM      6  C6  IND d   1      -2.557  -1.294   1.478  0.00  0.00     0.015 A 
ATOM      7  C7  IND d   1      -2.085  -0.091   1.035  0.00  0.00    -0.016 A 
ATOM      8  C8  IND d   1      -0.789  -0.070   0.540  0.00  0.00    -0.047 A 
ATOM      9  C9  IND d   1       0.014  -1.218   0.515  0.00  0.00    -0.096 A 
ATOM     10  HN1 IND d   1      -0.293   1.786  -0.033  0.00  0.00     0.298 HD
ENDROOT
TORSDOF 0
ENDMDL
