MODEL 1
REMARK minimizedAffinity -2.42190671
REMARK minimizedRMSD -1
REMARK  0 active torsions:
REMARK  status: ('A' for Active; 'I' for Inactive)
ROOT
ATOM      1  C4' PXY d   1      -0.907  -1.456  -0.612  0.00  0.00     0.077 C 
ATOM      2  C1' PXY d   1       2.573   2.670   1.456  0.00  0.00     0.077 C 
ATOM      3  C1  PXY d   1       1.655   1.586   0.926  0.00  0.00    -0.082 A 
ATOM      4  C2  PXY d   1       2.001   0.907  -0.156  0.00  0.00     0.003 A 
ATOM      5  C3  PXY d   1       1.168  -0.054  -0.667  0.00  0.00     0.003 A 
ATOM      6  C4  PXY d   1      -0.007  -0.360  -0.035  0.00  0.00    -0.082 A 
ATOM      7  C5  PXY d   1      -0.362   0.321   1.075  0.00  0.00     0.003 A 
ATOM      8  C6  PXY d   1       0.478   1.321   1.555  0.00  0.00     0.003 A 
ENDROOT
TORSDOF 0
ENDMDL
