MODEL 1
REMARK minimizedAffinity -4.82731104
REMARK minimizedRMSD -1
REMARK  0 active torsions:
REMARK  status: ('A' for Active; 'I' for Inactive)
ROOT
ATOM      1  C4' PXY d   1      -0.672  -1.754  -0.918  0.00  0.00     0.077 C 
ATOM      2  C1' PXY d   1       1.514   2.840   1.828  0.00  0.00     0.077 C 
ATOM      3  C1  PXY d   1       0.934   1.632   1.118  0.00  0.00    -0.082 A 
ATOM      4  C2  PXY d   1       1.559   1.129   0.066  0.00  0.00     0.003 A 
ATOM      5  C3  PXY d   1       1.032   0.056  -0.606  0.00  0.00     0.003 A 
ATOM      6  C4  PXY d   1      -0.119  -0.541  -0.165  0.00  0.00    -0.082 A 
ATOM      7  C5  PXY d   1      -0.756  -0.040   0.914  0.00  0.00     0.003 A 
ATOM      8  C6  PXY d   1      -0.227   1.075   1.558  0.00  0.00     0.003 A 
ENDROOT
TORSDOF 0
ENDMDL
