MODEL 1
REMARK minimizedAffinity -5.49167204
REMARK minimizedRMSD -1
REMARK  0 active torsions:
REMARK  status: ('A' for Active; 'I' for Inactive)
ROOT
ATOM      1  C4' PXY d   1      -0.993  -2.168  -0.768  0.00  0.00     0.077 C 
ATOM      2  C1' PXY d   1       1.801   2.550   1.061  0.00  0.00     0.077 C 
ATOM      3  C1  PXY d   1       1.076   1.312   0.571  0.00  0.00    -0.082 A 
ATOM      4  C2  PXY d   1      -0.175   1.096   0.944  0.00  0.00     0.003 A 
ATOM      5  C3  PXY d   1      -0.835  -0.035   0.536  0.00  0.00     0.003 A 
ATOM      6  C4  PXY d   1      -0.226  -0.927  -0.305  0.00  0.00    -0.082 A 
ATOM      7  C5  PXY d   1       1.047  -0.708  -0.699  0.00  0.00     0.003 A 
ATOM      8  C6  PXY d   1       1.713   0.425  -0.240  0.00  0.00     0.003 A 
ENDROOT
TORSDOF 0
ENDMDL
