MODEL 1
REMARK minimizedAffinity -5.68953848
REMARK minimizedRMSD -1
REMARK  0 active torsions:
REMARK  status: ('A' for Active; 'I' for Inactive)
ROOT
ATOM      1  C4' PXY d   1      -0.700  -1.826  -1.153  0.00  0.00     0.077 C 
ATOM      2  C1' PXY d   1       1.583   3.060   0.928  0.00  0.00     0.077 C 
ATOM      3  C1  PXY d   1       0.992   1.780   0.372  0.00  0.00    -0.082 A 
ATOM      4  C2  PXY d   1      -0.185   1.359   0.808  0.00  0.00     0.003 A 
ATOM      5  C3  PXY d   1      -0.720   0.187   0.338  0.00  0.00     0.003 A 
ATOM      6  C4  PXY d   1      -0.069  -0.534  -0.626  0.00  0.00    -0.082 A 
ATOM      7  C5  PXY d   1       1.127  -0.106  -1.084  0.00  0.00     0.003 A 
ATOM      8  C6  PXY d   1       1.672   1.064  -0.565  0.00  0.00     0.003 A 
ENDROOT
TORSDOF 0
ENDMDL
