MODEL 1
REMARK minimizedAffinity -4.25960588
REMARK minimizedRMSD -1
REMARK  0 active torsions:
REMARK  status: ('A' for Active; 'I' for Inactive)
ROOT
ATOM      1  C4' PXY d   1       1.001   3.132   1.386  0.00  0.00     0.077 C 
ATOM      2  C1' PXY d   1      -0.935  -1.812  -0.900  0.00  0.00     0.077 C 
ATOM      3  C1  PXY d   1      -0.439  -0.514  -0.295  0.00  0.00    -0.082 A 
ATOM      4  C2  PXY d   1       0.555   0.141  -0.875  0.00  0.00     0.003 A 
ATOM      5  C3  PXY d   1       1.037   1.300  -0.323  0.00  0.00     0.003 A 
ATOM      6  C4  PXY d   1       0.462   1.822   0.805  0.00  0.00    -0.082 A 
ATOM      7  C5  PXY d   1      -0.559   1.166   1.396  0.00  0.00     0.003 A 
ATOM      8  C6  PXY d   1      -1.007  -0.031   0.843  0.00  0.00     0.003 A 
ENDROOT
TORSDOF 0
ENDMDL
