MODEL 1
REMARK minimizedAffinity -2.97159266
REMARK minimizedRMSD -1
REMARK  0 active torsions:
REMARK  status: ('A' for Active; 'I' for Inactive)
ROOT
ATOM      1  C4' PXY d   1      -0.835  -2.148   0.434  0.00  0.00     0.077 C 
ATOM      2  C1' PXY d   1       1.171   3.250   0.936  0.00  0.00     0.077 C 
ATOM      3  C1  PXY d   1       0.648   1.835   0.792  0.00  0.00    -0.082 A 
ATOM      4  C2  PXY d   1      -0.253   1.380   1.647  0.00  0.00     0.003 A 
ATOM      5  C3  PXY d   1      -0.713   0.092   1.550  0.00  0.00     0.003 A 
ATOM      6  C4  PXY d   1      -0.286  -0.722   0.536  0.00  0.00    -0.082 A 
ATOM      7  C5  PXY d   1       0.625  -0.262  -0.348  0.00  0.00     0.003 A 
ATOM      8  C6  PXY d   1       1.111   1.035  -0.207  0.00  0.00     0.003 A 
ENDROOT
TORSDOF 0
ENDMDL
