MODEL 1
REMARK minimizedAffinity -4.47307444
REMARK minimizedRMSD -1
REMARK  0 active torsions:
REMARK  status: ('A' for Active; 'I' for Inactive)
ROOT
ATOM      1  C4' PXY d   1       2.361  -0.713  -0.906  0.00  0.00     0.077 C 
ATOM      2  C1' PXY d   1      -2.284   0.008   2.458  0.00  0.00     0.077 C 
ATOM      3  C1  PXY d   1      -1.065  -0.168   1.574  0.00  0.00    -0.082 A 
ATOM      4  C2  PXY d   1      -0.903  -1.295   0.900  0.00  0.00     0.003 A 
ATOM      5  C3  PXY d   1       0.210  -1.483   0.122  0.00  0.00     0.003 A 
ATOM      6  C4  PXY d   1       1.141  -0.487  -0.009  0.00  0.00    -0.082 A 
ATOM      7  C5  PXY d   1       0.977   0.669   0.667  0.00  0.00     0.003 A 
ATOM      8  C6  PXY d   1      -0.139   0.825   1.484  0.00  0.00     0.003 A 
ENDROOT
TORSDOF 0
ENDMDL
