MODEL 1
REMARK minimizedAffinity -2.82992578
REMARK minimizedRMSD -1
REMARK  0 active torsions:
REMARK  status: ('A' for Active; 'I' for Inactive)
ROOT
ATOM      1  C4' PXY d   1      -0.981  -1.848  -1.427  0.00  0.00     0.077 C 
ATOM      2  C1' PXY d   1       1.133   2.658   1.513  0.00  0.00     0.077 C 
ATOM      3  C1  PXY d   1       0.572   1.473   0.753  0.00  0.00    -0.082 A 
ATOM      4  C2  PXY d   1       1.246   0.974  -0.270  0.00  0.00     0.003 A 
ATOM      5  C3  PXY d   1       0.738  -0.078  -0.989  0.00  0.00     0.003 A 
ATOM      6  C4  PXY d   1      -0.448  -0.658  -0.624  0.00  0.00    -0.082 A 
ATOM      7  C5  PXY d   1      -1.137  -0.161   0.425  0.00  0.00     0.003 A 
ATOM      8  C6  PXY d   1      -0.623   0.933   1.116  0.00  0.00     0.003 A 
ENDROOT
TORSDOF 0
ENDMDL
