MODEL 1
REMARK minimizedAffinity -3.31886625
REMARK minimizedRMSD -1
REMARK  0 active torsions:
REMARK  status: ('A' for Active; 'I' for Inactive)
ROOT
ATOM      1  C4' PXY d   1      -0.748  -1.814  -0.417  0.00  0.00     0.077 C 
ATOM      2  C1' PXY d   1       1.278   3.261   1.468  0.00  0.00     0.077 C 
ATOM      3  C1  PXY d   1       0.751   1.933   0.962  0.00  0.00    -0.082 A 
ATOM      4  C2  PXY d   1      -0.232   1.329   1.610  0.00  0.00     0.003 A 
ATOM      5  C3  PXY d   1      -0.699   0.112   1.184  0.00  0.00     0.003 A 
ATOM      6  C4  PXY d   1      -0.191  -0.468   0.052  0.00  0.00    -0.082 A 
ATOM      7  C5  PXY d   1       0.805   0.147  -0.621  0.00  0.00     0.003 A 
ATOM      8  C6  PXY d   1       1.293   1.362  -0.149  0.00  0.00     0.003 A 
ENDROOT
TORSDOF 0
ENDMDL
