MODEL 1
REMARK minimizedAffinity -4.55493212
REMARK minimizedRMSD -1
REMARK  0 active torsions:
REMARK  status: ('A' for Active; 'I' for Inactive)
ROOT
ATOM      1  C4' PXY d   1      -0.920  -1.508  -0.732  0.00  0.00     0.077 C 
ATOM      2  C1' PXY d   1       1.693   3.199   1.372  0.00  0.00     0.077 C 
ATOM      3  C1  PXY d   1       1.005   1.960   0.832  0.00  0.00    -0.082 A 
ATOM      4  C2  PXY d   1       1.303   1.523  -0.380  0.00  0.00     0.003 A 
ATOM      5  C3  PXY d   1       0.667   0.423  -0.896  0.00  0.00     0.003 A 
ATOM      6  C4  PXY d   1      -0.244  -0.267  -0.143  0.00  0.00    -0.082 A 
ATOM      7  C5  PXY d   1      -0.545   0.166   1.099  0.00  0.00     0.003 A 
ATOM      8  C6  PXY d   1       0.081   1.309   1.589  0.00  0.00     0.003 A 
ENDROOT
TORSDOF 0
ENDMDL
