MODEL 1
REMARK minimizedAffinity -5.20378494
REMARK minimizedRMSD -1
REMARK  0 active torsions:
REMARK  status: ('A' for Active; 'I' for Inactive)
ROOT
ATOM      1  C4' PXY d   1      -1.183  -2.001  -0.304  0.00  0.00     0.077 C 
ATOM      2  C1' PXY d   1       1.313   3.014   1.120  0.00  0.00     0.077 C 
ATOM      3  C1  PXY d   1       0.654   1.698   0.759  0.00  0.00    -0.082 A 
ATOM      4  C2  PXY d   1       1.082   1.019  -0.293  0.00  0.00     0.003 A 
ATOM      5  C3  PXY d   1       0.477  -0.157  -0.653  0.00  0.00     0.003 A 
ATOM      6  C4  PXY d   1      -0.542  -0.672   0.104  0.00  0.00    -0.082 A 
ATOM      7  C5  PXY d   1      -0.977   0.009   1.185  0.00  0.00     0.003 A 
ATOM      8  C6  PXY d   1      -0.376   1.222   1.509  0.00  0.00     0.003 A 
ENDROOT
TORSDOF 0
ENDMDL
