MODEL 1
REMARK minimizedAffinity -4.3973608
REMARK minimizedRMSD -1
REMARK  0 active torsions:
REMARK  status: ('A' for Active; 'I' for Inactive)
ROOT
ATOM      1  C4' PXY d   1      -0.841  -1.445  -1.088  0.00  0.00     0.077 C 
ATOM      2  C1' PXY d   1       1.870   2.830   1.704  0.00  0.00     0.077 C 
ATOM      3  C1  PXY d   1       1.155   1.704   0.983  0.00  0.00    -0.082 A 
ATOM      4  C2  PXY d   1       1.570   1.327  -0.215  0.00  0.00     0.003 A 
ATOM      5  C3  PXY d   1       0.915   0.332  -0.894  0.00  0.00     0.003 A 
ATOM      6  C4  PXY d   1      -0.143  -0.319  -0.319  0.00  0.00    -0.082 A 
ATOM      7  C5  PXY d   1      -0.566   0.053   0.907  0.00  0.00     0.003 A 
ATOM      8  C6  PXY d   1       0.087   1.093   1.563  0.00  0.00     0.003 A 
ENDROOT
TORSDOF 0
ENDMDL
