MODEL 1
REMARK minimizedAffinity -5.52522993
REMARK minimizedRMSD -1
REMARK  0 active torsions:
REMARK  status: ('A' for Active; 'I' for Inactive)
ROOT
ATOM      1  C4' PXY d   1       1.365   2.860   1.343  0.00  0.00     0.077 C 
ATOM      2  C1' PXY d   1      -1.130  -1.814  -0.968  0.00  0.00     0.077 C 
ATOM      3  C1  PXY d   1      -0.486  -0.585  -0.356  0.00  0.00    -0.082 A 
ATOM      4  C2  PXY d   1       0.542  -0.014  -0.962  0.00  0.00     0.003 A 
ATOM      5  C3  PXY d   1       1.155   1.078  -0.406  0.00  0.00     0.003 A 
ATOM      6  C4  PXY d   1       0.679   1.624   0.756  0.00  0.00    -0.082 A 
ATOM      7  C5  PXY d   1      -0.376   1.053   1.375  0.00  0.00     0.003 A 
ATOM      8  C6  PXY d   1      -0.959  -0.080   0.815  0.00  0.00     0.003 A 
ENDROOT
TORSDOF 0
ENDMDL
