MODEL 1
REMARK minimizedAffinity -3.92429376
REMARK minimizedRMSD -1
REMARK  0 active torsions:
REMARK  status: ('A' for Active; 'I' for Inactive)
ROOT
ATOM      1  C4' PXY d   1       1.935   3.030   0.898  0.00  0.00     0.077 C 
ATOM      2  C1' PXY d   1      -1.065  -1.563  -0.925  0.00  0.00     0.077 C 
ATOM      3  C1  PXY d   1      -0.268  -0.366  -0.446  0.00  0.00    -0.082 A 
ATOM      4  C2  PXY d   1      -0.892   0.648   0.132  0.00  0.00     0.003 A 
ATOM      5  C3  PXY d   1      -0.190   1.752   0.542  0.00  0.00     0.003 A 
ATOM      6  C4  PXY d   1       1.171   1.797   0.408  0.00  0.00    -0.082 A 
ATOM      7  C5  PXY d   1       1.817   0.762  -0.171  0.00  0.00     0.003 A 
ATOM      8  C6  PXY d   1       1.082  -0.332  -0.618  0.00  0.00     0.003 A 
ENDROOT
TORSDOF 0
ENDMDL
