MODEL 1
REMARK minimizedAffinity -5.07377481
REMARK minimizedRMSD -1
REMARK  0 active torsions:
REMARK  status: ('A' for Active; 'I' for Inactive)
ROOT
ATOM      1  C4' PXY d   1      -0.864  -1.537  -1.241  0.00  0.00     0.077 C 
ATOM      2  C1' PXY d   1       1.252   3.123   1.447  0.00  0.00     0.077 C 
ATOM      3  C1  PXY d   1       0.692   1.896   0.753  0.00  0.00    -0.082 A 
ATOM      4  C2  PXY d   1       1.226   1.490  -0.387  0.00  0.00     0.003 A 
ATOM      5  C3  PXY d   1       0.711   0.402  -1.044  0.00  0.00     0.003 A 
ATOM      6  C4  PXY d   1      -0.325  -0.309  -0.501  0.00  0.00    -0.082 A 
ATOM      7  C5  PXY d   1      -0.868   0.093   0.668  0.00  0.00     0.003 A 
ATOM      8  C6  PXY d   1      -0.358   1.224   1.298  0.00  0.00     0.003 A 
ENDROOT
TORSDOF 0
ENDMDL
