MODEL 1
REMARK minimizedAffinity -5.1605587
REMARK minimizedRMSD -1
REMARK  0 active torsions:
REMARK  status: ('A' for Active; 'I' for Inactive)
ROOT
ATOM      1  C4' PXY d   1      -0.729  -1.545  -0.835  0.00  0.00     0.077 C 
ATOM      2  C1' PXY d   1       1.812   3.125   1.435  0.00  0.00     0.077 C 
ATOM      3  C1  PXY d   1       1.138   1.899   0.850  0.00  0.00    -0.082 A 
ATOM      4  C2  PXY d   1       1.762   1.188  -0.074  0.00  0.00     0.003 A 
ATOM      5  C3  PXY d   1       1.155   0.095  -0.637  0.00  0.00     0.003 A 
ATOM      6  C4  PXY d   1      -0.083  -0.305  -0.210  0.00  0.00    -0.082 A 
ATOM      7  C5  PXY d   1      -0.722   0.409   0.741  0.00  0.00     0.003 A 
ATOM      8  C6  PXY d   1      -0.105   1.539   1.269  0.00  0.00     0.003 A 
ENDROOT
TORSDOF 0
ENDMDL
