MODEL 1
REMARK minimizedAffinity -3.09213328
REMARK minimizedRMSD -1
REMARK  0 active torsions:
REMARK  status: ('A' for Active; 'I' for Inactive)
ROOT
ATOM      1  C4' PXY d   1      -1.581  -1.707  -2.916  0.00  0.00     0.077 C 
ATOM      2  C1' PXY d   1      -0.014   1.349   1.734  0.00  0.00     0.077 C 
ATOM      3  C1  PXY d   1      -0.415   0.539   0.516  0.00  0.00    -0.082 A 
ATOM      4  C2  PXY d   1      -1.127   1.109  -0.442  0.00  0.00     0.003 A 
ATOM      5  C3  PXY d   1      -1.526   0.383  -1.535  0.00  0.00     0.003 A 
ATOM      6  C4  PXY d   1      -1.146  -0.926  -1.673  0.00  0.00    -0.082 A 
ATOM      7  C5  PXY d   1      -0.411  -1.511  -0.704  0.00  0.00     0.003 A 
ATOM      8  C6  PXY d   1      -0.051  -0.768   0.417  0.00  0.00     0.003 A 
ENDROOT
TORSDOF 0
ENDMDL
