MODEL 1
REMARK minimizedAffinity -5.3966713
REMARK minimizedRMSD -1
REMARK  0 active torsions:
REMARK  status: ('A' for Active; 'I' for Inactive)
ROOT
ATOM      1  C4' PXY d   1       1.190   2.651   1.524  0.00  0.00     0.077 C 
ATOM      2  C1' PXY d   1      -1.203  -2.086  -0.769  0.00  0.00     0.077 C 
ATOM      3  C1  PXY d   1      -0.587  -0.840  -0.162  0.00  0.00    -0.082 A 
ATOM      4  C2  PXY d   1       0.501  -0.318  -0.705  0.00  0.00     0.003 A 
ATOM      5  C3  PXY d   1       1.089   0.789  -0.150  0.00  0.00     0.003 A 
ATOM      6  C4  PXY d   1       0.528   1.399   0.939  0.00  0.00    -0.082 A 
ATOM      7  C5  PXY d   1      -0.588   0.879   1.492  0.00  0.00     0.003 A 
ATOM      8  C6  PXY d   1      -1.147  -0.270   0.939  0.00  0.00     0.003 A 
ENDROOT
TORSDOF 0
ENDMDL
