MODEL 1
REMARK minimizedAffinity -1.6972847
REMARK minimizedRMSD -1
REMARK  0 active torsions:
REMARK  status: ('A' for Active; 'I' for Inactive)
ROOT
ATOM      1  C4' PXY d   1      -1.869   1.479   2.278  0.00  0.00     0.077 C 
ATOM      2  C1' PXY d   1       2.350  -0.585  -1.091  0.00  0.00     0.077 C 
ATOM      3  C1  PXY d   1       1.253  -0.038  -0.200  0.00  0.00    -0.082 A 
ATOM      4  C2  PXY d   1       0.070  -0.631  -0.180  0.00  0.00     0.003 A 
ATOM      5  C3  PXY d   1      -0.944  -0.131   0.596  0.00  0.00     0.003 A 
ATOM      6  C4  PXY d   1      -0.729   0.956   1.401  0.00  0.00    -0.082 A 
ATOM      7  C5  PXY d   1       0.478   1.560   1.394  0.00  0.00     0.003 A 
ATOM      8  C6  PXY d   1       1.482   1.062   0.568  0.00  0.00     0.003 A 
ENDROOT
TORSDOF 0
ENDMDL
