MODEL 1
REMARK minimizedAffinity -6.56819391
REMARK minimizedRMSD -1
REMARK  2 active torsions:
REMARK  status: ('A' for Active; 'I' for Inactive)
REMARK    1  A    between atoms: C2'_3  and  C1'_4 
REMARK    2  A    between atoms: C1'_4  and  C1_5 
ROOT
ATOM      1  C1  I4B d   1       1.584  -0.679  -0.028  0.00  0.00    -0.075 A 
ATOM      2  C2  I4B d   1       0.781  -0.187   0.970  0.00  0.00     0.003 A 
ATOM      3  C3  I4B d   1       1.083  -0.457   2.327  0.00  0.00     0.002 A 
ATOM      4  C4  I4B d   1       2.161  -1.260   2.636  0.00  0.00    -0.004 A 
ATOM      5  C5  I4B d   1       2.988  -1.739   1.624  0.00  0.00     0.002 A 
ATOM      6  C6  I4B d   1       2.705  -1.437   0.284  0.00  0.00     0.003 A 
ENDROOT
BRANCH   1   7
ATOM      7  C1' I4B d   1       1.217  -0.402  -1.451  0.00  0.00     0.060 C 
BRANCH   7   8
ATOM      8  C2' I4B d   1       0.325   0.823  -1.474  0.00  0.00    -0.013 C 
ATOM      9  C4' I4B d   1       0.862   1.871  -2.412  0.00  0.00     0.013 C 
ATOM     10  C3' I4B d   1      -1.051   0.386  -1.880  0.00  0.00     0.013 C 
ENDBRANCH   7   8
ENDBRANCH   1   7
TORSDOF 2
ENDMDL
