MODEL 1
REMARK minimizedAffinity -4.45121527
REMARK minimizedRMSD -1
REMARK  2 active torsions:
REMARK  status: ('A' for Active; 'I' for Inactive)
REMARK    1  A    between atoms: C2'_3  and  C1'_4 
REMARK    2  A    between atoms: C1'_4  and  C1_5 
ROOT
ATOM      1  C1  I4B d   1       0.852  -0.795   0.369  0.00  0.00    -0.075 A 
ATOM      2  C2  I4B d   1       0.209  -0.429   1.525  0.00  0.00     0.003 A 
ATOM      3  C3  I4B d   1       0.711  -0.845   2.782  0.00  0.00     0.002 A 
ATOM      4  C4  I4B d   1       1.821  -1.663   2.834  0.00  0.00    -0.004 A 
ATOM      5  C5  I4B d   1       2.485  -2.014   1.662  0.00  0.00     0.002 A 
ATOM      6  C6  I4B d   1       2.005  -1.568   0.422  0.00  0.00     0.003 A 
ENDROOT
BRANCH   1   7
ATOM      7  C1' I4B d   1       0.276  -0.365  -0.943  0.00  0.00     0.060 C 
BRANCH   7   8
ATOM      8  C2' I4B d   1      -0.952   0.476  -0.660  0.00  0.00    -0.013 C 
ATOM      9  C4' I4B d   1      -1.429   1.180  -1.904  0.00  0.00     0.013 C 
ATOM     10  C3' I4B d   1      -2.014  -0.426  -0.107  0.00  0.00     0.013 C 
ENDBRANCH   7   8
ENDBRANCH   1   7
TORSDOF 2
ENDMDL
