MODEL 1
REMARK minimizedAffinity -4.03798819
REMARK minimizedRMSD -1
REMARK  2 active torsions:
REMARK  status: ('A' for Active; 'I' for Inactive)
REMARK    1  A    between atoms: C2'_3  and  C1'_4 
REMARK    2  A    between atoms: C1'_4  and  C1_5 
ROOT
ATOM      1  C1  I4B d   1       0.283  -1.136   0.889  0.00  0.00    -0.075 A 
ATOM      2  C2  I4B d   1       0.030  -1.333   2.223  0.00  0.00     0.003 A 
ATOM      3  C3  I4B d   1       0.871  -2.174   2.992  0.00  0.00     0.002 A 
ATOM      4  C4  I4B d   1       1.916  -2.834   2.378  0.00  0.00    -0.004 A 
ATOM      5  C5  I4B d   1       2.184  -2.616   1.030  0.00  0.00     0.002 A 
ATOM      6  C6  I4B d   1       1.370  -1.752   0.283  0.00  0.00     0.003 A 
ENDROOT
BRANCH   1   7
ATOM      7  C1' I4B d   1      -0.644  -0.267   0.100  0.00  0.00     0.060 C 
BRANCH   7   8
ATOM      8  C2' I4B d   1      -0.011  -0.017  -1.254  0.00  0.00    -0.013 C 
ATOM      9  C4' I4B d   1      -0.098  -1.238  -2.130  0.00  0.00     0.013 C 
ATOM     10  C3' I4B d   1      -0.710   1.151  -1.883  0.00  0.00     0.013 C 
ENDBRANCH   7   8
ENDBRANCH   1   7
TORSDOF 2
ENDMDL
