MODEL 1
REMARK minimizedAffinity -5.85290527
REMARK minimizedRMSD -1
REMARK  2 active torsions:
REMARK  status: ('A' for Active; 'I' for Inactive)
REMARK    1  A    between atoms: C2'_3  and  C1'_4 
REMARK    2  A    between atoms: C1'_4  and  C1_5 
ROOT
ATOM      1  C1  I4B d   1       1.045  -0.198   0.896  0.00  0.00    -0.075 A 
ATOM      2  C2  I4B d   1       1.786  -1.186   0.296  0.00  0.00     0.003 A 
ATOM      3  C3  I4B d   1       2.374  -2.209   1.077  0.00  0.00     0.002 A 
ATOM      4  C4  I4B d   1       2.239  -2.179   2.450  0.00  0.00    -0.004 A 
ATOM      5  C5  I4B d   1       1.469  -1.190   3.055  0.00  0.00     0.002 A 
ATOM      6  C6  I4B d   1       0.857  -0.200   2.272  0.00  0.00     0.003 A 
ENDROOT
BRANCH   1   7
ATOM      7  C1' I4B d   1       0.465   0.886   0.044  0.00  0.00     0.060 C 
BRANCH   7   8
ATOM      8  C2' I4B d   1      -0.820   0.364  -0.565  0.00  0.00    -0.013 C 
ATOM      9  C4' I4B d   1      -1.952   0.409   0.427  0.00  0.00     0.013 C 
ATOM     10  C3' I4B d   1      -1.129   1.194  -1.776  0.00  0.00     0.013 C 
ENDBRANCH   7   8
ENDBRANCH   1   7
TORSDOF 2
ENDMDL
