MODEL 1
REMARK minimizedAffinity 9.47279644
REMARK minimizedRMSD -1
REMARK  1 active torsions:
REMARK  status: ('A' for Active; 'I' for Inactive)
REMARK    1  A    between atoms: C3_4  and  O_7 
ROOT
ATOM      1  C   UNL d   1      -0.775   1.855   2.555  0.00  0.00    -0.033 A 
ATOM      2  C1  UNL d   1      -1.852   2.737   2.445  0.00  0.00     0.039 A 
ATOM      3  C2  UNL d   1      -3.155   2.280   2.657  0.00  0.00    -0.080 A 
ATOM      4  C3  UNL d   1      -3.366   0.943   2.979  0.00  0.00     0.150 A 
ATOM      5  C4  UNL d   1      -2.297   0.060   3.094  0.00  0.00    -0.007 A 
ATOM      6  C5  UNL d   1      -0.997   0.517   2.881  0.00  0.00     0.039 A 
ENDROOT
BRANCH   4   7
ATOM      7  O   UNL d   1      -4.619   0.450   3.190  0.00  0.00    -0.526 OA
ATOM      8  H5  UNL d   1      -5.260   1.167   3.048  0.00  0.00     0.418 HD
ENDBRANCH   4   7
TORSDOF 1
ENDMDL
