MODEL 1
REMARK minimizedAffinity 4.0033288
REMARK minimizedRMSD -1
REMARK  1 active torsions:
REMARK  status: ('A' for Active; 'I' for Inactive)
REMARK    1  A    between atoms: C3_4  and  O_7 
ROOT
ATOM      1  C   UNL d   1       5.984   3.859  -3.813  0.00  0.00    -0.033 A 
ATOM      2  C1  UNL d   1       6.000   5.026  -4.578  0.00  0.00     0.039 A 
ATOM      3  C2  UNL d   1       4.800   5.617  -4.978  0.00  0.00    -0.080 A 
ATOM      4  C3  UNL d   1       3.593   5.032  -4.606  0.00  0.00     0.150 A 
ATOM      5  C4  UNL d   1       3.569   3.871  -3.841  0.00  0.00    -0.007 A 
ATOM      6  C5  UNL d   1       4.769   3.282  -3.443  0.00  0.00     0.039 A 
ENDROOT
BRANCH   4   7
ATOM      7  O   UNL d   1       2.396   5.570  -4.977  0.00  0.00    -0.526 OA
ATOM      8  H5  UNL d   1       2.568   6.353  -5.526  0.00  0.00     0.418 HD
ENDBRANCH   4   7
TORSDOF 1
ENDMDL
