MODEL 1
REMARK minimizedAffinity 1.84436047
REMARK minimizedRMSD -1
REMARK  1 active torsions:
REMARK  status: ('A' for Active; 'I' for Inactive)
REMARK    1  A    between atoms: C3_4  and  O_7 
ROOT
ATOM      1  C   UNL d   1       3.378   1.397   0.032  0.00  0.00    -0.033 A 
ATOM      2  C1  UNL d   1       2.253   0.572   0.091  0.00  0.00     0.039 A 
ATOM      3  C2  UNL d   1       1.137   0.962   0.835  0.00  0.00    -0.080 A 
ATOM      4  C3  UNL d   1       1.159   2.177   1.513  0.00  0.00     0.150 A 
ATOM      5  C4  UNL d   1       2.275   3.006   1.456  0.00  0.00    -0.007 A 
ATOM      6  C5  UNL d   1       3.388   2.614   0.713  0.00  0.00     0.039 A 
ENDROOT
BRANCH   4   7
ATOM      7  O   UNL d   1       0.096   2.598   2.256  0.00  0.00    -0.526 OA
ATOM      8  H5  UNL d   1      -0.591   1.911   2.227  0.00  0.00     0.418 HD
ENDBRANCH   4   7
TORSDOF 1
ENDMDL
