MODEL 1
REMARK minimizedAffinity 4.26962423
REMARK minimizedRMSD -1
REMARK  1 active torsions:
REMARK  status: ('A' for Active; 'I' for Inactive)
REMARK    1  A    between atoms: C3_4  and  O_7 
ROOT
ATOM      1  C   UNL d   1       1.950   1.916   0.234  0.00  0.00    -0.033 A 
ATOM      2  C1  UNL d   1       1.812   0.739  -0.504  0.00  0.00     0.039 A 
ATOM      3  C2  UNL d   1       1.192  -0.376   0.065  0.00  0.00    -0.080 A 
ATOM      4  C3  UNL d   1       0.714  -0.300   1.370  0.00  0.00     0.150 A 
ATOM      5  C4  UNL d   1       0.845   0.871   2.110  0.00  0.00    -0.007 A 
ATOM      6  C5  UNL d   1       1.465   1.983   1.540  0.00  0.00     0.039 A 
ENDROOT
BRANCH   4   7
ATOM      7  O   UNL d   1       0.107  -1.363   1.969  0.00  0.00    -0.526 OA
ATOM      8  H5  UNL d   1       0.113  -2.111   1.349  0.00  0.00     0.418 HD
ENDBRANCH   4   7
TORSDOF 1
ENDMDL
