MODEL 1
REMARK minimizedAffinity 8.21098042
REMARK minimizedRMSD -1
REMARK  1 active torsions:
REMARK  status: ('A' for Active; 'I' for Inactive)
REMARK    1  A    between atoms: C3_4  and  O_7 
ROOT
ATOM      1  C   UNL d   1       1.280   0.475   1.540  0.00  0.00    -0.033 A 
ATOM      2  C1  UNL d   1       0.383   1.236   2.294  0.00  0.00     0.039 A 
ATOM      3  C2  UNL d   1       0.266   2.608   2.066  0.00  0.00    -0.080 A 
ATOM      4  C3  UNL d   1       1.048   3.207   1.082  0.00  0.00     0.150 A 
ATOM      5  C4  UNL d   1       1.940   2.455   0.325  0.00  0.00    -0.007 A 
ATOM      6  C5  UNL d   1       2.057   1.085   0.555  0.00  0.00     0.039 A 
ENDROOT
BRANCH   4   7
ATOM      7  O   UNL d   1       0.971   4.544   0.827  0.00  0.00    -0.526 OA
ATOM      8  H5  UNL d   1       0.335   4.939   1.446  0.00  0.00     0.418 HD
ENDBRANCH   4   7
TORSDOF 1
ENDMDL
