MODEL 1
REMARK minimizedAffinity 3.64221382
REMARK minimizedRMSD -1
REMARK  1 active torsions:
REMARK  status: ('A' for Active; 'I' for Inactive)
REMARK    1  A    between atoms: C3_4  and  O_7 
ROOT
ATOM      1  C   UNL d   1       3.211   1.756   0.110  0.00  0.00    -0.033 A 
ATOM      2  C1  UNL d   1       2.136   0.866   0.168  0.00  0.00     0.039 A 
ATOM      3  C2  UNL d   1       0.980   1.210   0.871  0.00  0.00    -0.080 A 
ATOM      4  C3  UNL d   1       0.911   2.445   1.510  0.00  0.00     0.150 A 
ATOM      5  C4  UNL d   1       1.977   3.338   1.453  0.00  0.00    -0.007 A 
ATOM      6  C5  UNL d   1       3.131   2.992   0.751  0.00  0.00     0.039 A 
ENDROOT
BRANCH   4   7
ATOM      7  O   UNL d   1      -0.194   2.824   2.212  0.00  0.00    -0.526 OA
ATOM      8  H5  UNL d   1      -0.838   2.096   2.189  0.00  0.00     0.418 HD
ENDBRANCH   4   7
TORSDOF 1
ENDMDL
