MODEL 1
REMARK minimizedAffinity 4.31160927
REMARK minimizedRMSD -1
REMARK  1 active torsions:
REMARK  status: ('A' for Active; 'I' for Inactive)
REMARK    1  A    between atoms: C3_4  and  O_7 
ROOT
ATOM      1  C   UNL d   1       2.085   2.049   1.352  0.00  0.00    -0.033 A 
ATOM      2  C1  UNL d   1       1.286   3.129   0.972  0.00  0.00     0.039 A 
ATOM      3  C2  UNL d   1      -0.021   3.235   1.450  0.00  0.00    -0.080 A 
ATOM      4  C3  UNL d   1      -0.517   2.257   2.308  0.00  0.00     0.150 A 
ATOM      5  C4  UNL d   1       0.275   1.180   2.694  0.00  0.00    -0.007 A 
ATOM      6  C5  UNL d   1       1.580   1.075   2.215  0.00  0.00     0.039 A 
ENDROOT
BRANCH   4   7
ATOM      7  O   UNL d   1      -1.788   2.315   2.797  0.00  0.00    -0.526 OA
ATOM      8  H5  UNL d   1      -2.226   3.097   2.422  0.00  0.00     0.418 HD
ENDBRANCH   4   7
TORSDOF 1
ENDMDL
