MODEL 1
REMARK minimizedAffinity 1.06380045
REMARK minimizedRMSD -1
REMARK  1 active torsions:
REMARK  status: ('A' for Active; 'I' for Inactive)
REMARK    1  A    between atoms: C3_4  and  O_7 
ROOT
ATOM      1  C   UNL d   1       1.543   2.233   1.942  0.00  0.00    -0.033 A 
ATOM      2  C1  UNL d   1       1.109   0.909   1.855  0.00  0.00     0.039 A 
ATOM      3  C2  UNL d   1      -0.249   0.608   1.971  0.00  0.00    -0.080 A 
ATOM      4  C3  UNL d   1      -1.162   1.639   2.173  0.00  0.00     0.150 A 
ATOM      5  C4  UNL d   1      -0.737   2.961   2.257  0.00  0.00    -0.007 A 
ATOM      6  C5  UNL d   1       0.620   3.259   2.141  0.00  0.00     0.039 A 
ENDROOT
BRANCH   4   7
ATOM      7  O   UNL d   1      -2.498   1.395   2.297  0.00  0.00    -0.526 OA
ATOM      8  H5  UNL d   1      -2.640   0.435   2.248  0.00  0.00     0.418 HD
ENDBRANCH   4   7
TORSDOF 1
ENDMDL
