MODEL 1
REMARK minimizedAffinity 6.34300518
REMARK minimizedRMSD -1
REMARK  1 active torsions:
REMARK  status: ('A' for Active; 'I' for Inactive)
REMARK    1  A    between atoms: C3_4  and  O_7 
ROOT
ATOM      1  C   UNL d   1       3.315   1.151  -0.157  0.00  0.00    -0.033 A 
ATOM      2  C1  UNL d   1       2.203   0.334   0.056  0.00  0.00     0.039 A 
ATOM      3  C2  UNL d   1       1.147   0.782   0.852  0.00  0.00    -0.080 A 
ATOM      4  C3  UNL d   1       1.215   2.048   1.427  0.00  0.00     0.150 A 
ATOM      5  C4  UNL d   1       2.318   2.869   1.215  0.00  0.00    -0.007 A 
ATOM      6  C5  UNL d   1       3.372   2.419   0.421  0.00  0.00     0.039 A 
ENDROOT
BRANCH   4   7
ATOM      7  O   UNL d   1       0.211   2.528   2.215  0.00  0.00    -0.526 OA
ATOM      8  H5  UNL d   1      -0.472   1.841   2.296  0.00  0.00     0.418 HD
ENDBRANCH   4   7
TORSDOF 1
ENDMDL
