MODEL 1
REMARK minimizedAffinity 4.56892014
REMARK minimizedRMSD -1
REMARK  1 active torsions:
REMARK  status: ('A' for Active; 'I' for Inactive)
REMARK    1  A    between atoms: C3_4  and  O_7 
ROOT
ATOM      1  C   UNL d   1       3.026   2.266   0.611  0.00  0.00    -0.033 A 
ATOM      2  C1  UNL d   1       2.539   1.111   1.224  0.00  0.00     0.039 A 
ATOM      3  C2  UNL d   1       1.364   1.160   1.977  0.00  0.00    -0.080 A 
ATOM      4  C3  UNL d   1       0.686   2.369   2.107  0.00  0.00     0.150 A 
ATOM      5  C4  UNL d   1       1.164   3.523   1.495  0.00  0.00    -0.007 A 
ATOM      6  C5  UNL d   1       2.338   3.472   0.745  0.00  0.00     0.039 A 
ENDROOT
BRANCH   4   7
ATOM      7  O   UNL d   1      -0.462   2.467   2.835  0.00  0.00    -0.526 OA
ATOM      8  H5  UNL d   1      -0.656   1.597   3.223  0.00  0.00     0.418 HD
ENDBRANCH   4   7
TORSDOF 1
ENDMDL
