MODEL 1
REMARK minimizedAffinity 1.17554009
REMARK minimizedRMSD -1
REMARK  1 active torsions:
REMARK  status: ('A' for Active; 'I' for Inactive)
REMARK    1  A    between atoms: C3_4  and  O_7 
ROOT
ATOM      1  C   UNL d   1       1.415  -0.800  -1.451  0.00  0.00    -0.033 A 
ATOM      2  C1  UNL d   1       1.866   0.376  -0.849  0.00  0.00     0.039 A 
ATOM      3  C2  UNL d   1       1.482   1.617  -1.361  0.00  0.00    -0.080 A 
ATOM      4  C3  UNL d   1       0.647   1.668  -2.474  0.00  0.00     0.150 A 
ATOM      5  C4  UNL d   1       0.191   0.500  -3.077  0.00  0.00    -0.007 A 
ATOM      6  C5  UNL d   1       0.576  -0.738  -2.564  0.00  0.00     0.039 A 
ENDROOT
BRANCH   4   7
ATOM      7  O   UNL d   1       0.249   2.855  -3.013  0.00  0.00    -0.526 OA
ATOM      8  H5  UNL d   1       0.665   3.575  -2.510  0.00  0.00     0.418 HD
ENDBRANCH   4   7
TORSDOF 1
ENDMDL
