MODEL 1
REMARK minimizedAffinity 4.65922689
REMARK minimizedRMSD -1
REMARK  1 active torsions:
REMARK  status: ('A' for Active; 'I' for Inactive)
REMARK    1  A    between atoms: C3_4  and  O_7 
ROOT
ATOM      1  C   UNL d   1       3.094   1.389   0.183  0.00  0.00    -0.033 A 
ATOM      2  C1  UNL d   1       3.292   2.498   1.007  0.00  0.00     0.039 A 
ATOM      3  C2  UNL d   1       2.260   2.952   1.829  0.00  0.00    -0.080 A 
ATOM      4  C3  UNL d   1       1.036   2.289   1.819  0.00  0.00     0.150 A 
ATOM      5  C4  UNL d   1       0.832   1.181   1.003  0.00  0.00    -0.007 A 
ATOM      6  C5  UNL d   1       1.865   0.729   0.182  0.00  0.00     0.039 A 
ENDROOT
BRANCH   4   7
ATOM      7  O   UNL d   1      -0.004   2.699   2.600  0.00  0.00    -0.526 OA
ATOM      8  H5  UNL d   1       0.273   3.492   3.088  0.00  0.00     0.418 HD
ENDBRANCH   4   7
TORSDOF 1
ENDMDL
