MODEL 1
REMARK minimizedAffinity 9.10640335
REMARK minimizedRMSD -1
REMARK  1 active torsions:
REMARK  status: ('A' for Active; 'I' for Inactive)
REMARK    1  A    between atoms: C3_4  and  O_7 
ROOT
ATOM      1  C   UNL d   1      -6.000  -3.922  -3.488  0.00  0.00    -0.033 A 
ATOM      2  C1  UNL d   1      -5.954  -5.271  -3.845  0.00  0.00     0.039 A 
ATOM      3  C2  UNL d   1      -4.761  -5.986  -3.725  0.00  0.00    -0.080 A 
ATOM      4  C3  UNL d   1      -3.623  -5.342  -3.248  0.00  0.00     0.150 A 
ATOM      5  C4  UNL d   1      -3.662  -4.000  -2.887  0.00  0.00    -0.007 A 
ATOM      6  C5  UNL d   1      -4.854  -3.287  -3.008  0.00  0.00     0.039 A 
ENDROOT
BRANCH   4   7
ATOM      7  O   UNL d   1      -2.435  -5.998  -3.118  0.00  0.00    -0.526 OA
ATOM      8  H5  UNL d   1      -2.551  -6.910  -3.432  0.00  0.00     0.418 HD
ENDBRANCH   4   7
TORSDOF 1
ENDMDL
