MODEL 1
REMARK minimizedAffinity -3.38223743
REMARK minimizedRMSD -1
REMARK  1 active torsions:
REMARK  status: ('A' for Active; 'I' for Inactive)
REMARK    1  A    between atoms: C1_2  and  C2_3 
ROOT
ATOM      1  C2  UNL d   1      -0.062  -1.367  -1.540  0.00  0.00    -0.081 A 
ATOM      2  C3  UNL d   1       0.242  -1.529  -0.183  0.00  0.00     0.006 A 
ATOM      3  C4  UNL d   1       0.232  -0.431   0.681  0.00  0.00     0.002 A 
ATOM      4  C5  UNL d   1      -0.090   0.844   0.205  0.00  0.00    -0.080 A 
ATOM      5  C6  UNL d   1      -0.134   2.026   1.128  0.00  0.00     0.076 C 
ATOM      6  C7  UNL d   1      -0.377   1.009  -1.155  0.00  0.00     0.002 A 
ATOM      7  C8  UNL d   1      -0.366  -0.088  -2.019  0.00  0.00     0.006 A 
ENDROOT
BRANCH   1   8
ATOM      8  C1  UNL d   1      -0.115  -2.559  -2.461  0.00  0.00     0.054 C 
ATOM      9  C   UNL d   1      -1.197  -3.540  -2.034  0.00  0.00     0.018 C 
ENDBRANCH   1   8
TORSDOF 1
ENDMDL
