MODEL 1
REMARK minimizedAffinity 7.13283014
REMARK minimizedRMSD -1
REMARK  1 active torsions:
REMARK  status: ('A' for Active; 'I' for Inactive)
REMARK    1  A    between atoms: C1_2  and  C2_3 
ROOT
ATOM      1  C2  UNL d   1       1.815  -0.093   0.732  0.00  0.00    -0.081 A 
ATOM      2  C3  UNL d   1       3.001  -0.492   0.103  0.00  0.00     0.006 A 
ATOM      3  C4  UNL d   1       4.141  -0.781   0.857  0.00  0.00     0.002 A 
ATOM      4  C5  UNL d   1       4.112  -0.684   2.252  0.00  0.00    -0.080 A 
ATOM      5  C6  UNL d   1       5.319  -1.020   3.076  0.00  0.00     0.076 C 
ATOM      6  C7  UNL d   1       2.932  -0.268   2.880  0.00  0.00     0.002 A 
ATOM      7  C8  UNL d   1       1.793   0.021   2.126  0.00  0.00     0.006 A 
ENDROOT
BRANCH   1   8
ATOM      8  C1  UNL d   1       0.566   0.156  -0.074  0.00  0.00     0.054 C 
ATOM      9  C   UNL d   1      -0.056   1.501   0.272  0.00  0.00     0.018 C 
ENDBRANCH   1   8
TORSDOF 1
ENDMDL
