MODEL 1
REMARK minimizedAffinity -3.77081084
REMARK minimizedRMSD -1
REMARK  1 active torsions:
REMARK  status: ('A' for Active; 'I' for Inactive)
REMARK    1  A    between atoms: C1_2  and  C2_3 
ROOT
ATOM      1  C2  UNL d   1       1.757  -0.266   0.659  0.00  0.00    -0.081 A 
ATOM      2  C3  UNL d   1       0.871  -0.159  -0.419  0.00  0.00     0.006 A 
ATOM      3  C4  UNL d   1      -0.379   0.442  -0.253  0.00  0.00     0.002 A 
ATOM      4  C5  UNL d   1      -0.760   0.954   0.992  0.00  0.00    -0.080 A 
ATOM      5  C6  UNL d   1      -2.086   1.630   1.177  0.00  0.00     0.076 C 
ATOM      6  C7  UNL d   1       0.119   0.832   2.074  0.00  0.00     0.002 A 
ATOM      7  C8  UNL d   1       1.368   0.230   1.908  0.00  0.00     0.006 A 
ENDROOT
BRANCH   1   8
ATOM      8  C1  UNL d   1       3.131  -0.856   0.467  0.00  0.00     0.054 C 
ATOM      9  C   UNL d   1       4.082  -0.415   1.571  0.00  0.00     0.018 C 
ENDBRANCH   1   8
TORSDOF 1
ENDMDL
