MODEL 1
REMARK minimizedAffinity -0.567901015
REMARK minimizedRMSD -1
REMARK  1 active torsions:
REMARK  status: ('A' for Active; 'I' for Inactive)
REMARK    1  A    between atoms: C1_2  and  C2_3 
ROOT
ATOM      1  C2  UNL d   1       1.770  -0.098   0.798  0.00  0.00    -0.081 A 
ATOM      2  C3  UNL d   1       0.746   0.042  -0.147  0.00  0.00     0.006 A 
ATOM      3  C4  UNL d   1      -0.336   0.890   0.102  0.00  0.00     0.002 A 
ATOM      4  C5  UNL d   1      -0.408   1.618   1.294  0.00  0.00    -0.080 A 
ATOM      5  C6  UNL d   1      -1.548   2.555   1.561  0.00  0.00     0.076 C 
ATOM      6  C7  UNL d   1       0.607   1.465   2.246  0.00  0.00     0.002 A 
ATOM      7  C8  UNL d   1       1.688   0.617   1.998  0.00  0.00     0.006 A 
ENDROOT
BRANCH   1   8
ATOM      8  C1  UNL d   1       2.970  -0.962   0.505  0.00  0.00     0.054 C 
ATOM      9  C   UNL d   1       4.076  -0.737   1.526  0.00  0.00     0.018 C 
ENDBRANCH   1   8
TORSDOF 1
ENDMDL
