MODEL 1
REMARK minimizedAffinity -1.05321956
REMARK minimizedRMSD -1
REMARK  1 active torsions:
REMARK  status: ('A' for Active; 'I' for Inactive)
REMARK    1  A    between atoms: C1_2  and  C2_3 
ROOT
ATOM      1  C2  UNL d   1       0.024  -0.088  -0.774  0.00  0.00    -0.081 A 
ATOM      2  C3  UNL d   1       0.092  -0.205   0.620  0.00  0.00     0.006 A 
ATOM      3  C4  UNL d   1      -0.197   0.890   1.437  0.00  0.00     0.002 A 
ATOM      4  C5  UNL d   1      -0.567   2.117   0.876  0.00  0.00    -0.080 A 
ATOM      5  C6  UNL d   1      -0.910   3.291   1.743  0.00  0.00     0.076 C 
ATOM      6  C7  UNL d   1      -0.618   2.238  -0.517  0.00  0.00     0.002 A 
ATOM      7  C8  UNL d   1      -0.328   1.144  -1.335  0.00  0.00     0.006 A 
ENDROOT
BRANCH   1   8
ATOM      8  C1  UNL d   1       0.273  -1.285  -1.657  0.00  0.00     0.054 C 
ATOM      9  C   UNL d   1      -0.548  -2.485  -1.206  0.00  0.00     0.018 C 
ENDBRANCH   1   8
TORSDOF 1
ENDMDL
