MODEL 1
REMARK minimizedAffinity -2.41541934
REMARK minimizedRMSD -1
REMARK  1 active torsions:
REMARK  status: ('A' for Active; 'I' for Inactive)
REMARK    1  A    between atoms: C1_2  and  C2_3 
ROOT
ATOM      1  C2  UNL d   1       1.097  -0.191   0.569  0.00  0.00    -0.081 A 
ATOM      2  C3  UNL d   1       0.973   0.262   1.888  0.00  0.00     0.006 A 
ATOM      3  C4  UNL d   1      -0.014   1.190   2.228  0.00  0.00     0.002 A 
ATOM      4  C5  UNL d   1      -0.897   1.674   1.258  0.00  0.00    -0.080 A 
ATOM      5  C6  UNL d   1      -1.980   2.648   1.616  0.00  0.00     0.076 C 
ATOM      6  C7  UNL d   1      -0.762   1.235  -0.063  0.00  0.00     0.002 A 
ATOM      7  C8  UNL d   1       0.225   0.308  -0.404  0.00  0.00     0.006 A 
ENDROOT
BRANCH   1   8
ATOM      8  C1  UNL d   1       2.119  -1.241   0.212  0.00  0.00     0.054 C 
ATOM      9  C   UNL d   1       3.518  -0.817   0.635  0.00  0.00     0.018 C 
ENDBRANCH   1   8
TORSDOF 1
ENDMDL
