MODEL 1
REMARK minimizedAffinity -2.14773917
REMARK minimizedRMSD -1
REMARK  1 active torsions:
REMARK  status: ('A' for Active; 'I' for Inactive)
REMARK    1  A    between atoms: C1_2  and  C2_3 
ROOT
ATOM      1  C2  UNL d   1       0.621   0.163   1.321  0.00  0.00    -0.081 A 
ATOM      2  C3  UNL d   1       0.288  -0.252   0.026  0.00  0.00     0.006 A 
ATOM      3  C4  UNL d   1      -0.556   0.524  -0.772  0.00  0.00     0.002 A 
ATOM      4  C5  UNL d   1      -1.075   1.731  -0.291  0.00  0.00    -0.080 A 
ATOM      5  C6  UNL d   1      -1.958   2.589  -1.148  0.00  0.00     0.076 C 
ATOM      6  C7  UNL d   1      -0.756   2.138   1.009  0.00  0.00     0.002 A 
ATOM      7  C8  UNL d   1       0.087   1.362   1.807  0.00  0.00     0.006 A 
ENDROOT
BRANCH   1   8
ATOM      8  C1  UNL d   1       1.582  -0.639   2.160  0.00  0.00     0.054 C 
ATOM      9  C   UNL d   1       2.962  -0.694   1.520  0.00  0.00     0.018 C 
ENDBRANCH   1   8
TORSDOF 1
ENDMDL
