MODEL 1
REMARK minimizedAffinity -5.89033604
REMARK minimizedRMSD -1
REMARK  1 active torsions:
REMARK  status: ('A' for Active; 'I' for Inactive)
REMARK    1  A    between atoms: C1_2  and  C2_3 
ROOT
ATOM      1  C2  UNL d   1       1.893   0.070   1.198  0.00  0.00    -0.081 A 
ATOM      2  C3  UNL d   1       1.180   0.506   0.074  0.00  0.00     0.006 A 
ATOM      3  C4  UNL d   1       0.014   1.260   0.224  0.00  0.00     0.002 A 
ATOM      4  C5  UNL d   1      -0.454   1.597   1.499  0.00  0.00    -0.080 A 
ATOM      5  C6  UNL d   1      -1.688   2.432   1.673  0.00  0.00     0.076 C 
ATOM      6  C7  UNL d   1       0.249   1.147   2.622  0.00  0.00     0.002 A 
ATOM      7  C8  UNL d   1       1.414   0.392   2.472  0.00  0.00     0.006 A 
ENDROOT
BRANCH   1   8
ATOM      8  C1  UNL d   1       3.186  -0.689   1.038  0.00  0.00     0.054 C 
ATOM      9  C   UNL d   1       4.145  -0.394   2.183  0.00  0.00     0.018 C 
ENDBRANCH   1   8
TORSDOF 1
ENDMDL
