MODEL 1
REMARK minimizedAffinity -2.99190617
REMARK minimizedRMSD -1
REMARK  1 active torsions:
REMARK  status: ('A' for Active; 'I' for Inactive)
REMARK    1  A    between atoms: C1_2  and  C2_3 
ROOT
ATOM      1  C2  UNL d   1      -0.441  -3.844  -0.950  0.00  0.00    -0.081 A 
ATOM      2  C3  UNL d   1      -1.623  -4.445  -1.398  0.00  0.00     0.006 A 
ATOM      3  C4  UNL d   1      -2.048  -4.275  -2.718  0.00  0.00     0.002 A 
ATOM      4  C5  UNL d   1      -1.294  -3.509  -3.613  0.00  0.00    -0.080 A 
ATOM      5  C6  UNL d   1      -1.723  -3.344  -5.041  0.00  0.00     0.076 C 
ATOM      6  C7  UNL d   1      -0.122  -2.895  -3.161  0.00  0.00     0.002 A 
ATOM      7  C8  UNL d   1       0.303  -3.063  -1.842  0.00  0.00     0.006 A 
ENDROOT
BRANCH   1   8
ATOM      8  C1  UNL d   1       0.054  -4.078   0.454  0.00  0.00     0.054 C 
ATOM      9  C   UNL d   1       1.192  -5.089   0.479  0.00  0.00     0.018 C 
ENDBRANCH   1   8
TORSDOF 1
ENDMDL
