MODEL 1
REMARK minimizedAffinity 18.1997471
REMARK minimizedRMSD -1
REMARK  0 active torsions:
REMARK  status: ('A' for Active; 'I' for Inactive)
ROOT
ATOM      1  C   UNL d   1       4.193  -0.729   1.432  0.00  0.00    -0.002 A 
ATOM      2  C1  UNL d   1       3.929   0.353   2.259  0.00  0.00     0.010 A 
ATOM      3  C2  UNL d   1       2.648   0.559   2.774  0.00  0.00     0.041 A 
ATOM      4  C3  UNL d   1       1.626  -0.352   2.441  0.00  0.00    -0.075 A 
ATOM      5  S   UNL d   1      -0.019  -0.301   2.955  0.00  0.00     0.015 SA
ATOM      6  C4  UNL d   1      -0.411  -1.716   2.090  0.00  0.00     0.022 A 
ATOM      7  C5  UNL d   1       0.675  -2.228   1.419  0.00  0.00     0.026 A 
ATOM      8  C6  UNL d   1       1.866  -1.450   1.611  0.00  0.00    -0.082 A 
ATOM      9  C7  UNL d   1       3.176  -1.631   1.104  0.00  0.00     0.045 A 
ENDROOT
TORSDOF 0
ENDMDL
