MODEL 1
REMARK minimizedAffinity 24.3270683
REMARK minimizedRMSD -1
REMARK  0 active torsions:
REMARK  status: ('A' for Active; 'I' for Inactive)
ROOT
ATOM      1  C   UNL d   1      -2.844   4.097  -1.632  0.00  0.00    -0.002 A 
ATOM      2  C1  UNL d   1      -2.682   2.812  -2.130  0.00  0.00     0.010 A 
ATOM      3  C2  UNL d   1      -2.255   2.607  -3.443  0.00  0.00     0.041 A 
ATOM      4  C3  UNL d   1      -1.988   3.727  -4.255  0.00  0.00    -0.075 A 
ATOM      5  S   UNL d   1      -1.454   3.718  -5.895  0.00  0.00     0.015 SA
ATOM      6  C4  UNL d   1      -1.427   5.421  -5.973  0.00  0.00     0.022 A 
ATOM      7  C5  UNL d   1      -1.814   5.998  -4.786  0.00  0.00     0.026 A 
ATOM      8  C6  UNL d   1      -2.143   5.031  -3.777  0.00  0.00    -0.082 A 
ATOM      9  C7  UNL d   1      -2.578   5.205  -2.441  0.00  0.00     0.045 A 
ENDROOT
TORSDOF 0
ENDMDL
