MODEL 1
REMARK minimizedAffinity 21.6347828
REMARK minimizedRMSD -1
REMARK  0 active torsions:
REMARK  status: ('A' for Active; 'I' for Inactive)
ROOT
ATOM      1  C   UNL d   1      -2.897   1.906  -2.907  0.00  0.00    -0.002 A 
ATOM      2  C1  UNL d   1      -2.468   2.959  -3.702  0.00  0.00     0.010 A 
ATOM      3  C2  UNL d   1      -1.326   3.687  -3.361  0.00  0.00     0.041 A 
ATOM      4  C3  UNL d   1      -0.615   3.334  -2.198  0.00  0.00    -0.075 A 
ATOM      5  S   UNL d   1       0.812   4.083  -1.584  0.00  0.00     0.015 SA
ATOM      6  C4  UNL d   1       0.885   3.021  -0.252  0.00  0.00     0.022 A 
ATOM      7  C5  UNL d   1      -0.145   2.112  -0.260  0.00  0.00     0.026 A 
ATOM      8  C6  UNL d   1      -1.027   2.276  -1.382  0.00  0.00    -0.082 A 
ATOM      9  C7  UNL d   1      -2.189   1.559  -1.754  0.00  0.00     0.045 A 
ENDROOT
TORSDOF 0
ENDMDL
