MODEL 1
REMARK minimizedAffinity 19.1260529
REMARK minimizedRMSD -1
REMARK  0 active torsions:
REMARK  status: ('A' for Active; 'I' for Inactive)
ROOT
ATOM      1  C   UNL d   1       1.093   2.602  -1.041  0.00  0.00    -0.002 A 
ATOM      2  C1  UNL d   1       0.602   3.380  -0.001  0.00  0.00     0.010 A 
ATOM      3  C2  UNL d   1      -0.699   3.885  -0.045  0.00  0.00     0.041 A 
ATOM      4  C3  UNL d   1      -1.507   3.590  -1.160  0.00  0.00    -0.075 A 
ATOM      5  S   UNL d   1      -3.132   4.100  -1.430  0.00  0.00     0.015 SA
ATOM      6  C4  UNL d   1      -3.214   3.296  -2.931  0.00  0.00     0.022 A 
ATOM      7  C5  UNL d   1      -2.039   2.651  -3.235  0.00  0.00     0.026 A 
ATOM      8  C6  UNL d   1      -1.036   2.809  -2.219  0.00  0.00    -0.082 A 
ATOM      9  C7  UNL d   1       0.288   2.312  -2.146  0.00  0.00     0.045 A 
ENDROOT
TORSDOF 0
ENDMDL
