MODEL 1
REMARK minimizedAffinity 7.34302616
REMARK minimizedRMSD -1
REMARK  0 active torsions:
REMARK  status: ('A' for Active; 'I' for Inactive)
ROOT
ATOM      1  C   UNL d   1      -3.592  -2.984   2.742  0.00  0.00    -0.002 A 
ATOM      2  C1  UNL d   1      -4.917  -2.621   2.550  0.00  0.00     0.010 A 
ATOM      3  C2  UNL d   1      -5.685  -3.234   1.558  0.00  0.00     0.041 A 
ATOM      4  C3  UNL d   1      -5.094  -4.229   0.755  0.00  0.00    -0.075 A 
ATOM      5  S   UNL d   1      -5.841  -5.116  -0.520  0.00  0.00     0.015 SA
ATOM      6  C4  UNL d   1      -4.419  -6.000  -0.839  0.00  0.00     0.022 A 
ATOM      7  C5  UNL d   1      -3.389  -5.639  -0.003  0.00  0.00     0.026 A 
ATOM      8  C6  UNL d   1      -3.761  -4.613   0.930  0.00  0.00    -0.082 A 
ATOM      9  C7  UNL d   1      -3.009  -3.972   1.944  0.00  0.00     0.045 A 
ENDROOT
TORSDOF 0
ENDMDL
