MODEL 1
REMARK minimizedAffinity 13.5904245
REMARK minimizedRMSD -1
REMARK  0 active torsions:
REMARK  status: ('A' for Active; 'I' for Inactive)
ROOT
ATOM      1  C   UNL d   1      -5.068  -6.000   0.193  0.00  0.00    -0.002 A 
ATOM      2  C1  UNL d   1      -4.133  -5.667  -0.777  0.00  0.00     0.010 A 
ATOM      3  C2  UNL d   1      -3.120  -4.747  -0.500  0.00  0.00     0.041 A 
ATOM      4  C3  UNL d   1      -3.061  -4.163   0.780  0.00  0.00    -0.075 A 
ATOM      5  S   UNL d   1      -1.908  -3.012   1.346  0.00  0.00     0.015 SA
ATOM      6  C4  UNL d   1      -2.630  -2.936   2.888  0.00  0.00     0.022 A 
ATOM      7  C5  UNL d   1      -3.725  -3.761   2.986  0.00  0.00     0.026 A 
ATOM      8  C6  UNL d   1      -3.991  -4.482   1.774  0.00  0.00    -0.082 A 
ATOM      9  C7  UNL d   1      -5.007  -5.418   1.462  0.00  0.00     0.045 A 
ENDROOT
TORSDOF 0
ENDMDL
