MODEL 1
REMARK minimizedAffinity 6.59989929
REMARK minimizedRMSD -1
REMARK  0 active torsions:
REMARK  status: ('A' for Active; 'I' for Inactive)
ROOT
ATOM      1  C   UNL d   1      -1.154  -2.541   1.766  0.00  0.00    -0.002 A 
ATOM      2  C1  UNL d   1      -2.251  -2.914   2.529  0.00  0.00     0.010 A 
ATOM      3  C2  UNL d   1      -2.390  -2.459   3.842  0.00  0.00     0.041 A 
ATOM      4  C3  UNL d   1      -1.400  -1.613   4.379  0.00  0.00    -0.075 A 
ATOM      5  S   UNL d   1      -1.360  -0.933   5.962  0.00  0.00     0.015 SA
ATOM      6  C4  UNL d   1       0.113  -0.130   5.662  0.00  0.00     0.022 A 
ATOM      7  C5  UNL d   1       0.578  -0.365   4.390  0.00  0.00     0.026 A 
ATOM      8  C6  UNL d   1      -0.286  -1.223   3.629  0.00  0.00    -0.082 A 
ATOM      9  C7  UNL d   1      -0.173  -1.702   2.301  0.00  0.00     0.045 A 
ENDROOT
TORSDOF 0
ENDMDL
