MODEL 1
REMARK minimizedAffinity 15.0550146
REMARK minimizedRMSD -1
REMARK  0 active torsions:
REMARK  status: ('A' for Active; 'I' for Inactive)
ROOT
ATOM      1  C   UNL d   1       2.432  -1.864   1.011  0.00  0.00    -0.002 A 
ATOM      2  C1  UNL d   1       1.078  -2.119   1.177  0.00  0.00     0.010 A 
ATOM      3  C2  UNL d   1       0.387  -1.601   2.274  0.00  0.00     0.041 A 
ATOM      4  C3  UNL d   1       1.086  -0.812   3.210  0.00  0.00    -0.075 A 
ATOM      5  S   UNL d   1       0.446  -0.072   4.629  0.00  0.00     0.015 SA
ATOM      6  C4  UNL d   1       1.955   0.602   5.048  0.00  0.00     0.022 A 
ATOM      7  C5  UNL d   1       2.934   0.279   4.138  0.00  0.00     0.026 A 
ATOM      8  C6  UNL d   1       2.449  -0.540   3.063  0.00  0.00    -0.082 A 
ATOM      9  C7  UNL d   1       3.122  -1.081   1.941  0.00  0.00     0.045 A 
ENDROOT
TORSDOF 0
ENDMDL
