MODEL 1
REMARK minimizedAffinity 21.2243538
REMARK minimizedRMSD -1
REMARK  0 active torsions:
REMARK  status: ('A' for Active; 'I' for Inactive)
ROOT
ATOM      1  C   UNL d   1      -0.969  -1.474   2.573  0.00  0.00    -0.002 A 
ATOM      2  C1  UNL d   1      -0.932  -0.693   3.719  0.00  0.00     0.010 A 
ATOM      3  C2  UNL d   1       0.239  -0.029   4.088  0.00  0.00     0.041 A 
ATOM      4  C3  UNL d   1       1.383  -0.163   3.278  0.00  0.00    -0.075 A 
ATOM      5  S   UNL d   1       2.929   0.558   3.533  0.00  0.00     0.015 SA
ATOM      6  C4  UNL d   1       3.576  -0.154   2.126  0.00  0.00     0.022 A 
ATOM      7  C5  UNL d   1       2.650  -0.926   1.466  0.00  0.00     0.026 A 
ATOM      8  C6  UNL d   1       1.371  -0.944   2.119  0.00  0.00    -0.082 A 
ATOM      9  C7  UNL d   1       0.168  -1.605   1.771  0.00  0.00     0.045 A 
ENDROOT
TORSDOF 0
ENDMDL
