MODEL 1
REMARK minimizedAffinity 13.3065853
REMARK minimizedRMSD -1
REMARK  0 active torsions:
REMARK  status: ('A' for Active; 'I' for Inactive)
ROOT
ATOM      1  C   UNL d   1       4.574  -0.132   2.121  0.00  0.00    -0.002 A 
ATOM      2  C1  UNL d   1       4.161  -1.101   1.216  0.00  0.00     0.010 A 
ATOM      3  C2  UNL d   1       2.845  -1.568   1.226  0.00  0.00     0.041 A 
ATOM      4  C3  UNL d   1       1.941  -1.038   2.168  0.00  0.00    -0.075 A 
ATOM      5  S   UNL d   1       0.281  -1.458   2.365  0.00  0.00     0.015 SA
ATOM      6  C4  UNL d   1       0.079  -0.361   3.654  0.00  0.00     0.022 A 
ATOM      7  C5  UNL d   1       1.241   0.317   3.940  0.00  0.00     0.026 A 
ATOM      8  C6  UNL d   1       2.333  -0.062   3.088  0.00  0.00    -0.082 A 
ATOM      9  C7  UNL d   1       3.674   0.390   3.054  0.00  0.00     0.045 A 
ENDROOT
TORSDOF 0
ENDMDL
