MODEL 1
REMARK minimizedAffinity 18.2138481
REMARK minimizedRMSD -1
REMARK  0 active torsions:
REMARK  status: ('A' for Active; 'I' for Inactive)
ROOT
ATOM      1  C   UNL d   1      -1.469   6.000  -5.264  0.00  0.00    -0.002 A 
ATOM      2  C1  UNL d   1      -1.473   4.824  -6.000  0.00  0.00     0.010 A 
ATOM      3  C2  UNL d   1      -1.762   3.603  -5.387  0.00  0.00     0.041 A 
ATOM      4  C3  UNL d   1      -2.052   3.584  -4.009  0.00  0.00    -0.075 A 
ATOM      5  S   UNL d   1      -2.436   2.207  -3.046  0.00  0.00     0.015 SA
ATOM      6  C4  UNL d   1      -2.606   3.147  -1.634  0.00  0.00     0.022 A 
ATOM      7  C5  UNL d   1      -2.378   4.482  -1.874  0.00  0.00     0.026 A 
ATOM      8  C6  UNL d   1      -2.056   4.756  -3.246  0.00  0.00    -0.082 A 
ATOM      9  C7  UNL d   1      -1.758   5.978  -3.897  0.00  0.00     0.045 A 
ENDROOT
TORSDOF 0
ENDMDL
