MODEL 1
REMARK minimizedAffinity 3.4751761
REMARK minimizedRMSD -1
REMARK  0 active torsions:
REMARK  status: ('A' for Active; 'I' for Inactive)
ROOT
ATOM      1  C   UNL d   1       1.429   0.933   0.125  0.00  0.00    -0.002 A 
ATOM      2  C1  UNL d   1       1.910  -0.358  -0.038  0.00  0.00     0.010 A 
ATOM      3  C2  UNL d   1       1.067  -1.457   0.136  0.00  0.00     0.041 A 
ATOM      4  C3  UNL d   1      -0.282  -1.234   0.477  0.00  0.00    -0.075 A 
ATOM      5  S   UNL d   1      -1.498  -2.427   0.740  0.00  0.00     0.015 SA
ATOM      6  C4  UNL d   1      -2.685  -1.250   1.073  0.00  0.00     0.022 A 
ATOM      7  C5  UNL d   1      -2.183   0.027   0.991  0.00  0.00     0.026 A 
ATOM      8  C6  UNL d   1      -0.789   0.057   0.646  0.00  0.00    -0.082 A 
ATOM      9  C7  UNL d   1       0.091   1.151   0.464  0.00  0.00     0.045 A 
ENDROOT
TORSDOF 0
ENDMDL
