MODEL 1
REMARK minimizedAffinity -4.59604502
REMARK minimizedRMSD -1
REMARK  0 active torsions:
REMARK  status: ('A' for Active; 'I' for Inactive)
ROOT
ATOM      1  C   UNL d   1      -2.076  -0.943   0.976  0.00  0.00    -0.002 A 
ATOM      2  C1  UNL d   1      -1.801   0.414   1.079  0.00  0.00     0.010 A 
ATOM      3  C2  UNL d   1      -0.486   0.879   1.016  0.00  0.00     0.041 A 
ATOM      4  C3  UNL d   1       0.558  -0.051   0.846  0.00  0.00    -0.075 A 
ATOM      5  S   UNL d   1       2.245   0.288   0.741  0.00  0.00     0.015 SA
ATOM      6  C4  UNL d   1       2.641  -1.359   0.556  0.00  0.00     0.022 A 
ATOM      7  C5  UNL d   1       1.526  -2.163   0.573  0.00  0.00     0.026 A 
ATOM      8  C6  UNL d   1       0.307  -1.422   0.739  0.00  0.00    -0.082 A 
ATOM      9  C7  UNL d   1      -1.037  -1.862   0.807  0.00  0.00     0.045 A 
ENDROOT
TORSDOF 0
ENDMDL
