MODEL 1
REMARK minimizedAffinity -2.2069087
REMARK minimizedRMSD -1
REMARK  0 active torsions:
REMARK  status: ('A' for Active; 'I' for Inactive)
ROOT
ATOM      1  C   UNL d   1      -2.031  -2.559   0.038  0.00  0.00    -0.002 A 
ATOM      2  C1  UNL d   1      -1.479  -2.376   1.298  0.00  0.00     0.010 A 
ATOM      3  C2  UNL d   1      -0.505  -1.398   1.511  0.00  0.00     0.041 A 
ATOM      4  C3  UNL d   1      -0.094  -0.598   0.427  0.00  0.00    -0.075 A 
ATOM      5  S   UNL d   1       1.083   0.661   0.452  0.00  0.00     0.015 SA
ATOM      6  C4  UNL d   1       0.879   0.987  -1.208  0.00  0.00     0.022 A 
ATOM      7  C5  UNL d   1      -0.059   0.163  -1.784  0.00  0.00     0.026 A 
ATOM      8  C6  UNL d   1      -0.636  -0.763  -0.851  0.00  0.00    -0.082 A 
ATOM      9  C7  UNL d   1      -1.621  -1.764  -1.035  0.00  0.00     0.045 A 
ENDROOT
TORSDOF 0
ENDMDL
