MODEL 1
REMARK minimizedAffinity -0.935437262
REMARK minimizedRMSD -1
REMARK  0 active torsions:
REMARK  status: ('A' for Active; 'I' for Inactive)
ROOT
ATOM      1  C   UNL d   1      -0.745  -3.066   3.618  0.00  0.00    -0.002 A 
ATOM      2  C1  UNL d   1      -1.566  -1.947   3.593  0.00  0.00     0.010 A 
ATOM      3  C2  UNL d   1      -1.292  -0.885   2.728  0.00  0.00     0.041 A 
ATOM      4  C3  UNL d   1      -0.171  -0.968   1.880  0.00  0.00    -0.075 A 
ATOM      5  S   UNL d   1       0.359   0.211   0.738  0.00  0.00     0.015 SA
ATOM      6  C4  UNL d   1       1.686  -0.743   0.257  0.00  0.00     0.022 A 
ATOM      7  C5  UNL d   1       1.740  -1.935   0.940  0.00  0.00     0.026 A 
ATOM      8  C6  UNL d   1       0.670  -2.084   1.887  0.00  0.00    -0.082 A 
ATOM      9  C7  UNL d   1       0.367  -3.144   2.775  0.00  0.00     0.045 A 
ENDROOT
TORSDOF 0
ENDMDL
