MODEL 1
REMARK minimizedAffinity -1.14925337
REMARK minimizedRMSD -1
REMARK  0 active torsions:
REMARK  status: ('A' for Active; 'I' for Inactive)
ROOT
ATOM      1  C   UNL d   1      -1.853  -2.787   3.775  0.00  0.00    -0.002 A 
ATOM      2  C1  UNL d   1      -1.950  -1.474   4.212  0.00  0.00     0.010 A 
ATOM      3  C2  UNL d   1      -1.304  -0.446   3.522  0.00  0.00     0.041 A 
ATOM      4  C3  UNL d   1      -0.552  -0.764   2.373  0.00  0.00    -0.075 A 
ATOM      5  S   UNL d   1       0.324   0.329   1.369  0.00  0.00     0.015 SA
ATOM      6  C4  UNL d   1       0.847  -0.921   0.336  0.00  0.00     0.022 A 
ATOM      7  C5  UNL d   1       0.374  -2.150   0.733  0.00  0.00     0.026 A 
ATOM      8  C6  UNL d   1      -0.441  -2.079   1.913  0.00  0.00    -0.082 A 
ATOM      9  C7  UNL d   1      -1.107  -3.099   2.635  0.00  0.00     0.045 A 
ENDROOT
TORSDOF 0
ENDMDL
