MODEL 1
REMARK minimizedAffinity 7.68812037
REMARK minimizedRMSD -1
REMARK  0 active torsions:
REMARK  status: ('A' for Active; 'I' for Inactive)
ROOT
ATOM      1  C   UNL d   1      -0.486  -2.661   4.279  0.00  0.00    -0.002 A 
ATOM      2  C1  UNL d   1       0.505  -3.408   3.657  0.00  0.00     0.010 A 
ATOM      3  C2  UNL d   1       0.932  -3.087   2.367  0.00  0.00     0.041 A 
ATOM      4  C3  UNL d   1       0.342  -1.992   1.706  0.00  0.00    -0.075 A 
ATOM      5  S   UNL d   1       0.706  -1.413   0.124  0.00  0.00     0.015 SA
ATOM      6  C4  UNL d   1      -0.444  -0.161   0.236  0.00  0.00     0.022 A 
ATOM      7  C5  UNL d   1      -1.100  -0.169   1.444  0.00  0.00     0.026 A 
ATOM      8  C6  UNL d   1      -0.657  -1.224   2.312  0.00  0.00    -0.082 A 
ATOM      9  C7  UNL d   1      -1.069  -1.575   3.620  0.00  0.00     0.045 A 
ENDROOT
TORSDOF 0
ENDMDL
