MODEL 1
REMARK minimizedAffinity -2.6390841
REMARK minimizedRMSD -1
REMARK  0 active torsions:
REMARK  status: ('A' for Active; 'I' for Inactive)
ROOT
ATOM      1  C   UNL d   1      -4.567  -1.918  -5.969  0.00  0.00    -0.002 A 
ATOM      2  C1  UNL d   1      -5.423  -3.009  -5.995  0.00  0.00     0.010 A 
ATOM      3  C2  UNL d   1      -4.916  -4.310  -6.000  0.00  0.00     0.041 A 
ATOM      4  C3  UNL d   1      -3.520  -4.498  -5.977  0.00  0.00    -0.075 A 
ATOM      5  S   UNL d   1      -2.673  -5.999  -5.977  0.00  0.00     0.015 SA
ATOM      6  C4  UNL d   1      -1.154  -5.227  -5.943  0.00  0.00     0.022 A 
ATOM      7  C5  UNL d   1      -1.272  -3.858  -5.931  0.00  0.00     0.026 A 
ATOM      8  C6  UNL d   1      -2.637  -3.414  -5.950  0.00  0.00    -0.082 A 
ATOM      9  C7  UNL d   1      -3.182  -2.108  -5.947  0.00  0.00     0.045 A 
ENDROOT
TORSDOF 0
ENDMDL
