MODEL 1
REMARK minimizedAffinity -4.12342834
REMARK minimizedRMSD -1
REMARK  0 active torsions:
REMARK  status: ('A' for Active; 'I' for Inactive)
ROOT
ATOM      1  C1  BNZ d   1       0.021   0.546   0.743  0.00  0.00     0.000 A 
ATOM      2  C2  BNZ d   1       0.003  -0.499   1.628  0.00  0.00     0.000 A 
ATOM      3  C3  BNZ d   1       0.771  -1.609   1.417  0.00  0.00     0.000 A 
ATOM      4  C4  BNZ d   1       1.526  -1.691   0.302  0.00  0.00     0.000 A 
ATOM      5  C5  BNZ d   1       1.548  -0.650  -0.605  0.00  0.00     0.000 A 
ATOM      6  C6  BNZ d   1       0.803   0.483  -0.369  0.00  0.00     0.000 A 
ENDROOT
TORSDOF 0
ENDMDL
