MODEL 1
REMARK minimizedAffinity -4.26303291
REMARK minimizedRMSD -1
REMARK  0 active torsions:
REMARK  status: ('A' for Active; 'I' for Inactive)
ROOT
ATOM      1  C1  BNZ d   1      -0.795   2.542  -4.034  0.00  0.00     0.000 A 
ATOM      2  C2  BNZ d   1      -1.671   1.501  -4.184  0.00  0.00     0.000 A 
ATOM      3  C3  BNZ d   1      -2.438   1.075  -3.136  0.00  0.00     0.000 A 
ATOM      4  C4  BNZ d   1      -2.299   1.663  -1.930  0.00  0.00     0.000 A 
ATOM      5  C5  BNZ d   1      -1.413   2.708  -1.761  0.00  0.00     0.000 A 
ATOM      6  C6  BNZ d   1      -0.671   3.160  -2.828  0.00  0.00     0.000 A 
ENDROOT
TORSDOF 0
ENDMDL
