MODEL 1
REMARK minimizedAffinity -4.139575
REMARK minimizedRMSD -1
REMARK  0 active torsions:
REMARK  status: ('A' for Active; 'I' for Inactive)
ROOT
ATOM      1  C1  BNZ d   1      -1.041   2.561  -4.403  0.00  0.00     0.000 A 
ATOM      2  C2  BNZ d   1      -1.858   1.465  -4.319  0.00  0.00     0.000 A 
ATOM      3  C3  BNZ d   1      -2.345   1.046  -3.112  0.00  0.00     0.000 A 
ATOM      4  C4  BNZ d   1      -1.982   1.698  -1.988  0.00  0.00     0.000 A 
ATOM      5  C5  BNZ d   1      -1.152   2.799  -2.055  0.00  0.00     0.000 A 
ATOM      6  C6  BNZ d   1      -0.695   3.241  -3.276  0.00  0.00     0.000 A 
ENDROOT
TORSDOF 0
ENDMDL
