MODEL 1
REMARK minimizedAffinity -4.67079782
REMARK minimizedRMSD -1
REMARK  0 active torsions:
REMARK  status: ('A' for Active; 'I' for Inactive)
ROOT
ATOM      1  C1  BNZ d   1      -0.728   3.251  -2.448  0.00  0.00     0.000 A 
ATOM      2  C2  BNZ d   1       0.045   4.246  -2.984  0.00  0.00     0.000 A 
ATOM      3  C3  BNZ d   1       0.230   4.336  -4.336  0.00  0.00     0.000 A 
ATOM      4  C4  BNZ d   1      -0.324   3.410  -5.144  0.00  0.00     0.000 A 
ATOM      5  C5  BNZ d   1      -1.098   2.395  -4.618  0.00  0.00     0.000 A 
ATOM      6  C6  BNZ d   1      -1.314   2.330  -3.260  0.00  0.00     0.000 A 
ENDROOT
TORSDOF 0
ENDMDL
