MODEL 1
REMARK minimizedAffinity -2.84921885
REMARK minimizedRMSD -1
REMARK  0 active torsions:
REMARK  status: ('A' for Active; 'I' for Inactive)
ROOT
ATOM      1  C1  BNZ d   1      -2.874   2.118  -1.960  0.00  0.00     0.000 A 
ATOM      2  C2  BNZ d   1      -1.938   3.111  -1.852  0.00  0.00     0.000 A 
ATOM      3  C3  BNZ d   1      -0.895   3.189  -2.733  0.00  0.00     0.000 A 
ATOM      4  C4  BNZ d   1      -0.768   2.253  -3.694  0.00  0.00     0.000 A 
ATOM      5  C5  BNZ d   1      -1.699   1.239  -3.811  0.00  0.00     0.000 A 
ATOM      6  C6  BNZ d   1      -2.769   1.187  -2.947  0.00  0.00     0.000 A 
ENDROOT
TORSDOF 0
ENDMDL
