MODEL 1
REMARK minimizedAffinity -3.40661883
REMARK minimizedRMSD -1
REMARK  0 active torsions:
REMARK  status: ('A' for Active; 'I' for Inactive)
ROOT
ATOM      1  C1  BNZ d   1      -0.860   2.972  -4.581  0.00  0.00     0.000 A 
ATOM      2  C2  BNZ d   1      -1.663   1.914  -4.247  0.00  0.00     0.000 A 
ATOM      3  C3  BNZ d   1      -1.934   1.626  -2.939  0.00  0.00     0.000 A 
ATOM      4  C4  BNZ d   1      -1.370   2.370  -1.966  0.00  0.00     0.000 A 
ATOM      5  C5  BNZ d   1      -0.550   3.434  -2.285  0.00  0.00     0.000 A 
ATOM      6  C6  BNZ d   1      -0.311   3.745  -3.604  0.00  0.00     0.000 A 
ENDROOT
TORSDOF 0
ENDMDL
