MODEL 1
REMARK minimizedAffinity -3.86712217
REMARK minimizedRMSD -1
REMARK  0 active torsions:
REMARK  status: ('A' for Active; 'I' for Inactive)
ROOT
ATOM      1  C1  BNZ d   1      -0.252   2.529  -2.970  0.00  0.00     0.000 A 
ATOM      2  C2  BNZ d   1      -0.886   2.114  -1.829  0.00  0.00     0.000 A 
ATOM      3  C3  BNZ d   1      -2.087   1.465  -1.892  0.00  0.00     0.000 A 
ATOM      4  C4  BNZ d   1      -2.672   1.268  -3.091  0.00  0.00     0.000 A 
ATOM      5  C5  BNZ d   1      -2.050   1.690  -4.250  0.00  0.00     0.000 A 
ATOM      6  C6  BNZ d   1      -0.822   2.307  -4.185  0.00  0.00     0.000 A 
ENDROOT
TORSDOF 0
ENDMDL
