MODEL 1
REMARK minimizedAffinity -5.16484356
REMARK minimizedRMSD -1
REMARK  0 active torsions:
REMARK  status: ('A' for Active; 'I' for Inactive)
ROOT
ATOM      1  C1  BNZ d   1      -0.652   3.376  -2.250  0.00  0.00     0.000 A 
ATOM      2  C2  BNZ d   1      -0.007   4.358  -2.955  0.00  0.00     0.000 A 
ATOM      3  C3  BNZ d   1       0.074   4.301  -4.318  0.00  0.00     0.000 A 
ATOM      4  C4  BNZ d   1      -0.453   3.245  -4.971  0.00  0.00     0.000 A 
ATOM      5  C5  BNZ d   1      -1.097   2.243  -4.273  0.00  0.00     0.000 A 
ATOM      6  C6  BNZ d   1      -1.211   2.322  -2.904  0.00  0.00     0.000 A 
ENDROOT
TORSDOF 0
ENDMDL
