MODEL 1
REMARK minimizedAffinity -4.43351316
REMARK minimizedRMSD -1
REMARK  0 active torsions:
REMARK  status: ('A' for Active; 'I' for Inactive)
ROOT
ATOM      1  C1  BNZ d   1      -1.399   1.899  -1.843  0.00  0.00     0.000 A 
ATOM      2  C2  BNZ d   1      -0.180   2.421  -2.185  0.00  0.00     0.000 A 
ATOM      3  C3  BNZ d   1       0.091   2.778  -3.476  0.00  0.00     0.000 A 
ATOM      4  C4  BNZ d   1      -0.841   2.577  -4.429  0.00  0.00     0.000 A 
ATOM      5  C5  BNZ d   1      -2.072   2.042  -4.102  0.00  0.00     0.000 A 
ATOM      6  C6  BNZ d   1      -2.355   1.720  -2.795  0.00  0.00     0.000 A 
ENDROOT
TORSDOF 0
ENDMDL
