MODEL 1
REMARK minimizedAffinity -4.14854431
REMARK minimizedRMSD -1
REMARK  0 active torsions:
REMARK  status: ('A' for Active; 'I' for Inactive)
ROOT
ATOM      1  C1  BNZ d   1      -0.158   3.721  -5.270  0.00  0.00     0.000 A 
ATOM      2  C2  BNZ d   1      -0.802   2.692  -4.637  0.00  0.00     0.000 A 
ATOM      3  C3  BNZ d   1      -0.701   2.530  -3.283  0.00  0.00     0.000 A 
ATOM      4  C4  BNZ d   1       0.075   3.373  -2.571  0.00  0.00     0.000 A 
ATOM      5  C5  BNZ d   1       0.738   4.410  -3.197  0.00  0.00     0.000 A 
ATOM      6  C6  BNZ d   1       0.603   4.592  -4.554  0.00  0.00     0.000 A 
ENDROOT
TORSDOF 0
ENDMDL
