MODEL 1
REMARK minimizedAffinity -3.10150981
REMARK minimizedRMSD -1
REMARK  0 active torsions:
REMARK  status: ('A' for Active; 'I' for Inactive)
ROOT
ATOM      1  C1  BNZ d   1       1.530  -1.856   1.955  0.00  0.00     0.000 A 
ATOM      2  C2  BNZ d   1       2.109  -1.516   0.762  0.00  0.00     0.000 A 
ATOM      3  C3  BNZ d   1       1.552  -0.559  -0.039  0.00  0.00     0.000 A 
ATOM      4  C4  BNZ d   1       0.396   0.028   0.334  0.00  0.00     0.000 A 
ATOM      5  C5  BNZ d   1      -0.205  -0.311   1.530  0.00  0.00     0.000 A 
ATOM      6  C6  BNZ d   1       0.380  -1.246   2.352  0.00  0.00     0.000 A 
ENDROOT
TORSDOF 0
ENDMDL
