MODEL 1
REMARK minimizedAffinity -2.92297721
REMARK minimizedRMSD -1
REMARK  0 active torsions:
REMARK  status: ('A' for Active; 'I' for Inactive)
ROOT
ATOM      1  C1  BNZ d   1      -0.888   2.145  -3.549  0.00  0.00     0.000 A 
ATOM      2  C2  BNZ d   1      -2.128   1.707  -3.931  0.00  0.00     0.000 A 
ATOM      3  C3  BNZ d   1      -2.958   1.091  -3.036  0.00  0.00     0.000 A 
ATOM      4  C4  BNZ d   1      -2.533   0.879  -1.774  0.00  0.00     0.000 A 
ATOM      5  C5  BNZ d   1      -1.282   1.307  -1.377  0.00  0.00     0.000 A 
ATOM      6  C6  BNZ d   1      -0.464   1.961  -2.269  0.00  0.00     0.000 A 
ENDROOT
TORSDOF 0
ENDMDL
