MODEL 1
REMARK minimizedAffinity -5.85015154
REMARK minimizedRMSD -1
REMARK  1 active torsions:
REMARK  status: ('A' for Active; 'I' for Inactive)
REMARK    1  A    between atoms: C1_2  and  C2_3 
ROOT
ATOM      1  C2  UNL d   1      -0.127  -1.064  -0.221  0.00  0.00    -0.076 A 
ATOM      2  C3  UNL d   1       0.364   0.212  -0.547  0.00  0.00     0.004 A 
ATOM      3  C4  UNL d   1      -0.148   1.356   0.062  0.00  0.00    -0.003 A 
ATOM      4  C5  UNL d   1      -1.160   1.243   1.009  0.00  0.00     0.000 A 
ATOM      5  C6  UNL d   1      -1.647  -0.017   1.359  0.00  0.00     0.000 A 
ATOM      6  C7  UNL d   1      -1.130  -1.181   0.766  0.00  0.00    -0.073 A 
ATOM      7  C8  UNL d   1      -1.696  -2.513   1.176  0.00  0.00     0.078 C 
ENDROOT
BRANCH   1   8
ATOM      8  C1  UNL d   1       0.448  -2.266  -0.934  0.00  0.00     0.053 C 
ATOM      9  C   UNL d   1       0.181  -2.238  -2.431  0.00  0.00     0.018 C 
ENDBRANCH   1   8
TORSDOF 1
ENDMDL
