MODEL 1
REMARK minimizedAffinity -4.56819153
REMARK minimizedRMSD -1
REMARK  1 active torsions:
REMARK  status: ('A' for Active; 'I' for Inactive)
REMARK    1  A    between atoms: C1_2  and  C2_3 
ROOT
ATOM      1  C2  UNL d   1      -0.284   0.119  -0.047  0.00  0.00    -0.076 A 
ATOM      2  C3  UNL d   1      -0.774   1.217  -0.775  0.00  0.00     0.004 A 
ATOM      3  C4  UNL d   1      -1.778   2.033  -0.256  0.00  0.00    -0.003 A 
ATOM      4  C5  UNL d   1      -2.308   1.764   1.001  0.00  0.00     0.000 A 
ATOM      5  C6  UNL d   1      -1.822   0.689   1.746  0.00  0.00     0.000 A 
ATOM      6  C7  UNL d   1      -0.799  -0.133   1.243  0.00  0.00    -0.073 A 
ATOM      7  C8  UNL d   1      -0.316  -1.282   2.086  0.00  0.00     0.078 C 
ENDROOT
BRANCH   1   8
ATOM      8  C1  UNL d   1       0.786  -0.746  -0.673  0.00  0.00     0.053 C 
ATOM      9  C   UNL d   1       0.209  -1.820  -1.582  0.00  0.00     0.018 C 
ENDBRANCH   1   8
TORSDOF 1
ENDMDL
