MODEL 1
REMARK minimizedAffinity -3.5148685
REMARK minimizedRMSD -1
REMARK  1 active torsions:
REMARK  status: ('A' for Active; 'I' for Inactive)
REMARK    1  A    between atoms: C1_2  and  C2_3 
ROOT
ATOM      1  C2  UNL d   1      -0.427   0.948   0.584  0.00  0.00    -0.076 A 
ATOM      2  C3  UNL d   1      -0.009   1.745  -0.496  0.00  0.00     0.004 A 
ATOM      3  C4  UNL d   1       0.758   1.209  -1.529  0.00  0.00    -0.003 A 
ATOM      4  C5  UNL d   1       1.119  -0.134  -1.499  0.00  0.00     0.000 A 
ATOM      5  C6  UNL d   1       0.698  -0.944  -0.444  0.00  0.00     0.000 A 
ATOM      6  C7  UNL d   1      -0.089  -0.422   0.597  0.00  0.00    -0.073 A 
ATOM      7  C8  UNL d   1      -0.510  -1.339   1.712  0.00  0.00     0.078 C 
ENDROOT
BRANCH   1   8
ATOM      8  C1  UNL d   1      -1.234   1.591   1.689  0.00  0.00     0.053 C 
ATOM      9  C   UNL d   1      -2.526   2.211   1.182  0.00  0.00     0.018 C 
ENDBRANCH   1   8
TORSDOF 1
ENDMDL
