MODEL 1
REMARK minimizedAffinity -3.18764424
REMARK minimizedRMSD -1
REMARK  1 active torsions:
REMARK  status: ('A' for Active; 'I' for Inactive)
REMARK    1  A    between atoms: C1_2  and  C2_3 
ROOT
ATOM      1  C2  UNL d   1      -0.444   0.677   0.043  0.00  0.00    -0.076 A 
ATOM      2  C3  UNL d   1      -1.519   1.318  -0.596  0.00  0.00     0.004 A 
ATOM      3  C4  UNL d   1      -2.562   1.877   0.141  0.00  0.00    -0.003 A 
ATOM      4  C5  UNL d   1      -2.545   1.805   1.529  0.00  0.00     0.000 A 
ATOM      5  C6  UNL d   1      -1.478   1.189   2.181  0.00  0.00     0.000 A 
ATOM      6  C7  UNL d   1      -0.411   0.634   1.453  0.00  0.00    -0.073 A 
ATOM      7  C8  UNL d   1       0.712  -0.024   2.207  0.00  0.00     0.078 C 
ENDROOT
BRANCH   1   8
ATOM      8  C1  UNL d   1       0.645   0.065  -0.810  0.00  0.00     0.053 C 
ATOM      9  C   UNL d   1       1.468   1.112  -1.543  0.00  0.00     0.018 C 
ENDBRANCH   1   8
TORSDOF 1
ENDMDL
