MODEL 1
REMARK minimizedAffinity -6.21848154
REMARK minimizedRMSD -1
REMARK  1 active torsions:
REMARK  status: ('A' for Active; 'I' for Inactive)
REMARK    1  A    between atoms: C1_2  and  C2_3 
ROOT
ATOM      1  C2  UNL d   1      -0.179   0.155   0.192  0.00  0.00    -0.076 A 
ATOM      2  C3  UNL d   1       0.124   1.273  -0.605  0.00  0.00     0.004 A 
ATOM      3  C4  UNL d   1      -0.562   2.476  -0.445  0.00  0.00    -0.003 A 
ATOM      4  C5  UNL d   1      -1.562   2.581   0.515  0.00  0.00     0.000 A 
ATOM      5  C6  UNL d   1      -1.864   1.487   1.327  0.00  0.00     0.000 A 
ATOM      6  C7  UNL d   1      -1.171   0.273   1.189  0.00  0.00    -0.073 A 
ATOM      7  C8  UNL d   1      -1.542  -0.876   2.087  0.00  0.00     0.078 C 
ENDROOT
BRANCH   1   8
ATOM      8  C1  UNL d   1       0.579  -1.131  -0.045  0.00  0.00     0.053 C 
ATOM      9  C   UNL d   1       0.120  -1.855  -1.302  0.00  0.00     0.018 C 
ENDBRANCH   1   8
TORSDOF 1
ENDMDL
