MODEL 1
REMARK minimizedAffinity -5.75634193
REMARK minimizedRMSD -1
REMARK  1 active torsions:
REMARK  status: ('A' for Active; 'I' for Inactive)
REMARK    1  A    between atoms: C1_2  and  C2_3 
ROOT
ATOM      1  C2  UNL d   1      -0.161  -0.166   0.155  0.00  0.00    -0.076 A 
ATOM      2  C3  UNL d   1      -0.495   0.984  -0.581  0.00  0.00     0.004 A 
ATOM      3  C4  UNL d   1      -1.366   1.940  -0.062  0.00  0.00    -0.003 A 
ATOM      4  C5  UNL d   1      -1.917   1.762   1.202  0.00  0.00     0.000 A 
ATOM      5  C6  UNL d   1      -1.583   0.636   1.953  0.00  0.00     0.000 A 
ATOM      6  C7  UNL d   1      -0.694  -0.330   1.451  0.00  0.00    -0.073 A 
ATOM      7  C8  UNL d   1      -0.374  -1.528   2.302  0.00  0.00     0.078 C 
ENDROOT
BRANCH   1   8
ATOM      8  C1  UNL d   1       0.768  -1.182  -0.471  0.00  0.00     0.053 C 
ATOM      9  C   UNL d   1       0.099  -1.976  -1.583  0.00  0.00     0.018 C 
ENDBRANCH   1   8
TORSDOF 1
ENDMDL
