MODEL 1
REMARK minimizedAffinity -4.71656561
REMARK minimizedRMSD -1
REMARK  1 active torsions:
REMARK  status: ('A' for Active; 'I' for Inactive)
REMARK    1  A    between atoms: C1_2  and  C2_3 
ROOT
ATOM      1  C2  UNL d   1       0.113   0.165   0.049  0.00  0.00    -0.076 A 
ATOM      2  C3  UNL d   1      -0.456  -0.522   1.135  0.00  0.00     0.004 A 
ATOM      3  C4  UNL d   1      -1.443   0.070   1.921  0.00  0.00    -0.003 A 
ATOM      4  C5  UNL d   1      -1.879   1.358   1.632  0.00  0.00     0.000 A 
ATOM      5  C6  UNL d   1      -1.338   2.048   0.547  0.00  0.00     0.000 A 
ATOM      6  C7  UNL d   1      -0.353   1.460  -0.265  0.00  0.00    -0.073 A 
ATOM      7  C8  UNL d   1       0.199   2.252  -1.418  0.00  0.00     0.078 C 
ENDROOT
BRANCH   1   8
ATOM      8  C1  UNL d   1       1.200  -0.517  -0.751  0.00  0.00     0.053 C 
ATOM      9  C   UNL d   1       0.820  -1.931  -1.164  0.00  0.00     0.018 C 
ENDBRANCH   1   8
TORSDOF 1
ENDMDL
