MODEL 1
REMARK minimizedAffinity -4.56588316
REMARK minimizedRMSD -1
REMARK  1 active torsions:
REMARK  status: ('A' for Active; 'I' for Inactive)
REMARK    1  A    between atoms: C1_2  and  C2_3 
ROOT
ATOM      1  C2  UNL d   1      -0.254   0.467   0.279  0.00  0.00    -0.076 A 
ATOM      2  C3  UNL d   1      -1.050   1.364  -0.455  0.00  0.00     0.004 A 
ATOM      3  C4  UNL d   1      -2.040   2.121   0.169  0.00  0.00    -0.003 A 
ATOM      4  C5  UNL d   1      -2.249   1.994   1.538  0.00  0.00     0.000 A 
ATOM      5  C6  UNL d   1      -1.457   1.123   2.285  0.00  0.00     0.000 A 
ATOM      6  C7  UNL d   1      -0.444   0.364   1.674  0.00  0.00    -0.073 A 
ATOM      7  C8  UNL d   1       0.376  -0.565   2.526  0.00  0.00     0.078 C 
ENDROOT
BRANCH   1   8
ATOM      8  C1  UNL d   1       0.786  -0.348  -0.456  0.00  0.00     0.053 C 
ATOM      9  C   UNL d   1       0.167  -1.366  -1.401  0.00  0.00     0.018 C 
ENDBRANCH   1   8
TORSDOF 1
ENDMDL
