MODEL 1
REMARK minimizedAffinity -2.56851673
REMARK minimizedRMSD -1
REMARK  1 active torsions:
REMARK  status: ('A' for Active; 'I' for Inactive)
REMARK    1  A    between atoms: C1_2  and  C2_3 
ROOT
ATOM      1  C2  UNL d   1       0.133  -0.613  -0.411  0.00  0.00    -0.076 A 
ATOM      2  C3  UNL d   1      -0.442   0.303  -1.309  0.00  0.00     0.004 A 
ATOM      3  C4  UNL d   1      -1.228   1.359  -0.851  0.00  0.00    -0.003 A 
ATOM      4  C5  UNL d   1      -1.452   1.516   0.512  0.00  0.00     0.000 A 
ATOM      5  C6  UNL d   1      -0.875   0.627   1.418  0.00  0.00     0.000 A 
ATOM      6  C7  UNL d   1      -0.067  -0.433   0.975  0.00  0.00    -0.073 A 
ATOM      7  C8  UNL d   1       0.525  -1.366   1.996  0.00  0.00     0.078 C 
ENDROOT
BRANCH   1   8
ATOM      8  C1  UNL d   1       0.954  -1.755  -0.967  0.00  0.00     0.053 C 
ATOM      9  C   UNL d   1       0.152  -2.649  -1.900  0.00  0.00     0.018 C 
ENDBRANCH   1   8
TORSDOF 1
ENDMDL
