MODEL 1
REMARK minimizedAffinity -3.08634138
REMARK minimizedRMSD -1
REMARK  1 active torsions:
REMARK  status: ('A' for Active; 'I' for Inactive)
REMARK    1  A    between atoms: C1_2  and  C2_3 
ROOT
ATOM      1  C2  UNL d   1       1.622  -1.210  -1.978  0.00  0.00    -0.076 A 
ATOM      2  C3  UNL d   1       1.998   0.063  -1.516  0.00  0.00     0.004 A 
ATOM      3  C4  UNL d   1       1.256   0.717  -0.534  0.00  0.00    -0.003 A 
ATOM      4  C5  UNL d   1       0.126   0.109   0.002  0.00  0.00     0.000 A 
ATOM      5  C6  UNL d   1      -0.252  -1.161  -0.433  0.00  0.00     0.000 A 
ATOM      6  C7  UNL d   1       0.494  -1.841  -1.410  0.00  0.00    -0.073 A 
ATOM      7  C8  UNL d   1       0.038  -3.206  -1.846  0.00  0.00     0.078 C 
ENDROOT
BRANCH   1   8
ATOM      8  C1  UNL d   1       2.449  -1.860  -3.064  0.00  0.00     0.053 C 
ATOM      9  C   UNL d   1       1.874  -1.626  -4.453  0.00  0.00     0.018 C 
ENDBRANCH   1   8
TORSDOF 1
ENDMDL
