MODEL 1
REMARK minimizedAffinity -6.29637623
REMARK minimizedRMSD -1
REMARK  1 active torsions:
REMARK  status: ('A' for Active; 'I' for Inactive)
REMARK    1  A    between atoms: C1_2  and  C2_3 
ROOT
ATOM      1  C2  UNL d   1       0.111   0.020   0.014  0.00  0.00    -0.076 A 
ATOM      2  C3  UNL d   1      -0.380  -0.690   1.123  0.00  0.00     0.004 A 
ATOM      3  C4  UNL d   1      -1.322  -0.120   1.979  0.00  0.00    -0.003 A 
ATOM      4  C5  UNL d   1      -1.788   1.167   1.739  0.00  0.00     0.000 A 
ATOM      5  C6  UNL d   1      -1.325   1.879   0.633  0.00  0.00     0.000 A 
ATOM      6  C7  UNL d   1      -0.388   1.313  -0.249  0.00  0.00    -0.073 A 
ATOM      7  C8  UNL d   1       0.082   2.128  -1.423  0.00  0.00     0.078 C 
ENDROOT
BRANCH   1   8
ATOM      8  C1  UNL d   1       1.151  -0.639  -0.864  0.00  0.00     0.053 C 
ATOM      9  C   UNL d   1       0.859  -2.111  -1.110  0.00  0.00     0.018 C 
ENDBRANCH   1   8
TORSDOF 1
ENDMDL
