MODEL 1
REMARK minimizedAffinity 6.06884003
REMARK minimizedRMSD -1
REMARK  1 active torsions:
REMARK  status: ('A' for Active; 'I' for Inactive)
REMARK    1  A    between atoms: N_2  and  C1_3 
ROOT
ATOM      1  C1  UNL d   1       1.108  -2.223   1.348  0.00  0.00     0.143 A 
ATOM      2  C2  UNL d   1      -0.268  -2.344   1.572  0.00  0.00    -0.057 A 
ATOM      3  C3  UNL d   1      -0.895  -1.665   2.625  0.00  0.00     0.033 A 
ATOM      4  C4  UNL d   1      -0.149  -0.874   3.492  0.00  0.00    -0.042 A 
ATOM      5  C5  UNL d   1       1.224  -0.759   3.303  0.00  0.00     0.033 A 
ATOM      6  C6  UNL d   1       1.843  -1.433   2.247  0.00  0.00    -0.057 A 
ENDROOT
BRANCH   1   7
ATOM      7  N   UNL d   1       1.805  -2.949   0.380  0.00  0.00    -0.732 N 
ATOM      8  C   UNL d   1       1.889  -4.392   0.459  0.00  0.00     0.284 C 
ATOM      9  H3  UNL d   1       1.649  -2.592  -0.560  0.00  0.00     0.395 HD
ENDBRANCH   1   7
TORSDOF 1
ENDMDL
