MODEL 1
REMARK minimizedAffinity 9.40803814
REMARK minimizedRMSD -1
REMARK  1 active torsions:
REMARK  status: ('A' for Active; 'I' for Inactive)
REMARK    1  A    between atoms: N_2  and  C1_3 
ROOT
ATOM      1  C1  UNL d   1      -3.960   3.540   5.372  0.00  0.00     0.143 A 
ATOM      2  C2  UNL d   1      -4.508   3.497   4.086  0.00  0.00    -0.057 A 
ATOM      3  C3  UNL d   1      -4.815   2.278   3.468  0.00  0.00     0.033 A 
ATOM      4  C4  UNL d   1      -4.551   1.076   4.117  0.00  0.00    -0.042 A 
ATOM      5  C5  UNL d   1      -3.983   1.095   5.385  0.00  0.00     0.033 A 
ATOM      6  C6  UNL d   1      -3.685   2.315   6.000  0.00  0.00    -0.057 A 
ENDROOT
BRANCH   1   7
ATOM      7  N   UNL d   1      -3.542   4.716   6.000  0.00  0.00    -0.732 N 
ATOM      8  C   UNL d   1      -4.381   5.895   5.991  0.00  0.00     0.284 C 
ATOM      9  H3  UNL d   1      -3.083   4.538   6.891  0.00  0.00     0.395 HD
ENDBRANCH   1   7
TORSDOF 1
ENDMDL
