MODEL 1
REMARK minimizedAffinity 7.19629765
REMARK minimizedRMSD -1
REMARK  1 active torsions:
REMARK  status: ('A' for Active; 'I' for Inactive)
REMARK    1  A    between atoms: N_2  and  C1_3 
ROOT
ATOM      1  C1  UNL d   1       1.676  -3.120   0.377  0.00  0.00     0.143 A 
ATOM      2  C2  UNL d   1       0.402  -2.602   0.635  0.00  0.00    -0.057 A 
ATOM      3  C3  UNL d   1       0.228  -1.475   1.448  0.00  0.00     0.033 A 
ATOM      4  C4  UNL d   1       1.327  -0.863   2.043  0.00  0.00    -0.042 A 
ATOM      5  C5  UNL d   1       2.599  -1.377   1.821  0.00  0.00     0.033 A 
ATOM      6  C6  UNL d   1       2.767  -2.498   1.002  0.00  0.00    -0.057 A 
ENDROOT
BRANCH   1   7
ATOM      7  N   UNL d   1       1.906  -4.295  -0.343  0.00  0.00    -0.732 N 
ATOM      8  C   UNL d   1       2.386  -5.486   0.324  0.00  0.00     0.284 C 
ATOM      9  H3  UNL d   1       1.186  -4.471  -1.040  0.00  0.00     0.395 HD
ENDBRANCH   1   7
TORSDOF 1
ENDMDL
