MODEL 1
REMARK minimizedAffinity 11.490118
REMARK minimizedRMSD -1
REMARK  1 active torsions:
REMARK  status: ('A' for Active; 'I' for Inactive)
REMARK    1  A    between atoms: N_2  and  C1_3 
ROOT
ATOM      1  C1  UNL d   1       4.715  -3.806   5.729  0.00  0.00     0.143 A 
ATOM      2  C2  UNL d   1       5.857  -3.036   5.977  0.00  0.00    -0.057 A 
ATOM      3  C3  UNL d   1       5.892  -1.670   5.671  0.00  0.00     0.033 A 
ATOM      4  C4  UNL d   1       4.792  -1.054   5.083  0.00  0.00    -0.042 A 
ATOM      5  C5  UNL d   1       3.656  -1.805   4.805  0.00  0.00     0.033 A 
ATOM      6  C6  UNL d   1       3.624  -3.167   5.119  0.00  0.00    -0.057 A 
ENDROOT
BRANCH   1   7
ATOM      7  N   UNL d   1       4.652  -5.188   5.919  0.00  0.00    -0.732 N 
ATOM      8  C   UNL d   1       5.853  -5.994   5.870  0.00  0.00     0.284 C 
ATOM      9  H3  UNL d   1       4.006  -5.449   6.661  0.00  0.00     0.395 HD
ENDBRANCH   1   7
TORSDOF 1
ENDMDL
