MODEL 1
REMARK minimizedAffinity 5.51793385
REMARK minimizedRMSD -1
REMARK  1 active torsions:
REMARK  status: ('A' for Active; 'I' for Inactive)
REMARK    1  A    between atoms: N_2  and  C1_3 
ROOT
ATOM      1  C1  UNL d   1       3.461  -2.846   2.321  0.00  0.00     0.143 A 
ATOM      2  C2  UNL d   1       3.283  -3.484   1.089  0.00  0.00    -0.057 A 
ATOM      3  C3  UNL d   1       2.336  -3.026   0.164  0.00  0.00     0.033 A 
ATOM      4  C4  UNL d   1       1.528  -1.936   0.469  0.00  0.00    -0.042 A 
ATOM      5  C5  UNL d   1       1.671  -1.302   1.698  0.00  0.00     0.033 A 
ATOM      6  C6  UNL d   1       2.623  -1.759   2.614  0.00  0.00    -0.057 A 
ENDROOT
BRANCH   1   7
ATOM      7  N   UNL d   1       4.317  -3.313   3.322  0.00  0.00    -0.732 N 
ATOM      8  C   UNL d   1       4.604  -2.500   4.484  0.00  0.00     0.284 C 
ATOM      9  H3  UNL d   1       4.171  -4.298   3.529  0.00  0.00     0.395 HD
ENDBRANCH   1   7
TORSDOF 1
ENDMDL
