MODEL 1
REMARK minimizedAffinity 9.74773502
REMARK minimizedRMSD -1
REMARK  1 active torsions:
REMARK  status: ('A' for Active; 'I' for Inactive)
REMARK    1  A    between atoms: N_2  and  C1_3 
ROOT
ATOM      1  C1  UNL d   1       0.703  -1.952   0.018  0.00  0.00     0.143 A 
ATOM      2  C2  UNL d   1       1.323  -0.894   0.692  0.00  0.00    -0.057 A 
ATOM      3  C3  UNL d   1       2.501  -1.089   1.424  0.00  0.00     0.033 A 
ATOM      4  C4  UNL d   1       3.065  -2.357   1.519  0.00  0.00    -0.042 A 
ATOM      5  C5  UNL d   1       2.453  -3.428   0.877  0.00  0.00     0.033 A 
ATOM      6  C6  UNL d   1       1.281  -3.225   0.143  0.00  0.00    -0.057 A 
ENDROOT
BRANCH   1   7
ATOM      7  N   UNL d   1      -0.522  -1.841  -0.644  0.00  0.00    -0.732 N 
ATOM      8  C   UNL d   1      -0.803  -0.700  -1.489  0.00  0.00     0.284 C 
ATOM      9  H3  UNL d   1      -0.838  -2.729  -1.026  0.00  0.00     0.395 HD
ENDBRANCH   1   7
TORSDOF 1
ENDMDL
