MODEL 1
REMARK minimizedAffinity 4.10652399
REMARK minimizedRMSD -1
REMARK  1 active torsions:
REMARK  status: ('A' for Active; 'I' for Inactive)
REMARK    1  A    between atoms: N_2  and  C1_3 
ROOT
ATOM      1  C1  UNL d   1       4.664   3.528  -4.658  0.00  0.00     0.143 A 
ATOM      2  C2  UNL d   1       3.642   4.483  -4.649  0.00  0.00    -0.057 A 
ATOM      3  C3  UNL d   1       3.781   5.702  -5.324  0.00  0.00     0.033 A 
ATOM      4  C4  UNL d   1       4.960   6.000  -5.998  0.00  0.00    -0.042 A 
ATOM      5  C5  UNL d   1       6.000   5.076  -6.000  0.00  0.00     0.033 A 
ATOM      6  C6  UNL d   1       5.852   3.858  -5.329  0.00  0.00    -0.057 A 
ENDROOT
BRANCH   1   7
ATOM      7  N   UNL d   1       4.625   2.340  -3.925  0.00  0.00    -0.732 N 
ATOM      8  C   UNL d   1       4.957   1.077  -4.549  0.00  0.00     0.284 C 
ATOM      9  H3  UNL d   1       4.999   2.451  -2.985  0.00  0.00     0.395 HD
ENDBRANCH   1   7
TORSDOF 1
ENDMDL
