MODEL 1
REMARK minimizedAffinity 9.61842823
REMARK minimizedRMSD -1
REMARK  1 active torsions:
REMARK  status: ('A' for Active; 'I' for Inactive)
REMARK    1  A    between atoms: N_2  and  C1_3 
ROOT
ATOM      1  C1  UNL d   1       5.168  -3.039   5.815  0.00  0.00     0.143 A 
ATOM      2  C2  UNL d   1       5.991  -4.168   5.887  0.00  0.00    -0.057 A 
ATOM      3  C3  UNL d   1       5.451  -5.457   5.964  0.00  0.00     0.033 A 
ATOM      4  C4  UNL d   1       4.072  -5.638   5.999  0.00  0.00    -0.042 A 
ATOM      5  C5  UNL d   1       3.235  -4.529   5.954  0.00  0.00     0.033 A 
ATOM      6  C6  UNL d   1       3.781  -3.245   5.871  0.00  0.00    -0.057 A 
ENDROOT
BRANCH   1   7
ATOM      7  N   UNL d   1       5.645  -1.726   5.837  0.00  0.00    -0.732 N 
ATOM      8  C   UNL d   1       5.958  -1.035   4.604  0.00  0.00     0.284 C 
ATOM      9  H3  UNL d   1       5.167  -1.150   6.526  0.00  0.00     0.395 HD
ENDBRANCH   1   7
TORSDOF 1
ENDMDL
