MODEL 1
REMARK minimizedAffinity 7.21553564
REMARK minimizedRMSD -1
REMARK  0 active torsions:
REMARK  status: ('A' for Active; 'I' for Inactive)
ROOT
ATOM      1  C   UNL d   1       5.637  -6.000  -1.041  0.00  0.00     0.077 C 
ATOM      2  C1  UNL d   1       5.124  -5.070   0.018  0.00  0.00    -0.074 A 
ATOM      3  C2  UNL d   1       6.000  -4.266   0.755  0.00  0.00    -0.005 A 
ATOM      4  C3  UNL d   1       5.507  -3.399   1.730  0.00  0.00     0.006 A 
ATOM      5  C4  UNL d   1       4.136  -3.328   1.979  0.00  0.00    -0.005 A 
ATOM      6  C5  UNL d   1       3.245  -4.124   1.252  0.00  0.00    -0.074 A 
ATOM      7  C6  UNL d   1       1.767  -4.053   1.499  0.00  0.00     0.077 C 
ATOM      8  C7  UNL d   1       3.747  -4.987   0.268  0.00  0.00    -0.001 A 
ENDROOT
TORSDOF 0
ENDMDL
