MODEL 1
REMARK minimizedAffinity 6.80270386
REMARK minimizedRMSD -1
REMARK  0 active torsions:
REMARK  status: ('A' for Active; 'I' for Inactive)
ROOT
ATOM      1  C   UNL d   1       5.180  -5.999   5.205  0.00  0.00     0.077 C 
ATOM      2  C1  UNL d   1       4.463  -4.696   5.017  0.00  0.00    -0.074 A 
ATOM      3  C2  UNL d   1       4.509  -3.702   6.000  0.00  0.00    -0.005 A 
ATOM      4  C3  UNL d   1       3.845  -2.491   5.807  0.00  0.00     0.006 A 
ATOM      5  C4  UNL d   1       3.128  -2.262   4.632  0.00  0.00    -0.005 A 
ATOM      6  C5  UNL d   1       3.071  -3.244   3.637  0.00  0.00    -0.074 A 
ATOM      7  C6  UNL d   1       2.313  -3.010   2.364  0.00  0.00     0.077 C 
ATOM      8  C7  UNL d   1       3.747  -4.455   3.836  0.00  0.00    -0.001 A 
ENDROOT
TORSDOF 0
ENDMDL
