MODEL 1
REMARK minimizedAffinity 9.35819912
REMARK minimizedRMSD -1
REMARK  0 active torsions:
REMARK  status: ('A' for Active; 'I' for Inactive)
ROOT
ATOM      1  C   UNL d   1       5.200  -5.922  -1.094  0.00  0.00     0.077 C 
ATOM      2  C1  UNL d   1       4.885  -5.010   0.054  0.00  0.00    -0.074 A 
ATOM      3  C2  UNL d   1       5.903  -4.331   0.733  0.00  0.00    -0.005 A 
ATOM      4  C3  UNL d   1       5.594  -3.478   1.792  0.00  0.00     0.006 A 
ATOM      5  C4  UNL d   1       4.267  -3.296   2.184  0.00  0.00    -0.005 A 
ATOM      6  C5  UNL d   1       3.236  -3.966   1.517  0.00  0.00    -0.074 A 
ATOM      7  C6  UNL d   1       1.804  -3.774   1.919  0.00  0.00     0.077 C 
ATOM      8  C7  UNL d   1       3.554  -4.816   0.449  0.00  0.00    -0.001 A 
ENDROOT
TORSDOF 0
ENDMDL
