MODEL 1
REMARK minimizedAffinity 0.742229939
REMARK minimizedRMSD -1
REMARK  0 active torsions:
REMARK  status: ('A' for Active; 'I' for Inactive)
ROOT
ATOM      1  C   UNL d   1       4.084  -5.478   4.949  0.00  0.00     0.077 C 
ATOM      2  C1  UNL d   1       3.736  -4.800   3.657  0.00  0.00    -0.074 A 
ATOM      3  C2  UNL d   1       4.610  -4.838   2.567  0.00  0.00    -0.005 A 
ATOM      4  C3  UNL d   1       4.269  -4.211   1.368  0.00  0.00     0.006 A 
ATOM      5  C4  UNL d   1       3.051  -3.540   1.249  0.00  0.00    -0.005 A 
ATOM      6  C5  UNL d   1       2.163  -3.492   2.328  0.00  0.00    -0.074 A 
ATOM      7  C6  UNL d   1       0.846  -2.783   2.214  0.00  0.00     0.077 C 
ATOM      8  C7  UNL d   1       2.511  -4.130   3.527  0.00  0.00    -0.001 A 
ENDROOT
TORSDOF 0
ENDMDL
