MODEL 1
REMARK minimizedAffinity 9.08980656
REMARK minimizedRMSD -1
REMARK  0 active torsions:
REMARK  status: ('A' for Active; 'I' for Inactive)
ROOT
ATOM      1  C   UNL d   1       2.666   1.646   1.088  0.00  0.00     0.077 C 
ATOM      2  C1  UNL d   1       1.800   0.522   0.601  0.00  0.00    -0.074 A 
ATOM      3  C2  UNL d   1       1.018   0.663  -0.550  0.00  0.00    -0.005 A 
ATOM      4  C3  UNL d   1       0.225  -0.394  -0.996  0.00  0.00     0.006 A 
ATOM      5  C4  UNL d   1       0.206  -1.601  -0.296  0.00  0.00    -0.005 A 
ATOM      6  C5  UNL d   1       0.981  -1.761   0.857  0.00  0.00    -0.074 A 
ATOM      7  C6  UNL d   1       0.979  -3.055   1.615  0.00  0.00     0.077 C 
ATOM      8  C7  UNL d   1       1.781  -0.697   1.294  0.00  0.00    -0.001 A 
ENDROOT
TORSDOF 0
ENDMDL
