MODEL 1
REMARK minimizedAffinity -1.33271348
REMARK minimizedRMSD -1
REMARK  0 active torsions:
REMARK  status: ('A' for Active; 'I' for Inactive)
ROOT
ATOM      1  C   UNL d   1       4.099  -4.172   5.999  0.00  0.00     0.077 C 
ATOM      2  C1  UNL d   1       3.637  -4.500   4.611  0.00  0.00    -0.074 A 
ATOM      3  C2  UNL d   1       4.002  -5.703   3.997  0.00  0.00    -0.005 A 
ATOM      4  C3  UNL d   1       3.556  -5.999   2.709  0.00  0.00     0.006 A 
ATOM      5  C4  UNL d   1       2.742  -5.097   2.023  0.00  0.00    -0.005 A 
ATOM      6  C5  UNL d   1       2.366  -3.890   2.620  0.00  0.00    -0.074 A 
ATOM      7  C6  UNL d   1       1.483  -2.914   1.900  0.00  0.00     0.077 C 
ATOM      8  C7  UNL d   1       2.812  -3.603   3.918  0.00  0.00    -0.001 A 
ENDROOT
TORSDOF 0
ENDMDL
