MODEL 1
REMARK minimizedAffinity 6.96996737
REMARK minimizedRMSD -1
REMARK  0 active torsions:
REMARK  status: ('A' for Active; 'I' for Inactive)
ROOT
ATOM      1  C   UNL d   1       1.834  -3.746   1.103  0.00  0.00     0.077 C 
ATOM      2  C1  UNL d   1       3.289  -4.080   0.960  0.00  0.00    -0.074 A 
ATOM      3  C2  UNL d   1       4.213  -3.707   1.942  0.00  0.00    -0.005 A 
ATOM      4  C3  UNL d   1       5.561  -4.034   1.800  0.00  0.00     0.006 A 
ATOM      5  C4  UNL d   1       5.999  -4.735   0.676  0.00  0.00    -0.005 A 
ATOM      6  C5  UNL d   1       5.091  -5.117  -0.316  0.00  0.00    -0.074 A 
ATOM      7  C6  UNL d   1       5.543  -5.880  -1.526  0.00  0.00     0.077 C 
ATOM      8  C7  UNL d   1       3.736  -4.792  -0.162  0.00  0.00    -0.001 A 
ENDROOT
TORSDOF 0
ENDMDL
