MODEL 1
REMARK minimizedAffinity -3.88758302
REMARK minimizedRMSD -1
REMARK  2 active torsions:
REMARK  status: ('A' for Active; 'I' for Inactive)
REMARK    1  A    between atoms: C2'_3  and  C1'_4 
REMARK    2  A    between atoms: C1'_4  and  C1_5 
ROOT
ATOM      1  C1  I4B d   1       0.170   0.181  -1.165  0.00  0.00    -0.075 A 
ATOM      2  C2  I4B d   1      -1.112  -0.001  -0.708  0.00  0.00     0.003 A 
ATOM      3  C3  I4B d   1      -1.356  -0.182   0.675  0.00  0.00     0.002 A 
ATOM      4  C4  I4B d   1      -0.293  -0.223   1.553  0.00  0.00    -0.004 A 
ATOM      5  C5  I4B d   1       1.003  -0.016   1.091  0.00  0.00     0.002 A 
ATOM      6  C6  I4B d   1       1.236   0.200  -0.275  0.00  0.00     0.003 A 
ENDROOT
BRANCH   1   7
ATOM      7  C1' I4B d   1       0.395   0.336  -2.636  0.00  0.00     0.060 C 
BRANCH   7   8
ATOM      8  C2' I4B d   1       0.960  -0.968  -3.161  0.00  0.00    -0.013 C 
ATOM      9  C4' I4B d   1       0.095  -1.534  -4.257  0.00  0.00     0.013 C 
ATOM     10  C3' I4B d   1       2.352  -0.706  -3.651  0.00  0.00     0.013 C 
ENDBRANCH   7   8
ENDBRANCH   1   7
TORSDOF 2
ENDMDL
