MODEL 1
REMARK minimizedAffinity -3.39440966
REMARK minimizedRMSD -1
REMARK  2 active torsions:
REMARK  status: ('A' for Active; 'I' for Inactive)
REMARK    1  A    between atoms: C2'_3  and  C1'_4 
REMARK    2  A    between atoms: C1'_4  and  C1_5 
ROOT
ATOM      1  C1  I4B d   1       0.212   0.244  -0.314  0.00  0.00    -0.075 A 
ATOM      2  C2  I4B d   1       1.310   0.800   0.293  0.00  0.00     0.003 A 
ATOM      3  C3  I4B d   1       1.447   0.751   1.701  0.00  0.00     0.002 A 
ATOM      4  C4  I4B d   1       0.445   0.185   2.463  0.00  0.00    -0.004 A 
ATOM      5  C5  I4B d   1      -0.657  -0.398   1.844  0.00  0.00     0.002 A 
ATOM      6  C6  I4B d   1      -0.769  -0.380   0.446  0.00  0.00     0.003 A 
ENDROOT
BRANCH   1   7
ATOM      7  C1' I4B d   1       0.083   0.342  -1.801  0.00  0.00     0.060 C 
BRANCH   7   8
ATOM      8  C2' I4B d   1       0.916  -0.764  -2.416  0.00  0.00    -0.013 C 
ATOM      9  C4' I4B d   1       0.045  -1.801  -3.074  0.00  0.00     0.013 C 
ATOM     10  C3' I4B d   1       1.856  -0.140  -3.404  0.00  0.00     0.013 C 
ENDBRANCH   7   8
ENDBRANCH   1   7
TORSDOF 2
ENDMDL
