MODEL 1
REMARK minimizedAffinity -5.23676729
REMARK minimizedRMSD -1
REMARK  2 active torsions:
REMARK  status: ('A' for Active; 'I' for Inactive)
REMARK    1  A    between atoms: C2'_3  and  C1'_4 
REMARK    2  A    between atoms: C1'_4  and  C1_5 
ROOT
ATOM      1  C1  I4B d   1      -1.044  -0.396   1.625  0.00  0.00    -0.075 A 
ATOM      2  C2  I4B d   1      -0.663  -0.452   2.943  0.00  0.00     0.003 A 
ATOM      3  C3  I4B d   1      -1.564  -0.058   3.962  0.00  0.00     0.002 A 
ATOM      4  C4  I4B d   1      -2.808   0.430   3.618  0.00  0.00    -0.004 A 
ATOM      5  C5  I4B d   1      -3.200   0.464   2.283  0.00  0.00     0.002 A 
ATOM      6  C6  I4B d   1      -2.317   0.037   1.280  0.00  0.00     0.003 A 
ENDROOT
BRANCH   1   7
ATOM      7  C1' I4B d   1      -0.056  -0.789   0.573  0.00  0.00     0.060 C 
BRANCH   7   8
ATOM      8  C2' I4B d   1       0.324   0.458  -0.200  0.00  0.00    -0.013 C 
ATOM      9  C4' I4B d   1       1.262   1.328   0.595  0.00  0.00     0.013 C 
ATOM     10  C3' I4B d   1       0.949   0.029  -1.494  0.00  0.00     0.013 C 
ENDBRANCH   7   8
ENDBRANCH   1   7
TORSDOF 2
ENDMDL
