MODEL 1
REMARK minimizedAffinity -2.45019293
REMARK minimizedRMSD -1
REMARK  2 active torsions:
REMARK  status: ('A' for Active; 'I' for Inactive)
REMARK    1  A    between atoms: C2'_3  and  C1'_4 
REMARK    2  A    between atoms: C1'_4  and  C1_5 
ROOT
ATOM      1  C1  I4B d   1      -0.311  -0.607   0.614  0.00  0.00    -0.075 A 
ATOM      2  C2  I4B d   1      -1.412  -1.166   1.213  0.00  0.00     0.003 A 
ATOM      3  C3  I4B d   1      -2.714  -0.782   0.811  0.00  0.00     0.002 A 
ATOM      4  C4  I4B d   1      -2.869   0.194  -0.152  0.00  0.00    -0.004 A 
ATOM      5  C5  I4B d   1      -1.752   0.744  -0.774  0.00  0.00     0.002 A 
ATOM      6  C6  I4B d   1      -0.465   0.332  -0.398  0.00  0.00     0.003 A 
ENDROOT
BRANCH   1   7
ATOM      7  C1' I4B d   1       1.050  -1.011   1.085  0.00  0.00     0.060 C 
BRANCH   7   8
ATOM      8  C2' I4B d   1       1.601   0.114   1.938  0.00  0.00    -0.013 C 
ATOM      9  C4' I4B d   1       1.988   1.299   1.093  0.00  0.00     0.013 C 
ATOM     10  C3' I4B d   1       0.555   0.486   2.947  0.00  0.00     0.013 C 
ENDBRANCH   7   8
ENDBRANCH   1   7
TORSDOF 2
ENDMDL
