MODEL 1
REMARK minimizedAffinity -3.64652634
REMARK minimizedRMSD -1
REMARK  2 active torsions:
REMARK  status: ('A' for Active; 'I' for Inactive)
REMARK    1  A    between atoms: C2'_3  and  C1'_4 
REMARK    2  A    between atoms: C1'_4  and  C1_5 
ROOT
ATOM      1  C1  I4B d   1       0.812   0.465  -0.772  0.00  0.00    -0.075 A 
ATOM      2  C2  I4B d   1      -0.095  -0.061   0.113  0.00  0.00     0.003 A 
ATOM      3  C3  I4B d   1       0.153  -0.003   1.506  0.00  0.00     0.002 A 
ATOM      4  C4  I4B d   1       1.335   0.542   1.964  0.00  0.00    -0.004 A 
ATOM      5  C5  I4B d   1       2.243   1.096   1.066  0.00  0.00     0.002 A 
ATOM      6  C6  I4B d   1       1.974   1.069  -0.310  0.00  0.00     0.003 A 
ENDROOT
BRANCH   1   7
ATOM      7  C1' I4B d   1       0.535   0.356  -2.238  0.00  0.00     0.060 C 
BRANCH   7   8
ATOM      8  C2' I4B d   1       1.402  -0.754  -2.797  0.00  0.00    -0.013 C 
ATOM      9  C4' I4B d   1       0.564  -1.836  -3.425  0.00  0.00     0.013 C 
ATOM     10  C3' I4B d   1       2.343  -0.148  -3.795  0.00  0.00     0.013 C 
ENDBRANCH   7   8
ENDBRANCH   1   7
TORSDOF 2
ENDMDL
