MODEL 1
REMARK minimizedAffinity -1.91012883
REMARK minimizedRMSD -1
REMARK  2 active torsions:
REMARK  status: ('A' for Active; 'I' for Inactive)
REMARK    1  A    between atoms: C2'_3  and  C1'_4 
REMARK    2  A    between atoms: C1'_4  and  C1_5 
ROOT
ATOM      1  C1  I4B d   1       0.243   0.327  -0.452  0.00  0.00    -0.075 A 
ATOM      2  C2  I4B d   1      -0.977   0.019   0.096  0.00  0.00     0.003 A 
ATOM      3  C3  I4B d   1      -1.087  -0.263   1.479  0.00  0.00     0.002 A 
ATOM      4  C4  I4B d   1       0.049  -0.274   2.263  0.00  0.00    -0.004 A 
ATOM      5  C5  I4B d   1       1.282   0.061   1.710  0.00  0.00     0.002 A 
ATOM      6  C6  I4B d   1       1.378   0.376   0.347  0.00  0.00     0.003 A 
ENDROOT
BRANCH   1   7
ATOM      7  C1' I4B d   1       0.328   0.587  -1.922  0.00  0.00     0.060 C 
BRANCH   7   8
ATOM      8  C2' I4B d   1       1.073  -0.569  -2.558  0.00  0.00    -0.013 C 
ATOM      9  C4' I4B d   1       0.279  -1.176  -3.684  0.00  0.00     0.013 C 
ATOM     10  C3' I4B d   1       2.396  -0.055  -3.044  0.00  0.00     0.013 C 
ENDBRANCH   7   8
ENDBRANCH   1   7
TORSDOF 2
ENDMDL
