MODEL 1
REMARK minimizedAffinity 5.28523874
REMARK minimizedRMSD -1
REMARK  2 active torsions:
REMARK  status: ('A' for Active; 'I' for Inactive)
REMARK    1  A    between atoms: C2'_3  and  C1'_4 
REMARK    2  A    between atoms: C1'_4  and  C1_5 
ROOT
ATOM      1  C1  I4B d   1      -1.027   0.498   1.603  0.00  0.00    -0.075 A 
ATOM      2  C2  I4B d   1      -0.926   0.532   0.235  0.00  0.00     0.003 A 
ATOM      3  C3  I4B d   1       0.221   1.090  -0.381  0.00  0.00     0.002 A 
ATOM      4  C4  I4B d   1       1.212   1.644   0.403  0.00  0.00    -0.004 A 
ATOM      5  C5  I4B d   1       1.118   1.588   1.791  0.00  0.00     0.002 A 
ATOM      6  C6  I4B d   1      -0.003   1.000   2.395  0.00  0.00     0.003 A 
ENDROOT
BRANCH   1   7
ATOM      7  C1' I4B d   1      -2.266  -0.069   2.220  0.00  0.00     0.060 C 
BRANCH   7   8
ATOM      8  C2' I4B d   1      -3.460   0.612   1.581  0.00  0.00    -0.013 C 
ATOM      9  C4' I4B d   1      -4.684  -0.263   1.642  0.00  0.00     0.013 C 
ATOM     10  C3' I4B d   1      -3.687   1.912   2.293  0.00  0.00     0.013 C 
ENDBRANCH   7   8
ENDBRANCH   1   7
TORSDOF 2
ENDMDL
