MODEL 1
REMARK minimizedAffinity -3.27383351
REMARK minimizedRMSD -1
REMARK  2 active torsions:
REMARK  status: ('A' for Active; 'I' for Inactive)
REMARK    1  A    between atoms: C2'_3  and  C1'_4 
REMARK    2  A    between atoms: C1'_4  and  C1_5 
ROOT
ATOM      1  C1  I4B d   1      -0.024   0.160  -0.130  0.00  0.00    -0.075 A 
ATOM      2  C2  I4B d   1       0.865   0.840   0.665  0.00  0.00     0.003 A 
ATOM      3  C3  I4B d   1       0.872   0.631   2.065  0.00  0.00     0.002 A 
ATOM      4  C4  I4B d   1      -0.054  -0.222   2.630  0.00  0.00    -0.004 A 
ATOM      5  C5  I4B d   1      -0.939  -0.927   1.820  0.00  0.00     0.002 A 
ATOM      6  C6  I4B d   1      -0.916  -0.745   0.430  0.00  0.00     0.003 A 
ENDROOT
BRANCH   1   7
ATOM      7  C1' I4B d   1      -0.026   0.429  -1.602  0.00  0.00     0.060 C 
BRANCH   7   8
ATOM      8  C2' I4B d   1       0.699  -0.712  -2.286  0.00  0.00    -0.013 C 
ATOM      9  C4' I4B d   1      -0.257  -1.579  -3.062  0.00  0.00     0.013 C 
ATOM     10  C3' I4B d   1       1.746  -0.123  -3.184  0.00  0.00     0.013 C 
ENDBRANCH   7   8
ENDBRANCH   1   7
TORSDOF 2
ENDMDL
