MODEL 1
REMARK minimizedAffinity -3.15987158
REMARK minimizedRMSD -1
REMARK  2 active torsions:
REMARK  status: ('A' for Active; 'I' for Inactive)
REMARK    1  A    between atoms: C2'_3  and  C1'_4 
REMARK    2  A    between atoms: C1'_4  and  C1_5 
ROOT
ATOM      1  C1  I4B d   1      -0.148   0.021  -0.702  0.00  0.00    -0.075 A 
ATOM      2  C2  I4B d   1       1.044  -0.177  -0.052  0.00  0.00     0.003 A 
ATOM      3  C3  I4B d   1       1.077  -0.276   1.360  0.00  0.00     0.002 A 
ATOM      4  C4  I4B d   1      -0.090  -0.120   2.080  0.00  0.00    -0.004 A 
ATOM      5  C5  I4B d   1      -1.301   0.059   1.418  0.00  0.00     0.002 A 
ATOM      6  C6  I4B d   1      -1.332   0.117   0.017  0.00  0.00     0.003 A 
ENDROOT
BRANCH   1   7
ATOM      7  C1' I4B d   1      -0.143   0.153  -2.192  0.00  0.00     0.060 C 
BRANCH   7   8
ATOM      8  C2' I4B d   1       0.851  -0.847  -2.746  0.00  0.00    -0.013 C 
ATOM      9  C4' I4B d   1       0.150  -1.989  -3.434  0.00  0.00     0.013 C 
ATOM     10  C3' I4B d   1       1.761  -0.121  -3.692  0.00  0.00     0.013 C 
ENDBRANCH   7   8
ENDBRANCH   1   7
TORSDOF 2
ENDMDL
