MODEL 1
REMARK minimizedAffinity -5.07636023
REMARK minimizedRMSD -1
REMARK  2 active torsions:
REMARK  status: ('A' for Active; 'I' for Inactive)
REMARK    1  A    between atoms: C2'_3  and  C1'_4 
REMARK    2  A    between atoms: C1'_4  and  C1_5 
ROOT
ATOM      1  C1  I4B d   1       0.171   0.263  -0.191  0.00  0.00    -0.075 A 
ATOM      2  C2  I4B d   1      -0.868  -0.325   0.486  0.00  0.00     0.003 A 
ATOM      3  C3  I4B d   1      -0.721  -0.680   1.848  0.00  0.00     0.002 A 
ATOM      4  C4  I4B d   1       0.491  -0.477   2.477  0.00  0.00    -0.004 A 
ATOM      5  C5  I4B d   1       1.536   0.140   1.795  0.00  0.00     0.002 A 
ATOM      6  C6  I4B d   1       1.371   0.524   0.456  0.00  0.00     0.003 A 
ENDROOT
BRANCH   1   7
ATOM      7  C1' I4B d   1      -0.008   0.595  -1.639  0.00  0.00     0.060 C 
BRANCH   7   8
ATOM      8  C2' I4B d   1       0.390  -0.622  -2.449  0.00  0.00    -0.013 C 
ATOM      9  C4' I4B d   1      -0.792  -1.199  -3.183  0.00  0.00     0.013 C 
ATOM     10  C3' I4B d   1       1.471  -0.209  -3.404  0.00  0.00     0.013 C 
ENDBRANCH   7   8
ENDBRANCH   1   7
TORSDOF 2
ENDMDL
