MODEL 1
REMARK minimizedAffinity -5.22896338
REMARK minimizedRMSD -1
REMARK  2 active torsions:
REMARK  status: ('A' for Active; 'I' for Inactive)
REMARK    1  A    between atoms: C2'_3  and  C1'_4 
REMARK    2  A    between atoms: C1'_4  and  C1_5 
ROOT
ATOM      1  C1  I4B d   1      -0.457  -0.141   1.039  0.00  0.00    -0.075 A 
ATOM      2  C2  I4B d   1      -0.143  -0.418   2.346  0.00  0.00     0.003 A 
ATOM      3  C3  I4B d   1      -1.171  -0.595   3.304  0.00  0.00     0.002 A 
ATOM      4  C4  I4B d   1      -2.488  -0.438   2.925  0.00  0.00    -0.004 A 
ATOM      5  C5  I4B d   1      -2.805  -0.179   1.595  0.00  0.00     0.002 A 
ATOM      6  C6  I4B d   1      -1.785  -0.043   0.643  0.00  0.00     0.003 A 
ENDROOT
BRANCH   1   7
ATOM      7  C1' I4B d   1       0.654   0.072   0.061  0.00  0.00     0.060 C 
BRANCH   7   8
ATOM      8  C2' I4B d   1       0.045   0.164  -1.324  0.00  0.00    -0.013 C 
ATOM      9  C4' I4B d   1       0.033   1.586  -1.820  0.00  0.00     0.013 C 
ATOM     10  C3' I4B d   1       0.838  -0.722  -2.238  0.00  0.00     0.013 C 
ENDBRANCH   7   8
ENDBRANCH   1   7
TORSDOF 2
ENDMDL
