MODEL 1
REMARK minimizedAffinity -4.67238235
REMARK minimizedRMSD -1
REMARK  2 active torsions:
REMARK  status: ('A' for Active; 'I' for Inactive)
REMARK    1  A    between atoms: C2'_3  and  C1'_4 
REMARK    2  A    between atoms: C1'_4  and  C1_5 
ROOT
ATOM      1  C1  I4B d   1      -0.966  -0.315   1.748  0.00  0.00    -0.075 A 
ATOM      2  C2  I4B d   1      -0.890  -0.565   3.095  0.00  0.00     0.003 A 
ATOM      3  C3  I4B d   1      -1.947  -0.176   3.953  0.00  0.00     0.002 A 
ATOM      4  C4  I4B d   1      -3.031   0.501   3.433  0.00  0.00    -0.004 A 
ATOM      5  C5  I4B d   1      -3.117   0.733   2.063  0.00  0.00     0.002 A 
ATOM      6  C6  I4B d   1      -2.084   0.312   1.213  0.00  0.00     0.003 A 
ENDROOT
BRANCH   1   7
ATOM      7  C1' I4B d   1       0.183  -0.710   0.875  0.00  0.00     0.060 C 
BRANCH   7   8
ATOM      8  C2' I4B d   1       0.773   0.553   0.281  0.00  0.00    -0.013 C 
ATOM      9  C4' I4B d   1       2.211   0.728   0.693  0.00  0.00     0.013 C 
ATOM     10  C3' I4B d   1       0.644   0.467  -1.211  0.00  0.00     0.013 C 
ENDBRANCH   7   8
ENDBRANCH   1   7
TORSDOF 2
ENDMDL
