MODEL 1
REMARK minimizedAffinity -4.19654703
REMARK minimizedRMSD -1
REMARK  2 active torsions:
REMARK  status: ('A' for Active; 'I' for Inactive)
REMARK    1  A    between atoms: C2'_3  and  C1'_4 
REMARK    2  A    between atoms: C1'_4  and  C1_5 
ROOT
ATOM      1  C1  I4B d   1      -0.244   0.421  -0.521  0.00  0.00    -0.075 A 
ATOM      2  C2  I4B d   1       0.947   0.130   0.095  0.00  0.00     0.003 A 
ATOM      3  C3  I4B d   1       1.010   0.015   1.505  0.00  0.00     0.002 A 
ATOM      4  C4  I4B d   1      -0.123   0.247   2.257  0.00  0.00    -0.004 A 
ATOM      5  C5  I4B d   1      -1.335   0.520   1.629  0.00  0.00     0.002 A 
ATOM      6  C6  I4B d   1      -1.399   0.595   0.230  0.00  0.00     0.003 A 
ENDROOT
BRANCH   1   7
ATOM      7  C1' I4B d   1      -0.269   0.568  -2.010  0.00  0.00     0.060 C 
BRANCH   7   8
ATOM      8  C2' I4B d   1       0.794  -0.345  -2.587  0.00  0.00    -0.013 C 
ATOM      9  C4' I4B d   1       0.175  -1.499  -3.332  0.00  0.00     0.013 C 
ATOM     10  C3' I4B d   1       1.670   0.473  -3.487  0.00  0.00     0.013 C 
ENDBRANCH   7   8
ENDBRANCH   1   7
TORSDOF 2
ENDMDL
