MODEL 1
REMARK minimizedAffinity 3.70532036
REMARK minimizedRMSD -1
REMARK  2 active torsions:
REMARK  status: ('A' for Active; 'I' for Inactive)
REMARK    1  A    between atoms: C2'_3  and  C1'_4 
REMARK    2  A    between atoms: C1'_4  and  C1_5 
ROOT
ATOM      1  C1  I4B d   1      -1.477  -0.728   0.229  0.00  0.00    -0.075 A 
ATOM      2  C2  I4B d   1      -1.668  -1.839  -0.553  0.00  0.00     0.003 A 
ATOM      3  C3  I4B d   1      -2.262  -3.002  -0.005  0.00  0.00     0.002 A 
ATOM      4  C4  I4B d   1      -2.601  -3.027   1.332  0.00  0.00    -0.004 A 
ATOM      5  C5  I4B d   1      -2.427  -1.891   2.118  0.00  0.00     0.002 A 
ATOM      6  C6  I4B d   1      -1.873  -0.730   1.560  0.00  0.00     0.003 A 
ENDROOT
BRANCH   1   7
ATOM      7  C1' I4B d   1      -0.816   0.472  -0.373  0.00  0.00     0.060 C 
BRANCH   7   8
ATOM      8  C2' I4B d   1       0.577   0.067  -0.812  0.00  0.00    -0.013 C 
ATOM      9  C4' I4B d   1       1.119   1.015  -1.848  0.00  0.00     0.013 C 
ATOM     10  C3' I4B d   1       1.454   0.034   0.404  0.00  0.00     0.013 C 
ENDBRANCH   7   8
ENDBRANCH   1   7
TORSDOF 2
ENDMDL
