MODEL 1
REMARK minimizedAffinity -1.33518195
REMARK minimizedRMSD -1
REMARK  2 active torsions:
REMARK  status: ('A' for Active; 'I' for Inactive)
REMARK    1  A    between atoms: C2'_3  and  C1'_4 
REMARK    2  A    between atoms: C1'_4  and  C1_5 
ROOT
ATOM      1  C1  I4B d   1       0.321   0.829   2.214  0.00  0.00    -0.075 A 
ATOM      2  C2  I4B d   1       1.122   1.691   1.508  0.00  0.00     0.003 A 
ATOM      3  C3  I4B d   1       1.552   2.907   2.094  0.00  0.00     0.002 A 
ATOM      4  C4  I4B d   1       1.118   3.241   3.360  0.00  0.00    -0.004 A 
ATOM      5  C5  I4B d   1       0.324   2.355   4.083  0.00  0.00     0.002 A 
ATOM      6  C6  I4B d   1      -0.067   1.136   3.511  0.00  0.00     0.003 A 
ENDROOT
BRANCH   1   7
ATOM      7  C1' I4B d   1      -0.141  -0.430   1.552  0.00  0.00     0.060 C 
BRANCH   7   8
ATOM      8  C2' I4B d   1      -0.498  -0.100   0.117  0.00  0.00    -0.013 C 
ATOM      9  C4' I4B d   1      -0.041  -1.185  -0.822  0.00  0.00     0.013 C 
ATOM     10  C3' I4B d   1      -1.983   0.091   0.041  0.00  0.00     0.013 C 
ENDBRANCH   7   8
ENDBRANCH   1   7
TORSDOF 2
ENDMDL
