MODEL 1
REMARK minimizedAffinity -4.61729383
REMARK minimizedRMSD -1
REMARK  2 active torsions:
REMARK  status: ('A' for Active; 'I' for Inactive)
REMARK    1  A    between atoms: C2'_3  and  C1'_4 
REMARK    2  A    between atoms: C1'_4  and  C1_5 
ROOT
ATOM      1  C1  I4B d   1       0.138  -0.079   0.482  0.00  0.00    -0.075 A 
ATOM      2  C2  I4B d   1       0.760  -0.054   1.706  0.00  0.00     0.003 A 
ATOM      3  C3  I4B d   1       0.031  -0.356   2.881  0.00  0.00     0.002 A 
ATOM      4  C4  I4B d   1      -1.320  -0.627   2.793  0.00  0.00    -0.004 A 
ATOM      5  C5  I4B d   1      -1.943  -0.674   1.549  0.00  0.00     0.002 A 
ATOM      6  C6  I4B d   1      -1.207  -0.411   0.385  0.00  0.00     0.003 A 
ENDROOT
BRANCH   1   7
ATOM      7  C1' I4B d   1       0.931   0.277  -0.736  0.00  0.00     0.060 C 
BRANCH   7   8
ATOM      8  C2' I4B d   1       0.053   0.043  -1.949  0.00  0.00    -0.013 C 
ATOM      9  C4' I4B d   1      -0.592   1.324  -2.410  0.00  0.00     0.013 C 
ATOM     10  C3' I4B d   1       0.905  -0.553  -3.029  0.00  0.00     0.013 C 
ENDBRANCH   7   8
ENDBRANCH   1   7
TORSDOF 2
ENDMDL
