MODEL 1
REMARK minimizedAffinity 1.26384854
REMARK minimizedRMSD -1
REMARK  0 active torsions:
REMARK  status: ('A' for Active; 'I' for Inactive)
ROOT
ATOM      1  N1  IND d   1       0.786   1.455  -0.419  0.00  0.00    -0.196 N 
ATOM      2  C2  IND d   1       1.175   2.426   0.461  0.00  0.00     0.054 A 
ATOM      3  C3  IND d   1       2.019   1.913   1.385  0.00  0.00    -0.031 A 
ATOM      4  C4  IND d   1       2.977  -0.468   1.581  0.00  0.00     0.051 A 
ATOM      5  C5  IND d   1       2.886  -1.715   1.029  0.00  0.00    -0.031 A 
ATOM      6  C6  IND d   1       2.077  -1.973  -0.059  0.00  0.00     0.015 A 
ATOM      7  C7  IND d   1       1.333  -0.987  -0.643  0.00  0.00    -0.016 A 
ATOM      8  C8  IND d   1       1.417   0.278  -0.080  0.00  0.00    -0.047 A 
ATOM      9  C9  IND d   1       2.204   0.537   1.049  0.00  0.00    -0.096 A 
ATOM     10  HN1 IND d   1       0.240   1.561  -1.074  0.00  0.00     0.298 HD
ENDROOT
TORSDOF 0
ENDMDL
