MODEL 1
REMARK minimizedAffinity 4.18093729
REMARK minimizedRMSD -1
REMARK  0 active torsions:
REMARK  status: ('A' for Active; 'I' for Inactive)
ROOT
ATOM      1  N1  IND d   1       0.076  -3.138   2.574  0.00  0.00    -0.196 N 
ATOM      2  C2  IND d   1       0.452  -2.793   3.843  0.00  0.00     0.054 A 
ATOM      3  C3  IND d   1       1.630  -2.132   3.821  0.00  0.00    -0.031 A 
ATOM      4  C4  IND d   1       3.068  -1.416   1.809  0.00  0.00     0.051 A 
ATOM      5  C5  IND d   1       3.154  -1.535   0.450  0.00  0.00    -0.031 A 
ATOM      6  C6  IND d   1       2.199  -2.206  -0.285  0.00  0.00     0.015 A 
ATOM      7  C7  IND d   1       1.110  -2.775   0.312  0.00  0.00    -0.016 A 
ATOM      8  C8  IND d   1       1.022  -2.662   1.693  0.00  0.00    -0.047 A 
ATOM      9  C9  IND d   1       2.011  -2.019   2.449  0.00  0.00    -0.096 A 
ATOM     10  HN1 IND d   1      -0.631  -3.578   2.362  0.00  0.00     0.298 HD
ENDROOT
TORSDOF 0
ENDMDL
