MODEL 1
REMARK minimizedAffinity 0.0807247162
REMARK minimizedRMSD -1
REMARK  0 active torsions:
REMARK  status: ('A' for Active; 'I' for Inactive)
ROOT
ATOM      1  N1  IND d   1       0.090   1.047  -0.415  0.00  0.00    -0.196 N 
ATOM      2  C2  IND d   1       0.785   1.933   0.360  0.00  0.00     0.054 A 
ATOM      3  C3  IND d   1       1.877   1.339   0.890  0.00  0.00    -0.031 A 
ATOM      4  C4  IND d   1       2.772  -1.050   0.540  0.00  0.00     0.051 A 
ATOM      5  C5  IND d   1       2.460  -2.240  -0.054  0.00  0.00    -0.031 A 
ATOM      6  C6  IND d   1       1.320  -2.399  -0.816  0.00  0.00     0.015 A 
ATOM      7  C7  IND d   1       0.453  -1.364  -1.023  0.00  0.00    -0.016 A 
ATOM      8  C8  IND d   1       0.762  -0.155  -0.416  0.00  0.00    -0.047 A 
ATOM      9  C9  IND d   1       1.895  -0.001   0.394  0.00  0.00    -0.096 A 
ATOM     10  HN1 IND d   1      -0.643   1.213  -0.832  0.00  0.00     0.298 HD
ENDROOT
TORSDOF 0
ENDMDL
