MODEL 1
REMARK minimizedAffinity 10.2892284
REMARK minimizedRMSD -1
REMARK  0 active torsions:
REMARK  status: ('A' for Active; 'I' for Inactive)
ROOT
ATOM      1  N1  IND d   1       0.146  -4.706  -0.093  0.00  0.00    -0.196 N 
ATOM      2  C2  IND d   1      -0.963  -4.645  -0.891  0.00  0.00     0.054 A 
ATOM      3  C3  IND d   1      -0.991  -3.474  -1.567  0.00  0.00    -0.031 A 
ATOM      4  C4  IND d   1       0.728  -1.558  -1.593  0.00  0.00     0.051 A 
ATOM      5  C5  IND d   1       1.886  -1.142  -0.999  0.00  0.00    -0.031 A 
ATOM      6  C6  IND d   1       2.538  -1.909  -0.055  0.00  0.00     0.015 A 
ATOM      7  C7  IND d   1       2.060  -3.132   0.323  0.00  0.00    -0.016 A 
ATOM      8  C8  IND d   1       0.880  -3.555  -0.273  0.00  0.00    -0.047 A 
ATOM      9  C9  IND d   1       0.192  -2.762  -1.200  0.00  0.00    -0.096 A 
ATOM     10  HN1 IND d   1       0.350  -5.355   0.434  0.00  0.00     0.298 HD
ENDROOT
TORSDOF 0
ENDMDL
