MODEL 1
REMARK minimizedAffinity 11.1362114
REMARK minimizedRMSD -1
REMARK  0 active torsions:
REMARK  status: ('A' for Active; 'I' for Inactive)
ROOT
ATOM      1  N1  IND d   1      -2.911   1.272   3.280  0.00  0.00    -0.196 N 
ATOM      2  C2  IND d   1      -3.842   2.187   2.875  0.00  0.00     0.054 A 
ATOM      3  C3  IND d   1      -3.234   3.268   2.336  0.00  0.00    -0.031 A 
ATOM      4  C4  IND d   1      -0.730   3.701   1.924  0.00  0.00     0.051 A 
ATOM      5  C5  IND d   1       0.507   3.171   2.158  0.00  0.00    -0.031 A 
ATOM      6  C6  IND d   1       0.672   1.955   2.789  0.00  0.00     0.015 A 
ATOM      7  C7  IND d   1      -0.400   1.215   3.200  0.00  0.00    -0.016 A 
ATOM      8  C8  IND d   1      -1.658   1.753   2.970  0.00  0.00    -0.047 A 
ATOM      9  C9  IND d   1      -1.830   3.007   2.369  0.00  0.00    -0.096 A 
ATOM     10  HN1 IND d   1      -3.080   0.521   3.664  0.00  0.00     0.298 HD
ENDROOT
TORSDOF 0
ENDMDL
