MODEL 1
REMARK minimizedAffinity 4.56256962
REMARK minimizedRMSD -1
REMARK  0 active torsions:
REMARK  status: ('A' for Active; 'I' for Inactive)
ROOT
ATOM      1  N1  IND d   1      -0.839   2.957   2.770  0.00  0.00    -0.196 N 
ATOM      2  C2  IND d   1      -1.518   1.812   3.082  0.00  0.00     0.054 A 
ATOM      3  C3  IND d   1      -1.139   0.804   2.266  0.00  0.00    -0.031 A 
ATOM      4  C4  IND d   1       0.652   0.781   0.417  0.00  0.00     0.051 A 
ATOM      5  C5  IND d   1       1.513   1.599  -0.259  0.00  0.00    -0.031 A 
ATOM      6  C6  IND d   1       1.638   2.939   0.048  0.00  0.00     0.015 A 
ATOM      7  C7  IND d   1       0.912   3.510   1.055  0.00  0.00    -0.016 A 
ATOM      8  C8  IND d   1       0.032   2.683   1.739  0.00  0.00    -0.047 A 
ATOM      9  C9  IND d   1      -0.131   1.333   1.404  0.00  0.00    -0.096 A 
ATOM     10  HN1 IND d   1      -0.940   3.720   3.154  0.00  0.00     0.298 HD
ENDROOT
TORSDOF 0
ENDMDL
