MODEL 1
REMARK minimizedAffinity 6.0511179
REMARK minimizedRMSD -1
REMARK  0 active torsions:
REMARK  status: ('A' for Active; 'I' for Inactive)
ROOT
ATOM      1  N1  IND d   1       0.173   1.664  -0.400  0.00  0.00    -0.196 N 
ATOM      2  C2  IND d   1       1.014   2.542   0.224  0.00  0.00     0.054 A 
ATOM      3  C3  IND d   1       2.134   1.908   0.638  0.00  0.00    -0.031 A 
ATOM      4  C4  IND d   1       2.840  -0.546   0.307  0.00  0.00     0.051 A 
ATOM      5  C5  IND d   1       2.386  -1.742  -0.172  0.00  0.00    -0.031 A 
ATOM      6  C6  IND d   1       1.146  -1.867  -0.766  0.00  0.00     0.015 A 
ATOM      7  C7  IND d   1       0.316  -0.792  -0.914  0.00  0.00    -0.016 A 
ATOM      8  C8  IND d   1       0.772   0.424  -0.422  0.00  0.00    -0.047 A 
ATOM      9  C9  IND d   1       2.011   0.547   0.219  0.00  0.00    -0.096 A 
ATOM     10  HN1 IND d   1      -0.601   1.854  -0.724  0.00  0.00     0.298 HD
ENDROOT
TORSDOF 0
ENDMDL
