MODEL 1
REMARK minimizedAffinity -0.854595542
REMARK minimizedRMSD -1
REMARK  0 active torsions:
REMARK  status: ('A' for Active; 'I' for Inactive)
ROOT
ATOM      1  N1  IND d   1      -0.564  -4.676  -0.215  0.00  0.00    -0.196 N 
ATOM      2  C2  IND d   1      -1.514  -4.422  -1.165  0.00  0.00     0.054 A 
ATOM      3  C3  IND d   1      -1.375  -3.166  -1.644  0.00  0.00    -0.031 A 
ATOM      4  C4  IND d   1       0.404  -1.390  -1.088  0.00  0.00     0.051 A 
ATOM      5  C5  IND d   1       1.459  -1.146  -0.254  0.00  0.00    -0.031 A 
ATOM      6  C6  IND d   1       1.904  -2.087   0.652  0.00  0.00     0.015 A 
ATOM      7  C7  IND d   1       1.316  -3.316   0.750  0.00  0.00    -0.016 A 
ATOM      8  C8  IND d   1       0.240  -3.564  -0.090  0.00  0.00    -0.047 A 
ATOM      9  C9  IND d   1      -0.244  -2.598  -0.982  0.00  0.00    -0.096 A 
ATOM     10  HN1 IND d   1      -0.482  -5.408   0.229  0.00  0.00     0.298 HD
ENDROOT
TORSDOF 0
ENDMDL
