MODEL 1
REMARK minimizedAffinity 2.72526622
REMARK minimizedRMSD -1
REMARK  0 active torsions:
REMARK  status: ('A' for Active; 'I' for Inactive)
ROOT
ATOM      1  N1  IND d   1       3.228   2.012  -0.677  0.00  0.00    -0.196 N 
ATOM      2  C2  IND d   1       4.506   1.868  -1.141  0.00  0.00     0.054 A 
ATOM      3  C3  IND d   1       4.812   0.558  -1.277  0.00  0.00    -0.031 A 
ATOM      4  C4  IND d   1       3.335  -1.515  -0.893  0.00  0.00     0.051 A 
ATOM      5  C5  IND d   1       2.104  -1.890  -0.433  0.00  0.00    -0.031 A 
ATOM      6  C6  IND d   1       1.165  -0.965  -0.025  0.00  0.00     0.015 A 
ATOM      7  C7  IND d   1       1.419   0.377  -0.073  0.00  0.00    -0.016 A 
ATOM      8  C8  IND d   1       2.670   0.761  -0.533  0.00  0.00    -0.047 A 
ATOM      9  C9  IND d   1       3.643  -0.175  -0.908  0.00  0.00    -0.096 A 
ATOM     10  HN1 IND d   1       2.838   2.759  -0.504  0.00  0.00     0.298 HD
ENDROOT
TORSDOF 0
ENDMDL
