MODEL 1
REMARK minimizedAffinity -2.93330288
REMARK minimizedRMSD -1
REMARK  0 active torsions:
REMARK  status: ('A' for Active; 'I' for Inactive)
ROOT
ATOM      1  N1  IND d   1       2.992   0.435  -0.093  0.00  0.00    -0.196 N 
ATOM      2  C2  IND d   1       3.998   1.077  -0.761  0.00  0.00     0.054 A 
ATOM      3  C3  IND d   1       4.352   0.378  -1.862  0.00  0.00    -0.031 A 
ATOM      4  C4  IND d   1       3.345  -1.791  -2.817  0.00  0.00     0.051 A 
ATOM      5  C5  IND d   1       2.431  -2.768  -2.538  0.00  0.00    -0.031 A 
ATOM      6  C6  IND d   1       1.639  -2.725  -1.409  0.00  0.00     0.015 A 
ATOM      7  C7  IND d   1       1.724  -1.692  -0.518  0.00  0.00    -0.016 A 
ATOM      8  C8  IND d   1       2.657  -0.702  -0.794  0.00  0.00    -0.047 A 
ATOM      9  C9  IND d   1       3.493  -0.762  -1.916  0.00  0.00    -0.096 A 
ATOM     10  HN1 IND d   1       2.630   0.698   0.641  0.00  0.00     0.298 HD
ENDROOT
TORSDOF 0
ENDMDL
