MODEL 1
REMARK minimizedAffinity 2.2086246
REMARK minimizedRMSD -1
REMARK  0 active torsions:
REMARK  status: ('A' for Active; 'I' for Inactive)
ROOT
ATOM      1  N1  IND d   1      -0.831   0.095   0.093  0.00  0.00    -0.196 N 
ATOM      2  C2  IND d   1      -1.330  -1.157  -0.137  0.00  0.00     0.054 A 
ATOM      3  C3  IND d   1      -0.373  -1.957  -0.657  0.00  0.00    -0.031 A 
ATOM      4  C4  IND d   1       2.109  -1.450  -1.120  0.00  0.00     0.051 A 
ATOM      5  C5  IND d   1       3.021  -0.433  -1.106  0.00  0.00    -0.031 A 
ATOM      6  C6  IND d   1       2.691   0.837  -0.679  0.00  0.00     0.015 A 
ATOM      7  C7  IND d   1       1.432   1.136  -0.239  0.00  0.00    -0.016 A 
ATOM      8  C8  IND d   1       0.501   0.107  -0.259  0.00  0.00    -0.047 A 
ATOM      9  C9  IND d   1       0.819  -1.173  -0.731  0.00  0.00    -0.096 A 
ATOM     10  HN1 IND d   1      -1.274   0.762   0.406  0.00  0.00     0.298 HD
ENDROOT
TORSDOF 0
ENDMDL
