MODEL 1
REMARK minimizedAffinity 14.783577
REMARK minimizedRMSD -1
REMARK  0 active torsions:
REMARK  status: ('A' for Active; 'I' for Inactive)
ROOT
ATOM      1  N1  IND d   1      -1.211  -1.537  -2.610  0.00  0.00    -0.196 N 
ATOM      2  C2  IND d   1      -1.004  -2.867  -2.852  0.00  0.00     0.054 A 
ATOM      3  C3  IND d   1      -0.040  -3.348  -2.036  0.00  0.00    -0.031 A 
ATOM      4  C4  IND d   1       1.261  -2.157  -0.160  0.00  0.00     0.051 A 
ATOM      5  C5  IND d   1       1.444  -0.930   0.412  0.00  0.00    -0.031 A 
ATOM      6  C6  IND d   1       0.736   0.180  -0.001  0.00  0.00     0.015 A 
ATOM      7  C7  IND d   1      -0.195   0.101  -0.998  0.00  0.00    -0.016 A 
ATOM      8  C8  IND d   1      -0.379  -1.143  -1.586  0.00  0.00    -0.047 A 
ATOM      9  C9  IND d   1       0.368  -2.264  -1.200  0.00  0.00    -0.096 A 
ATOM     10  HN1 IND d   1      -1.767  -1.032  -3.028  0.00  0.00     0.298 HD
ENDROOT
TORSDOF 0
ENDMDL
