MODEL 1
REMARK minimizedAffinity -5.19816828
REMARK minimizedRMSD -1
REMARK  3 active torsions:
REMARK  status: ('A' for Active; 'I' for Inactive)
REMARK    1  A    between atoms: C3'_2  and  C2'_3 
REMARK    2  A    between atoms: C2'_3  and  C1'_4 
REMARK    3  A    between atoms: C1'_4  and  C1_5 
ROOT
ATOM      1  C1  N4B d   1       0.253   0.215   0.237  0.00  0.00    -0.075 A 
ATOM      2  C2  N4B d   1       1.485  -0.057   0.873  0.00  0.00     0.002 A 
ATOM      3  C3  N4B d   1       1.521  -0.300   2.224  0.00  0.00     0.002 A 
ATOM      4  C4  N4B d   1       0.347  -0.259   2.960  0.00  0.00    -0.004 A 
ATOM      5  C5  N4B d   1      -0.842  -0.021   2.335  0.00  0.00     0.002 A 
ATOM      6  C6  N4B d   1      -0.894   0.222   0.977  0.00  0.00     0.002 A 
ENDROOT
BRANCH   1   7
ATOM      7  C1' N4B d   1       0.174   0.571  -1.222  0.00  0.00     0.057 C 
BRANCH   7   8
ATOM      8  C2' N4B d   1      -1.072   1.418  -1.464  0.00  0.00     0.009 C 
BRANCH   8   9
ATOM      9  C3' N4B d   1      -0.723   2.823  -1.925  0.00  0.00     0.004 C 
ATOM     10  C4' N4B d   1       0.685   2.937  -2.428  0.00  0.00     0.003 C 
ENDBRANCH   8   9
ENDBRANCH   7   8
ENDBRANCH   1   7
TORSDOF 3
ENDMDL
