MODEL 1
REMARK minimizedAffinity -1.72909689
REMARK minimizedRMSD -1
REMARK  3 active torsions:
REMARK  status: ('A' for Active; 'I' for Inactive)
REMARK    1  A    between atoms: C3'_2  and  C2'_3 
REMARK    2  A    between atoms: C2'_3  and  C1'_4 
REMARK    3  A    between atoms: C1'_4  and  C1_5 
ROOT
ATOM      1  C1  N4B d   1       0.887  -0.218   0.627  0.00  0.00    -0.075 A 
ATOM      2  C2  N4B d   1      -0.482   0.050   0.406  0.00  0.00     0.002 A 
ATOM      3  C3  N4B d   1      -1.007  -0.055  -0.858  0.00  0.00     0.002 A 
ATOM      4  C4  N4B d   1      -0.183  -0.407  -1.916  0.00  0.00    -0.004 A 
ATOM      5  C5  N4B d   1       1.132  -0.690  -1.691  0.00  0.00     0.002 A 
ATOM      6  C6  N4B d   1       1.673  -0.592  -0.425  0.00  0.00     0.002 A 
ENDROOT
BRANCH   1   7
ATOM      7  C1' N4B d   1       1.526  -0.034   1.976  0.00  0.00     0.057 C 
BRANCH   7   8
ATOM      8  C2' N4B d   1       1.209  -1.244   2.850  0.00  0.00     0.009 C 
BRANCH   8   9
ATOM      9  C3' N4B d   1      -0.205  -1.752   2.627  0.00  0.00     0.004 C 
ATOM     10  C4' N4B d   1      -0.325  -3.235   2.809  0.00  0.00     0.003 C 
ENDBRANCH   8   9
ENDBRANCH   7   8
ENDBRANCH   1   7
TORSDOF 3
ENDMDL
