MODEL 1
REMARK minimizedAffinity -1.34829021
REMARK minimizedRMSD -1
REMARK  3 active torsions:
REMARK  status: ('A' for Active; 'I' for Inactive)
REMARK    1  A    between atoms: C3'_2  and  C2'_3 
REMARK    2  A    between atoms: C2'_3  and  C1'_4 
REMARK    3  A    between atoms: C1'_4  and  C1_5 
ROOT
ATOM      1  C1  N4B d   1       0.606  -0.516   0.442  0.00  0.00    -0.075 A 
ATOM      2  C2  N4B d   1       1.600  -0.913  -0.479  0.00  0.00     0.002 A 
ATOM      3  C3  N4B d   1       1.342  -0.874  -1.827  0.00  0.00     0.002 A 
ATOM      4  C4  N4B d   1       0.096  -0.461  -2.275  0.00  0.00    -0.004 A 
ATOM      5  C5  N4B d   1      -0.850  -0.055  -1.380  0.00  0.00     0.002 A 
ATOM      6  C6  N4B d   1      -0.603  -0.086  -0.022  0.00  0.00     0.002 A 
ENDROOT
BRANCH   1   7
ATOM      7  C1' N4B d   1       0.812  -0.623   1.929  0.00  0.00     0.057 C 
BRANCH   7   8
ATOM      8  C2' N4B d   1      -0.421  -1.263   2.560  0.00  0.00     0.009 C 
BRANCH   8   9
ATOM      9  C3' N4B d   1      -0.152  -2.687   3.016  0.00  0.00     0.004 C 
ATOM     10  C4' N4B d   1      -1.408  -3.443   3.330  0.00  0.00     0.003 C 
ENDBRANCH   8   9
ENDBRANCH   7   8
ENDBRANCH   1   7
TORSDOF 3
ENDMDL
