MODEL 1
REMARK minimizedAffinity -4.93386364
REMARK minimizedRMSD -1
REMARK  3 active torsions:
REMARK  status: ('A' for Active; 'I' for Inactive)
REMARK    1  A    between atoms: C3'_2  and  C2'_3 
REMARK    2  A    between atoms: C2'_3  and  C1'_4 
REMARK    3  A    between atoms: C1'_4  and  C1_5 
ROOT
ATOM      1  C1  N4B d   1      -0.282   0.051  -0.093  0.00  0.00    -0.075 A 
ATOM      2  C2  N4B d   1      -1.034  -0.765   0.781  0.00  0.00     0.002 A 
ATOM      3  C3  N4B d   1      -0.526  -1.104   2.011  0.00  0.00     0.002 A 
ATOM      4  C4  N4B d   1       0.735  -0.658   2.379  0.00  0.00    -0.004 A 
ATOM      5  C5  N4B d   1       1.444   0.150   1.539  0.00  0.00     0.002 A 
ATOM      6  C6  N4B d   1       0.944   0.503   0.302  0.00  0.00     0.002 A 
ENDROOT
BRANCH   1   7
ATOM      7  C1' N4B d   1      -0.760   0.378  -1.481  0.00  0.00     0.057 C 
BRANCH   7   8
ATOM      8  C2' N4B d   1       0.056   1.545  -2.030  0.00  0.00     0.009 C 
BRANCH   8   9
ATOM      9  C3' N4B d   1      -0.788   2.480  -2.878  0.00  0.00     0.004 C 
ATOM     10  C4' N4B d   1      -1.237   3.699  -2.128  0.00  0.00     0.003 C 
ENDBRANCH   8   9
ENDBRANCH   7   8
ENDBRANCH   1   7
TORSDOF 3
ENDMDL
