MODEL 1
REMARK minimizedAffinity 9.41303253
REMARK minimizedRMSD -1
REMARK  0 active torsions:
REMARK  status: ('A' for Active; 'I' for Inactive)
ROOT
ATOM      1  C   UNL d   1       1.946   5.870  -5.995  0.00  0.00    -0.002 A 
ATOM      2  C1  UNL d   1       2.642   5.682  -4.810  0.00  0.00     0.010 A 
ATOM      3  C2  UNL d   1       1.963   5.607  -3.592  0.00  0.00     0.041 A 
ATOM      4  C3  UNL d   1       0.559   5.722  -3.586  0.00  0.00    -0.075 A 
ATOM      5  S   UNL d   1      -0.483   5.659  -2.214  0.00  0.00     0.015 SA
ATOM      6  C4  UNL d   1      -1.877   5.879  -3.170  0.00  0.00     0.022 A 
ATOM      7  C5  UNL d   1      -1.573   6.000  -4.505  0.00  0.00     0.026 A 
ATOM      8  C6  UNL d   1      -0.164   5.911  -4.767  0.00  0.00    -0.082 A 
ATOM      9  C7  UNL d   1       0.553   5.984  -5.985  0.00  0.00     0.045 A 
ENDROOT
TORSDOF 0
ENDMDL
