MODEL 1
REMARK minimizedAffinity 7.73742962
REMARK minimizedRMSD -1
REMARK  0 active torsions:
REMARK  status: ('A' for Active; 'I' for Inactive)
ROOT
ATOM      1  C   UNL d   1      -2.773  -1.069  -2.549  0.00  0.00    -0.002 A 
ATOM      2  C1  UNL d   1      -1.558  -1.014  -3.217  0.00  0.00     0.010 A 
ATOM      3  C2  UNL d   1      -0.418  -0.523  -2.578  0.00  0.00     0.041 A 
ATOM      4  C3  UNL d   1      -0.520  -0.085  -1.243  0.00  0.00    -0.075 A 
ATOM      5  S   UNL d   1       0.743   0.554  -0.259  0.00  0.00     0.015 SA
ATOM      6  C4  UNL d   1      -0.300   0.769   1.071  0.00  0.00     0.022 A 
ATOM      7  C5  UNL d   1      -1.585   0.368   0.789  0.00  0.00     0.026 A 
ATOM      8  C6  UNL d   1      -1.732  -0.131  -0.549  0.00  0.00    -0.082 A 
ATOM      9  C7  UNL d   1      -2.871  -0.633  -1.225  0.00  0.00     0.045 A 
ENDROOT
TORSDOF 0
ENDMDL
