MODEL 1
REMARK minimizedAffinity 0.885767758
REMARK minimizedRMSD -1
REMARK  0 active torsions:
REMARK  status: ('A' for Active; 'I' for Inactive)
ROOT
ATOM      1  C   UNL d   1      -1.985   5.996  -1.139  0.00  0.00    -0.002 A 
ATOM      2  C1  UNL d   1      -2.919   5.998  -2.165  0.00  0.00     0.010 A 
ATOM      3  C2  UNL d   1      -2.509   6.000  -3.500  0.00  0.00     0.041 A 
ATOM      4  C3  UNL d   1      -1.130   5.998  -3.789  0.00  0.00    -0.075 A 
ATOM      5  S   UNL d   1      -0.395   5.999  -5.348  0.00  0.00     0.015 SA
ATOM      6  C4  UNL d   1       1.177   5.996  -4.689  0.00  0.00     0.022 A 
ATOM      7  C5  UNL d   1       1.160   5.994  -3.314  0.00  0.00     0.026 A 
ATOM      8  C6  UNL d   1      -0.170   5.995  -2.773  0.00  0.00    -0.082 A 
ATOM      9  C7  UNL d   1      -0.618   5.994  -1.430  0.00  0.00     0.045 A 
ENDROOT
TORSDOF 0
ENDMDL
