MODEL 1
REMARK minimizedAffinity -0.558693886
REMARK minimizedRMSD -1
REMARK  0 active torsions:
REMARK  status: ('A' for Active; 'I' for Inactive)
ROOT
ATOM      1  C   UNL d   1       1.578   5.998  -4.410  0.00  0.00    -0.002 A 
ATOM      2  C1  UNL d   1       0.915   5.998  -5.629  0.00  0.00     0.010 A 
ATOM      3  C2  UNL d   1      -0.480   5.998  -5.678  0.00  0.00     0.041 A 
ATOM      4  C3  UNL d   1      -1.205   5.999  -4.470  0.00  0.00    -0.075 A 
ATOM      5  S   UNL d   1      -2.919   5.999  -4.287  0.00  0.00     0.015 SA
ATOM      6  C4  UNL d   1      -2.812   6.000  -2.586  0.00  0.00     0.022 A 
ATOM      7  C5  UNL d   1      -1.507   5.999  -2.151  0.00  0.00     0.026 A 
ATOM      8  C6  UNL d   1      -0.560   5.999  -3.230  0.00  0.00    -0.082 A 
ATOM      9  C7  UNL d   1       0.856   5.999  -3.214  0.00  0.00     0.045 A 
ENDROOT
TORSDOF 0
ENDMDL
