MODEL 1
REMARK minimizedAffinity 4.28132915
REMARK minimizedRMSD -1
REMARK  0 active torsions:
REMARK  status: ('A' for Active; 'I' for Inactive)
ROOT
ATOM      1  C   UNL d   1      -2.779  -2.394   4.602  0.00  0.00    -0.002 A 
ATOM      2  C1  UNL d   1      -2.675  -3.358   5.595  0.00  0.00     0.010 A 
ATOM      3  C2  UNL d   1      -1.910  -4.508   5.392  0.00  0.00     0.041 A 
ATOM      4  C3  UNL d   1      -1.242  -4.673   4.162  0.00  0.00    -0.075 A 
ATOM      5  S   UNL d   1      -0.247  -6.000   3.690  0.00  0.00     0.015 SA
ATOM      6  C4  UNL d   1       0.065  -5.318   2.160  0.00  0.00     0.022 A 
ATOM      7  C5  UNL d   1      -0.567  -4.108   1.996  0.00  0.00     0.026 A 
ATOM      8  C6  UNL d   1      -1.330  -3.716   3.148  0.00  0.00    -0.082 A 
ATOM      9  C7  UNL d   1      -2.115  -2.562   3.384  0.00  0.00     0.045 A 
ENDROOT
TORSDOF 0
ENDMDL
