MODEL 1
REMARK minimizedAffinity -1.32308114
REMARK minimizedRMSD -1
REMARK  0 active torsions:
REMARK  status: ('A' for Active; 'I' for Inactive)
ROOT
ATOM      1  C   UNL d   1      -3.337   6.000  -1.756  0.00  0.00    -0.002 A 
ATOM      2  C1  UNL d   1      -3.857   5.999  -3.043  0.00  0.00     0.010 A 
ATOM      3  C2  UNL d   1      -3.008   6.000  -4.152  0.00  0.00     0.041 A 
ATOM      4  C3  UNL d   1      -1.615   5.999  -3.944  0.00  0.00    -0.075 A 
ATOM      5  S   UNL d   1      -0.384   5.999  -5.151  0.00  0.00     0.015 SA
ATOM      6  C4  UNL d   1       0.861   5.999  -3.988  0.00  0.00     0.022 A 
ATOM      7  C5  UNL d   1       0.368   6.000  -2.704  0.00  0.00     0.026 A 
ATOM      8  C6  UNL d   1      -1.067   5.999  -2.658  0.00  0.00    -0.082 A 
ATOM      9  C7  UNL d   1      -1.954   5.999  -1.554  0.00  0.00     0.045 A 
ENDROOT
TORSDOF 0
ENDMDL
