MODEL 1
REMARK minimizedAffinity 5.85632658
REMARK minimizedRMSD -1
REMARK  0 active torsions:
REMARK  status: ('A' for Active; 'I' for Inactive)
ROOT
ATOM      1  C   UNL d   1       1.102   5.915  -5.236  0.00  0.00    -0.002 A 
ATOM      2  C1  UNL d   1      -0.059   5.958  -5.994  0.00  0.00     0.010 A 
ATOM      3  C2  UNL d   1      -1.311   5.986  -5.376  0.00  0.00     0.041 A 
ATOM      4  C3  UNL d   1      -1.376   5.971  -3.968  0.00  0.00    -0.075 A 
ATOM      5  S   UNL d   1      -2.797   6.000  -2.993  0.00  0.00     0.015 SA
ATOM      6  C4  UNL d   1      -1.896   5.956  -1.547  0.00  0.00     0.022 A 
ATOM      7  C5  UNL d   1      -0.543   5.919  -1.784  0.00  0.00     0.026 A 
ATOM      8  C6  UNL d   1      -0.220   5.928  -3.183  0.00  0.00    -0.082 A 
ATOM      9  C7  UNL d   1       1.033   5.900  -3.840  0.00  0.00     0.045 A 
ENDROOT
TORSDOF 0
ENDMDL
