MODEL 1
REMARK minimizedAffinity 6.70251322
REMARK minimizedRMSD -1
REMARK  0 active torsions:
REMARK  status: ('A' for Active; 'I' for Inactive)
ROOT
ATOM      1  C   UNL d   1       1.269   4.096  -5.253  0.00  0.00    -0.002 A 
ATOM      2  C1  UNL d   1       1.344   5.338  -5.869  0.00  0.00     0.010 A 
ATOM      3  C2  UNL d   1       2.569   5.996  -5.993  0.00  0.00     0.041 A 
ATOM      4  C3  UNL d   1       3.729   5.380  -5.484  0.00  0.00    -0.075 A 
ATOM      5  S   UNL d   1       5.338   5.998  -5.523  0.00  0.00     0.015 SA
ATOM      6  C4  UNL d   1       5.964   4.629  -4.724  0.00  0.00     0.022 A 
ATOM      7  C5  UNL d   1       4.983   3.713  -4.427  0.00  0.00     0.026 A 
ATOM      8  C6  UNL d   1       3.679   4.130  -4.860  0.00  0.00    -0.082 A 
ATOM      9  C7  UNL d   1       2.422   3.488  -4.750  0.00  0.00     0.045 A 
ENDROOT
TORSDOF 0
ENDMDL
