MODEL 1
REMARK minimizedAffinity -5.58883667
REMARK minimizedRMSD -1
REMARK  1 active torsions:
REMARK  status: ('A' for Active; 'I' for Inactive)
REMARK    1  A    between atoms: C3_4  and  O_7 
ROOT
ATOM      1  C   UNL d   1       0.685   0.867   0.086  0.00  0.00    -0.033 A 
ATOM      2  C1  UNL d   1       1.938   0.402  -0.317  0.00  0.00     0.039 A 
ATOM      3  C2  UNL d   1       2.221  -0.965  -0.286  0.00  0.00    -0.080 A 
ATOM      4  C3  UNL d   1       1.242  -1.855   0.147  0.00  0.00     0.150 A 
ATOM      5  C4  UNL d   1      -0.010  -1.400   0.546  0.00  0.00    -0.007 A 
ATOM      6  C5  UNL d   1      -0.290  -0.034   0.516  0.00  0.00     0.039 A 
ENDROOT
BRANCH   4   7
ATOM      7  O   UNL d   1       1.473  -3.198   0.199  0.00  0.00    -0.526 OA
ATOM      8  H5  UNL d   1       2.389  -3.364  -0.078  0.00  0.00     0.418 HD
ENDBRANCH   4   7
TORSDOF 1
ENDMDL
