MODEL 1
REMARK minimizedAffinity -4.29286575
REMARK minimizedRMSD -1
REMARK  1 active torsions:
REMARK  status: ('A' for Active; 'I' for Inactive)
REMARK    1  A    between atoms: C3_4  and  O_7 
ROOT
ATOM      1  C   UNL d   1       0.138   0.576  -0.204  0.00  0.00    -0.033 A 
ATOM      2  C1  UNL d   1       0.325   0.045   1.073  0.00  0.00     0.039 A 
ATOM      3  C2  UNL d   1       0.852  -1.239   1.228  0.00  0.00    -0.080 A 
ATOM      4  C3  UNL d   1       1.188  -1.980   0.098  0.00  0.00     0.150 A 
ATOM      5  C4  UNL d   1       1.008  -1.456  -1.178  0.00  0.00    -0.007 A 
ATOM      6  C5  UNL d   1       0.480  -0.174  -1.330  0.00  0.00     0.039 A 
ENDROOT
BRANCH   4   7
ATOM      7  O   UNL d   1       1.701  -3.239   0.199  0.00  0.00    -0.526 OA
ATOM      8  H5  UNL d   1       1.743  -3.480   1.139  0.00  0.00     0.418 HD
ENDBRANCH   4   7
TORSDOF 1
ENDMDL
