MODEL 1
REMARK minimizedAffinity -2.53205633
REMARK minimizedRMSD -1
REMARK  1 active torsions:
REMARK  status: ('A' for Active; 'I' for Inactive)
REMARK    1  A    between atoms: C3_4  and  O_7 
ROOT
ATOM      1  C   UNL d   1      -0.145  -0.012   0.104  0.00  0.00    -0.033 A 
ATOM      2  C1  UNL d   1       1.187  -0.213  -0.263  0.00  0.00     0.039 A 
ATOM      3  C2  UNL d   1       1.842  -1.392   0.099  0.00  0.00    -0.080 A 
ATOM      4  C3  UNL d   1       1.155  -2.361   0.825  0.00  0.00     0.150 A 
ATOM      5  C4  UNL d   1      -0.174  -2.168   1.190  0.00  0.00    -0.007 A 
ATOM      6  C5  UNL d   1      -0.826  -0.990   0.829  0.00  0.00     0.039 A 
ENDROOT
BRANCH   4   7
ATOM      7  O   UNL d   1       1.753  -3.525   1.205  0.00  0.00    -0.526 OA
ATOM      8  H5  UNL d   1       2.678  -3.506   0.908  0.00  0.00     0.418 HD
ENDBRANCH   4   7
TORSDOF 1
ENDMDL
