MODEL 1
REMARK minimizedAffinity -4.01985645
REMARK minimizedRMSD -1
REMARK  1 active torsions:
REMARK  status: ('A' for Active; 'I' for Inactive)
REMARK    1  A    between atoms: C3_4  and  O_7 
ROOT
ATOM      1  C   UNL d   1       0.475   1.491  -0.462  0.00  0.00    -0.033 A 
ATOM      2  C1  UNL d   1       1.010   0.203  -0.396  0.00  0.00     0.039 A 
ATOM      3  C2  UNL d   1       0.331  -0.802   0.295  0.00  0.00    -0.080 A 
ATOM      4  C3  UNL d   1      -0.881  -0.507   0.913  0.00  0.00     0.150 A 
ATOM      5  C4  UNL d   1      -1.422   0.773   0.848  0.00  0.00    -0.007 A 
ATOM      6  C5  UNL d   1      -0.741   1.776   0.158  0.00  0.00     0.039 A 
ENDROOT
BRANCH   4   7
ATOM      7  O   UNL d   1      -1.578  -1.454   1.603  0.00  0.00    -0.526 OA
ATOM      8  H5  UNL d   1      -1.070  -2.282   1.588  0.00  0.00     0.418 HD
ENDBRANCH   4   7
TORSDOF 1
ENDMDL
