MODEL 1
REMARK minimizedAffinity -4.93809605
REMARK minimizedRMSD -1
REMARK  1 active torsions:
REMARK  status: ('A' for Active; 'I' for Inactive)
REMARK    1  A    between atoms: C3_4  and  O_7 
ROOT
ATOM      1  C   UNL d   1      -0.152   0.454  -0.542  0.00  0.00    -0.033 A 
ATOM      2  C1  UNL d   1      -0.890  -0.614  -0.027  0.00  0.00     0.039 A 
ATOM      3  C2  UNL d   1      -0.243  -1.790   0.359  0.00  0.00    -0.080 A 
ATOM      4  C3  UNL d   1       1.140  -1.884   0.227  0.00  0.00     0.150 A 
ATOM      5  C4  UNL d   1       1.881  -0.823  -0.281  0.00  0.00    -0.007 A 
ATOM      6  C5  UNL d   1       1.233   0.350  -0.667  0.00  0.00     0.039 A 
ENDROOT
BRANCH   4   7
ATOM      7  O   UNL d   1       1.814  -3.013   0.586  0.00  0.00    -0.526 OA
ATOM      8  H5  UNL d   1       1.170  -3.672   0.893  0.00  0.00     0.418 HD
ENDBRANCH   4   7
TORSDOF 1
ENDMDL
