MODEL 1
REMARK minimizedAffinity -2.60965419
REMARK minimizedRMSD -1
REMARK  1 active torsions:
REMARK  status: ('A' for Active; 'I' for Inactive)
REMARK    1  A    between atoms: C3_4  and  O_7 
ROOT
ATOM      1  C   UNL d   1       0.667   0.124  -0.578  0.00  0.00    -0.033 A 
ATOM      2  C1  UNL d   1      -0.057  -1.036  -0.859  0.00  0.00     0.039 A 
ATOM      3  C2  UNL d   1       0.380  -2.269  -0.372  0.00  0.00    -0.080 A 
ATOM      4  C3  UNL d   1       1.540  -2.329   0.395  0.00  0.00     0.150 A 
ATOM      5  C4  UNL d   1       2.264  -1.176   0.682  0.00  0.00    -0.007 A 
ATOM      6  C5  UNL d   1       1.827   0.054   0.194  0.00  0.00     0.039 A 
ENDROOT
BRANCH   4   7
ATOM      7  O   UNL d   1       2.008  -3.510   0.889  0.00  0.00    -0.526 OA
ATOM      8  H5  UNL d   1       1.422  -4.224   0.586  0.00  0.00     0.418 HD
ENDBRANCH   4   7
TORSDOF 1
ENDMDL
