MODEL 1
REMARK minimizedAffinity -4.72481012
REMARK minimizedRMSD -1
REMARK  1 active torsions:
REMARK  status: ('A' for Active; 'I' for Inactive)
REMARK    1  A    between atoms: C3_4  and  O_7 
ROOT
ATOM      1  C   UNL d   1      -0.097   0.467  -0.005  0.00  0.00    -0.033 A 
ATOM      2  C1  UNL d   1      -0.868  -0.425   0.742  0.00  0.00     0.039 A 
ATOM      3  C2  UNL d   1      -0.320  -1.636   1.170  0.00  0.00    -0.080 A 
ATOM      4  C3  UNL d   1       0.999  -1.941   0.845  0.00  0.00     0.150 A 
ATOM      5  C4  UNL d   1       1.774  -1.055   0.105  0.00  0.00    -0.007 A 
ATOM      6  C5  UNL d   1       1.225   0.153  -0.323  0.00  0.00     0.039 A 
ENDROOT
BRANCH   4   7
ATOM      7  O   UNL d   1       1.576  -3.113   1.236  0.00  0.00    -0.526 OA
ATOM      8  H5  UNL d   1       0.913  -3.637   1.715  0.00  0.00     0.418 HD
ENDBRANCH   4   7
TORSDOF 1
ENDMDL
