MODEL 1
REMARK minimizedAffinity -3.53282261
REMARK minimizedRMSD -1
REMARK  1 active torsions:
REMARK  status: ('A' for Active; 'I' for Inactive)
REMARK    1  A    between atoms: C3_4  and  O_7 
ROOT
ATOM      1  C   UNL d   1      -0.147   1.150  -0.540  0.00  0.00    -0.033 A 
ATOM      2  C1  UNL d   1      -0.811   0.188   0.224  0.00  0.00     0.039 A 
ATOM      3  C2  UNL d   1      -0.167  -1.004   0.563  0.00  0.00    -0.080 A 
ATOM      4  C3  UNL d   1       1.140  -1.220   0.134  0.00  0.00     0.150 A 
ATOM      5  C4  UNL d   1       1.808  -0.264  -0.624  0.00  0.00    -0.007 A 
ATOM      6  C5  UNL d   1       1.163   0.924  -0.963  0.00  0.00     0.039 A 
ENDROOT
BRANCH   4   7
ATOM      7  O   UNL d   1       1.808  -2.369   0.436  0.00  0.00    -0.526 OA
ATOM      8  H5  UNL d   1       1.212  -2.948   0.939  0.00  0.00     0.418 HD
ENDBRANCH   4   7
TORSDOF 1
ENDMDL
