MODEL 1
REMARK minimizedAffinity -3.7796855
REMARK minimizedRMSD -1
REMARK  1 active torsions:
REMARK  status: ('A' for Active; 'I' for Inactive)
REMARK    1  A    between atoms: C3_4  and  O_7 
ROOT
ATOM      1  C   UNL d   1       0.055   0.555  -0.461  0.00  0.00    -0.033 A 
ATOM      2  C1  UNL d   1       1.363   0.207  -0.802  0.00  0.00     0.039 A 
ATOM      3  C2  UNL d   1       1.873  -1.041  -0.439  0.00  0.00    -0.080 A 
ATOM      4  C3  UNL d   1       1.065  -1.930   0.264  0.00  0.00     0.150 A 
ATOM      5  C4  UNL d   1      -0.240  -1.592   0.605  0.00  0.00    -0.007 A 
ATOM      6  C5  UNL d   1      -0.747  -0.345   0.241  0.00  0.00     0.039 A 
ENDROOT
BRANCH   4   7
ATOM      7  O   UNL d   1       1.521  -3.158   0.645  0.00  0.00    -0.526 OA
ATOM      8  H5  UNL d   1       2.448  -3.242   0.367  0.00  0.00     0.418 HD
ENDBRANCH   4   7
TORSDOF 1
ENDMDL
