MODEL 1
REMARK minimizedAffinity -3.72557926
REMARK minimizedRMSD -1
REMARK  1 active torsions:
REMARK  status: ('A' for Active; 'I' for Inactive)
REMARK    1  A    between atoms: C3_4  and  O_7 
ROOT
ATOM      1  C   UNL d   1      -0.108   0.418  -0.035  0.00  0.00    -0.033 A 
ATOM      2  C1  UNL d   1      -0.639  -0.394   0.969  0.00  0.00     0.039 A 
ATOM      3  C2  UNL d   1       0.060  -1.525   1.396  0.00  0.00    -0.080 A 
ATOM      4  C3  UNL d   1       1.286  -1.832   0.813  0.00  0.00     0.150 A 
ATOM      5  C4  UNL d   1       1.822  -1.025  -0.185  0.00  0.00    -0.007 A 
ATOM      6  C5  UNL d   1       1.123   0.104  -0.611  0.00  0.00     0.039 A 
ENDROOT
BRANCH   4   7
ATOM      7  O   UNL d   1       2.002  -2.928   1.194  0.00  0.00    -0.526 OA
ATOM      8  H5  UNL d   1       1.495  -3.406   1.871  0.00  0.00     0.418 HD
ENDBRANCH   4   7
TORSDOF 1
ENDMDL
