MODEL 1
REMARK minimizedAffinity -4.85929775
REMARK minimizedRMSD -1
REMARK  1 active torsions:
REMARK  status: ('A' for Active; 'I' for Inactive)
REMARK    1  A    between atoms: C3_4  and  O_7 
ROOT
ATOM      1  C   UNL d   1       0.234   0.669  -0.318  0.00  0.00    -0.033 A 
ATOM      2  C1  UNL d   1      -0.636  -0.272   0.236  0.00  0.00     0.039 A 
ATOM      3  C2  UNL d   1      -0.159  -1.526   0.620  0.00  0.00    -0.080 A 
ATOM      4  C3  UNL d   1       1.189  -1.827   0.445  0.00  0.00     0.150 A 
ATOM      5  C4  UNL d   1       2.062  -0.893  -0.103  0.00  0.00    -0.007 A 
ATOM      6  C5  UNL d   1       1.583   0.359  -0.486  0.00  0.00     0.039 A 
ENDROOT
BRANCH   4   7
ATOM      7  O   UNL d   1       1.701  -3.040   0.800  0.00  0.00    -0.526 OA
ATOM      8  H5  UNL d   1       0.976  -3.593   1.137  0.00  0.00     0.418 HD
ENDBRANCH   4   7
TORSDOF 1
ENDMDL
