MODEL 1
REMARK minimizedAffinity -4.64221621
REMARK minimizedRMSD -1
REMARK  1 active torsions:
REMARK  status: ('A' for Active; 'I' for Inactive)
REMARK    1  A    between atoms: C3_4  and  O_7 
ROOT
ATOM      1  C   UNL d   1      -0.407   0.353   0.526  0.00  0.00    -0.033 A 
ATOM      2  C1  UNL d   1       0.753   0.231  -0.240  0.00  0.00     0.039 A 
ATOM      3  C2  UNL d   1       1.495  -0.952  -0.204  0.00  0.00    -0.080 A 
ATOM      4  C3  UNL d   1       1.065  -2.004   0.600  0.00  0.00     0.150 A 
ATOM      5  C4  UNL d   1      -0.093  -1.890   1.363  0.00  0.00    -0.007 A 
ATOM      6  C5  UNL d   1      -0.831  -0.708   1.327  0.00  0.00     0.039 A 
ENDROOT
BRANCH   4   7
ATOM      7  O   UNL d   1       1.758  -3.175   0.671  0.00  0.00    -0.526 OA
ATOM      8  H5  UNL d   1       2.550  -3.099   0.114  0.00  0.00     0.418 HD
ENDBRANCH   4   7
TORSDOF 1
ENDMDL
