MODEL 1
REMARK minimizedAffinity -5.10547924
REMARK minimizedRMSD -1
REMARK  1 active torsions:
REMARK  status: ('A' for Active; 'I' for Inactive)
REMARK    1  A    between atoms: C3_4  and  O_7 
ROOT
ATOM      1  C   UNL d   1      -0.303   0.430   0.025  0.00  0.00    -0.033 A 
ATOM      2  C1  UNL d   1       0.998   0.323  -0.469  0.00  0.00     0.039 A 
ATOM      3  C2  UNL d   1       1.740  -0.838  -0.243  0.00  0.00    -0.080 A 
ATOM      4  C3  UNL d   1       1.169  -1.884   0.477  0.00  0.00     0.150 A 
ATOM      5  C4  UNL d   1      -0.128  -1.786   0.969  0.00  0.00    -0.007 A 
ATOM      6  C5  UNL d   1      -0.867  -0.625   0.743  0.00  0.00     0.039 A 
ENDROOT
BRANCH   4   7
ATOM      7  O   UNL d   1       1.855  -3.035   0.727  0.00  0.00    -0.526 OA
ATOM      8  H5  UNL d   1       2.748  -2.949   0.352  0.00  0.00     0.418 HD
ENDBRANCH   4   7
TORSDOF 1
ENDMDL
