MODEL 1
REMARK minimizedAffinity -5.24249125
REMARK minimizedRMSD -1
REMARK  1 active torsions:
REMARK  status: ('A' for Active; 'I' for Inactive)
REMARK    1  A    between atoms: C3_4  and  O_7 
ROOT
ATOM      1  C   UNL d   1       0.421   0.799  -0.025  0.00  0.00    -0.033 A 
ATOM      2  C1  UNL d   1       1.746   0.391  -0.191  0.00  0.00     0.039 A 
ATOM      3  C2  UNL d   1       2.109  -0.931   0.073  0.00  0.00    -0.080 A 
ATOM      4  C3  UNL d   1       1.140  -1.834   0.501  0.00  0.00     0.150 A 
ATOM      5  C4  UNL d   1      -0.183  -1.435   0.665  0.00  0.00    -0.007 A 
ATOM      6  C5  UNL d   1      -0.543  -0.114   0.402  0.00  0.00     0.039 A 
ENDROOT
BRANCH   4   7
ATOM      7  O   UNL d   1       1.448  -3.133   0.776  0.00  0.00    -0.526 OA
ATOM      8  H5  UNL d   1       2.403  -3.257   0.645  0.00  0.00     0.418 HD
ENDBRANCH   4   7
TORSDOF 1
ENDMDL
