MODEL 1
REMARK minimizedAffinity 11.4060144
REMARK minimizedRMSD -1
REMARK  2 active torsions:
REMARK  status: ('A' for Active; 'I' for Inactive)
REMARK    1  A    between atoms: C1_2  and  C2_3 
REMARK    2  A    between atoms: C2_3  and  C3_4 
ROOT
ATOM      1  C3  UNL d   1       3.096   0.047  -0.884  0.00  0.00    -0.075 A 
ATOM      2  C4  UNL d   1       1.791  -0.266  -1.292  0.00  0.00     0.002 A 
ATOM      3  C5  UNL d   1       1.233  -1.508  -0.989  0.00  0.00     0.002 A 
ATOM      4  C6  UNL d   1       1.973  -2.454  -0.283  0.00  0.00    -0.004 A 
ATOM      5  C7  UNL d   1       3.276  -2.160   0.113  0.00  0.00     0.002 A 
ATOM      6  C8  UNL d   1       3.836  -0.916  -0.186  0.00  0.00     0.002 A 
ENDROOT
BRANCH   1   7
ATOM      7  C2  UNL d   1       3.695   1.400  -1.184  0.00  0.00     0.056 C 
BRANCH   7   8
ATOM      8  C1  UNL d   1       2.976   2.167  -2.299  0.00  0.00     0.007 C 
ATOM      9  C   UNL d   1       2.836   3.656  -2.010  0.00  0.00     0.009 C 
ENDBRANCH   7   8
ENDBRANCH   1   7
TORSDOF 2
ENDMDL
