MODEL 1
REMARK minimizedAffinity 9.26680851
REMARK minimizedRMSD -1
REMARK  2 active torsions:
REMARK  status: ('A' for Active; 'I' for Inactive)
REMARK    1  A    between atoms: C1_2  and  C2_3 
REMARK    2  A    between atoms: C2_3  and  C3_4 
ROOT
ATOM      1  C3  UNL d   1       3.091  -1.589   0.267  0.00  0.00    -0.075 A 
ATOM      2  C4  UNL d   1       4.469  -1.487   0.505  0.00  0.00     0.002 A 
ATOM      3  C5  UNL d   1       5.228  -2.627   0.773  0.00  0.00     0.002 A 
ATOM      4  C6  UNL d   1       4.619  -3.879   0.815  0.00  0.00    -0.004 A 
ATOM      5  C7  UNL d   1       3.247  -3.990   0.596  0.00  0.00     0.002 A 
ATOM      6  C8  UNL d   1       2.486  -2.852   0.324  0.00  0.00     0.002 A 
ENDROOT
BRANCH   1   7
ATOM      7  C2  UNL d   1       2.269  -0.363  -0.052  0.00  0.00     0.056 C 
BRANCH   7   8
ATOM      8  C1  UNL d   1       2.483   0.180  -1.469  0.00  0.00     0.007 C 
ATOM      9  C   UNL d   1       1.930  -0.736  -2.553  0.00  0.00     0.009 C 
ENDBRANCH   7   8
ENDBRANCH   1   7
TORSDOF 2
ENDMDL
