MODEL 1
REMARK minimizedAffinity 12.4657049
REMARK minimizedRMSD -1
REMARK  2 active torsions:
REMARK  status: ('A' for Active; 'I' for Inactive)
REMARK    1  A    between atoms: C1_2  and  C2_3 
REMARK    2  A    between atoms: C2_3  and  C3_4 
ROOT
ATOM      1  C3  UNL d   1       2.017  -0.001   0.412  0.00  0.00    -0.075 A 
ATOM      2  C4  UNL d   1       3.111   0.870   0.520  0.00  0.00     0.002 A 
ATOM      3  C5  UNL d   1       3.059   1.969   1.378  0.00  0.00     0.002 A 
ATOM      4  C6  UNL d   1       1.913   2.216   2.130  0.00  0.00    -0.004 A 
ATOM      5  C7  UNL d   1       0.814   1.366   2.018  0.00  0.00     0.002 A 
ATOM      6  C8  UNL d   1       0.865   0.263   1.164  0.00  0.00     0.002 A 
ENDROOT
BRANCH   1   7
ATOM      7  C2  UNL d   1       2.078  -1.209  -0.493  0.00  0.00     0.056 C 
BRANCH   7   8
ATOM      8  C1  UNL d   1       2.170  -2.544   0.253  0.00  0.00     0.007 C 
ATOM      9  C   UNL d   1       3.598  -2.939   0.603  0.00  0.00     0.009 C 
ENDBRANCH   7   8
ENDBRANCH   1   7
TORSDOF 2
ENDMDL
