MODEL 1
REMARK minimizedAffinity 14.7574482
REMARK minimizedRMSD -1
REMARK  2 active torsions:
REMARK  status: ('A' for Active; 'I' for Inactive)
REMARK    1  A    between atoms: C1_2  and  C2_3 
REMARK    2  A    between atoms: C2_3  and  C3_4 
ROOT
ATOM      1  C3  UNL d   1       3.605  -2.335  -0.377  0.00  0.00    -0.075 A 
ATOM      2  C4  UNL d   1       2.623  -2.543  -1.357  0.00  0.00     0.002 A 
ATOM      3  C5  UNL d   1       1.769  -1.507  -1.735  0.00  0.00     0.002 A 
ATOM      4  C6  UNL d   1       1.877  -0.256  -1.132  0.00  0.00    -0.004 A 
ATOM      5  C7  UNL d   1       2.837  -0.043  -0.145  0.00  0.00     0.002 A 
ATOM      6  C8  UNL d   1       3.697  -1.076   0.232  0.00  0.00     0.002 A 
ENDROOT
BRANCH   1   7
ATOM      7  C2  UNL d   1       4.552  -3.444   0.015  0.00  0.00     0.056 C 
BRANCH   7   8
ATOM      8  C1  UNL d   1       5.929  -3.352  -0.651  0.00  0.00     0.007 C 
ATOM      9  C   UNL d   1       6.000  -4.076  -1.988  0.00  0.00     0.009 C 
ENDBRANCH   7   8
ENDBRANCH   1   7
TORSDOF 2
ENDMDL
