MODEL 1
REMARK minimizedAffinity 13.5305481
REMARK minimizedRMSD -1
REMARK  2 active torsions:
REMARK  status: ('A' for Active; 'I' for Inactive)
REMARK    1  A    between atoms: C1_2  and  C2_3 
REMARK    2  A    between atoms: C2_3  and  C3_4 
ROOT
ATOM      1  C3  UNL d   1       2.352  -0.405  -1.613  0.00  0.00    -0.075 A 
ATOM      2  C4  UNL d   1       2.929  -1.046  -0.508  0.00  0.00     0.002 A 
ATOM      3  C5  UNL d   1       3.921  -0.413   0.241  0.00  0.00     0.002 A 
ATOM      4  C6  UNL d   1       4.355   0.864  -0.111  0.00  0.00    -0.004 A 
ATOM      5  C7  UNL d   1       3.801   1.504  -1.217  0.00  0.00     0.002 A 
ATOM      6  C8  UNL d   1       2.805   0.874  -1.966  0.00  0.00     0.002 A 
ENDROOT
BRANCH   1   7
ATOM      7  C2  UNL d   1       1.257  -1.073  -2.410  0.00  0.00     0.056 C 
BRANCH   7   8
ATOM      8  C1  UNL d   1       1.674  -2.402  -3.050  0.00  0.00     0.007 C 
ATOM      9  C   UNL d   1       0.515  -3.376  -3.218  0.00  0.00     0.009 C 
ENDBRANCH   7   8
ENDBRANCH   1   7
TORSDOF 2
ENDMDL
