MODEL 1
REMARK minimizedAffinity 14.6493969
REMARK minimizedRMSD -1
REMARK  2 active torsions:
REMARK  status: ('A' for Active; 'I' for Inactive)
REMARK    1  A    between atoms: C1_2  and  C2_3 
REMARK    2  A    between atoms: C2_3  and  C3_4 
ROOT
ATOM      1  C3  UNL d   1      -0.772   1.705   2.949  0.00  0.00    -0.075 A 
ATOM      2  C4  UNL d   1       0.300   1.278   2.153  0.00  0.00     0.002 A 
ATOM      3  C5  UNL d   1       1.574   1.129   2.701  0.00  0.00     0.002 A 
ATOM      4  C6  UNL d   1       1.795   1.415   4.047  0.00  0.00    -0.004 A 
ATOM      5  C7  UNL d   1       0.740   1.856   4.843  0.00  0.00     0.002 A 
ATOM      6  C8  UNL d   1      -0.537   2.001   4.299  0.00  0.00     0.002 A 
ENDROOT
BRANCH   1   7
ATOM      7  C2  UNL d   1      -2.160   1.840   2.369  0.00  0.00     0.056 C 
BRANCH   7   8
ATOM      8  C1  UNL d   1      -3.250   1.143   3.190  0.00  0.00     0.007 C 
ATOM      9  C   UNL d   1      -4.443   2.040   3.489  0.00  0.00     0.009 C 
ENDBRANCH   7   8
ENDBRANCH   1   7
TORSDOF 2
ENDMDL
