MODEL 1
REMARK minimizedAffinity 11.2298355
REMARK minimizedRMSD -1
REMARK  2 active torsions:
REMARK  status: ('A' for Active; 'I' for Inactive)
REMARK    1  A    between atoms: C1_2  and  C2_3 
REMARK    2  A    between atoms: C2_3  and  C3_4 
ROOT
ATOM      1  C3  UNL d   1       2.462  -0.883  -0.564  0.00  0.00    -0.075 A 
ATOM      2  C4  UNL d   1       3.050   0.148   0.184  0.00  0.00     0.002 A 
ATOM      3  C5  UNL d   1       3.270   1.401  -0.389  0.00  0.00     0.002 A 
ATOM      4  C6  UNL d   1       2.917   1.635  -1.716  0.00  0.00    -0.004 A 
ATOM      5  C7  UNL d   1       2.348   0.613  -2.473  0.00  0.00     0.002 A 
ATOM      6  C8  UNL d   1       2.122  -0.640  -1.901  0.00  0.00     0.002 A 
ENDROOT
BRANCH   1   7
ATOM      7  C2  UNL d   1       2.194  -2.233   0.059  0.00  0.00     0.056 C 
BRANCH   7   8
ATOM      8  C1  UNL d   1       3.453  -3.074   0.293  0.00  0.00     0.007 C 
ATOM      9  C   UNL d   1       4.701  -2.233   0.528  0.00  0.00     0.009 C 
ENDBRANCH   7   8
ENDBRANCH   1   7
TORSDOF 2
ENDMDL
