MODEL 1
REMARK minimizedAffinity 8.53312016
REMARK minimizedRMSD -1
REMARK  2 active torsions:
REMARK  status: ('A' for Active; 'I' for Inactive)
REMARK    1  A    between atoms: C1_2  and  C2_3 
REMARK    2  A    between atoms: C2_3  and  C3_4 
ROOT
ATOM      1  C3  UNL d   1      -1.902   0.758   1.842  0.00  0.00    -0.075 A 
ATOM      2  C4  UNL d   1      -0.899   0.239   1.011  0.00  0.00     0.002 A 
ATOM      3  C5  UNL d   1       0.429   0.634   1.172  0.00  0.00     0.002 A 
ATOM      4  C6  UNL d   1       0.769   1.559   2.157  0.00  0.00    -0.004 A 
ATOM      5  C7  UNL d   1      -0.222   2.094   2.977  0.00  0.00     0.002 A 
ATOM      6  C8  UNL d   1      -1.551   1.697   2.821  0.00  0.00     0.002 A 
ENDROOT
BRANCH   1   7
ATOM      7  C2  UNL d   1      -3.337   0.312   1.692  0.00  0.00     0.056 C 
BRANCH   7   8
ATOM      8  C1  UNL d   1      -3.609  -1.103   2.214  0.00  0.00     0.007 C 
ATOM      9  C   UNL d   1      -4.910  -1.697   1.691  0.00  0.00     0.009 C 
ENDBRANCH   7   8
ENDBRANCH   1   7
TORSDOF 2
ENDMDL
