MODEL 1
REMARK minimizedAffinity 8.25867748
REMARK minimizedRMSD -1
REMARK  2 active torsions:
REMARK  status: ('A' for Active; 'I' for Inactive)
REMARK    1  A    between atoms: C1_2  and  C2_3 
REMARK    2  A    between atoms: C2_3  and  C3_4 
ROOT
ATOM      1  C3  UNL d   1       2.653  -0.753  -0.101  0.00  0.00    -0.075 A 
ATOM      2  C4  UNL d   1       2.009  -1.998  -0.116  0.00  0.00     0.002 A 
ATOM      3  C5  UNL d   1       2.722  -3.168   0.148  0.00  0.00     0.002 A 
ATOM      4  C6  UNL d   1       4.087  -3.109   0.420  0.00  0.00    -0.004 A 
ATOM      5  C7  UNL d   1       4.741  -1.879   0.422  0.00  0.00     0.002 A 
ATOM      6  C8  UNL d   1       4.029  -0.707   0.163  0.00  0.00     0.002 A 
ENDROOT
BRANCH   1   7
ATOM      7  C2  UNL d   1       1.882   0.520  -0.356  0.00  0.00     0.056 C 
BRANCH   7   8
ATOM      8  C1  UNL d   1       1.821   1.465   0.848  0.00  0.00     0.007 C 
ATOM      9  C   UNL d   1       0.542   1.319   1.662  0.00  0.00     0.009 C 
ENDBRANCH   7   8
ENDBRANCH   1   7
TORSDOF 2
ENDMDL
