MODEL 1
REMARK minimizedAffinity 10.4618177
REMARK minimizedRMSD -1
REMARK  2 active torsions:
REMARK  status: ('A' for Active; 'I' for Inactive)
REMARK    1  A    between atoms: C1_2  and  C2_3 
REMARK    2  A    between atoms: C2_3  and  C3_4 
ROOT
ATOM      1  C3  UNL d   1       1.263   0.802   1.033  0.00  0.00    -0.075 A 
ATOM      2  C4  UNL d   1       2.535   1.391   0.972  0.00  0.00     0.002 A 
ATOM      3  C5  UNL d   1       3.354   1.192  -0.139  0.00  0.00     0.002 A 
ATOM      4  C6  UNL d   1       2.919   0.397  -1.197  0.00  0.00    -0.004 A 
ATOM      5  C7  UNL d   1       1.664  -0.206  -1.140  0.00  0.00     0.002 A 
ATOM      6  C8  UNL d   1       0.840  -0.006  -0.031  0.00  0.00     0.002 A 
ENDROOT
BRANCH   1   7
ATOM      7  C2  UNL d   1       0.359   1.037   2.220  0.00  0.00     0.056 C 
BRANCH   7   8
ATOM      8  C1  UNL d   1      -1.118   0.733   1.948  0.00  0.00     0.007 C 
ATOM      9  C   UNL d   1      -2.068   1.568   2.797  0.00  0.00     0.009 C 
ENDBRANCH   7   8
ENDBRANCH   1   7
TORSDOF 2
ENDMDL
