MODEL 1
REMARK minimizedAffinity 8.00659943
REMARK minimizedRMSD -1
REMARK  2 active torsions:
REMARK  status: ('A' for Active; 'I' for Inactive)
REMARK    1  A    between atoms: C1_2  and  C2_3 
REMARK    2  A    between atoms: C2_3  and  C3_4 
ROOT
ATOM      1  C3  UNL d   1       3.258  -1.345   0.018  0.00  0.00    -0.075 A 
ATOM      2  C4  UNL d   1       2.414  -1.284  -1.101  0.00  0.00     0.002 A 
ATOM      3  C5  UNL d   1       1.866  -0.068  -1.508  0.00  0.00     0.002 A 
ATOM      4  C6  UNL d   1       2.145   1.098  -0.799  0.00  0.00    -0.004 A 
ATOM      5  C7  UNL d   1       2.969   1.047   0.323  0.00  0.00     0.002 A 
ATOM      6  C8  UNL d   1       3.522  -0.168   0.731  0.00  0.00     0.002 A 
ENDROOT
BRANCH   1   7
ATOM      7  C2  UNL d   1       3.878  -2.653   0.446  0.00  0.00     0.056 C 
BRANCH   7   8
ATOM      8  C1  UNL d   1       5.410  -2.657   0.415  0.00  0.00     0.007 C 
ATOM      9  C   UNL d   1       5.984  -3.444  -0.757  0.00  0.00     0.009 C 
ENDBRANCH   7   8
ENDBRANCH   1   7
TORSDOF 2
ENDMDL
