MODEL 1
REMARK minimizedAffinity 15.5008001
REMARK minimizedRMSD -1
REMARK  2 active torsions:
REMARK  status: ('A' for Active; 'I' for Inactive)
REMARK    1  A    between atoms: C1_2  and  C2_3 
REMARK    2  A    between atoms: C2_3  and  C3_4 
ROOT
ATOM      1  C3  UNL d   1      -3.673   1.717   3.745  0.00  0.00    -0.075 A 
ATOM      2  C4  UNL d   1      -4.821   2.457   3.427  0.00  0.00     0.002 A 
ATOM      3  C5  UNL d   1      -5.423   3.276   4.383  0.00  0.00     0.002 A 
ATOM      4  C6  UNL d   1      -4.891   3.358   5.668  0.00  0.00    -0.004 A 
ATOM      5  C7  UNL d   1      -3.760   2.615   5.999  0.00  0.00     0.002 A 
ATOM      6  C8  UNL d   1      -3.154   1.798   5.044  0.00  0.00     0.002 A 
ENDROOT
BRANCH   1   7
ATOM      7  C2  UNL d   1      -2.999   0.852   2.706  0.00  0.00     0.056 C 
BRANCH   7   8
ATOM      8  C1  UNL d   1      -1.828   1.533   1.991  0.00  0.00     0.007 C 
ATOM      9  C   UNL d   1      -0.474   1.197   2.602  0.00  0.00     0.009 C 
ENDBRANCH   7   8
ENDBRANCH   1   7
TORSDOF 2
ENDMDL
