MODEL 1
REMARK minimizedAffinity 11.8782549
REMARK minimizedRMSD -1
REMARK  2 active torsions:
REMARK  status: ('A' for Active; 'I' for Inactive)
REMARK    1  A    between atoms: C1_2  and  C2_3 
REMARK    2  A    between atoms: C2_3  and  C3_4 
ROOT
ATOM      1  C3  UNL d   1       1.168  -2.594  -2.011  0.00  0.00    -0.075 A 
ATOM      2  C4  UNL d   1       1.875  -2.806  -0.818  0.00  0.00     0.002 A 
ATOM      3  C5  UNL d   1       2.262  -1.727  -0.023  0.00  0.00     0.002 A 
ATOM      4  C6  UNL d   1       1.957  -0.425  -0.414  0.00  0.00    -0.004 A 
ATOM      5  C7  UNL d   1       1.270  -0.202  -1.605  0.00  0.00     0.002 A 
ATOM      6  C8  UNL d   1       0.878  -1.280  -2.401  0.00  0.00     0.002 A 
ENDROOT
BRANCH   1   7
ATOM      7  C2  UNL d   1       0.721  -3.759  -2.862  0.00  0.00     0.056 C 
BRANCH   7   8
ATOM      8  C1  UNL d   1      -0.773  -3.746  -3.200  0.00  0.00     0.007 C 
ATOM      9  C   UNL d   1      -1.588  -4.721  -2.361  0.00  0.00     0.009 C 
ENDBRANCH   7   8
ENDBRANCH   1   7
TORSDOF 2
ENDMDL
