MODEL 1
REMARK minimizedAffinity 12.2536488
REMARK minimizedRMSD -1
REMARK  2 active torsions:
REMARK  status: ('A' for Active; 'I' for Inactive)
REMARK    1  A    between atoms: C1_2  and  C2_3 
REMARK    2  A    between atoms: C2_3  and  C3_4 
ROOT
ATOM      1  C3  UNL d   1       0.546   1.425   3.278  0.00  0.00    -0.075 A 
ATOM      2  C4  UNL d   1      -0.522   2.211   3.735  0.00  0.00     0.002 A 
ATOM      3  C5  UNL d   1      -0.636   2.534   5.087  0.00  0.00     0.002 A 
ATOM      4  C6  UNL d   1       0.308   2.068   6.000  0.00  0.00    -0.004 A 
ATOM      5  C7  UNL d   1       1.363   1.272   5.560  0.00  0.00     0.002 A 
ATOM      6  C8  UNL d   1       1.483   0.951   4.206  0.00  0.00     0.002 A 
ENDROOT
BRANCH   1   7
ATOM      7  C2  UNL d   1       0.691   1.096   1.811  0.00  0.00     0.056 C 
BRANCH   7   8
ATOM      8  C1  UNL d   1       2.098   1.341   1.254  0.00  0.00     0.007 C 
ATOM      9  C   UNL d   1       2.398   0.524   0.005  0.00  0.00     0.009 C 
ENDBRANCH   7   8
ENDBRANCH   1   7
TORSDOF 2
ENDMDL
