MODEL 1
REMARK minimizedAffinity -0.0369316451
REMARK minimizedRMSD -1
REMARK  0 active torsions:
REMARK  status: ('A' for Active; 'I' for Inactive)
ROOT
ATOM      1  C1  DEN d   1       0.258  -1.809   2.285  0.00  0.00     0.130 A 
ATOM      2  C2  DEN d   1      -1.016  -1.140   2.532  0.00  0.00    -0.031 A 
ATOM      3  C3  DEN d   1      -1.163  -0.058   1.537  0.00  0.00     0.027 A 
ATOM      4  C4  DEN d   1       0.447   0.638  -0.354  0.00  0.00     0.027 A 
ATOM      5  C5  DEN d   1       1.660   0.372  -0.950  0.00  0.00    -0.003 A 
ATOM      6  C6  DEN d   1       2.499  -0.609  -0.492  0.00  0.00     0.001 A 
ATOM      7  C7  DEN d   1       2.116  -1.391   0.565  0.00  0.00     0.017 A 
ATOM      8  C8  DEN d   1       0.898  -1.124   1.176  0.00  0.00    -0.094 A 
ATOM      9  C9  DEN d   1       0.058  -0.136   0.691  0.00  0.00    -0.072 A 
ENDROOT
TORSDOF 0
ENDMDL
