MODEL 1
REMARK minimizedAffinity -1.55741262
REMARK minimizedRMSD -1
REMARK  0 active torsions:
REMARK  status: ('A' for Active; 'I' for Inactive)
ROOT
ATOM      1  C1  DEN d   1       1.167   0.346  -0.192  0.00  0.00     0.130 A 
ATOM      2  C2  DEN d   1       0.004   1.088  -0.671  0.00  0.00    -0.031 A 
ATOM      3  C3  DEN d   1      -1.117   0.827   0.254  0.00  0.00     0.027 A 
ATOM      4  C4  DEN d   1      -1.164  -0.642   2.373  0.00  0.00     0.027 A 
ATOM      5  C5  DEN d   1      -0.420  -1.480   3.175  0.00  0.00    -0.003 A 
ATOM      6  C6  DEN d   1       0.884  -1.792   2.894  0.00  0.00     0.001 A 
ATOM      7  C7  DEN d   1       1.498  -1.226   1.808  0.00  0.00     0.017 A 
ATOM      8  C8  DEN d   1       0.753  -0.387   0.991  0.00  0.00    -0.094 A 
ATOM      9  C9  DEN d   1      -0.561  -0.074   1.298  0.00  0.00    -0.072 A 
ENDROOT
TORSDOF 0
ENDMDL
