MODEL 1
REMARK minimizedAffinity -4.59610748
REMARK minimizedRMSD -1
REMARK  0 active torsions:
REMARK  status: ('A' for Active; 'I' for Inactive)
ROOT
ATOM      1  C1  DEN d   1      -1.529   0.390  -3.006  0.00  0.00     0.130 A 
ATOM      2  C2  DEN d   1      -2.341   1.592  -2.837  0.00  0.00    -0.031 A 
ATOM      3  C3  DEN d   1      -1.916   2.258  -1.590  0.00  0.00     0.027 A 
ATOM      4  C4  DEN d   1      -0.087   1.552   0.086  0.00  0.00     0.027 A 
ATOM      5  C5  DEN d   1       0.863   0.597   0.374  0.00  0.00    -0.003 A 
ATOM      6  C6  DEN d   1       1.057  -0.503  -0.419  0.00  0.00     0.001 A 
ATOM      7  C7  DEN d   1       0.321  -0.651  -1.565  0.00  0.00     0.017 A 
ATOM      8  C8  DEN d   1      -0.643   0.304  -1.859  0.00  0.00    -0.094 A 
ATOM      9  C9  DEN d   1      -0.816   1.414  -1.051  0.00  0.00    -0.072 A 
ENDROOT
TORSDOF 0
ENDMDL
