MODEL 1
REMARK minimizedAffinity -0.0182888582
REMARK minimizedRMSD -1
REMARK  0 active torsions:
REMARK  status: ('A' for Active; 'I' for Inactive)
ROOT
ATOM      1  C1  DEN d   1       0.078   0.752  -1.194  0.00  0.00     0.130 A 
ATOM      2  C2  DEN d   1      -1.020   1.695  -1.392  0.00  0.00    -0.031 A 
ATOM      3  C3  DEN d   1      -1.934   1.581  -0.238  0.00  0.00     0.027 A 
ATOM      4  C4  DEN d   1      -1.755   0.048   1.828  0.00  0.00     0.027 A 
ATOM      5  C5  DEN d   1      -1.004  -0.934   2.436  0.00  0.00    -0.003 A 
ATOM      6  C6  DEN d   1       0.133  -1.442   1.865  0.00  0.00     0.001 A 
ATOM      7  C7  DEN d   1       0.576  -0.939   0.671  0.00  0.00     0.017 A 
ATOM      8  C8  DEN d   1      -0.180   0.046   0.048  0.00  0.00    -0.094 A 
ATOM      9  C9  DEN d   1      -1.319   0.556   0.648  0.00  0.00    -0.072 A 
ENDROOT
TORSDOF 0
ENDMDL
