MODEL 1
REMARK minimizedAffinity -4.02014685
REMARK minimizedRMSD -1
REMARK  0 active torsions:
REMARK  status: ('A' for Active; 'I' for Inactive)
ROOT
ATOM      1  C1  DEN d   1       0.594  -2.267   2.897  0.00  0.00     0.130 A 
ATOM      2  C2  DEN d   1      -0.584  -1.609   3.456  0.00  0.00    -0.031 A 
ATOM      3  C3  DEN d   1      -1.048  -0.600   2.483  0.00  0.00     0.027 A 
ATOM      4  C4  DEN d   1      -0.065   0.000   0.175  0.00  0.00     0.027 A 
ATOM      5  C5  DEN d   1       0.939  -0.280  -0.725  0.00  0.00    -0.003 A 
ATOM      6  C6  DEN d   1       1.911  -1.211  -0.468  0.00  0.00     0.001 A 
ATOM      7  C7  DEN d   1       1.873  -1.927   0.699  0.00  0.00     0.017 A 
ATOM      8  C8  DEN d   1       0.867  -1.645   1.614  0.00  0.00    -0.094 A 
ATOM      9  C9  DEN d   1      -0.113  -0.709   1.331  0.00  0.00    -0.072 A 
ENDROOT
TORSDOF 0
ENDMDL
