MODEL 1
REMARK minimizedAffinity 4.56246281
REMARK minimizedRMSD -1
REMARK  0 active torsions:
REMARK  status: ('A' for Active; 'I' for Inactive)
ROOT
ATOM      1  C1  DEN d   1      -0.954   0.074   0.015  0.00  0.00     0.130 A 
ATOM      2  C2  DEN d   1       0.422   0.387   0.391  0.00  0.00    -0.031 A 
ATOM      3  C3  DEN d   1       0.957   1.346  -0.596  0.00  0.00     0.027 A 
ATOM      4  C4  DEN d   1      -0.206   2.375  -2.656  0.00  0.00     0.027 A 
ATOM      5  C5  DEN d   1      -1.371   2.403  -3.389  0.00  0.00    -0.003 A 
ATOM      6  C6  DEN d   1      -2.459   1.637  -3.062  0.00  0.00     0.001 A 
ATOM      7  C7  DEN d   1      -2.419   0.844  -1.946  0.00  0.00     0.017 A 
ATOM      8  C8  DEN d   1      -1.245   0.805  -1.205  0.00  0.00    -0.094 A 
ATOM      9  C9  DEN d   1      -0.161   1.596  -1.545  0.00  0.00    -0.072 A 
ENDROOT
TORSDOF 0
ENDMDL
