MODEL 1
REMARK minimizedAffinity -3.07354522
REMARK minimizedRMSD -1
REMARK  0 active torsions:
REMARK  status: ('A' for Active; 'I' for Inactive)
ROOT
ATOM      1  C1  DEN d   1      -0.447  -0.632  -0.392  0.00  0.00     0.130 A 
ATOM      2  C2  DEN d   1       0.836  -0.150   0.112  0.00  0.00    -0.031 A 
ATOM      3  C3  DEN d   1       1.003   1.249  -0.330  0.00  0.00     0.027 A 
ATOM      4  C4  DEN d   1      -0.593   2.710  -1.733  0.00  0.00     0.027 A 
ATOM      5  C5  DEN d   1      -1.798   2.734  -2.401  0.00  0.00    -0.003 A 
ATOM      6  C6  DEN d   1      -2.615   1.636  -2.473  0.00  0.00     0.001 A 
ATOM      7  C7  DEN d   1      -2.258   0.481  -1.830  0.00  0.00     0.017 A 
ATOM      8  C8  DEN d   1      -1.041   0.447  -1.161  0.00  0.00    -0.094 A 
ATOM      9  C9  DEN d   1      -0.235   1.570  -1.089  0.00  0.00    -0.072 A 
ENDROOT
TORSDOF 0
ENDMDL
