MODEL 1
REMARK minimizedAffinity -4.0323205
REMARK minimizedRMSD -1
REMARK  0 active torsions:
REMARK  status: ('A' for Active; 'I' for Inactive)
ROOT
ATOM      1  C1  DEN d   1       1.218  -2.097   2.696  0.00  0.00     0.130 A 
ATOM      2  C2  DEN d   1       0.030  -1.745   3.468  0.00  0.00    -0.031 A 
ATOM      3  C3  DEN d   1      -0.695  -0.688   2.735  0.00  0.00     0.027 A 
ATOM      4  C4  DEN d   1      -0.098   0.428   0.488  0.00  0.00     0.027 A 
ATOM      5  C5  DEN d   1       0.823   0.469  -0.536  0.00  0.00    -0.003 A 
ATOM      6  C6  DEN d   1       1.948  -0.312  -0.538  0.00  0.00     0.001 A 
ATOM      7  C7  DEN d   1       2.159  -1.201   0.484  0.00  0.00     0.017 A 
ATOM      8  C8  DEN d   1       1.239  -1.242   1.523  0.00  0.00    -0.094 A 
ATOM      9  C9  DEN d   1       0.101  -0.453   1.500  0.00  0.00    -0.072 A 
ENDROOT
TORSDOF 0
ENDMDL
