MODEL 1
REMARK minimizedAffinity -3.04840922
REMARK minimizedRMSD -1
REMARK  0 active torsions:
REMARK  status: ('A' for Active; 'I' for Inactive)
ROOT
ATOM      1  C1  DEN d   1       1.194   0.206  -0.375  0.00  0.00     0.130 A 
ATOM      2  C2  DEN d   1       0.025   1.034  -0.658  0.00  0.00    -0.031 A 
ATOM      3  C3  DEN d   1      -1.005   0.732   0.356  0.00  0.00     0.027 A 
ATOM      4  C4  DEN d   1      -0.901  -0.925   2.330  0.00  0.00     0.027 A 
ATOM      5  C5  DEN d   1      -0.120  -1.861   2.970  0.00  0.00    -0.003 A 
ATOM      6  C6  DEN d   1       1.131  -2.196   2.523  0.00  0.00     0.001 A 
ATOM      7  C7  DEN d   1       1.656  -1.556   1.431  0.00  0.00     0.017 A 
ATOM      8  C8  DEN d   1       0.871  -0.617   0.776  0.00  0.00    -0.094 A 
ATOM      9  C9  DEN d   1      -0.387  -0.283   1.250  0.00  0.00    -0.072 A 
ENDROOT
TORSDOF 0
ENDMDL
