MODEL 1
REMARK minimizedAffinity -3.01949334
REMARK minimizedRMSD -1
REMARK  0 active torsions:
REMARK  status: ('A' for Active; 'I' for Inactive)
ROOT
ATOM      1  C1  DEN d   1      -0.742   0.874   0.474  0.00  0.00     0.130 A 
ATOM      2  C2  DEN d   1      -0.927   1.523  -0.821  0.00  0.00    -0.031 A 
ATOM      3  C3  DEN d   1       0.122   1.027  -1.735  0.00  0.00     0.027 A 
ATOM      4  C4  DEN d   1       2.001  -0.678  -1.273  0.00  0.00     0.027 A 
ATOM      5  C5  DEN d   1       2.570  -1.491  -0.317  0.00  0.00    -0.003 A 
ATOM      6  C6  DEN d   1       2.098  -1.547   0.968  0.00  0.00     0.001 A 
ATOM      7  C7  DEN d   1       0.999  -0.810   1.320  0.00  0.00     0.017 A 
ATOM      8  C8  DEN d   1       0.426   0.018   0.364  0.00  0.00    -0.094 A 
ATOM      9  C9  DEN d   1       0.909   0.052  -0.933  0.00  0.00    -0.072 A 
ENDROOT
TORSDOF 0
ENDMDL
