MODEL 1
REMARK minimizedAffinity -4.19139814
REMARK minimizedRMSD -1
REMARK  0 active torsions:
REMARK  status: ('A' for Active; 'I' for Inactive)
ROOT
ATOM      1  C1  DEN d   1      -0.767   1.646  -0.070  0.00  0.00     0.130 A 
ATOM      2  C2  DEN d   1      -0.064   0.374   0.072  0.00  0.00    -0.031 A 
ATOM      3  C3  DEN d   1      -0.362  -0.447  -1.119  0.00  0.00     0.027 A 
ATOM      4  C4  DEN d   1      -1.833   0.126  -3.159  0.00  0.00     0.027 A 
ATOM      5  C5  DEN d   1      -2.646   1.085  -3.723  0.00  0.00    -0.003 A 
ATOM      6  C6  DEN d   1      -2.914   2.274  -3.098  0.00  0.00     0.001 A 
ATOM      7  C7  DEN d   1      -2.328   2.554  -1.892  0.00  0.00     0.017 A 
ATOM      8  C8  DEN d   1      -1.514   1.590  -1.314  0.00  0.00    -0.094 A 
ATOM      9  C9  DEN d   1      -1.245   0.399  -1.966  0.00  0.00    -0.072 A 
ENDROOT
TORSDOF 0
ENDMDL
