MODEL 1
REMARK minimizedAffinity -3.66366434
REMARK minimizedRMSD -1
REMARK  0 active torsions:
REMARK  status: ('A' for Active; 'I' for Inactive)
ROOT
ATOM      1  C1  DEN d   1      -1.124  -1.020   2.266  0.00  0.00     0.130 A 
ATOM      2  C2  DEN d   1      -0.659  -1.901   3.334  0.00  0.00    -0.031 A 
ATOM      3  C3  DEN d   1       0.724  -2.310   3.019  0.00  0.00     0.027 A 
ATOM      4  C4  DEN d   1       2.186  -1.665   0.995  0.00  0.00     0.027 A 
ATOM      5  C5  DEN d   1       2.222  -0.949  -0.182  0.00  0.00    -0.003 A 
ATOM      6  C6  DEN d   1       1.142  -0.240  -0.638  0.00  0.00     0.001 A 
ATOM      7  C7  DEN d   1      -0.005  -0.195   0.109  0.00  0.00     0.017 A 
ATOM      8  C8  DEN d   1      -0.051  -0.920   1.293  0.00  0.00    -0.094 A 
ATOM      9  C9  DEN d   1       1.055  -1.620   1.743  0.00  0.00    -0.072 A 
ENDROOT
TORSDOF 0
ENDMDL
