MODEL 1
REMARK minimizedAffinity -3.89528942
REMARK minimizedRMSD -1
REMARK  0 active torsions:
REMARK  status: ('A' for Active; 'I' for Inactive)
ROOT
ATOM      1  C1  DEN d   1      -0.305   0.859  -1.480  0.00  0.00     0.130 A 
ATOM      2  C2  DEN d   1      -1.290   1.405  -0.550  0.00  0.00    -0.031 A 
ATOM      3  C3  DEN d   1      -0.947   0.932   0.806  0.00  0.00     0.027 A 
ATOM      4  C4  DEN d   1       1.005  -0.580   1.553  0.00  0.00     0.027 A 
ATOM      5  C5  DEN d   1       2.097  -1.299   1.121  0.00  0.00    -0.003 A 
ATOM      6  C6  DEN d   1       2.442  -1.376  -0.203  0.00  0.00     0.001 A 
ATOM      7  C7  DEN d   1       1.714  -0.686  -1.136  0.00  0.00     0.017 A 
ATOM      8  C8  DEN d   1       0.607   0.035  -0.708  0.00  0.00    -0.094 A 
ATOM      9  C9  DEN d   1       0.282   0.111   0.636  0.00  0.00    -0.072 A 
ENDROOT
TORSDOF 0
ENDMDL
