MODEL 1
REMARK minimizedAffinity -4.53977203
REMARK minimizedRMSD -1
REMARK  0 active torsions:
REMARK  status: ('A' for Active; 'I' for Inactive)
ROOT
ATOM      1  C1  DEN d   1       0.536  -2.578   2.234  0.00  0.00     0.130 A 
ATOM      2  C2  DEN d   1      -0.700  -2.267   2.947  0.00  0.00    -0.031 A 
ATOM      3  C3  DEN d   1      -1.213  -0.981   2.433  0.00  0.00     0.027 A 
ATOM      4  C4  DEN d   1      -0.220   0.549   0.610  0.00  0.00     0.027 A 
ATOM      5  C5  DEN d   1       0.825   0.711  -0.274  0.00  0.00    -0.003 A 
ATOM      6  C6  DEN d   1       1.855  -0.187  -0.358  0.00  0.00     0.001 A 
ATOM      7  C7  DEN d   1       1.841  -1.312   0.423  0.00  0.00     0.017 A 
ATOM      8  C8  DEN d   1       0.795  -1.479   1.321  0.00  0.00    -0.094 A 
ATOM      9  C9  DEN d   1      -0.244  -0.566   1.383  0.00  0.00    -0.072 A 
ENDROOT
TORSDOF 0
ENDMDL
