MODEL 1
REMARK minimizedAffinity -2.43518424
REMARK minimizedRMSD -1
REMARK  0 active torsions:
REMARK  status: ('A' for Active; 'I' for Inactive)
ROOT
ATOM      1  C1  DEN d   1      -3.157   1.018  -1.720  0.00  0.00     0.130 A 
ATOM      2  C2  DEN d   1      -2.670   2.099  -2.573  0.00  0.00    -0.031 A 
ATOM      3  C3  DEN d   1      -1.238   2.305  -2.274  0.00  0.00     0.027 A 
ATOM      4  C4  DEN d   1       0.263   1.060  -0.587  0.00  0.00     0.027 A 
ATOM      5  C5  DEN d   1       0.294   0.072   0.372  0.00  0.00    -0.003 A 
ATOM      6  C6  DEN d   1      -0.822  -0.641   0.722  0.00  0.00     0.001 A 
ATOM      7  C7  DEN d   1      -2.007  -0.407   0.077  0.00  0.00     0.017 A 
ATOM      8  C8  DEN d   1      -2.048   0.593  -0.886  0.00  0.00    -0.094 A 
ATOM      9  C9  DEN d   1      -0.906   1.294  -1.235  0.00  0.00    -0.072 A 
ENDROOT
TORSDOF 0
ENDMDL
