MODEL 1
REMARK minimizedAffinity 6.69573641
REMARK minimizedRMSD -1
REMARK  1 active torsions:
REMARK  status: ('A' for Active; 'I' for Inactive)
REMARK    1  A    between atoms: C1_2  and  C2_3 
ROOT
ATOM      1  C2  UNL d   1      -1.665   0.505   1.862  0.00  0.00    -0.077 A 
ATOM      2  C3  UNL d   1      -1.345   0.852   0.542  0.00  0.00     0.002 A 
ATOM      3  C4  UNL d   1      -1.775   0.056  -0.521  0.00  0.00     0.002 A 
ATOM      4  C5  UNL d   1      -2.530  -1.088  -0.276  0.00  0.00    -0.004 A 
ATOM      5  C6  UNL d   1      -2.852  -1.443   1.034  0.00  0.00     0.002 A 
ATOM      6  C7  UNL d   1      -2.422  -0.649   2.098  0.00  0.00     0.002 A 
ENDROOT
BRANCH   1   7
ATOM      7  C1  UNL d   1      -1.244   1.389   3.007  0.00  0.00     0.055 C 
ATOM      8  C   UNL d   1      -1.931   2.745   2.942  0.00  0.00     0.019 C 
ENDBRANCH   1   7
TORSDOF 1
ENDMDL
