MODEL 1
REMARK minimizedAffinity 5.78060865
REMARK minimizedRMSD -1
REMARK  1 active torsions:
REMARK  status: ('A' for Active; 'I' for Inactive)
REMARK    1  A    between atoms: C1_2  and  C2_3 
ROOT
ATOM      1  C2  UNL d   1       1.533   0.180  -2.431  0.00  0.00    -0.077 A 
ATOM      2  C3  UNL d   1       2.793   0.434  -1.872  0.00  0.00     0.002 A 
ATOM      3  C4  UNL d   1       3.426  -0.533  -1.088  0.00  0.00     0.002 A 
ATOM      4  C5  UNL d   1       2.809  -1.761  -0.860  0.00  0.00    -0.004 A 
ATOM      5  C6  UNL d   1       1.554  -2.022  -1.410  0.00  0.00     0.002 A 
ATOM      6  C7  UNL d   1       0.920  -1.057  -2.193  0.00  0.00     0.002 A 
ENDROOT
BRANCH   1   7
ATOM      7  C1  UNL d   1       0.871   1.203  -3.317  0.00  0.00     0.055 C 
ATOM      8  C   UNL d   1       0.940   0.794  -4.781  0.00  0.00     0.019 C 
ENDBRANCH   1   7
TORSDOF 1
ENDMDL
