MODEL 1
REMARK minimizedAffinity 5.34247589
REMARK minimizedRMSD -1
REMARK  1 active torsions:
REMARK  status: ('A' for Active; 'I' for Inactive)
REMARK    1  A    between atoms: C1_2  and  C2_3 
ROOT
ATOM      1  C2  UNL d   1       1.891   1.780  -2.551  0.00  0.00    -0.077 A 
ATOM      2  C3  UNL d   1       0.528   1.923  -2.256  0.00  0.00     0.002 A 
ATOM      3  C4  UNL d   1      -0.252   0.802  -1.964  0.00  0.00     0.002 A 
ATOM      4  C5  UNL d   1       0.322  -0.467  -1.960  0.00  0.00    -0.004 A 
ATOM      5  C6  UNL d   1       1.676  -0.620  -2.254  0.00  0.00     0.002 A 
ATOM      6  C7  UNL d   1       2.457   0.499  -2.547  0.00  0.00     0.002 A 
ENDROOT
BRANCH   1   7
ATOM      7  C1  UNL d   1       2.746   2.991  -2.817  0.00  0.00     0.055 C 
ATOM      8  C   UNL d   1       1.916   4.144  -3.364  0.00  0.00     0.019 C 
ENDBRANCH   1   7
TORSDOF 1
ENDMDL
