MODEL 1
REMARK minimizedAffinity -2.03496623
REMARK minimizedRMSD -1
REMARK  1 active torsions:
REMARK  status: ('A' for Active; 'I' for Inactive)
REMARK    1  A    between atoms: C1_2  and  C2_3 
ROOT
ATOM      1  C2  UNL d   1       5.079   5.281   3.398  0.00  0.00    -0.077 A 
ATOM      2  C3  UNL d   1       5.974   4.367   2.824  0.00  0.00     0.002 A 
ATOM      3  C4  UNL d   1       6.000   4.177   1.441  0.00  0.00     0.002 A 
ATOM      4  C5  UNL d   1       5.136   4.900   0.621  0.00  0.00    -0.004 A 
ATOM      5  C6  UNL d   1       4.241   5.810   1.182  0.00  0.00     0.002 A 
ATOM      6  C7  UNL d   1       4.213   6.000   2.564  0.00  0.00     0.002 A 
ENDROOT
BRANCH   1   7
ATOM      7  C1  UNL d   1       5.083   5.523   4.885  0.00  0.00     0.055 C 
ATOM      8  C   UNL d   1       5.983   4.530   5.605  0.00  0.00     0.019 C 
ENDBRANCH   1   7
TORSDOF 1
ENDMDL
