MODEL 1
REMARK minimizedAffinity 5.24654627
REMARK minimizedRMSD -1
REMARK  1 active torsions:
REMARK  status: ('A' for Active; 'I' for Inactive)
REMARK    1  A    between atoms: C1_2  and  C2_3 
ROOT
ATOM      1  C2  UNL d   1       1.854   0.365  -2.299  0.00  0.00    -0.077 A 
ATOM      2  C3  UNL d   1       0.943   0.455  -3.361  0.00  0.00     0.002 A 
ATOM      3  C4  UNL d   1       0.768   1.661  -4.042  0.00  0.00     0.002 A 
ATOM      4  C5  UNL d   1       1.504   2.785  -3.672  0.00  0.00    -0.004 A 
ATOM      5  C6  UNL d   1       2.412   2.706  -2.616  0.00  0.00     0.002 A 
ATOM      6  C7  UNL d   1       2.587   1.502  -1.933  0.00  0.00     0.002 A 
ENDROOT
BRANCH   1   7
ATOM      7  C1  UNL d   1       2.080  -0.948  -1.595  0.00  0.00     0.055 C 
ATOM      8  C   UNL d   1       0.927  -1.911  -1.837  0.00  0.00     0.019 C 
ENDBRANCH   1   7
TORSDOF 1
ENDMDL
