MODEL 1
REMARK minimizedAffinity -0.895989656
REMARK minimizedRMSD -1
REMARK  1 active torsions:
REMARK  status: ('A' for Active; 'I' for Inactive)
REMARK    1  A    between atoms: C1_2  and  C2_3 
ROOT
ATOM      1  C2  UNL d   1       4.744   5.794   2.908  0.00  0.00    -0.077 A 
ATOM      2  C3  UNL d   1       3.564   5.676   3.655  0.00  0.00     0.002 A 
ATOM      3  C4  UNL d   1       3.604   5.718   5.050  0.00  0.00     0.002 A 
ATOM      4  C5  UNL d   1       4.820   5.882   5.710  0.00  0.00    -0.004 A 
ATOM      5  C6  UNL d   1       6.000   5.998   4.976  0.00  0.00     0.002 A 
ATOM      6  C7  UNL d   1       5.962   5.956   3.581  0.00  0.00     0.002 A 
ENDROOT
BRANCH   1   7
ATOM      7  C1  UNL d   1       4.698   5.799   1.403  0.00  0.00     0.055 C 
ATOM      8  C   UNL d   1       5.999   5.282   0.807  0.00  0.00     0.019 C 
ENDBRANCH   1   7
TORSDOF 1
ENDMDL
