MODEL 1
REMARK minimizedAffinity 8.5850687
REMARK minimizedRMSD -1
REMARK  1 active torsions:
REMARK  status: ('A' for Active; 'I' for Inactive)
REMARK    1  A    between atoms: C1_2  and  C2_3 
ROOT
ATOM      1  C2  UNL d   1      -1.832   1.686   0.117  0.00  0.00    -0.077 A 
ATOM      2  C3  UNL d   1      -1.467   0.593   0.914  0.00  0.00     0.002 A 
ATOM      3  C4  UNL d   1      -1.768   0.580   2.278  0.00  0.00     0.002 A 
ATOM      4  C5  UNL d   1      -2.440   1.656   2.854  0.00  0.00    -0.004 A 
ATOM      5  C6  UNL d   1      -2.806   2.750   2.070  0.00  0.00     0.002 A 
ATOM      6  C7  UNL d   1      -2.504   2.764   0.707  0.00  0.00     0.002 A 
ENDROOT
BRANCH   1   7
ATOM      7  C1  UNL d   1      -1.551   1.680  -1.363  0.00  0.00     0.055 C 
ATOM      8  C   UNL d   1      -0.322   0.844  -1.689  0.00  0.00     0.019 C 
ENDBRANCH   1   7
TORSDOF 1
ENDMDL
