MODEL 1
REMARK minimizedAffinity 5.78666306
REMARK minimizedRMSD -1
REMARK  1 active torsions:
REMARK  status: ('A' for Active; 'I' for Inactive)
REMARK    1  A    between atoms: C1_2  and  C2_3 
ROOT
ATOM      1  C2  UNL d   1       5.391   5.473   2.713  0.00  0.00    -0.077 A 
ATOM      2  C3  UNL d   1       4.183   5.998   2.233  0.00  0.00     0.002 A 
ATOM      3  C4  UNL d   1       3.597   5.478   1.077  0.00  0.00     0.002 A 
ATOM      4  C5  UNL d   1       4.209   4.429   0.395  0.00  0.00    -0.004 A 
ATOM      5  C6  UNL d   1       5.412   3.902   0.863  0.00  0.00     0.002 A 
ATOM      6  C7  UNL d   1       6.000   4.421   2.018  0.00  0.00     0.002 A 
ENDROOT
BRANCH   1   7
ATOM      7  C1  UNL d   1       6.000   6.000   3.986  0.00  0.00     0.055 C 
ATOM      8  C   UNL d   1       5.069   5.791   5.172  0.00  0.00     0.019 C 
ENDBRANCH   1   7
TORSDOF 1
ENDMDL
