MODEL 1
REMARK minimizedAffinity 11.8383713
REMARK minimizedRMSD -1
REMARK  1 active torsions:
REMARK  status: ('A' for Active; 'I' for Inactive)
REMARK    1  A    between atoms: C1_2  and  C2_3 
ROOT
ATOM      1  C2  UNL d   1      -1.683   0.474   1.039  0.00  0.00    -0.077 A 
ATOM      2  C3  UNL d   1      -2.547  -0.409   1.702  0.00  0.00     0.002 A 
ATOM      3  C4  UNL d   1      -2.781  -0.273   3.072  0.00  0.00     0.002 A 
ATOM      4  C5  UNL d   1      -2.157   0.746   3.789  0.00  0.00    -0.004 A 
ATOM      5  C6  UNL d   1      -1.294   1.627   3.140  0.00  0.00     0.002 A 
ATOM      6  C7  UNL d   1      -1.058   1.492   1.771  0.00  0.00     0.002 A 
ENDROOT
BRANCH   1   7
ATOM      7  C1  UNL d   1      -1.468   0.360  -0.447  0.00  0.00     0.055 C 
ATOM      8  C   UNL d   1      -0.030   0.684  -0.825  0.00  0.00     0.019 C 
ENDBRANCH   1   7
TORSDOF 1
ENDMDL
