MODEL 1
REMARK minimizedAffinity -0.0178962462
REMARK minimizedRMSD -1
REMARK  1 active torsions:
REMARK  status: ('A' for Active; 'I' for Inactive)
REMARK    1  A    between atoms: C1_2  and  C2_3 
ROOT
ATOM      1  C2  UNL d   1      -4.698   0.407   3.042  0.00  0.00    -0.077 A 
ATOM      2  C3  UNL d   1      -3.419  -0.014   3.433  0.00  0.00     0.002 A 
ATOM      3  C4  UNL d   1      -2.284   0.659   2.976  0.00  0.00     0.002 A 
ATOM      4  C5  UNL d   1      -2.417   1.759   2.132  0.00  0.00    -0.004 A 
ATOM      5  C6  UNL d   1      -3.684   2.184   1.736  0.00  0.00     0.002 A 
ATOM      6  C7  UNL d   1      -4.820   1.512   2.190  0.00  0.00     0.002 A 
ENDROOT
BRANCH   1   7
ATOM      7  C1  UNL d   1      -5.925  -0.287   3.573  0.00  0.00     0.055 C 
ATOM      8  C   UNL d   1      -5.989  -0.215   5.091  0.00  0.00     0.019 C 
ENDBRANCH   1   7
TORSDOF 1
ENDMDL
