MODEL 1
REMARK minimizedAffinity 1.02817774
REMARK minimizedRMSD -1
REMARK  1 active torsions:
REMARK  status: ('A' for Active; 'I' for Inactive)
REMARK    1  A    between atoms: C1_2  and  C2_3 
ROOT
ATOM      1  C2  UNL d   1       4.899   5.592   3.848  0.00  0.00    -0.077 A 
ATOM      2  C3  UNL d   1       3.799   5.999   3.080  0.00  0.00     0.002 A 
ATOM      3  C4  UNL d   1       3.802   5.826   1.694  0.00  0.00     0.002 A 
ATOM      4  C5  UNL d   1       4.900   5.242   1.066  0.00  0.00    -0.004 A 
ATOM      5  C6  UNL d   1       6.000   4.836   1.821  0.00  0.00     0.002 A 
ATOM      6  C7  UNL d   1       5.999   5.009   3.206  0.00  0.00     0.002 A 
ENDROOT
BRANCH   1   7
ATOM      7  C1  UNL d   1       4.877   5.732   5.348  0.00  0.00     0.055 C 
ATOM      8  C   UNL d   1       5.987   4.919   5.996  0.00  0.00     0.019 C 
ENDBRANCH   1   7
TORSDOF 1
ENDMDL
