MODEL 1
REMARK minimizedAffinity 7.49282074
REMARK minimizedRMSD -1
REMARK  2 active torsions:
REMARK  status: ('A' for Active; 'I' for Inactive)
REMARK    1  A    between atoms: C1_2  and  C2_3 
REMARK    2  A    between atoms: C2_3  and  C3_4 
ROOT
ATOM      1  C3  UNL d   1       0.334   0.445   3.623  0.00  0.00    -0.075 A 
ATOM      2  C4  UNL d   1       0.337   0.162   2.250  0.00  0.00     0.002 A 
ATOM      3  C5  UNL d   1       0.668  -1.113   1.791  0.00  0.00     0.002 A 
ATOM      4  C6  UNL d   1       1.010  -2.116   2.696  0.00  0.00    -0.004 A 
ATOM      5  C7  UNL d   1       1.026  -1.841   4.061  0.00  0.00     0.002 A 
ATOM      6  C8  UNL d   1       0.691  -0.567   4.524  0.00  0.00     0.002 A 
ENDROOT
BRANCH   1   7
ATOM      7  C2  UNL d   1      -0.052   1.815   4.129  0.00  0.00     0.056 C 
BRANCH   7   8
ATOM      8  C1  UNL d   1       0.130   1.997   5.639  0.00  0.00     0.007 C 
ATOM      9  C   UNL d   1       1.316   2.882   5.999  0.00  0.00     0.009 C 
ENDBRANCH   7   8
ENDBRANCH   1   7
TORSDOF 2
ENDMDL
