MODEL 1
REMARK minimizedAffinity 11.020256
REMARK minimizedRMSD -1
REMARK  2 active torsions:
REMARK  status: ('A' for Active; 'I' for Inactive)
REMARK    1  A    between atoms: C1_2  and  C2_3 
REMARK    2  A    between atoms: C2_3  and  C3_4 
ROOT
ATOM      1  C3  UNL d   1      -0.624  -1.448   2.160  0.00  0.00    -0.075 A 
ATOM      2  C4  UNL d   1      -0.376  -0.086   2.384  0.00  0.00     0.002 A 
ATOM      3  C5  UNL d   1       0.733   0.320   3.128  0.00  0.00     0.002 A 
ATOM      4  C6  UNL d   1       1.601  -0.630   3.664  0.00  0.00    -0.004 A 
ATOM      5  C7  UNL d   1       1.355  -1.986   3.462  0.00  0.00     0.002 A 
ATOM      6  C8  UNL d   1       0.248  -2.394   2.715  0.00  0.00     0.002 A 
ENDROOT
BRANCH   1   7
ATOM      7  C2  UNL d   1      -1.806  -1.892   1.332  0.00  0.00     0.056 C 
BRANCH   7   8
ATOM      8  C1  UNL d   1      -3.002  -2.372   2.160  0.00  0.00     0.007 C 
ATOM      9  C   UNL d   1      -3.799  -1.232   2.782  0.00  0.00     0.009 C 
ENDBRANCH   7   8
ENDBRANCH   1   7
TORSDOF 2
ENDMDL
