MODEL 1
REMARK minimizedAffinity 6.7436676
REMARK minimizedRMSD -1
REMARK  2 active torsions:
REMARK  status: ('A' for Active; 'I' for Inactive)
REMARK    1  A    between atoms: C1_2  and  C2_3 
REMARK    2  A    between atoms: C2_3  and  C3_4 
ROOT
ATOM      1  C3  UNL d   1      -1.414  -0.297   1.979  0.00  0.00    -0.075 A 
ATOM      2  C4  UNL d   1      -0.701   0.832   2.409  0.00  0.00     0.002 A 
ATOM      3  C5  UNL d   1       0.605   0.707   2.883  0.00  0.00     0.002 A 
ATOM      4  C6  UNL d   1       1.211  -0.546   2.943  0.00  0.00    -0.004 A 
ATOM      5  C7  UNL d   1       0.506  -1.677   2.534  0.00  0.00     0.002 A 
ATOM      6  C8  UNL d   1      -0.799  -1.554   2.055  0.00  0.00     0.002 A 
ENDROOT
BRANCH   1   7
ATOM      7  C2  UNL d   1      -2.817  -0.164   1.437  0.00  0.00     0.056 C 
BRANCH   7   8
ATOM      8  C1  UNL d   1      -3.202   1.266   1.046  0.00  0.00     0.007 C 
ATOM      9  C   UNL d   1      -4.128   1.330  -0.161  0.00  0.00     0.009 C 
ENDBRANCH   7   8
ENDBRANCH   1   7
TORSDOF 2
ENDMDL
