MODEL 1
REMARK minimizedAffinity 11.3204117
REMARK minimizedRMSD -1
REMARK  2 active torsions:
REMARK  status: ('A' for Active; 'I' for Inactive)
REMARK    1  A    between atoms: C1_2  and  C2_3 
REMARK    2  A    between atoms: C2_3  and  C3_4 
ROOT
ATOM      1  C3  UNL d   1      -0.687  -0.286   2.990  0.00  0.00    -0.075 A 
ATOM      2  C4  UNL d   1       0.380   0.395   2.386  0.00  0.00     0.002 A 
ATOM      3  C5  UNL d   1       1.662  -0.155   2.387  0.00  0.00     0.002 A 
ATOM      4  C6  UNL d   1       1.896  -1.384   2.999  0.00  0.00    -0.004 A 
ATOM      5  C7  UNL d   1       0.846  -2.061   3.617  0.00  0.00     0.002 A 
ATOM      6  C8  UNL d   1      -0.439  -1.516   3.613  0.00  0.00     0.002 A 
ENDROOT
BRANCH   1   7
ATOM      7  C2  UNL d   1      -2.083   0.290   2.966  0.00  0.00     0.056 C 
BRANCH   7   8
ATOM      8  C1  UNL d   1      -3.116  -0.606   2.273  0.00  0.00     0.007 C 
ATOM      9  C   UNL d   1      -3.612  -1.743   3.156  0.00  0.00     0.009 C 
ENDBRANCH   7   8
ENDBRANCH   1   7
TORSDOF 2
ENDMDL
