MODEL 1
REMARK minimizedAffinity 12.1832523
REMARK minimizedRMSD -1
REMARK  2 active torsions:
REMARK  status: ('A' for Active; 'I' for Inactive)
REMARK    1  A    between atoms: C1_2  and  C2_3 
REMARK    2  A    between atoms: C2_3  and  C3_4 
ROOT
ATOM      1  C3  UNL d   1       1.666   0.122   3.124  0.00  0.00    -0.075 A 
ATOM      2  C4  UNL d   1       0.400   0.552   3.547  0.00  0.00     0.002 A 
ATOM      3  C5  UNL d   1      -0.755  -0.058   3.056  0.00  0.00     0.002 A 
ATOM      4  C6  UNL d   1      -0.660  -1.096   2.132  0.00  0.00    -0.004 A 
ATOM      5  C7  UNL d   1       0.592  -1.520   1.692  0.00  0.00     0.002 A 
ATOM      6  C8  UNL d   1       1.750  -0.915   2.185  0.00  0.00     0.002 A 
ENDROOT
BRANCH   1   7
ATOM      7  C2  UNL d   1       2.921   0.758   3.673  0.00  0.00     0.056 C 
BRANCH   7   8
ATOM      8  C1  UNL d   1       4.005   1.010   2.619  0.00  0.00     0.007 C 
ATOM      9  C   UNL d   1       4.552   2.431   2.649  0.00  0.00     0.009 C 
ENDBRANCH   7   8
ENDBRANCH   1   7
TORSDOF 2
ENDMDL
