MODEL 1
REMARK minimizedAffinity 10.9645567
REMARK minimizedRMSD -1
REMARK  2 active torsions:
REMARK  status: ('A' for Active; 'I' for Inactive)
REMARK    1  A    between atoms: C1_2  and  C2_3 
REMARK    2  A    between atoms: C2_3  and  C3_4 
ROOT
ATOM      1  C3  UNL d   1      -0.321  -1.812  -3.325  0.00  0.00    -0.075 A 
ATOM      2  C4  UNL d   1      -0.514  -2.520  -4.520  0.00  0.00     0.002 A 
ATOM      3  C5  UNL d   1      -0.137  -1.964  -5.743  0.00  0.00     0.002 A 
ATOM      4  C6  UNL d   1       0.428  -0.691  -5.787  0.00  0.00    -0.004 A 
ATOM      5  C7  UNL d   1       0.609   0.029  -4.608  0.00  0.00     0.002 A 
ATOM      6  C8  UNL d   1       0.236  -0.528  -3.383  0.00  0.00     0.002 A 
ENDROOT
BRANCH   1   7
ATOM      7  C2  UNL d   1      -0.701  -2.421  -1.997  0.00  0.00     0.056 C 
BRANCH   7   8
ATOM      8  C1  UNL d   1       0.451  -2.486  -0.989  0.00  0.00     0.007 C 
ATOM      9  C   UNL d   1       0.263  -1.553   0.200  0.00  0.00     0.009 C 
ENDBRANCH   7   8
ENDBRANCH   1   7
TORSDOF 2
ENDMDL
