MODEL 1
REMARK minimizedAffinity 10.3983421
REMARK minimizedRMSD -1
REMARK  2 active torsions:
REMARK  status: ('A' for Active; 'I' for Inactive)
REMARK    1  A    between atoms: C1_2  and  C2_3 
REMARK    2  A    between atoms: C2_3  and  C3_4 
ROOT
ATOM      1  C3  UNL d   1       1.633  -0.173  -4.295  0.00  0.00    -0.075 A 
ATOM      2  C4  UNL d   1       0.921  -0.698  -5.384  0.00  0.00     0.002 A 
ATOM      3  C5  UNL d   1      -0.282  -1.375  -5.183  0.00  0.00     0.002 A 
ATOM      4  C6  UNL d   1      -0.784  -1.543  -3.894  0.00  0.00    -0.004 A 
ATOM      5  C7  UNL d   1      -0.077  -1.040  -2.804  0.00  0.00     0.002 A 
ATOM      6  C8  UNL d   1       1.126  -0.359  -3.002  0.00  0.00     0.002 A 
ENDROOT
BRANCH   1   7
ATOM      7  C2  UNL d   1       2.921   0.586  -4.509  0.00  0.00     0.056 C 
BRANCH   7   8
ATOM      8  C1  UNL d   1       3.797   0.024  -5.633  0.00  0.00     0.007 C 
ATOM      9  C   UNL d   1       4.961   0.935  -5.999  0.00  0.00     0.009 C 
ENDBRANCH   7   8
ENDBRANCH   1   7
TORSDOF 2
ENDMDL
