MODEL 1
REMARK minimizedAffinity 2.35443926
REMARK minimizedRMSD -1
REMARK  0 active torsions:
REMARK  status: ('A' for Active; 'I' for Inactive)
ROOT
ATOM      1  C   UNL d   1      -0.548  -1.823   1.206  0.00  0.00     0.078 C 
ATOM      2  C1  UNL d   1       0.888  -1.397   1.269  0.00  0.00    -0.077 A 
ATOM      3  C2  UNL d   1       1.247  -0.146   1.785  0.00  0.00    -0.001 A 
ATOM      4  C3  UNL d   1       2.587   0.242   1.829  0.00  0.00     0.003 A 
ATOM      5  C4  UNL d   1       3.579  -0.616   1.358  0.00  0.00    -0.005 A 
ATOM      6  C5  UNL d   1       3.232  -1.862   0.841  0.00  0.00     0.003 A 
ATOM      7  C6  UNL d   1       1.892  -2.251   0.796  0.00  0.00    -0.001 A 
ENDROOT
TORSDOF 0
ENDMDL
