MODEL 1
REMARK minimizedAffinity -0.408635497
REMARK minimizedRMSD -1
REMARK  0 active torsions:
REMARK  status: ('A' for Active; 'I' for Inactive)
ROOT
ATOM      1  C   UNL d   1       2.237  -2.210   1.769  0.00  0.00     0.078 C 
ATOM      2  C1  UNL d   1       1.190  -2.243   0.695  0.00  0.00    -0.077 A 
ATOM      3  C2  UNL d   1       1.509  -2.632  -0.611  0.00  0.00    -0.001 A 
ATOM      4  C3  UNL d   1       0.526  -2.649  -1.603  0.00  0.00     0.003 A 
ATOM      5  C4  UNL d   1      -0.782  -2.277  -1.297  0.00  0.00    -0.005 A 
ATOM      6  C5  UNL d   1      -1.108  -1.887  -0.000  0.00  0.00     0.003 A 
ATOM      7  C6  UNL d   1      -0.127  -1.869   0.992  0.00  0.00    -0.001 A 
ENDROOT
TORSDOF 0
ENDMDL
