MODEL 1
REMARK minimizedAffinity -2.06339788
REMARK minimizedRMSD -1
REMARK  0 active torsions:
REMARK  status: ('A' for Active; 'I' for Inactive)
ROOT
ATOM      1  C   UNL d   1       1.611  -2.534  -2.099  0.00  0.00     0.078 C 
ATOM      2  C1  UNL d   1       0.315  -2.546  -1.344  0.00  0.00    -0.077 A 
ATOM      3  C2  UNL d   1       0.284  -2.331   0.039  0.00  0.00    -0.001 A 
ATOM      4  C3  UNL d   1      -0.928  -2.355   0.731  0.00  0.00     0.003 A 
ATOM      5  C4  UNL d   1      -2.118  -2.595   0.047  0.00  0.00    -0.005 A 
ATOM      6  C5  UNL d   1      -2.098  -2.812  -1.329  0.00  0.00     0.003 A 
ATOM      7  C6  UNL d   1      -0.886  -2.789  -2.022  0.00  0.00    -0.001 A 
ENDROOT
TORSDOF 0
ENDMDL
