MODEL 1
REMARK minimizedAffinity 6.06107283
REMARK minimizedRMSD -1
REMARK  0 active torsions:
REMARK  status: ('A' for Active; 'I' for Inactive)
ROOT
ATOM      1  C   UNL d   1       3.373   1.805   3.944  0.00  0.00     0.078 C 
ATOM      2  C1  UNL d   1       2.773   0.932   2.883  0.00  0.00    -0.077 A 
ATOM      3  C2  UNL d   1       1.685   1.370   2.119  0.00  0.00    -0.001 A 
ATOM      4  C3  UNL d   1       1.130   0.543   1.141  0.00  0.00     0.003 A 
ATOM      5  C4  UNL d   1       1.657  -0.728   0.919  0.00  0.00    -0.005 A 
ATOM      6  C5  UNL d   1       2.738  -1.174   1.676  0.00  0.00     0.003 A 
ATOM      7  C6  UNL d   1       3.294  -0.348   2.655  0.00  0.00    -0.001 A 
ENDROOT
TORSDOF 0
ENDMDL
