MODEL 1
REMARK minimizedAffinity 9.15797901
REMARK minimizedRMSD -1
REMARK  0 active torsions:
REMARK  status: ('A' for Active; 'I' for Inactive)
ROOT
ATOM      1  C   UNL d   1       2.371   4.137  -0.243  0.00  0.00     0.078 C 
ATOM      2  C1  UNL d   1       2.143   2.935   0.624  0.00  0.00    -0.077 A 
ATOM      3  C2  UNL d   1       3.073   1.888   0.663  0.00  0.00    -0.001 A 
ATOM      4  C3  UNL d   1       2.844   0.770   1.467  0.00  0.00     0.003 A 
ATOM      5  C4  UNL d   1       1.685   0.687   2.236  0.00  0.00    -0.005 A 
ATOM      6  C5  UNL d   1       0.753   1.722   2.202  0.00  0.00     0.003 A 
ATOM      7  C6  UNL d   1       0.980   2.841   1.399  0.00  0.00    -0.001 A 
ENDROOT
TORSDOF 0
ENDMDL
