MODEL 1
REMARK minimizedAffinity 12.5220957
REMARK minimizedRMSD -1
REMARK  0 active torsions:
REMARK  status: ('A' for Active; 'I' for Inactive)
ROOT
ATOM      1  C   UNL d   1       2.532   4.309  -0.779  0.00  0.00     0.078 C 
ATOM      2  C1  UNL d   1       3.745   4.604  -1.609  0.00  0.00    -0.077 A 
ATOM      3  C2  UNL d   1       4.870   5.222  -1.049  0.00  0.00    -0.001 A 
ATOM      4  C3  UNL d   1       5.989   5.500  -1.836  0.00  0.00     0.003 A 
ATOM      5  C4  UNL d   1       5.993   5.165  -3.188  0.00  0.00    -0.005 A 
ATOM      6  C5  UNL d   1       4.878   4.552  -3.756  0.00  0.00     0.003 A 
ATOM      7  C6  UNL d   1       3.758   4.273  -2.970  0.00  0.00    -0.001 A 
ENDROOT
TORSDOF 0
ENDMDL
