MODEL 1
REMARK minimizedAffinity -2.28730798
REMARK minimizedRMSD -1
REMARK  0 active torsions:
REMARK  status: ('A' for Active; 'I' for Inactive)
ROOT
ATOM      1  C   UNL d   1      -1.883   1.553  -1.229  0.00  0.00     0.078 C 
ATOM      2  C1  UNL d   1      -2.790   1.766  -2.404  0.00  0.00    -0.077 A 
ATOM      3  C2  UNL d   1      -3.925   0.967  -2.592  0.00  0.00    -0.001 A 
ATOM      4  C3  UNL d   1      -4.755   1.170  -3.696  0.00  0.00     0.003 A 
ATOM      5  C4  UNL d   1      -4.460   2.170  -4.619  0.00  0.00    -0.005 A 
ATOM      6  C5  UNL d   1      -3.332   2.968  -4.441  0.00  0.00     0.003 A 
ATOM      7  C6  UNL d   1      -2.500   2.767  -3.339  0.00  0.00    -0.001 A 
ENDROOT
TORSDOF 0
ENDMDL
