MODEL 1
REMARK minimizedAffinity -2.70367479
REMARK minimizedRMSD -1
REMARK  2 active torsions:
REMARK  status: ('A' for Active; 'I' for Inactive)
REMARK    1  A    between atoms: C2'_3  and  C1'_4 
REMARK    2  A    between atoms: C1'_4  and  C1_5 
ROOT
ATOM      1  C1  I4B d   1      -0.414  -0.862  -0.227  0.00  0.00    -0.075 A 
ATOM      2  C2  I4B d   1       0.366   0.259  -0.362  0.00  0.00     0.003 A 
ATOM      3  C3  I4B d   1       0.382   1.243   0.656  0.00  0.00     0.002 A 
ATOM      4  C4  I4B d   1      -0.429   1.090   1.762  0.00  0.00    -0.004 A 
ATOM      5  C5  I4B d   1      -1.202  -0.058   1.908  0.00  0.00     0.002 A 
ATOM      6  C6  I4B d   1      -1.186  -1.047   0.913  0.00  0.00     0.003 A 
ENDROOT
BRANCH   1   7
ATOM      7  C1' I4B d   1      -0.433  -1.865  -1.337  0.00  0.00     0.060 C 
BRANCH   7   8
ATOM      8  C2' I4B d   1       0.955  -2.461  -1.451  0.00  0.00    -0.013 C 
ATOM      9  C4' I4B d   1       0.982  -3.881  -0.951  0.00  0.00     0.013 C 
ATOM     10  C3' I4B d   1       1.375  -2.385  -2.889  0.00  0.00     0.013 C 
ENDBRANCH   7   8
ENDBRANCH   1   7
TORSDOF 2
ENDMDL
