MODEL 1
REMARK minimizedAffinity -0.684154749
REMARK minimizedRMSD -1
REMARK  2 active torsions:
REMARK  status: ('A' for Active; 'I' for Inactive)
REMARK    1  A    between atoms: C2'_3  and  C1'_4 
REMARK    2  A    between atoms: C1'_4  and  C1_5 
ROOT
ATOM      1  C1  I4B d   1       0.451  -0.855  -0.316  0.00  0.00    -0.075 A 
ATOM      2  C2  I4B d   1       0.831   0.457  -0.179  0.00  0.00     0.003 A 
ATOM      3  C3  I4B d   1       0.417   1.205   0.950  0.00  0.00     0.002 A 
ATOM      4  C4  I4B d   1      -0.413   0.620   1.885  0.00  0.00    -0.004 A 
ATOM      5  C5  I4B d   1      -0.778  -0.717   1.756  0.00  0.00     0.002 A 
ATOM      6  C6  I4B d   1      -0.334  -1.463   0.655  0.00  0.00     0.003 A 
ENDROOT
BRANCH   1   7
ATOM      7  C1' I4B d   1       0.879  -1.606  -1.537  0.00  0.00     0.060 C 
BRANCH   7   8
ATOM      8  C2' I4B d   1       0.887  -3.082  -1.198  0.00  0.00    -0.013 C 
ATOM      9  C4' I4B d   1       0.441  -3.913  -2.372  0.00  0.00     0.013 C 
ATOM     10  C3' I4B d   1       2.276  -3.451  -0.770  0.00  0.00     0.013 C 
ENDBRANCH   7   8
ENDBRANCH   1   7
TORSDOF 2
ENDMDL
