MODEL 1
REMARK minimizedAffinity -2.1069293
REMARK minimizedRMSD -1
REMARK  2 active torsions:
REMARK  status: ('A' for Active; 'I' for Inactive)
REMARK    1  A    between atoms: C2'_3  and  C1'_4 
REMARK    2  A    between atoms: C1'_4  and  C1_5 
ROOT
ATOM      1  C1  I4B d   1      -0.302  -1.466  -0.680  0.00  0.00    -0.075 A 
ATOM      2  C2  I4B d   1      -0.462  -2.782  -1.035  0.00  0.00     0.003 A 
ATOM      3  C3  I4B d   1       0.391  -3.368  -2.002  0.00  0.00     0.002 A 
ATOM      4  C4  I4B d   1       1.351  -2.593  -2.620  0.00  0.00    -0.004 A 
ATOM      5  C5  I4B d   1       1.527  -1.266  -2.241  0.00  0.00     0.002 A 
ATOM      6  C6  I4B d   1       0.704  -0.701  -1.256  0.00  0.00     0.003 A 
ENDROOT
BRANCH   1   7
ATOM      7  C1' I4B d   1      -1.241  -0.870   0.321  0.00  0.00     0.060 C 
BRANCH   7   8
ATOM      8  C2' I4B d   1      -0.415  -0.134   1.356  0.00  0.00    -0.013 C 
ATOM      9  C4' I4B d   1      -1.114   1.116   1.822  0.00  0.00     0.013 C 
ATOM     10  C3' I4B d   1      -0.162  -1.071   2.498  0.00  0.00     0.013 C 
ENDBRANCH   7   8
ENDBRANCH   1   7
TORSDOF 2
ENDMDL
