MODEL 1
REMARK minimizedAffinity -3.86526656
REMARK minimizedRMSD -1
REMARK  2 active torsions:
REMARK  status: ('A' for Active; 'I' for Inactive)
REMARK    1  A    between atoms: C2'_3  and  C1'_4 
REMARK    2  A    between atoms: C1'_4  and  C1_5 
ROOT
ATOM      1  C1  I4B d   1       0.405  -0.734  -0.096  0.00  0.00    -0.075 A 
ATOM      2  C2  I4B d   1       0.891  -0.576   1.178  0.00  0.00     0.003 A 
ATOM      3  C3  I4B d   1       0.052  -0.075   2.203  0.00  0.00     0.002 A 
ATOM      4  C4  I4B d   1      -1.241   0.299   1.901  0.00  0.00    -0.004 A 
ATOM      5  C5  I4B d   1      -1.739   0.116   0.614  0.00  0.00     0.002 A 
ATOM      6  C6  I4B d   1      -0.915  -0.416  -0.388  0.00  0.00     0.003 A 
ENDROOT
BRANCH   1   7
ATOM      7  C1' I4B d   1       1.328  -1.234  -1.162  0.00  0.00     0.060 C 
BRANCH   7   8
ATOM      8  C2' I4B d   1       0.915  -2.650  -1.510  0.00  0.00    -0.013 C 
ATOM      9  C4' I4B d   1       0.548  -2.769  -2.965  0.00  0.00     0.013 C 
ATOM     10  C3' I4B d   1       2.054  -3.563  -1.162  0.00  0.00     0.013 C 
ENDBRANCH   7   8
ENDBRANCH   1   7
TORSDOF 2
ENDMDL
