MODEL 1
REMARK minimizedAffinity -2.72480106
REMARK minimizedRMSD -1
REMARK  2 active torsions:
REMARK  status: ('A' for Active; 'I' for Inactive)
REMARK    1  A    between atoms: C2'_3  and  C1'_4 
REMARK    2  A    between atoms: C1'_4  and  C1_5 
ROOT
ATOM      1  C1  I4B d   1       0.614  -0.040  -0.067  0.00  0.00    -0.075 A 
ATOM      2  C2  I4B d   1       0.259   1.284  -0.122  0.00  0.00     0.003 A 
ATOM      3  C3  I4B d   1      -0.555   1.846   0.891  0.00  0.00     0.002 A 
ATOM      4  C4  I4B d   1      -1.030   1.041   1.906  0.00  0.00    -0.004 A 
ATOM      5  C5  I4B d   1      -0.650  -0.296   1.973  0.00  0.00     0.002 A 
ATOM      6  C6  I4B d   1       0.187  -0.838   0.987  0.00  0.00     0.003 A 
ENDROOT
BRANCH   1   7
ATOM      7  C1' I4B d   1       1.449  -0.609  -1.170  0.00  0.00     0.060 C 
BRANCH   7   8
ATOM      8  C2' I4B d   1       0.953  -2.013  -1.454  0.00  0.00    -0.013 C 
ATOM      9  C4' I4B d   1       0.358  -2.113  -2.834  0.00  0.00     0.013 C 
ATOM     10  C3' I4B d   1       2.110  -2.953  -1.294  0.00  0.00     0.013 C 
ENDBRANCH   7   8
ENDBRANCH   1   7
TORSDOF 2
ENDMDL
