MODEL 1
REMARK minimizedAffinity 0.480870277
REMARK minimizedRMSD -1
REMARK  2 active torsions:
REMARK  status: ('A' for Active; 'I' for Inactive)
REMARK    1  A    between atoms: C2'_3  and  C1'_4 
REMARK    2  A    between atoms: C1'_4  and  C1_5 
ROOT
ATOM      1  C1  I4B d   1       0.311   0.072   0.109  0.00  0.00    -0.075 A 
ATOM      2  C2  I4B d   1      -1.030   0.266  -0.108  0.00  0.00     0.003 A 
ATOM      3  C3  I4B d   1      -1.469   1.239  -1.038  0.00  0.00     0.002 A 
ATOM      4  C4  I4B d   1      -0.539   2.027  -1.687  0.00  0.00    -0.004 A 
ATOM      5  C5  I4B d   1       0.821   1.813  -1.483  0.00  0.00     0.002 A 
ATOM      6  C6  I4B d   1       1.250   0.821  -0.589  0.00  0.00     0.003 A 
ENDROOT
BRANCH   1   7
ATOM      7  C1' I4B d   1       0.738  -0.942   1.122  0.00  0.00     0.060 C 
BRANCH   7   8
ATOM      8  C2' I4B d   1       0.529  -0.344   2.498  0.00  0.00    -0.013 C 
ATOM      9  C4' I4B d   1      -0.366   0.865   2.436  0.00  0.00     0.013 C 
ATOM     10  C3' I4B d   1      -0.056  -1.407   3.380  0.00  0.00     0.013 C 
ENDBRANCH   7   8
ENDBRANCH   1   7
TORSDOF 2
ENDMDL
