MODEL 1
REMARK minimizedAffinity -3.16457248
REMARK minimizedRMSD -1
REMARK  2 active torsions:
REMARK  status: ('A' for Active; 'I' for Inactive)
REMARK    1  A    between atoms: C2'_3  and  C1'_4 
REMARK    2  A    between atoms: C1'_4  and  C1_5 
ROOT
ATOM      1  C1  I4B d   1      -0.676   0.333   1.137  0.00  0.00    -0.075 A 
ATOM      2  C2  I4B d   1      -1.367  -0.050   0.014  0.00  0.00     0.003 A 
ATOM      3  C3  I4B d   1      -0.715  -0.777  -1.011  0.00  0.00     0.002 A 
ATOM      4  C4  I4B d   1       0.632  -1.055  -0.896  0.00  0.00    -0.004 A 
ATOM      5  C5  I4B d   1       1.325  -0.686   0.254  0.00  0.00     0.002 A 
ATOM      6  C6  I4B d   1       0.665   0.001   1.282  0.00  0.00     0.003 A 
ENDROOT
BRANCH   1   7
ATOM      7  C1' I4B d   1      -1.388   1.128   2.185  0.00  0.00     0.060 C 
BRANCH   7   8
ATOM      8  C2' I4B d   1      -1.252   2.595   1.830  0.00  0.00    -0.013 C 
ATOM      9  C4' I4B d   1      -2.601   3.254   1.710  0.00  0.00     0.013 C 
ATOM     10  C3' I4B d   1      -0.421   3.253   2.890  0.00  0.00     0.013 C 
ENDBRANCH   7   8
ENDBRANCH   1   7
TORSDOF 2
ENDMDL
