MODEL 1
REMARK minimizedAffinity -3.03508878
REMARK minimizedRMSD -1
REMARK  2 active torsions:
REMARK  status: ('A' for Active; 'I' for Inactive)
REMARK    1  A    between atoms: C2'_3  and  C1'_4 
REMARK    2  A    between atoms: C1'_4  and  C1_5 
ROOT
ATOM      1  C1  I4B d   1      -0.371   1.145   0.784  0.00  0.00    -0.075 A 
ATOM      2  C2  I4B d   1      -0.896   1.577   1.977  0.00  0.00     0.003 A 
ATOM      3  C3  I4B d   1      -1.089   2.960   2.211  0.00  0.00     0.002 A 
ATOM      4  C4  I4B d   1      -0.700   3.873   1.253  0.00  0.00    -0.004 A 
ATOM      5  C5  I4B d   1      -0.190   3.432   0.035  0.00  0.00     0.002 A 
ATOM      6  C6  I4B d   1      -0.036   2.059  -0.206  0.00  0.00     0.003 A 
ENDROOT
BRANCH   1   7
ATOM      7  C1' I4B d   1      -0.150  -0.320   0.583  0.00  0.00     0.060 C 
BRANCH   7   8
ATOM      8  C2' I4B d   1       0.396  -0.522  -0.816  0.00  0.00    -0.013 C 
ATOM      9  C4' I4B d   1       1.697   0.214  -1.005  0.00  0.00     0.013 C 
ATOM     10  C3' I4B d   1       0.571  -1.995  -1.037  0.00  0.00     0.013 C 
ENDBRANCH   7   8
ENDBRANCH   1   7
TORSDOF 2
ENDMDL
