MODEL 1
REMARK minimizedAffinity -4.25122118
REMARK minimizedRMSD -1
REMARK  2 active torsions:
REMARK  status: ('A' for Active; 'I' for Inactive)
REMARK    1  A    between atoms: C2'_3  and  C1'_4 
REMARK    2  A    between atoms: C1'_4  and  C1_5 
ROOT
ATOM      1  C1  I4B d   1      -0.715   0.616   0.059  0.00  0.00    -0.075 A 
ATOM      2  C2  I4B d   1      -0.364   1.647  -0.776  0.00  0.00     0.003 A 
ATOM      3  C3  I4B d   1      -0.372   2.982  -0.303  0.00  0.00     0.002 A 
ATOM      4  C4  I4B d   1      -0.784   3.243   0.988  0.00  0.00    -0.004 A 
ATOM      5  C5  I4B d   1      -1.118   2.194   1.840  0.00  0.00     0.002 A 
ATOM      6  C6  I4B d   1      -1.072   0.871   1.377  0.00  0.00     0.003 A 
ENDROOT
BRANCH   1   7
ATOM      7  C1' I4B d   1      -0.727  -0.778  -0.483  0.00  0.00     0.060 C 
BRANCH   7   8
ATOM      8  C2' I4B d   1       0.531  -0.970  -1.305  0.00  0.00    -0.013 C 
ATOM      9  C4' I4B d   1       1.764  -0.675  -0.492  0.00  0.00     0.013 C 
ATOM     10  C3' I4B d   1       0.541  -2.382  -1.812  0.00  0.00     0.013 C 
ENDBRANCH   7   8
ENDBRANCH   1   7
TORSDOF 2
ENDMDL
