MODEL 1
REMARK minimizedAffinity -5.37304831
REMARK minimizedRMSD -1
REMARK  2 active torsions:
REMARK  status: ('A' for Active; 'I' for Inactive)
REMARK    1  A    between atoms: C2'_3  and  C1'_4 
REMARK    2  A    between atoms: C1'_4  and  C1_5 
ROOT
ATOM      1  C1  I4B d   1       0.648  -0.206   0.149  0.00  0.00    -0.075 A 
ATOM      2  C2  I4B d   1      -0.012  -0.937   1.105  0.00  0.00     0.003 A 
ATOM      3  C3  I4B d   1      -0.834  -0.288   2.058  0.00  0.00     0.002 A 
ATOM      4  C4  I4B d   1      -0.926   1.089   2.050  0.00  0.00    -0.004 A 
ATOM      5  C5  I4B d   1      -0.274   1.827   1.065  0.00  0.00     0.002 A 
ATOM      6  C6  I4B d   1       0.508   1.175   0.101  0.00  0.00     0.003 A 
ENDROOT
BRANCH   1   7
ATOM      7  C1' I4B d   1       1.533  -0.921  -0.822  0.00  0.00     0.060 C 
BRANCH   7   8
ATOM      8  C2' I4B d   1       1.041  -2.350  -0.938  0.00  0.00    -0.013 C 
ATOM      9  C4' I4B d   1       0.508  -2.633  -2.318  0.00  0.00     0.013 C 
ATOM     10  C3' I4B d   1       2.183  -3.261  -0.601  0.00  0.00     0.013 C 
ENDBRANCH   7   8
ENDBRANCH   1   7
TORSDOF 2
ENDMDL
