MODEL 1
REMARK minimizedAffinity -3.19138885
REMARK minimizedRMSD -1
REMARK  2 active torsions:
REMARK  status: ('A' for Active; 'I' for Inactive)
REMARK    1  A    between atoms: C2'_3  and  C1'_4 
REMARK    2  A    between atoms: C1'_4  and  C1_5 
ROOT
ATOM      1  C1  I4B d   1       0.265   0.002  -0.191  0.00  0.00    -0.075 A 
ATOM      2  C2  I4B d   1      -0.578  -0.736   0.602  0.00  0.00     0.003 A 
ATOM      3  C3  I4B d   1      -1.389  -0.096   1.570  0.00  0.00     0.002 A 
ATOM      4  C4  I4B d   1      -1.289   1.270   1.745  0.00  0.00    -0.004 A 
ATOM      5  C5  I4B d   1      -0.451   2.019   0.924  0.00  0.00     0.002 A 
ATOM      6  C6  I4B d   1       0.322   1.384  -0.058  0.00  0.00     0.003 A 
ENDROOT
BRANCH   1   7
ATOM      7  C1' I4B d   1       1.132  -0.710  -1.180  0.00  0.00     0.060 C 
BRANCH   7   8
ATOM      8  C2' I4B d   1       0.361  -1.907  -1.699  0.00  0.00    -0.013 C 
ATOM      9  C4' I4B d   1      -0.037  -1.717  -3.139  0.00  0.00     0.013 C 
ATOM     10  C3' I4B d   1       1.225  -3.121  -1.531  0.00  0.00     0.013 C 
ENDBRANCH   7   8
ENDBRANCH   1   7
TORSDOF 2
ENDMDL
