MODEL 1
REMARK minimizedAffinity 1.67297947
REMARK minimizedRMSD -1
REMARK  1 active torsions:
REMARK  status: ('A' for Active; 'I' for Inactive)
REMARK    1  A    between atoms: C1_2  and  C2_3 
ROOT
ATOM      1  C2  UNL d   1       1.296   0.156   0.011  0.00  0.00    -0.073 A 
ATOM      2  C3  UNL d   1       1.194   1.306   0.802  0.00  0.00    -0.002 A 
ATOM      3  C4  UNL d   1       2.241   2.228   0.844  0.00  0.00     0.004 A 
ATOM      4  C5  UNL d   1       3.396   2.014   0.091  0.00  0.00    -0.004 A 
ATOM      5  C6  UNL d   1       3.511   0.877  -0.716  0.00  0.00    -0.075 A 
ATOM      6  C7  UNL d   1       4.747   0.631  -1.530  0.00  0.00     0.076 C 
ATOM      7  C8  UNL d   1       2.457  -0.045  -0.750  0.00  0.00     0.001 A 
ENDROOT
BRANCH   1   8
ATOM      8  C1  UNL d   1       0.166  -0.839  -0.043  0.00  0.00     0.053 C 
ATOM      9  C   UNL d   1       0.670  -2.271  -0.126  0.00  0.00     0.018 C 
ENDBRANCH   1   8
TORSDOF 1
ENDMDL
