MODEL 1
REMARK minimizedAffinity 2.87757611
REMARK minimizedRMSD -1
REMARK  1 active torsions:
REMARK  status: ('A' for Active; 'I' for Inactive)
REMARK    1  A    between atoms: C1_2  and  C2_3 
ROOT
ATOM      1  C2  UNL d   1       2.830  -0.635  -0.009  0.00  0.00    -0.073 A 
ATOM      2  C3  UNL d   1       1.871   0.228   0.533  0.00  0.00    -0.002 A 
ATOM      3  C4  UNL d   1       2.139   1.592   0.654  0.00  0.00     0.004 A 
ATOM      4  C5  UNL d   1       3.364   2.108   0.230  0.00  0.00    -0.004 A 
ATOM      5  C6  UNL d   1       4.330   1.262  -0.324  0.00  0.00    -0.075 A 
ATOM      6  C7  UNL d   1       5.654   1.800  -0.783  0.00  0.00     0.076 C 
ATOM      7  C8  UNL d   1       4.055  -0.107  -0.441  0.00  0.00     0.001 A 
ENDROOT
BRANCH   1   8
ATOM      8  C1  UNL d   1       2.542  -2.108  -0.148  0.00  0.00     0.053 C 
ATOM      9  C   UNL d   1       1.136  -2.368  -0.664  0.00  0.00     0.018 C 
ENDBRANCH   1   8
TORSDOF 1
ENDMDL
