MODEL 1
REMARK minimizedAffinity -0.316810578
REMARK minimizedRMSD -1
REMARK  1 active torsions:
REMARK  status: ('A' for Active; 'I' for Inactive)
REMARK    1  A    between atoms: C1_2  and  C2_3 
ROOT
ATOM      1  C2  UNL d   1       3.610   1.421   0.074  0.00  0.00    -0.073 A 
ATOM      2  C3  UNL d   1       2.540   2.322   0.127  0.00  0.00    -0.002 A 
ATOM      3  C4  UNL d   1       1.226   1.860   0.043  0.00  0.00     0.004 A 
ATOM      4  C5  UNL d   1       0.968   0.495  -0.086  0.00  0.00    -0.004 A 
ATOM      5  C6  UNL d   1       2.023  -0.421  -0.128  0.00  0.00    -0.075 A 
ATOM      6  C7  UNL d   1       1.763  -1.892  -0.269  0.00  0.00     0.076 C 
ATOM      7  C8  UNL d   1       3.341   0.050  -0.047  0.00  0.00     0.001 A 
ENDROOT
BRANCH   1   8
ATOM      8  C1  UNL d   1       5.031   1.914   0.170  0.00  0.00     0.053 C 
ATOM      9  C   UNL d   1       5.499   2.561  -1.124  0.00  0.00     0.018 C 
ENDBRANCH   1   8
TORSDOF 1
ENDMDL
