MODEL 1
REMARK minimizedAffinity -1.01667178
REMARK minimizedRMSD -1
REMARK  1 active torsions:
REMARK  status: ('A' for Active; 'I' for Inactive)
REMARK    1  A    between atoms: C1_2  and  C2_3 
ROOT
ATOM      1  C2  UNL d   1       1.762  -1.292  -0.947  0.00  0.00    -0.073 A 
ATOM      2  C3  UNL d   1       2.991  -1.397  -0.288  0.00  0.00    -0.002 A 
ATOM      3  C4  UNL d   1       3.483  -0.328   0.462  0.00  0.00     0.004 A 
ATOM      4  C5  UNL d   1       2.748   0.853   0.565  0.00  0.00    -0.004 A 
ATOM      5  C6  UNL d   1       1.511   0.973  -0.077  0.00  0.00    -0.075 A 
ATOM      6  C7  UNL d   1       0.709   2.237   0.022  0.00  0.00     0.076 C 
ATOM      7  C8  UNL d   1       1.026  -0.105  -0.830  0.00  0.00     0.001 A 
ENDROOT
BRANCH   1   8
ATOM      8  C1  UNL d   1       1.224  -2.447  -1.753  0.00  0.00     0.053 C 
ATOM      9  C   UNL d   1       1.219  -3.743  -0.957  0.00  0.00     0.018 C 
ENDBRANCH   1   8
TORSDOF 1
ENDMDL
