MODEL 1
REMARK minimizedAffinity 3.79371786
REMARK minimizedRMSD -1
REMARK  1 active torsions:
REMARK  status: ('A' for Active; 'I' for Inactive)
REMARK    1  A    between atoms: C1_2  and  C2_3 
ROOT
ATOM      1  C2  UNL d   1       0.213  -1.579  -0.769  0.00  0.00    -0.073 A 
ATOM      2  C3  UNL d   1       0.485  -1.880   0.570  0.00  0.00    -0.002 A 
ATOM      3  C4  UNL d   1       1.662  -2.544   0.918  0.00  0.00     0.004 A 
ATOM      4  C5  UNL d   1       2.580  -2.908  -0.066  0.00  0.00    -0.004 A 
ATOM      5  C6  UNL d   1       2.331  -2.606  -1.409  0.00  0.00    -0.075 A 
ATOM      6  C7  UNL d   1       3.308  -2.992  -2.481  0.00  0.00     0.076 C 
ATOM      7  C8  UNL d   1       1.146  -1.941  -1.751  0.00  0.00     0.001 A 
ENDROOT
BRANCH   1   8
ATOM      8  C1  UNL d   1      -1.054  -0.856  -1.149  0.00  0.00     0.053 C 
ATOM      9  C   UNL d   1      -0.841   0.646  -1.262  0.00  0.00     0.018 C 
ENDBRANCH   1   8
TORSDOF 1
ENDMDL
