MODEL 1
REMARK minimizedAffinity -1.09675145
REMARK minimizedRMSD -1
REMARK  0 active torsions:
REMARK  status: ('A' for Active; 'I' for Inactive)
ROOT
ATOM      1  C   UNL d   1      -1.577   0.677   0.446  0.00  0.00     0.077 C 
ATOM      2  C1  UNL d   1      -0.406  -0.193   0.094  0.00  0.00    -0.074 A 
ATOM      3  C2  UNL d   1      -0.458  -1.056  -1.005  0.00  0.00    -0.005 A 
ATOM      4  C3  UNL d   1       0.642  -1.852  -1.326  0.00  0.00     0.006 A 
ATOM      5  C4  UNL d   1       1.802  -1.792  -0.553  0.00  0.00    -0.005 A 
ATOM      6  C5  UNL d   1       1.872  -0.934   0.549  0.00  0.00    -0.074 A 
ATOM      7  C6  UNL d   1       3.115  -0.851   1.384  0.00  0.00     0.077 C 
ATOM      8  C7  UNL d   1       0.766  -0.133   0.861  0.00  0.00    -0.001 A 
ENDROOT
TORSDOF 0
ENDMDL
