MODEL 1
REMARK minimizedAffinity -4.38314629
REMARK minimizedRMSD -1
REMARK  0 active torsions:
REMARK  status: ('A' for Active; 'I' for Inactive)
ROOT
ATOM      1  C   UNL d   1       2.749  -1.870  -0.079  0.00  0.00     0.077 C 
ATOM      2  C1  UNL d   1       1.964  -0.592  -0.104  0.00  0.00    -0.074 A 
ATOM      3  C2  UNL d   1       2.610   0.648  -0.103  0.00  0.00    -0.005 A 
ATOM      4  C3  UNL d   1       1.867   1.828  -0.136  0.00  0.00     0.006 A 
ATOM      5  C4  UNL d   1       0.473   1.780  -0.170  0.00  0.00    -0.005 A 
ATOM      6  C5  UNL d   1      -0.190   0.549  -0.171  0.00  0.00    -0.074 A 
ATOM      7  C6  UNL d   1      -1.688   0.479  -0.217  0.00  0.00     0.077 C 
ATOM      8  C7  UNL d   1       0.563  -0.632  -0.145  0.00  0.00    -0.001 A 
ENDROOT
TORSDOF 0
ENDMDL
