MODEL 1
REMARK minimizedAffinity -3.91916585
REMARK minimizedRMSD -1
REMARK  0 active torsions:
REMARK  status: ('A' for Active; 'I' for Inactive)
ROOT
ATOM      1  C   UNL d   1       3.519  -1.125   0.747  0.00  0.00     0.077 C 
ATOM      2  C1  UNL d   1       2.515  -0.063   0.406  0.00  0.00    -0.074 A 
ATOM      3  C2  UNL d   1       2.875   1.288   0.392  0.00  0.00    -0.005 A 
ATOM      4  C3  UNL d   1       1.934   2.263   0.063  0.00  0.00     0.006 A 
ATOM      5  C4  UNL d   1       0.625   1.898  -0.254  0.00  0.00    -0.005 A 
ATOM      6  C5  UNL d   1       0.247   0.551  -0.245  0.00  0.00    -0.074 A 
ATOM      7  C6  UNL d   1      -1.153   0.140  -0.593  0.00  0.00     0.077 C 
ATOM      8  C7  UNL d   1       1.201  -0.423   0.079  0.00  0.00    -0.001 A 
ENDROOT
TORSDOF 0
ENDMDL
