MODEL 1
REMARK minimizedAffinity -4.32969761
REMARK minimizedRMSD -1
REMARK  0 active torsions:
REMARK  status: ('A' for Active; 'I' for Inactive)
ROOT
ATOM      1  C   UNL d   1       2.905  -1.098   1.317  0.00  0.00     0.077 C 
ATOM      2  C1  UNL d   1       1.732  -1.101   0.383  0.00  0.00    -0.074 A 
ATOM      3  C2  UNL d   1       1.522  -2.161  -0.504  0.00  0.00    -0.005 A 
ATOM      4  C3  UNL d   1       0.421  -2.155  -1.360  0.00  0.00     0.006 A 
ATOM      5  C4  UNL d   1      -0.481  -1.090  -1.338  0.00  0.00    -0.005 A 
ATOM      6  C5  UNL d   1      -0.288  -0.022  -0.456  0.00  0.00    -0.074 A 
ATOM      7  C6  UNL d   1      -1.253   1.126  -0.412  0.00  0.00     0.077 C 
ATOM      8  C7  UNL d   1       0.817  -0.039   0.406  0.00  0.00    -0.001 A 
ENDROOT
TORSDOF 0
ENDMDL
