MODEL 1
REMARK minimizedAffinity -3.06336045
REMARK minimizedRMSD -1
REMARK  0 active torsions:
REMARK  status: ('A' for Active; 'I' for Inactive)
ROOT
ATOM      1  C   UNL d   1       3.365  -1.513   1.409  0.00  0.00     0.077 C 
ATOM      2  C1  UNL d   1       2.063  -1.235   0.718  0.00  0.00    -0.074 A 
ATOM      3  C2  UNL d   1       1.198  -2.278   0.369  0.00  0.00    -0.005 A 
ATOM      4  C3  UNL d   1      -0.014  -2.003  -0.265  0.00  0.00     0.006 A 
ATOM      5  C4  UNL d   1      -0.372  -0.687  -0.556  0.00  0.00    -0.005 A 
ATOM      6  C5  UNL d   1       0.479   0.369  -0.213  0.00  0.00    -0.074 A 
ATOM      7  C6  UNL d   1       0.104   1.790  -0.509  0.00  0.00     0.077 C 
ATOM      8  C7  UNL d   1       1.692   0.086   0.430  0.00  0.00    -0.001 A 
ENDROOT
TORSDOF 0
ENDMDL
