MODEL 1
REMARK minimizedAffinity -4.93520451
REMARK minimizedRMSD -1
REMARK  0 active torsions:
REMARK  status: ('A' for Active; 'I' for Inactive)
ROOT
ATOM      1  C   UNL d   1      -0.764  -2.244  -2.033  0.00  0.00     0.077 C 
ATOM      2  C1  UNL d   1      -0.092  -1.288  -1.092  0.00  0.00    -0.074 A 
ATOM      3  C2  UNL d   1      -0.672  -0.052  -0.789  0.00  0.00    -0.005 A 
ATOM      4  C3  UNL d   1      -0.040   0.822   0.096  0.00  0.00     0.006 A 
ATOM      5  C4  UNL d   1       1.176   0.470   0.684  0.00  0.00    -0.005 A 
ATOM      6  C5  UNL d   1       1.769  -0.762   0.393  0.00  0.00    -0.074 A 
ATOM      7  C6  UNL d   1       3.070  -1.161   1.024  0.00  0.00     0.077 C 
ATOM      8  C7  UNL d   1       1.125  -1.638  -0.491  0.00  0.00    -0.001 A 
ENDROOT
TORSDOF 0
ENDMDL
