MODEL 1
REMARK minimizedAffinity -3.57803655
REMARK minimizedRMSD -1
REMARK  0 active torsions:
REMARK  status: ('A' for Active; 'I' for Inactive)
ROOT
ATOM      1  C   UNL d   1      -1.214   0.749  -0.376  0.00  0.00     0.077 C 
ATOM      2  C1  UNL d   1       0.080  -0.005  -0.300  0.00  0.00    -0.074 A 
ATOM      3  C2  UNL d   1       0.098  -1.404  -0.311  0.00  0.00    -0.005 A 
ATOM      4  C3  UNL d   1       1.310  -2.092  -0.249  0.00  0.00     0.006 A 
ATOM      5  C4  UNL d   1       2.514  -1.389  -0.175  0.00  0.00    -0.005 A 
ATOM      6  C5  UNL d   1       2.515   0.009  -0.163  0.00  0.00    -0.074 A 
ATOM      7  C6  UNL d   1       3.800   0.779  -0.094  0.00  0.00     0.077 C 
ATOM      8  C7  UNL d   1       1.294   0.693  -0.233  0.00  0.00    -0.001 A 
ENDROOT
TORSDOF 0
ENDMDL
