MODEL 1
REMARK minimizedAffinity 2.24539757
REMARK minimizedRMSD -1
REMARK  1 active torsions:
REMARK  status: ('A' for Active; 'I' for Inactive)
REMARK    1  A    between atoms: C1_2  and  C2_3 
ROOT
ATOM      1  C2  UNL d   1      -5.993   3.803   2.703  0.00  0.00    -0.076 A 
ATOM      2  C3  UNL d   1      -5.999   3.231   3.986  0.00  0.00     0.004 A 
ATOM      3  C4  UNL d   1      -5.974   4.030   5.128  0.00  0.00    -0.003 A 
ATOM      4  C5  UNL d   1      -5.943   5.414   5.005  0.00  0.00     0.000 A 
ATOM      5  C6  UNL d   1      -5.954   6.000   3.739  0.00  0.00     0.000 A 
ATOM      6  C7  UNL d   1      -5.995   5.209   2.578  0.00  0.00    -0.073 A 
ATOM      7  C8  UNL d   1      -5.999   5.894   1.239  0.00  0.00     0.078 C 
ENDROOT
BRANCH   1   8
ATOM      8  C1  UNL d   1      -5.993   2.886   1.501  0.00  0.00     0.053 C 
ATOM      9  C   UNL d   1      -5.960   3.649   0.185  0.00  0.00     0.018 C 
ENDBRANCH   1   8
TORSDOF 1
ENDMDL
