MODEL 1
REMARK minimizedAffinity -0.956610262
REMARK minimizedRMSD -1
REMARK  1 active torsions:
REMARK  status: ('A' for Active; 'I' for Inactive)
REMARK    1  A    between atoms: C1_2  and  C2_3 
ROOT
ATOM      1  C2  UNL d   1      -5.602   4.020   2.653  0.00  0.00    -0.076 A 
ATOM      2  C3  UNL d   1      -5.960   5.359   2.416  0.00  0.00     0.004 A 
ATOM      3  C4  UNL d   1      -5.598   6.000   1.232  0.00  0.00    -0.003 A 
ATOM      4  C5  UNL d   1      -4.873   5.312   0.265  0.00  0.00     0.000 A 
ATOM      5  C6  UNL d   1      -4.525   3.978   0.476  0.00  0.00     0.000 A 
ATOM      6  C7  UNL d   1      -4.896   3.312   1.657  0.00  0.00    -0.073 A 
ATOM      7  C8  UNL d   1      -4.489   1.875   1.833  0.00  0.00     0.078 C 
ENDROOT
BRANCH   1   8
ATOM      8  C1  UNL d   1      -5.999   3.386   3.967  0.00  0.00     0.053 C 
ATOM      9  C   UNL d   1      -5.992   4.379   5.119  0.00  0.00     0.018 C 
ENDBRANCH   1   8
TORSDOF 1
ENDMDL
