MODEL 1
REMARK minimizedAffinity -2.01036048
REMARK minimizedRMSD -1
REMARK  1 active torsions:
REMARK  status: ('A' for Active; 'I' for Inactive)
REMARK    1  A    between atoms: C1_2  and  C2_3 
ROOT
ATOM      1  C2  UNL d   1      -5.280   4.650   4.130  0.00  0.00    -0.076 A 
ATOM      2  C3  UNL d   1      -5.092   5.803   3.348  0.00  0.00     0.004 A 
ATOM      3  C4  UNL d   1      -5.346   5.789   1.977  0.00  0.00    -0.003 A 
ATOM      4  C5  UNL d   1      -5.792   4.622   1.367  0.00  0.00     0.000 A 
ATOM      5  C6  UNL d   1      -6.000   3.474   2.130  0.00  0.00     0.000 A 
ATOM      6  C7  UNL d   1      -5.764   3.475   3.516  0.00  0.00    -0.073 A 
ATOM      7  C8  UNL d   1      -6.000   2.207   4.289  0.00  0.00     0.078 C 
ENDROOT
BRANCH   1   8
ATOM      8  C1  UNL d   1      -4.962   4.717   5.607  0.00  0.00     0.053 C 
ATOM      9  C   UNL d   1      -3.721   3.917   5.973  0.00  0.00     0.018 C 
ENDBRANCH   1   8
TORSDOF 1
ENDMDL
