MODEL 1
REMARK minimizedAffinity -2.22169685
REMARK minimizedRMSD -1
REMARK  1 active torsions:
REMARK  status: ('A' for Active; 'I' for Inactive)
REMARK    1  A    between atoms: C1_2  and  C2_3 
ROOT
ATOM      1  C2  UNL d   1      -4.868   4.032   4.220  0.00  0.00    -0.076 A 
ATOM      2  C3  UNL d   1      -4.512   3.675   2.907  0.00  0.00     0.004 A 
ATOM      3  C4  UNL d   1      -4.891   4.463   1.822  0.00  0.00    -0.003 A 
ATOM      4  C5  UNL d   1      -5.631   5.621   2.031  0.00  0.00     0.000 A 
ATOM      5  C6  UNL d   1      -5.978   6.000   3.327  0.00  0.00     0.000 A 
ATOM      6  C7  UNL d   1      -5.590   5.225   4.434  0.00  0.00    -0.073 A 
ATOM      7  C8  UNL d   1      -5.997   5.677   5.810  0.00  0.00     0.078 C 
ENDROOT
BRANCH   1   8
ATOM      8  C1  UNL d   1      -4.453   3.124   5.355  0.00  0.00     0.053 C 
ATOM      9  C   UNL d   1      -3.144   3.555   5.997  0.00  0.00     0.018 C 
ENDBRANCH   1   8
TORSDOF 1
ENDMDL
