MODEL 1
REMARK minimizedAffinity -1.64067185
REMARK minimizedRMSD -1
REMARK  1 active torsions:
REMARK  status: ('A' for Active; 'I' for Inactive)
REMARK    1  A    between atoms: C1_2  and  C2_3 
ROOT
ATOM      1  C2  UNL d   1      -4.845   4.115   3.978  0.00  0.00    -0.076 A 
ATOM      2  C3  UNL d   1      -4.487   3.644   2.703  0.00  0.00     0.004 A 
ATOM      3  C4  UNL d   1      -4.885   4.319   1.550  0.00  0.00    -0.003 A 
ATOM      4  C5  UNL d   1      -5.646   5.478   1.654  0.00  0.00     0.000 A 
ATOM      5  C6  UNL d   1      -5.996   5.969   2.911  0.00  0.00     0.000 A 
ATOM      6  C7  UNL d   1      -5.589   5.309   4.083  0.00  0.00    -0.073 A 
ATOM      7  C8  UNL d   1      -6.000   5.881   5.413  0.00  0.00     0.078 C 
ENDROOT
BRANCH   1   8
ATOM      8  C1  UNL d   1      -4.408   3.325   5.191  0.00  0.00     0.053 C 
ATOM      9  C   UNL d   1      -5.585   2.779   5.985  0.00  0.00     0.018 C 
ENDBRANCH   1   8
TORSDOF 1
ENDMDL
