MODEL 1
REMARK minimizedAffinity -0.717838049
REMARK minimizedRMSD -1
REMARK  1 active torsions:
REMARK  status: ('A' for Active; 'I' for Inactive)
REMARK    1  A    between atoms: C1_2  and  C2_3 
ROOT
ATOM      1  C2  UNL d   1      -5.940   5.252   3.463  0.00  0.00    -0.076 A 
ATOM      2  C3  UNL d   1      -5.999   6.000   4.651  0.00  0.00     0.004 A 
ATOM      3  C4  UNL d   1      -5.973   5.373   5.896  0.00  0.00    -0.003 A 
ATOM      4  C5  UNL d   1      -5.887   3.987   5.972  0.00  0.00     0.000 A 
ATOM      5  C6  UNL d   1      -5.810   3.230   4.803  0.00  0.00     0.000 A 
ATOM      6  C7  UNL d   1      -5.819   3.848   3.541  0.00  0.00    -0.073 A 
ATOM      7  C8  UNL d   1      -5.740   2.982   2.313  0.00  0.00     0.078 C 
ENDROOT
BRANCH   1   8
ATOM      8  C1  UNL d   1      -6.000   5.985   2.141  0.00  0.00     0.053 C 
ATOM      9  C   UNL d   1      -4.660   6.000   1.423  0.00  0.00     0.018 C 
ENDBRANCH   1   8
TORSDOF 1
ENDMDL
