MODEL 1
REMARK minimizedAffinity 1.26302934
REMARK minimizedRMSD -1
REMARK  1 active torsions:
REMARK  status: ('A' for Active; 'I' for Inactive)
REMARK    1  A    between atoms: C1_2  and  C2_3 
ROOT
ATOM      1  C2  UNL d   1      -5.266   5.088   2.718  0.00  0.00    -0.076 A 
ATOM      2  C3  UNL d   1      -4.750   5.995   3.659  0.00  0.00     0.004 A 
ATOM      3  C4  UNL d   1      -4.126   5.546   4.822  0.00  0.00    -0.003 A 
ATOM      4  C5  UNL d   1      -4.006   4.181   5.061  0.00  0.00     0.000 A 
ATOM      5  C6  UNL d   1      -4.495   3.267   4.129  0.00  0.00     0.000 A 
ATOM      6  C7  UNL d   1      -5.114   3.703   2.945  0.00  0.00    -0.073 A 
ATOM      7  C8  UNL d   1      -5.629   2.673   1.978  0.00  0.00     0.078 C 
ENDROOT
BRANCH   1   8
ATOM      8  C1  UNL d   1      -5.957   5.633   1.489  0.00  0.00     0.053 C 
ATOM      9  C   UNL d   1      -4.979   5.996   0.383  0.00  0.00     0.018 C 
ENDBRANCH   1   8
TORSDOF 1
ENDMDL
