MODEL 1
REMARK minimizedAffinity 1.11619997
REMARK minimizedRMSD -1
REMARK  1 active torsions:
REMARK  status: ('A' for Active; 'I' for Inactive)
REMARK    1  A    between atoms: C1_2  and  C2_3 
ROOT
ATOM      1  C2  UNL d   1      -5.574   3.811   3.110  0.00  0.00    -0.076 A 
ATOM      2  C3  UNL d   1      -5.311   3.142   4.318  0.00  0.00     0.004 A 
ATOM      3  C4  UNL d   1      -5.148   3.848   5.509  0.00  0.00    -0.003 A 
ATOM      4  C5  UNL d   1      -5.246   5.235   5.511  0.00  0.00     0.000 A 
ATOM      5  C6  UNL d   1      -5.524   5.914   4.325  0.00  0.00     0.000 A 
ATOM      6  C7  UNL d   1      -5.707   5.216   3.119  0.00  0.00    -0.073 A 
ATOM      7  C8  UNL d   1      -5.999   5.999   1.868  0.00  0.00     0.078 C 
ENDROOT
BRANCH   1   8
ATOM      8  C1  UNL d   1      -5.714   2.994   1.845  0.00  0.00     0.053 C 
ATOM      9  C   UNL d   1      -5.270   3.757   0.607  0.00  0.00     0.018 C 
ENDBRANCH   1   8
TORSDOF 1
ENDMDL
