MODEL 1
REMARK minimizedAffinity -3.25473595
REMARK minimizedRMSD -1
REMARK  1 active torsions:
REMARK  status: ('A' for Active; 'I' for Inactive)
REMARK    1  A    between atoms: C1_2  and  C2_3 
ROOT
ATOM      1  C2  UNL d   1      -5.201   4.608   3.638  0.00  0.00    -0.076 A 
ATOM      2  C3  UNL d   1      -5.205   3.536   2.729  0.00  0.00     0.004 A 
ATOM      3  C4  UNL d   1      -5.591   2.258   3.128  0.00  0.00    -0.003 A 
ATOM      4  C5  UNL d   1      -5.980   2.031   4.444  0.00  0.00     0.000 A 
ATOM      5  C6  UNL d   1      -6.000   3.086   5.355  0.00  0.00     0.000 A 
ATOM      6  C7  UNL d   1      -5.629   4.384   4.965  0.00  0.00    -0.073 A 
ATOM      7  C8  UNL d   1      -5.663   5.484   5.990  0.00  0.00     0.078 C 
ENDROOT
BRANCH   1   8
ATOM      8  C1  UNL d   1      -4.746   5.966   3.155  0.00  0.00     0.053 C 
ATOM      9  C   UNL d   1      -4.495   5.997   1.655  0.00  0.00     0.018 C 
ENDBRANCH   1   8
TORSDOF 1
ENDMDL
