MODEL 1
REMARK minimizedAffinity -3.07493687
REMARK minimizedRMSD -1
REMARK  1 active torsions:
REMARK  status: ('A' for Active; 'I' for Inactive)
REMARK    1  A    between atoms: C1_2  and  C2_3 
ROOT
ATOM      1  C2  UNL d   1      -5.160   4.821   3.710  0.00  0.00    -0.076 A 
ATOM      2  C3  UNL d   1      -5.624   5.472   4.866  0.00  0.00     0.004 A 
ATOM      3  C4  UNL d   1      -5.993   4.747   5.998  0.00  0.00    -0.003 A 
ATOM      4  C5  UNL d   1      -5.904   3.360   5.992  0.00  0.00     0.000 A 
ATOM      5  C6  UNL d   1      -5.429   2.698   4.860  0.00  0.00     0.000 A 
ATOM      6  C7  UNL d   1      -5.037   3.415   3.717  0.00  0.00    -0.073 A 
ATOM      7  C8  UNL d   1      -4.537   2.650   2.522  0.00  0.00     0.078 C 
ENDROOT
BRANCH   1   8
ATOM      8  C1  UNL d   1      -4.799   5.658   2.503  0.00  0.00     0.053 C 
ATOM      9  C   UNL d   1      -5.998   5.941   1.612  0.00  0.00     0.018 C 
ENDBRANCH   1   8
TORSDOF 1
ENDMDL
