MODEL 1
REMARK minimizedAffinity -2.92566228
REMARK minimizedRMSD -1
REMARK  1 active torsions:
REMARK  status: ('A' for Active; 'I' for Inactive)
REMARK    1  A    between atoms: C1_2  and  C2_3 
ROOT
ATOM      1  C2  UNL d   1      -5.617   3.956   4.265  0.00  0.00    -0.076 A 
ATOM      2  C3  UNL d   1      -5.727   3.354   2.999  0.00  0.00     0.004 A 
ATOM      3  C4  UNL d   1      -5.427   4.065   1.838  0.00  0.00    -0.003 A 
ATOM      4  C5  UNL d   1      -5.012   5.389   1.924  0.00  0.00     0.000 A 
ATOM      5  C6  UNL d   1      -4.880   5.997   3.172  0.00  0.00     0.000 A 
ATOM      6  C7  UNL d   1      -5.163   5.290   4.353  0.00  0.00    -0.073 A 
ATOM      7  C8  UNL d   1      -5.010   5.997   5.672  0.00  0.00     0.078 C 
ENDROOT
BRANCH   1   8
ATOM      8  C1  UNL d   1      -5.982   3.145   5.487  0.00  0.00     0.053 C 
ATOM      9  C   UNL d   1      -4.821   2.304   5.996  0.00  0.00     0.018 C 
ENDBRANCH   1   8
TORSDOF 1
ENDMDL
