MODEL 1
REMARK minimizedAffinity -2.57535076
REMARK minimizedRMSD -1
REMARK  1 active torsions:
REMARK  status: ('A' for Active; 'I' for Inactive)
REMARK    1  A    between atoms: C1_2  and  C2_3 
ROOT
ATOM      1  C2  UNL d   1      -5.400   3.876   3.382  0.00  0.00    -0.076 A 
ATOM      2  C3  UNL d   1      -5.193   3.299   4.646  0.00  0.00     0.004 A 
ATOM      3  C4  UNL d   1      -5.297   4.061   5.809  0.00  0.00    -0.003 A 
ATOM      4  C5  UNL d   1      -5.612   5.413   5.725  0.00  0.00     0.000 A 
ATOM      5  C6  UNL d   1      -5.838   5.998   4.480  0.00  0.00     0.000 A 
ATOM      6  C7  UNL d   1      -5.752   5.241   3.299  0.00  0.00    -0.073 A 
ATOM      7  C8  UNL d   1      -6.000   5.925   1.983  0.00  0.00     0.078 C 
ENDROOT
BRANCH   1   8
ATOM      8  C1  UNL d   1      -5.247   3.007   2.154  0.00  0.00     0.053 C 
ATOM      9  C   UNL d   1      -4.013   2.120   2.219  0.00  0.00     0.018 C 
ENDBRANCH   1   8
TORSDOF 1
ENDMDL
