MODEL 1
REMARK minimizedAffinity -2.77756166
REMARK minimizedRMSD -1
REMARK  1 active torsions:
REMARK  status: ('A' for Active; 'I' for Inactive)
REMARK    1  A    between atoms: C1_2  and  C2_3 
ROOT
ATOM      1  C2  UNL d   1      -1.296  -1.412   1.091  0.00  0.00    -0.076 A 
ATOM      2  C3  UNL d   1       0.105  -1.333   1.005  0.00  0.00     0.004 A 
ATOM      3  C4  UNL d   1       0.728  -0.864  -0.150  0.00  0.00    -0.003 A 
ATOM      4  C5  UNL d   1      -0.040  -0.465  -1.238  0.00  0.00     0.000 A 
ATOM      5  C6  UNL d   1      -1.432  -0.520  -1.165  0.00  0.00     0.000 A 
ATOM      6  C7  UNL d   1      -2.076  -0.976  -0.001  0.00  0.00    -0.073 A 
ATOM      7  C8  UNL d   1      -3.579  -1.020   0.021  0.00  0.00     0.078 C 
ENDROOT
BRANCH   1   8
ATOM      8  C1  UNL d   1      -1.914  -1.955   2.359  0.00  0.00     0.053 C 
ATOM      9  C   UNL d   1      -1.620  -1.083   3.570  0.00  0.00     0.018 C 
ENDBRANCH   1   8
TORSDOF 1
ENDMDL
