MODEL 1
REMARK minimizedAffinity -0.990397096
REMARK minimizedRMSD -1
REMARK  1 active torsions:
REMARK  status: ('A' for Active; 'I' for Inactive)
REMARK    1  A    between atoms: C1_2  and  C2_3 
ROOT
ATOM      1  C2  UNL d   1      -5.268   4.751   2.838  0.00  0.00    -0.076 A 
ATOM      2  C3  UNL d   1      -5.756   5.898   3.487  0.00  0.00     0.004 A 
ATOM      3  C4  UNL d   1      -5.997   5.899   4.860  0.00  0.00    -0.003 A 
ATOM      4  C5  UNL d   1      -5.753   4.751   5.606  0.00  0.00     0.000 A 
ATOM      5  C6  UNL d   1      -5.252   3.609   4.982  0.00  0.00     0.000 A 
ATOM      6  C7  UNL d   1      -4.988   3.597   3.602  0.00  0.00    -0.073 A 
ATOM      7  C8  UNL d   1      -4.454   2.336   2.980  0.00  0.00     0.078 C 
ENDROOT
BRANCH   1   8
ATOM      8  C1  UNL d   1      -5.051   4.801   1.343  0.00  0.00     0.053 C 
ATOM      9  C   UNL d   1      -5.736   5.994   0.694  0.00  0.00     0.018 C 
ENDBRANCH   1   8
TORSDOF 1
ENDMDL
