MODEL 1
REMARK minimizedAffinity -3.75296044
REMARK minimizedRMSD -1
REMARK  1 active torsions:
REMARK  status: ('A' for Active; 'I' for Inactive)
REMARK    1  A    between atoms: C1_2  and  C2_3 
ROOT
ATOM      1  C2  UNL d   1      -5.769   3.604   4.004  0.00  0.00    -0.076 A 
ATOM      2  C3  UNL d   1      -5.631   3.416   2.617  0.00  0.00     0.004 A 
ATOM      3  C4  UNL d   1      -5.619   4.502   1.744  0.00  0.00    -0.003 A 
ATOM      4  C5  UNL d   1      -5.744   5.794   2.242  0.00  0.00     0.000 A 
ATOM      5  C6  UNL d   1      -5.864   6.000   3.616  0.00  0.00     0.000 A 
ATOM      6  C7  UNL d   1      -5.861   4.917   4.512  0.00  0.00    -0.073 A 
ATOM      7  C8  UNL d   1      -6.000   5.197   5.984  0.00  0.00     0.078 C 
ENDROOT
BRANCH   1   8
ATOM      8  C1  UNL d   1      -5.803   2.386   4.900  0.00  0.00     0.053 C 
ATOM      9  C   UNL d   1      -4.503   2.189   5.664  0.00  0.00     0.018 C 
ENDBRANCH   1   8
TORSDOF 1
ENDMDL
