MODEL 1
REMARK minimizedAffinity 7.22975349
REMARK minimizedRMSD -1
REMARK  2 active torsions:
REMARK  status: ('A' for Active; 'I' for Inactive)
REMARK    1  A    between atoms: C1_2  and  C2_3 
REMARK    2  A    between atoms: C2_3  and  C3_4 
ROOT
ATOM      1  C3  UNL d   1      -3.801   2.311  -3.072  0.00  0.00    -0.075 A 
ATOM      2  C4  UNL d   1      -3.457   2.502  -4.418  0.00  0.00     0.002 A 
ATOM      3  C5  UNL d   1      -3.761   3.700  -5.065  0.00  0.00     0.002 A 
ATOM      4  C6  UNL d   1      -4.421   4.717  -4.378  0.00  0.00    -0.004 A 
ATOM      5  C7  UNL d   1      -4.783   4.533  -3.046  0.00  0.00     0.002 A 
ATOM      6  C8  UNL d   1      -4.475   3.336  -2.395  0.00  0.00     0.002 A 
ENDROOT
BRANCH   1   7
ATOM      7  C2  UNL d   1      -3.448   1.028  -2.359  0.00  0.00     0.056 C 
BRANCH   7   8
ATOM      8  C1  UNL d   1      -2.026   1.003  -1.788  0.00  0.00     0.007 C 
ATOM      9  C   UNL d   1      -1.925   1.623  -0.401  0.00  0.00     0.009 C 
ENDBRANCH   7   8
ENDBRANCH   1   7
TORSDOF 2
ENDMDL
