MODEL 1
REMARK minimizedAffinity 10.5110397
REMARK minimizedRMSD -1
REMARK  2 active torsions:
REMARK  status: ('A' for Active; 'I' for Inactive)
REMARK    1  A    between atoms: C1_2  and  C2_3 
REMARK    2  A    between atoms: C2_3  and  C3_4 
ROOT
ATOM      1  C3  UNL d   1       1.540  -3.002   0.419  0.00  0.00    -0.075 A 
ATOM      2  C4  UNL d   1       2.560  -2.474  -0.385  0.00  0.00     0.002 A 
ATOM      3  C5  UNL d   1       2.713  -2.898  -1.705  0.00  0.00     0.002 A 
ATOM      4  C6  UNL d   1       1.857  -3.862  -2.234  0.00  0.00    -0.004 A 
ATOM      5  C7  UNL d   1       0.850  -4.405  -1.438  0.00  0.00     0.002 A 
ATOM      6  C8  UNL d   1       0.692  -3.979  -0.119  0.00  0.00     0.002 A 
ENDROOT
BRANCH   1   7
ATOM      7  C2  UNL d   1       1.351  -2.525   1.840  0.00  0.00     0.056 C 
BRANCH   7   8
ATOM      8  C1  UNL d   1       1.836  -1.092   2.086  0.00  0.00     0.007 C 
ATOM      9  C   UNL d   1       1.645  -0.633   3.526  0.00  0.00     0.009 C 
ENDBRANCH   7   8
ENDBRANCH   1   7
TORSDOF 2
ENDMDL
