MODEL 1
REMARK minimizedAffinity 8.18603992
REMARK minimizedRMSD -1
REMARK  2 active torsions:
REMARK  status: ('A' for Active; 'I' for Inactive)
REMARK    1  A    between atoms: C1_2  and  C2_3 
REMARK    2  A    between atoms: C2_3  and  C3_4 
ROOT
ATOM      1  C3  UNL d   1       1.420  -2.385   3.362  0.00  0.00    -0.075 A 
ATOM      2  C4  UNL d   1       2.291  -3.482   3.288  0.00  0.00     0.002 A 
ATOM      3  C5  UNL d   1       2.734  -4.114   4.450  0.00  0.00     0.002 A 
ATOM      4  C6  UNL d   1       2.321  -3.653   5.698  0.00  0.00    -0.004 A 
ATOM      5  C7  UNL d   1       1.469  -2.554   5.784  0.00  0.00     0.002 A 
ATOM      6  C8  UNL d   1       1.021  -1.922   4.622  0.00  0.00     0.002 A 
ENDROOT
BRANCH   1   7
ATOM      7  C2  UNL d   1       0.914  -1.715   2.107  0.00  0.00     0.056 C 
BRANCH   7   8
ATOM      8  C1  UNL d   1       1.858  -0.646   1.546  0.00  0.00     0.007 C 
ATOM      9  C   UNL d   1       2.854  -1.196   0.534  0.00  0.00     0.009 C 
ENDBRANCH   7   8
ENDBRANCH   1   7
TORSDOF 2
ENDMDL
