MODEL 1
REMARK minimizedAffinity -0.502952635
REMARK minimizedRMSD -1
REMARK  2 active torsions:
REMARK  status: ('A' for Active; 'I' for Inactive)
REMARK    1  A    between atoms: C1_2  and  C2_3 
REMARK    2  A    between atoms: C2_3  and  C3_4 
ROOT
ATOM      1  C3  UNL d   1      -3.799   2.605  -3.170  0.00  0.00    -0.075 A 
ATOM      2  C4  UNL d   1      -3.413   2.977  -4.466  0.00  0.00     0.002 A 
ATOM      3  C5  UNL d   1      -3.577   4.292  -4.904  0.00  0.00     0.002 A 
ATOM      4  C6  UNL d   1      -4.138   5.246  -4.058  0.00  0.00    -0.004 A 
ATOM      5  C7  UNL d   1      -4.541   4.884  -2.775  0.00  0.00     0.002 A 
ATOM      6  C8  UNL d   1      -4.373   3.571  -2.332  0.00  0.00     0.002 A 
ENDROOT
BRANCH   1   7
ATOM      7  C2  UNL d   1      -3.597   1.192  -2.679  0.00  0.00     0.056 C 
BRANCH   7   8
ATOM      8  C1  UNL d   1      -2.228   0.945  -2.036  0.00  0.00     0.007 C 
ATOM      9  C   UNL d   1      -2.318   0.542  -0.570  0.00  0.00     0.009 C 
ENDBRANCH   7   8
ENDBRANCH   1   7
TORSDOF 2
ENDMDL
