MODEL 1
REMARK minimizedAffinity 9.1445694
REMARK minimizedRMSD -1
REMARK  2 active torsions:
REMARK  status: ('A' for Active; 'I' for Inactive)
REMARK    1  A    between atoms: C1_2  and  C2_3 
REMARK    2  A    between atoms: C2_3  and  C3_4 
ROOT
ATOM      1  C3  UNL d   1       3.534  -3.419   0.543  0.00  0.00    -0.075 A 
ATOM      2  C4  UNL d   1       2.558  -4.137   1.249  0.00  0.00     0.002 A 
ATOM      3  C5  UNL d   1       1.477  -3.475   1.833  0.00  0.00     0.002 A 
ATOM      4  C6  UNL d   1       1.364  -2.091   1.728  0.00  0.00    -0.004 A 
ATOM      5  C7  UNL d   1       2.337  -1.366   1.042  0.00  0.00     0.002 A 
ATOM      6  C8  UNL d   1       3.417  -2.026   0.453  0.00  0.00     0.002 A 
ENDROOT
BRANCH   1   7
ATOM      7  C2  UNL d   1       4.691  -4.132  -0.117  0.00  0.00     0.056 C 
BRANCH   7   8
ATOM      8  C1  UNL d   1       5.966  -4.169   0.731  0.00  0.00     0.007 C 
ATOM      9  C   UNL d   1       5.954  -5.267   1.786  0.00  0.00     0.009 C 
ENDBRANCH   7   8
ENDBRANCH   1   7
TORSDOF 2
ENDMDL
