MODEL 1
REMARK minimizedAffinity 9.10450649
REMARK minimizedRMSD -1
REMARK  1 active torsions:
REMARK  status: ('A' for Active; 'I' for Inactive)
REMARK    1  A    between atoms: C3_4  and  O_7 
ROOT
ATOM      1  C   UNL d   1       0.264   0.039  -1.565  0.00  0.00    -0.033 A 
ATOM      2  C1  UNL d   1      -0.186  -1.255  -1.833  0.00  0.00     0.039 A 
ATOM      3  C2  UNL d   1      -1.467  -1.647  -1.437  0.00  0.00    -0.080 A 
ATOM      4  C3  UNL d   1      -2.286  -0.735  -0.777  0.00  0.00     0.150 A 
ATOM      5  C4  UNL d   1      -1.845   0.557  -0.510  0.00  0.00    -0.007 A 
ATOM      6  C5  UNL d   1      -0.566   0.945  -0.905  0.00  0.00     0.039 A 
ENDROOT
BRANCH   4   7
ATOM      7  O   UNL d   1      -3.542  -1.073  -0.367  0.00  0.00    -0.526 OA
ATOM      8  H5  UNL d   1      -3.699  -2.004  -0.593  0.00  0.00     0.418 HD
ENDBRANCH   4   7
TORSDOF 1
ENDMDL
