MODEL 1
REMARK minimizedAffinity 5.05104542
REMARK minimizedRMSD -1
REMARK  1 active torsions:
REMARK  status: ('A' for Active; 'I' for Inactive)
REMARK    1  A    between atoms: C3_4  and  O_7 
ROOT
ATOM      1  C   UNL d   1       0.497   0.621   2.974  0.00  0.00    -0.033 A 
ATOM      2  C1  UNL d   1      -0.123   0.614   1.723  0.00  0.00     0.039 A 
ATOM      3  C2  UNL d   1       0.090   1.667   0.831  0.00  0.00    -0.080 A 
ATOM      4  C3  UNL d   1       0.924   2.719   1.201  0.00  0.00     0.150 A 
ATOM      5  C4  UNL d   1       1.547   2.730   2.444  0.00  0.00    -0.007 A 
ATOM      6  C5  UNL d   1       1.333   1.678   3.334  0.00  0.00     0.039 A 
ENDROOT
BRANCH   4   7
ATOM      7  O   UNL d   1       1.157   3.771   0.366  0.00  0.00    -0.526 OA
ATOM      8  H5  UNL d   1       0.638   3.641  -0.445  0.00  0.00     0.418 HD
ENDBRANCH   4   7
TORSDOF 1
ENDMDL
