MODEL 1
REMARK minimizedAffinity -0.243445367
REMARK minimizedRMSD -1
REMARK  1 active torsions:
REMARK  status: ('A' for Active; 'I' for Inactive)
REMARK    1  A    between atoms: C3_4  and  O_7 
ROOT
ATOM      1  C   UNL d   1       4.111  -3.161  -3.749  0.00  0.00    -0.033 A 
ATOM      2  C1  UNL d   1       4.471  -4.445  -4.163  0.00  0.00     0.039 A 
ATOM      3  C2  UNL d   1       4.814  -5.415  -3.219  0.00  0.00    -0.080 A 
ATOM      4  C3  UNL d   1       4.792  -5.088  -1.865  0.00  0.00     0.150 A 
ATOM      5  C4  UNL d   1       4.431  -3.812  -1.446  0.00  0.00    -0.007 A 
ATOM      6  C5  UNL d   1       4.090  -2.845  -2.391  0.00  0.00     0.039 A 
ENDROOT
BRANCH   4   7
ATOM      7  O   UNL d   1       5.123  -5.999  -0.907  0.00  0.00    -0.526 OA
ATOM      8  H5  UNL d   1       5.378  -6.828  -1.345  0.00  0.00     0.418 HD
ENDBRANCH   4   7
TORSDOF 1
ENDMDL
