MODEL 1
REMARK minimizedAffinity -1.58252335
REMARK minimizedRMSD -1
REMARK  1 active torsions:
REMARK  status: ('A' for Active; 'I' for Inactive)
REMARK    1  A    between atoms: C3_4  and  O_7 
ROOT
ATOM      1  C   UNL d   1       4.178  -5.610  -2.422  0.00  0.00    -0.033 A 
ATOM      2  C1  UNL d   1       2.928  -5.061  -2.714  0.00  0.00     0.039 A 
ATOM      3  C2  UNL d   1       2.740  -3.678  -2.654  0.00  0.00    -0.080 A 
ATOM      4  C3  UNL d   1       3.809  -2.858  -2.303  0.00  0.00     0.150 A 
ATOM      5  C4  UNL d   1       5.057  -3.399  -2.015  0.00  0.00    -0.007 A 
ATOM      6  C5  UNL d   1       5.243  -4.779  -2.075  0.00  0.00     0.039 A 
ENDROOT
BRANCH   4   7
ATOM      7  O   UNL d   1       3.672  -1.504  -2.227  0.00  0.00    -0.526 OA
ATOM      8  H5  UNL d   1       2.748  -1.276  -2.424  0.00  0.00     0.418 HD
ENDBRANCH   4   7
TORSDOF 1
ENDMDL
