MODEL 1
REMARK minimizedAffinity 4.68915367
REMARK minimizedRMSD -1
REMARK  1 active torsions:
REMARK  status: ('A' for Active; 'I' for Inactive)
REMARK    1  A    between atoms: C3_4  and  O_7 
ROOT
ATOM      1  C   UNL d   1       5.575  -2.666  -2.890  0.00  0.00    -0.033 A 
ATOM      2  C1  UNL d   1       4.271  -2.242  -3.149  0.00  0.00     0.039 A 
ATOM      3  C2  UNL d   1       3.382  -2.027  -2.094  0.00  0.00    -0.080 A 
ATOM      4  C3  UNL d   1       3.810  -2.239  -0.786  0.00  0.00     0.150 A 
ATOM      5  C4  UNL d   1       5.110  -2.658  -0.521  0.00  0.00    -0.007 A 
ATOM      6  C5  UNL d   1       5.995  -2.873  -1.576  0.00  0.00     0.039 A 
ENDROOT
BRANCH   4   7
ATOM      7  O   UNL d   1       2.977  -2.048   0.276  0.00  0.00    -0.526 OA
ATOM      8  H5  UNL d   1       2.104  -1.787  -0.061  0.00  0.00     0.418 HD
ENDBRANCH   4   7
TORSDOF 1
ENDMDL
