MODEL 1
REMARK minimizedAffinity -4.04267168
REMARK minimizedRMSD -1
REMARK  1 active torsions:
REMARK  status: ('A' for Active; 'I' for Inactive)
REMARK    1  A    between atoms: C3_4  and  O_7 
ROOT
ATOM      1  C   UNL d   1       4.592  -4.948  -3.109  0.00  0.00    -0.033 A 
ATOM      2  C1  UNL d   1       4.915  -5.130  -1.763  0.00  0.00     0.039 A 
ATOM      3  C2  UNL d   1       4.885  -4.046  -0.883  0.00  0.00    -0.080 A 
ATOM      4  C3  UNL d   1       4.530  -2.788  -1.361  0.00  0.00     0.150 A 
ATOM      5  C4  UNL d   1       4.204  -2.600  -2.700  0.00  0.00    -0.007 A 
ATOM      6  C5  UNL d   1       4.235  -3.683  -3.578  0.00  0.00     0.039 A 
ENDROOT
BRANCH   4   7
ATOM      7  O   UNL d   1       4.491  -1.699  -0.542  0.00  0.00    -0.526 OA
ATOM      8  H5  UNL d   1       4.768  -1.974   0.348  0.00  0.00     0.418 HD
ENDBRANCH   4   7
TORSDOF 1
ENDMDL
