MODEL 1
REMARK minimizedAffinity 4.58764029
REMARK minimizedRMSD -1
REMARK  1 active torsions:
REMARK  status: ('A' for Active; 'I' for Inactive)
REMARK    1  A    between atoms: C3_4  and  O_7 
ROOT
ATOM      1  C   UNL d   1       3.061  -4.101  -0.704  0.00  0.00    -0.033 A 
ATOM      2  C1  UNL d   1       3.017  -4.669  -1.979  0.00  0.00     0.039 A 
ATOM      3  C2  UNL d   1       3.450  -3.937  -3.086  0.00  0.00    -0.080 A 
ATOM      4  C3  UNL d   1       3.923  -2.640  -2.906  0.00  0.00     0.150 A 
ATOM      5  C4  UNL d   1       3.973  -2.069  -1.639  0.00  0.00    -0.007 A 
ATOM      6  C5  UNL d   1       3.540  -2.801  -0.534  0.00  0.00     0.039 A 
ENDROOT
BRANCH   4   7
ATOM      7  O   UNL d   1       4.351  -1.885  -3.957  0.00  0.00    -0.526 OA
ATOM      8  H5  UNL d   1       4.232  -2.399  -4.774  0.00  0.00     0.418 HD
ENDBRANCH   4   7
TORSDOF 1
ENDMDL
