MODEL 1
REMARK minimizedAffinity 14.153574
REMARK minimizedRMSD -1
REMARK  0 active torsions:
REMARK  status: ('A' for Active; 'I' for Inactive)
ROOT
ATOM      1  C   UNL d   1      -3.617   3.284  -0.350  0.00  0.00     0.124 A 
ATOM      2  C1  UNL d   1      -2.975   2.081  -0.610  0.00  0.00     0.062 A 
ATOM      3  C2  UNL d   1      -1.594   2.047  -0.780  0.00  0.00     0.162 A 
ATOM      4  C3  UNL d   1      -0.845   3.220  -0.689  0.00  0.00    -0.034 A 
ATOM      5  C4  UNL d   1      -1.497   4.426  -0.428  0.00  0.00     0.162 A 
ATOM      6  C5  UNL d   1      -2.877   4.455  -0.259  0.00  0.00     0.062 A 
ATOM      7  F   UNL d   1      -3.496   5.618  -0.008  0.00  0.00    -0.097 F 
ATOM      8  F1  UNL d   1      -0.807   5.572  -0.335  0.00  0.00    -0.096 F 
ATOM      9  I   UNL d   1       1.221   3.172  -0.943  0.00  0.00    -0.060 I 
ATOM     10  F2  UNL d   1      -1.001   0.870  -1.031  0.00  0.00    -0.096 F 
ATOM     11  F3  UNL d   1      -3.688   0.949  -0.699  0.00  0.00    -0.097 F 
ATOM     12  F4  UNL d   1      -4.946   3.315  -0.188  0.00  0.00    -0.092 F 
ENDROOT
TORSDOF 0
ENDMDL
