MODEL 1
REMARK minimizedAffinity 15.5153408
REMARK minimizedRMSD -1
REMARK  0 active torsions:
REMARK  status: ('A' for Active; 'I' for Inactive)
ROOT
ATOM      1  C   UNL d   1       4.840   3.380   3.549  0.00  0.00     0.124 A 
ATOM      2  C1  UNL d   1       5.428   2.807   4.668  0.00  0.00     0.062 A 
ATOM      3  C2  UNL d   1       5.424   1.425   4.830  0.00  0.00     0.162 A 
ATOM      4  C3  UNL d   1       4.832   0.605   3.869  0.00  0.00    -0.034 A 
ATOM      5  C4  UNL d   1       4.242   1.189   2.747  0.00  0.00     0.162 A 
ATOM      6  C5  UNL d   1       4.248   2.571   2.590  0.00  0.00     0.062 A 
ATOM      7  F   UNL d   1       3.680   3.123   1.508  0.00  0.00    -0.097 F 
ATOM      8  F1  UNL d   1       3.664   0.431   1.804  0.00  0.00    -0.096 F 
ATOM      9  I   UNL d   1       4.824  -1.462   4.107  0.00  0.00    -0.060 I 
ATOM     10  F2  UNL d   1       5.999   0.898   5.921  0.00  0.00    -0.096 F 
ATOM     11  F3  UNL d   1       5.999   3.587   5.597  0.00  0.00    -0.097 F 
ATOM     12  F4  UNL d   1       4.844   4.711   3.396  0.00  0.00    -0.092 F 
ENDROOT
TORSDOF 0
ENDMDL
