MODEL 1
REMARK minimizedAffinity 19.3150578
REMARK minimizedRMSD -1
REMARK  0 active torsions:
REMARK  status: ('A' for Active; 'I' for Inactive)
ROOT
ATOM      1  C   UNL d   1       4.081   0.890   1.739  0.00  0.00     0.124 A 
ATOM      2  C1  UNL d   1       3.949   2.206   2.160  0.00  0.00     0.062 A 
ATOM      3  C2  UNL d   1       4.495   2.610   3.375  0.00  0.00     0.162 A 
ATOM      4  C3  UNL d   1       5.179   1.697   4.178  0.00  0.00    -0.034 A 
ATOM      5  C4  UNL d   1       5.307   0.375   3.748  0.00  0.00     0.162 A 
ATOM      6  C5  UNL d   1       4.759  -0.024   2.533  0.00  0.00     0.062 A 
ATOM      7  F   UNL d   1       4.888  -1.296   2.127  0.00  0.00    -0.097 F 
ATOM      8  F1  UNL d   1       5.958  -0.529   4.494  0.00  0.00    -0.096 F 
ATOM      9  I   UNL d   1       5.997   2.297   5.995  0.00  0.00    -0.060 I 
ATOM     10  F2  UNL d   1       4.352   3.888   3.757  0.00  0.00    -0.096 F 
ATOM     11  F3  UNL d   1       3.293   3.091   1.396  0.00  0.00    -0.097 F 
ATOM     12  F4  UNL d   1       3.553   0.504   0.570  0.00  0.00    -0.092 F 
ENDROOT
TORSDOF 0
ENDMDL
