MODEL 1
REMARK minimizedAffinity 16.0233574
REMARK minimizedRMSD -1
REMARK  0 active torsions:
REMARK  status: ('A' for Active; 'I' for Inactive)
ROOT
ATOM      1  C   UNL d   1       4.892   1.514   2.399  0.00  0.00     0.124 A 
ATOM      2  C1  UNL d   1       4.805   2.877   2.157  0.00  0.00     0.062 A 
ATOM      3  C2  UNL d   1       5.106   3.788   3.166  0.00  0.00     0.162 A 
ATOM      4  C3  UNL d   1       5.498   3.338   4.426  0.00  0.00    -0.034 A 
ATOM      5  C4  UNL d   1       5.583   1.964   4.662  0.00  0.00     0.162 A 
ATOM      6  C5  UNL d   1       5.281   1.058   3.651  0.00  0.00     0.062 A 
ATOM      7  F   UNL d   1       5.366  -0.259   3.887  0.00  0.00    -0.097 F 
ATOM      8  F1  UNL d   1       5.957   1.497   5.863  0.00  0.00    -0.096 F 
ATOM      9  I   UNL d   1       5.949   4.696   5.937  0.00  0.00    -0.060 I 
ATOM     10  F2  UNL d   1       5.013   5.100   2.904  0.00  0.00    -0.096 F 
ATOM     11  F3  UNL d   1       4.429   3.320   0.949  0.00  0.00    -0.097 F 
ATOM     12  F4  UNL d   1       4.602   0.640   1.427  0.00  0.00    -0.092 F 
ENDROOT
TORSDOF 0
ENDMDL
