MODEL 1
REMARK minimizedAffinity 14.7984571
REMARK minimizedRMSD -1
REMARK  0 active torsions:
REMARK  status: ('A' for Active; 'I' for Inactive)
ROOT
ATOM      1  C   UNL d   1       4.740   0.160   3.281  0.00  0.00     0.124 A 
ATOM      2  C1  UNL d   1       4.385   1.136   2.361  0.00  0.00     0.062 A 
ATOM      3  C2  UNL d   1       4.572   2.482   2.661  0.00  0.00     0.162 A 
ATOM      4  C3  UNL d   1       5.118   2.860   3.888  0.00  0.00    -0.034 A 
ATOM      5  C4  UNL d   1       5.472   1.872   4.809  0.00  0.00     0.162 A 
ATOM      6  C5  UNL d   1       5.283   0.528   4.503  0.00  0.00     0.062 A 
ATOM      7  F   UNL d   1       5.627  -0.414   5.394  0.00  0.00    -0.097 F 
ATOM      8  F1  UNL d   1       6.000   2.201   5.997  0.00  0.00    -0.096 F 
ATOM      9  I   UNL d   1       5.399   4.872   4.342  0.00  0.00    -0.060 I 
ATOM     10  F2  UNL d   1       4.219   3.405   1.754  0.00  0.00    -0.096 F 
ATOM     11  F3  UNL d   1       3.859   0.783   1.179  0.00  0.00    -0.097 F 
ATOM     12  F4  UNL d   1       4.559  -1.135   2.989  0.00  0.00    -0.092 F 
ENDROOT
TORSDOF 0
ENDMDL
