MODEL 1
REMARK minimizedAffinity -5.38435316
REMARK minimizedRMSD -1
REMARK  0 active torsions:
REMARK  status: ('A' for Active; 'I' for Inactive)
ROOT
ATOM      1  C   UNL d   1      -3.370   2.309   2.338  0.00  0.00     0.124 A 
ATOM      2  C1  UNL d   1      -3.735   1.782   3.569  0.00  0.00     0.062 A 
ATOM      3  C2  UNL d   1      -4.088   2.629   4.616  0.00  0.00     0.162 A 
ATOM      4  C3  UNL d   1      -4.078   4.012   4.436  0.00  0.00    -0.034 A 
ATOM      5  C4  UNL d   1      -3.710   4.535   3.195  0.00  0.00     0.162 A 
ATOM      6  C5  UNL d   1      -3.358   3.684   2.152  0.00  0.00     0.062 A 
ATOM      7  F   UNL d   1      -3.005   4.195   0.963  0.00  0.00    -0.097 F 
ATOM      8  F1  UNL d   1      -3.690   5.860   2.988  0.00  0.00    -0.096 F 
ATOM      9  I   UNL d   1      -4.606   5.282   5.999  0.00  0.00    -0.060 I 
ATOM     10  F2  UNL d   1      -4.436   2.092   5.795  0.00  0.00    -0.096 F 
ATOM     11  F3  UNL d   1      -3.746   0.454   3.751  0.00  0.00    -0.097 F 
ATOM     12  F4  UNL d   1      -3.030   1.492   1.333  0.00  0.00    -0.092 F 
ENDROOT
TORSDOF 0
ENDMDL
