MODEL 1
REMARK minimizedAffinity 5.65510082
REMARK minimizedRMSD -1
REMARK  0 active torsions:
REMARK  status: ('A' for Active; 'I' for Inactive)
ROOT
ATOM      1  C   UNL d   1       1.577   1.479  -2.995  0.00  0.00     0.124 A 
ATOM      2  C1  UNL d   1       2.428   0.383  -3.035  0.00  0.00     0.062 A 
ATOM      3  C2  UNL d   1       3.603   0.436  -3.779  0.00  0.00     0.162 A 
ATOM      4  C3  UNL d   1       3.935   1.589  -4.489  0.00  0.00    -0.034 A 
ATOM      5  C4  UNL d   1       3.074   2.687  -4.445  0.00  0.00     0.162 A 
ATOM      6  C5  UNL d   1       1.901   2.630  -3.700  0.00  0.00     0.062 A 
ATOM      7  F   UNL d   1       1.080   3.690  -3.662  0.00  0.00    -0.097 F 
ATOM      8  F1  UNL d   1       3.363   3.812  -5.115  0.00  0.00    -0.096 F 
ATOM      9  I   UNL d   1       5.691   1.672  -5.603  0.00  0.00    -0.060 I 
ATOM     10  F2  UNL d   1       4.407  -0.638  -3.800  0.00  0.00    -0.096 F 
ATOM     11  F3  UNL d   1       2.117  -0.731  -2.356  0.00  0.00    -0.097 F 
ATOM     12  F4  UNL d   1       0.447   1.425  -2.279  0.00  0.00    -0.092 F 
ENDROOT
TORSDOF 0
ENDMDL
