MODEL 1
REMARK minimizedAffinity 11.0720816
REMARK minimizedRMSD -1
REMARK  0 active torsions:
REMARK  status: ('A' for Active; 'I' for Inactive)
ROOT
ATOM      1  C   UNL d   1      -3.512  -1.149   3.784  0.00  0.00     0.124 A 
ATOM      2  C1  UNL d   1      -4.317  -1.549   2.726  0.00  0.00     0.062 A 
ATOM      3  C2  UNL d   1      -4.241  -0.892   1.501  0.00  0.00     0.162 A 
ATOM      4  C3  UNL d   1      -3.355   0.172   1.327  0.00  0.00    -0.034 A 
ATOM      5  C4  UNL d   1      -2.550   0.569   2.397  0.00  0.00     0.162 A 
ATOM      6  C5  UNL d   1      -2.630  -0.091   3.618  0.00  0.00     0.062 A 
ATOM      7  F   UNL d   1      -1.852   0.297   4.640  0.00  0.00    -0.097 F 
ATOM      8  F1  UNL d   1      -1.688   1.588   2.264  0.00  0.00    -0.096 F 
ATOM      9  I   UNL d   1      -3.238   1.158  -0.502  0.00  0.00    -0.060 I 
ATOM     10  F2  UNL d   1      -5.030  -1.299   0.496  0.00  0.00    -0.096 F 
ATOM     11  F3  UNL d   1      -5.171  -2.571   2.883  0.00  0.00    -0.097 F 
ATOM     12  F4  UNL d   1      -3.589  -1.783   4.961  0.00  0.00    -0.092 F 
ENDROOT
TORSDOF 0
ENDMDL
