MODEL 1
REMARK minimizedAffinity 14.5143433
REMARK minimizedRMSD -1
REMARK  0 active torsions:
REMARK  status: ('A' for Active; 'I' for Inactive)
ROOT
ATOM      1  C   UNL d   1       4.919   0.573   3.382  0.00  0.00     0.124 A 
ATOM      2  C1  UNL d   1       4.377   1.458   2.460  0.00  0.00     0.062 A 
ATOM      3  C2  UNL d   1       4.379   2.826   2.718  0.00  0.00     0.162 A 
ATOM      4  C3  UNL d   1       4.924   3.318   3.904  0.00  0.00    -0.034 A 
ATOM      5  C4  UNL d   1       5.466   2.422   4.827  0.00  0.00     0.162 A 
ATOM      6  C5  UNL d   1       5.462   1.056   4.565  0.00  0.00     0.062 A 
ATOM      7  F   UNL d   1       5.985   0.202   5.457  0.00  0.00    -0.097 F 
ATOM      8  F1  UNL d   1       5.999   2.860   5.977  0.00  0.00    -0.096 F 
ATOM      9  I   UNL d   1       4.928   5.362   4.294  0.00  0.00    -0.060 I 
ATOM     10  F2  UNL d   1       3.849   3.658   1.809  0.00  0.00    -0.096 F 
ATOM     11  F3  UNL d   1       3.851   0.995   1.317  0.00  0.00    -0.097 F 
ATOM     12  F4  UNL d   1       4.915  -0.742   3.132  0.00  0.00    -0.092 F 
ENDROOT
TORSDOF 0
ENDMDL
