MODEL 1
REMARK minimizedAffinity -6.15309095
REMARK minimizedRMSD -1
REMARK  0 active torsions:
REMARK  status: ('A' for Active; 'I' for Inactive)
ROOT
ATOM      1  C   UNL d   1      -3.625   4.634   3.305  0.00  0.00     0.124 A 
ATOM      2  C1  UNL d   1      -4.185   3.964   4.384  0.00  0.00     0.062 A 
ATOM      3  C2  UNL d   1      -4.283   2.575   4.370  0.00  0.00     0.162 A 
ATOM      4  C3  UNL d   1      -3.819   1.848   3.275  0.00  0.00    -0.034 A 
ATOM      5  C4  UNL d   1      -3.258   2.529   2.193  0.00  0.00     0.162 A 
ATOM      6  C5  UNL d   1      -3.162   3.917   2.211  0.00  0.00     0.062 A 
ATOM      7  F   UNL d   1      -2.620   4.563   1.169  0.00  0.00    -0.097 F 
ATOM      8  F1  UNL d   1      -2.802   1.861   1.124  0.00  0.00    -0.096 F 
ATOM      9  I   UNL d   1      -3.964  -0.228   3.251  0.00  0.00    -0.060 I 
ATOM     10  F2  UNL d   1      -4.829   1.954   5.426  0.00  0.00    -0.096 F 
ATOM     11  F3  UNL d   1      -4.634   4.655   5.441  0.00  0.00    -0.097 F 
ATOM     12  F4  UNL d   1      -3.532   5.970   3.320  0.00  0.00    -0.092 F 
ENDROOT
TORSDOF 0
ENDMDL
