MODEL 1
REMARK minimizedAffinity 16.8235798
REMARK minimizedRMSD -1
REMARK  0 active torsions:
REMARK  status: ('A' for Active; 'I' for Inactive)
ROOT
ATOM      1  C   UNL d   1      -0.587  -0.626  -1.405  0.00  0.00     0.124 A 
ATOM      2  C1  UNL d   1      -1.766  -0.655  -0.674  0.00  0.00     0.062 A 
ATOM      3  C2  UNL d   1      -2.350   0.532  -0.241  0.00  0.00     0.162 A 
ATOM      4  C3  UNL d   1      -1.756   1.759  -0.539  0.00  0.00    -0.034 A 
ATOM      5  C4  UNL d   1      -0.569   1.779  -1.274  0.00  0.00     0.162 A 
ATOM      6  C5  UNL d   1       0.011   0.590  -1.704  0.00  0.00     0.062 A 
ATOM      7  F   UNL d   1       1.150   0.619  -2.410  0.00  0.00    -0.097 F 
ATOM      8  F1  UNL d   1       0.029   2.941  -1.577  0.00  0.00    -0.096 F 
ATOM      9  I   UNL d   1      -2.626   3.536   0.107  0.00  0.00    -0.060 I 
ATOM     10  F2  UNL d   1      -3.490   0.475   0.463  0.00  0.00    -0.096 F 
ATOM     11  F3  UNL d   1      -2.345  -1.829  -0.383  0.00  0.00    -0.097 F 
ATOM     12  F4  UNL d   1      -0.027  -1.770  -1.819  0.00  0.00    -0.092 F 
ENDROOT
TORSDOF 0
ENDMDL
