MODEL 1
REMARK minimizedAffinity 17.607748
REMARK minimizedRMSD -1
REMARK  0 active torsions:
REMARK  status: ('A' for Active; 'I' for Inactive)
ROOT
ATOM      1  C   UNL d   1      -0.042   2.229  -1.764  0.00  0.00     0.124 A 
ATOM      2  C1  UNL d   1       0.147   1.586  -2.980  0.00  0.00     0.062 A 
ATOM      3  C2  UNL d   1       0.925   2.178  -3.970  0.00  0.00     0.162 A 
ATOM      4  C3  UNL d   1       1.521   3.419  -3.750  0.00  0.00    -0.034 A 
ATOM      5  C4  UNL d   1       1.326   4.060  -2.525  0.00  0.00     0.162 A 
ATOM      6  C5  UNL d   1       0.548   3.464  -1.538  0.00  0.00     0.062 A 
ATOM      7  F   UNL d   1       0.366   4.087  -0.364  0.00  0.00    -0.097 F 
ATOM      8  F1  UNL d   1       1.885   5.254  -2.279  0.00  0.00    -0.096 F 
ATOM      9  I   UNL d   1       2.686   4.307  -5.229  0.00  0.00    -0.060 I 
ATOM     10  F2  UNL d   1       1.090   1.534  -5.136  0.00  0.00    -0.096 F 
ATOM     11  F3  UNL d   1      -0.423   0.393  -3.201  0.00  0.00    -0.097 F 
ATOM     12  F4  UNL d   1      -0.792   1.658  -0.812  0.00  0.00    -0.092 F 
ENDROOT
TORSDOF 0
ENDMDL
