MODEL 1
REMARK minimizedAffinity -3.57590103
REMARK minimizedRMSD -1
REMARK  2 active torsions:
REMARK  status: ('A' for Active; 'I' for Inactive)
REMARK    1  A    between atoms: C1_2  and  C2_3 
REMARK    2  A    between atoms: C2_3  and  C3_4 
ROOT
ATOM      1  C3  UNL d   1       0.360  -1.408   0.622  0.00  0.00    -0.075 A 
ATOM      2  C4  UNL d   1       1.137  -0.568  -0.189  0.00  0.00     0.002 A 
ATOM      3  C5  UNL d   1       0.719   0.734  -0.465  0.00  0.00     0.002 A 
ATOM      4  C6  UNL d   1      -0.482   1.209   0.056  0.00  0.00    -0.004 A 
ATOM      5  C7  UNL d   1      -1.271   0.377   0.849  0.00  0.00     0.002 A 
ATOM      6  C8  UNL d   1      -0.853  -0.925   1.131  0.00  0.00     0.002 A 
ENDROOT
BRANCH   1   7
ATOM      7  C2  UNL d   1       0.820  -2.809   0.949  0.00  0.00     0.056 C 
BRANCH   7   8
ATOM      8  C1  UNL d   1       2.229  -2.878   1.547  0.00  0.00     0.007 C 
ATOM      9  C   UNL d   1       2.486  -1.813   2.604  0.00  0.00     0.009 C 
ENDBRANCH   7   8
ENDBRANCH   1   7
TORSDOF 2
ENDMDL
