MODEL 1
REMARK minimizedAffinity -4.11631632
REMARK minimizedRMSD -1
REMARK  2 active torsions:
REMARK  status: ('A' for Active; 'I' for Inactive)
REMARK    1  A    between atoms: C1_2  and  C2_3 
REMARK    2  A    between atoms: C2_3  and  C3_4 
ROOT
ATOM      1  C3  UNL d   1      -0.223  -1.403   0.549  0.00  0.00    -0.075 A 
ATOM      2  C4  UNL d   1       0.230  -0.404  -0.324  0.00  0.00     0.002 A 
ATOM      3  C5  UNL d   1      -0.294   0.887  -0.257  0.00  0.00     0.002 A 
ATOM      4  C6  UNL d   1      -1.284   1.193   0.675  0.00  0.00    -0.004 A 
ATOM      5  C7  UNL d   1      -1.753   0.204   1.536  0.00  0.00     0.002 A 
ATOM      6  C8  UNL d   1      -1.227  -1.088   1.474  0.00  0.00     0.002 A 
ENDROOT
BRANCH   1   7
ATOM      7  C2  UNL d   1       0.362  -2.794   0.502  0.00  0.00     0.056 C 
BRANCH   7   8
ATOM      8  C1  UNL d   1       1.234  -3.146   1.711  0.00  0.00     0.007 C 
ATOM      9  C   UNL d   1       1.952  -1.941   2.304  0.00  0.00     0.009 C 
ENDBRANCH   7   8
ENDBRANCH   1   7
TORSDOF 2
ENDMDL
