MODEL 1
REMARK minimizedAffinity -5.33464909
REMARK minimizedRMSD -1
REMARK  2 active torsions:
REMARK  status: ('A' for Active; 'I' for Inactive)
REMARK    1  A    between atoms: C1_2  and  C2_3 
REMARK    2  A    between atoms: C2_3  and  C3_4 
ROOT
ATOM      1  C3  UNL d   1       0.197  -0.991   0.364  0.00  0.00    -0.075 A 
ATOM      2  C4  UNL d   1       1.137  -1.998   0.101  0.00  0.00     0.002 A 
ATOM      3  C5  UNL d   1       1.352  -3.024   1.021  0.00  0.00     0.002 A 
ATOM      4  C6  UNL d   1       0.638  -3.052   2.218  0.00  0.00    -0.004 A 
ATOM      5  C7  UNL d   1      -0.286  -2.048   2.497  0.00  0.00     0.002 A 
ATOM      6  C8  UNL d   1      -0.506  -1.022   1.576  0.00  0.00     0.002 A 
ENDROOT
BRANCH   1   7
ATOM      7  C2  UNL d   1      -0.061   0.106  -0.640  0.00  0.00     0.056 C 
BRANCH   7   8
ATOM      8  C1  UNL d   1      -0.740   1.346  -0.049  0.00  0.00     0.007 C 
ATOM      9  C   UNL d   1      -1.763   1.975  -0.986  0.00  0.00     0.009 C 
ENDBRANCH   7   8
ENDBRANCH   1   7
TORSDOF 2
ENDMDL
