MODEL 1
REMARK minimizedAffinity -4.53747988
REMARK minimizedRMSD -1
REMARK  2 active torsions:
REMARK  status: ('A' for Active; 'I' for Inactive)
REMARK    1  A    between atoms: C1_2  and  C2_3 
REMARK    2  A    between atoms: C2_3  and  C3_4 
ROOT
ATOM      1  C3  UNL d   1       0.342  -0.409   0.259  0.00  0.00    -0.075 A 
ATOM      2  C4  UNL d   1      -0.706  -0.877   1.065  0.00  0.00     0.002 A 
ATOM      3  C5  UNL d   1      -0.523  -1.987   1.891  0.00  0.00     0.002 A 
ATOM      4  C6  UNL d   1       0.703  -2.648   1.913  0.00  0.00    -0.004 A 
ATOM      5  C7  UNL d   1       1.746  -2.201   1.104  0.00  0.00     0.002 A 
ATOM      6  C8  UNL d   1       1.567  -1.088   0.280  0.00  0.00     0.002 A 
ENDROOT
BRANCH   1   7
ATOM      7  C2  UNL d   1       0.159   0.810  -0.614  0.00  0.00     0.056 C 
BRANCH   7   8
ATOM      8  C1  UNL d   1      -1.139   1.579  -0.347  0.00  0.00     0.007 C 
ATOM      9  C   UNL d   1      -1.873   1.977  -1.621  0.00  0.00     0.009 C 
ENDBRANCH   7   8
ENDBRANCH   1   7
TORSDOF 2
ENDMDL
