MODEL 1
REMARK minimizedAffinity -5.08099174
REMARK minimizedRMSD -1
REMARK  2 active torsions:
REMARK  status: ('A' for Active; 'I' for Inactive)
REMARK    1  A    between atoms: C1_2  and  C2_3 
REMARK    2  A    between atoms: C2_3  and  C3_4 
ROOT
ATOM      1  C3  UNL d   1       0.351  -0.616   0.743  0.00  0.00    -0.075 A 
ATOM      2  C4  UNL d   1       0.335   0.568  -0.009  0.00  0.00     0.002 A 
ATOM      3  C5  UNL d   1      -0.734   1.458   0.094  0.00  0.00     0.002 A 
ATOM      4  C6  UNL d   1      -1.804   1.172   0.939  0.00  0.00    -0.004 A 
ATOM      5  C7  UNL d   1      -1.807  -0.010   1.677  0.00  0.00     0.002 A 
ATOM      6  C8  UNL d   1      -0.736  -0.900   1.580  0.00  0.00     0.002 A 
ENDROOT
BRANCH   1   7
ATOM      7  C2  UNL d   1       1.519  -1.569   0.659  0.00  0.00     0.056 C 
BRANCH   7   8
ATOM      8  C1  UNL d   1       1.987  -2.104   2.016  0.00  0.00     0.007 C 
ATOM      9  C   UNL d   1       1.650  -3.573   2.232  0.00  0.00     0.009 C 
ENDBRANCH   7   8
ENDBRANCH   1   7
TORSDOF 2
ENDMDL
