MODEL 1
REMARK minimizedAffinity -4.52441549
REMARK minimizedRMSD -1
REMARK  2 active torsions:
REMARK  status: ('A' for Active; 'I' for Inactive)
REMARK    1  A    between atoms: C1_2  and  C2_3 
REMARK    2  A    between atoms: C2_3  and  C3_4 
ROOT
ATOM      1  C3  UNL d   1       0.722  -0.826   0.059  0.00  0.00    -0.075 A 
ATOM      2  C4  UNL d   1       1.845  -0.020  -0.174  0.00  0.00     0.002 A 
ATOM      3  C5  UNL d   1       1.755   1.368  -0.067  0.00  0.00     0.002 A 
ATOM      4  C6  UNL d   1       0.542   1.968   0.264  0.00  0.00    -0.004 A 
ATOM      5  C7  UNL d   1      -0.584   1.177   0.482  0.00  0.00     0.002 A 
ATOM      6  C8  UNL d   1      -0.497  -0.212   0.379  0.00  0.00     0.002 A 
ENDROOT
BRANCH   1   7
ATOM      7  C2  UNL d   1       0.819  -2.330  -0.027  0.00  0.00     0.056 C 
BRANCH   7   8
ATOM      8  C1  UNL d   1       1.766  -2.954   1.004  0.00  0.00     0.007 C 
ATOM      9  C   UNL d   1       1.583  -2.389   2.406  0.00  0.00     0.009 C 
ENDBRANCH   7   8
ENDBRANCH   1   7
TORSDOF 2
ENDMDL
