MODEL 1
REMARK minimizedAffinity -5.47048903
REMARK minimizedRMSD -1
REMARK  2 active torsions:
REMARK  status: ('A' for Active; 'I' for Inactive)
REMARK    1  A    between atoms: C1_2  and  C2_3 
REMARK    2  A    between atoms: C2_3  and  C3_4 
ROOT
ATOM      1  C3  UNL d   1       0.521  -0.448   0.532  0.00  0.00    -0.075 A 
ATOM      2  C4  UNL d   1      -0.508  -0.841   1.400  0.00  0.00     0.002 A 
ATOM      3  C5  UNL d   1      -0.374  -1.988   2.183  0.00  0.00     0.002 A 
ATOM      4  C6  UNL d   1       0.782  -2.761   2.101  0.00  0.00    -0.004 A 
ATOM      5  C7  UNL d   1       1.804  -2.389   1.230  0.00  0.00     0.002 A 
ATOM      6  C8  UNL d   1       1.674  -1.239   0.448  0.00  0.00     0.002 A 
ENDROOT
BRANCH   1   7
ATOM      7  C2  UNL d   1       0.395   0.808  -0.296  0.00  0.00     0.056 C 
BRANCH   7   8
ATOM      8  C1  UNL d   1      -1.020   1.395  -0.328  0.00  0.00     0.007 C 
ATOM      9  C   UNL d   1      -1.435   1.888  -1.708  0.00  0.00     0.009 C 
ENDBRANCH   7   8
ENDBRANCH   1   7
TORSDOF 2
ENDMDL
