MODEL 1
REMARK minimizedAffinity -6.19387913
REMARK minimizedRMSD -1
REMARK  2 active torsions:
REMARK  status: ('A' for Active; 'I' for Inactive)
REMARK    1  A    between atoms: C1_2  and  C2_3 
REMARK    2  A    between atoms: C2_3  and  C3_4 
ROOT
ATOM      1  C3  UNL d   1      -0.329   0.002   0.073  0.00  0.00    -0.075 A 
ATOM      2  C4  UNL d   1       1.043  -0.018  -0.218  0.00  0.00     0.002 A 
ATOM      3  C5  UNL d   1       1.848  -1.063   0.235  0.00  0.00     0.002 A 
ATOM      4  C6  UNL d   1       1.296  -2.094   0.992  0.00  0.00    -0.004 A 
ATOM      5  C7  UNL d   1      -0.062  -2.077   1.301  0.00  0.00     0.002 A 
ATOM      6  C8  UNL d   1      -0.871  -1.035   0.845  0.00  0.00     0.002 A 
ENDROOT
BRANCH   1   7
ATOM      7  C2  UNL d   1      -1.212   1.114  -0.439  0.00  0.00     0.056 C 
BRANCH   7   8
ATOM      8  C1  UNL d   1      -1.451   1.075  -1.952  0.00  0.00     0.007 C 
ATOM      9  C   UNL d   1      -2.926   1.117  -2.328  0.00  0.00     0.009 C 
ENDBRANCH   7   8
ENDBRANCH   1   7
TORSDOF 2
ENDMDL
