MODEL 1
REMARK minimizedAffinity -6.02855921
REMARK minimizedRMSD -1
REMARK  2 active torsions:
REMARK  status: ('A' for Active; 'I' for Inactive)
REMARK    1  A    between atoms: C1_2  and  C2_3 
REMARK    2  A    between atoms: C2_3  and  C3_4 
ROOT
ATOM      1  C3  UNL d   1      -0.016  -0.001   0.582  0.00  0.00    -0.075 A 
ATOM      2  C4  UNL d   1       1.195  -0.610   0.224  0.00  0.00     0.002 A 
ATOM      3  C5  UNL d   1       1.592  -1.805   0.825  0.00  0.00     0.002 A 
ATOM      4  C6  UNL d   1       0.791  -2.399   1.797  0.00  0.00    -0.004 A 
ATOM      5  C7  UNL d   1      -0.406  -1.794   2.173  0.00  0.00     0.002 A 
ATOM      6  C8  UNL d   1      -0.808  -0.601   1.570  0.00  0.00     0.002 A 
ENDROOT
BRANCH   1   7
ATOM      7  C2  UNL d   1      -0.465   1.277  -0.086  0.00  0.00     0.056 C 
BRANCH   7   8
ATOM      8  C1  UNL d   1      -1.204   1.061  -1.411  0.00  0.00     0.007 C 
ATOM      9  C   UNL d   1      -1.408   2.347  -2.201  0.00  0.00     0.009 C 
ENDBRANCH   7   8
ENDBRANCH   1   7
TORSDOF 2
ENDMDL
