MODEL 1
REMARK minimizedAffinity -4.89892006
REMARK minimizedRMSD -1
REMARK  2 active torsions:
REMARK  status: ('A' for Active; 'I' for Inactive)
REMARK    1  A    between atoms: C1_2  and  C2_3 
REMARK    2  A    between atoms: C2_3  and  C3_4 
ROOT
ATOM      1  C3  UNL d   1       0.778  -0.980   0.626  0.00  0.00    -0.075 A 
ATOM      2  C4  UNL d   1      -0.396  -0.726   1.349  0.00  0.00     0.002 A 
ATOM      3  C5  UNL d   1      -1.129   0.440   1.125  0.00  0.00     0.002 A 
ATOM      4  C6  UNL d   1      -0.693   1.369   0.183  0.00  0.00    -0.004 A 
ATOM      5  C7  UNL d   1       0.481   1.136  -0.529  0.00  0.00     0.002 A 
ATOM      6  C8  UNL d   1       1.214  -0.032  -0.310  0.00  0.00     0.002 A 
ENDROOT
BRANCH   1   7
ATOM      7  C2  UNL d   1       1.560  -2.254   0.843  0.00  0.00     0.056 C 
BRANCH   7   8
ATOM      8  C1  UNL d   1       1.537  -2.760   2.289  0.00  0.00     0.007 C 
ATOM      9  C   UNL d   1       2.274  -1.845   3.258  0.00  0.00     0.009 C 
ENDBRANCH   7   8
ENDBRANCH   1   7
TORSDOF 2
ENDMDL
