MODEL 1
REMARK minimizedAffinity -5.89608383
REMARK minimizedRMSD -1
REMARK  2 active torsions:
REMARK  status: ('A' for Active; 'I' for Inactive)
REMARK    1  A    between atoms: C1_2  and  C2_3 
REMARK    2  A    between atoms: C2_3  and  C3_4 
ROOT
ATOM      1  C3  UNL d   1      -0.310  -0.468   1.194  0.00  0.00    -0.075 A 
ATOM      2  C4  UNL d   1      -0.617  -0.899   2.493  0.00  0.00     0.002 A 
ATOM      3  C5  UNL d   1       0.075  -1.965   3.068  0.00  0.00     0.002 A 
ATOM      4  C6  UNL d   1       1.073  -2.620   2.349  0.00  0.00    -0.004 A 
ATOM      5  C7  UNL d   1       1.375  -2.212   1.052  0.00  0.00     0.002 A 
ATOM      6  C8  UNL d   1       0.687  -1.142   0.476  0.00  0.00     0.002 A 
ENDROOT
BRANCH   1   7
ATOM      7  C2  UNL d   1      -1.034   0.704   0.577  0.00  0.00     0.056 C 
BRANCH   7   8
ATOM      8  C1  UNL d   1      -0.269   1.379  -0.567  0.00  0.00     0.007 C 
ATOM      9  C   UNL d   1      -1.179   1.913  -1.665  0.00  0.00     0.009 C 
ENDBRANCH   7   8
ENDBRANCH   1   7
TORSDOF 2
ENDMDL
