MODEL 1
REMARK minimizedAffinity 11.0570173
REMARK minimizedRMSD -1
REMARK  0 active torsions:
REMARK  status: ('A' for Active; 'I' for Inactive)
ROOT
ATOM      1  C   UNL d   1      -1.370  -4.045  -0.712  0.00  0.00     0.020 A 
ATOM      2  C1  UNL d   1      -1.851  -2.820  -0.253  0.00  0.00     0.020 A 
ATOM      3  C2  UNL d   1      -1.906  -2.560   1.118  0.00  0.00     0.034 A 
ATOM      4  C3  UNL d   1      -1.478  -3.527   2.035  0.00  0.00     0.017 A 
ATOM      5  C4  UNL d   1      -0.994  -4.756   1.574  0.00  0.00     0.017 A 
ATOM      6  C5  UNL d   1      -0.942  -5.011   0.200  0.00  0.00     0.034 A 
ATOM      7 Cl   UNL d   1      -0.448  -5.998   2.645  0.00  0.00    -0.070 Cl
ATOM      8 Cl1  UNL d   1      -1.573  -3.137   3.716  0.00  0.00    -0.070 Cl
ENDROOT
TORSDOF 0
ENDMDL
