MODEL 1
REMARK minimizedAffinity 2.6383214
REMARK minimizedRMSD -1
REMARK  0 active torsions:
REMARK  status: ('A' for Active; 'I' for Inactive)
ROOT
ATOM      1  C   UNL d   1      -0.337  -5.049   0.466  0.00  0.00     0.020 A 
ATOM      2  C1  UNL d   1      -0.376  -5.414   1.811  0.00  0.00     0.020 A 
ATOM      3  C2  UNL d   1      -0.943  -4.552   2.752  0.00  0.00     0.034 A 
ATOM      4  C3  UNL d   1      -1.473  -3.320   2.350  0.00  0.00     0.017 A 
ATOM      5  C4  UNL d   1      -1.432  -2.955   0.999  0.00  0.00     0.017 A 
ATOM      6  C5  UNL d   1      -0.864  -3.822   0.061  0.00  0.00     0.034 A 
ATOM      7 Cl   UNL d   1      -2.066  -1.452   0.426  0.00  0.00    -0.070 Cl
ATOM      8 Cl1  UNL d   1      -2.159  -2.304   3.567  0.00  0.00    -0.070 Cl
ENDROOT
TORSDOF 0
ENDMDL
