MODEL 1
REMARK minimizedAffinity 3.33879757
REMARK minimizedRMSD -1
REMARK  0 active torsions:
REMARK  status: ('A' for Active; 'I' for Inactive)
ROOT
ATOM      1  C   UNL d   1      -5.863   4.715  -6.000  0.00  0.00     0.020 A 
ATOM      2  C1  UNL d   1      -6.000   5.825  -5.168  0.00  0.00     0.020 A 
ATOM      3  C2  UNL d   1      -5.131   6.000  -4.088  0.00  0.00     0.034 A 
ATOM      4  C3  UNL d   1      -4.122   5.063  -3.838  0.00  0.00     0.017 A 
ATOM      5  C4  UNL d   1      -3.986   3.948  -4.674  0.00  0.00     0.017 A 
ATOM      6  C5  UNL d   1      -4.858   3.779  -5.754  0.00  0.00     0.034 A 
ATOM      7 Cl   UNL d   1      -2.765   2.749  -4.429  0.00  0.00    -0.070 Cl
ATOM      8 Cl1  UNL d   1      -3.083   5.342  -2.486  0.00  0.00    -0.070 Cl
ENDROOT
TORSDOF 0
ENDMDL
