MODEL 1
REMARK minimizedAffinity 14.2399473
REMARK minimizedRMSD -1
REMARK  0 active torsions:
REMARK  status: ('A' for Active; 'I' for Inactive)
ROOT
ATOM      1  C   UNL d   1      -0.377  -5.447   0.596  0.00  0.00     0.020 A 
ATOM      2  C1  UNL d   1      -0.784  -4.141   0.322  0.00  0.00     0.020 A 
ATOM      3  C2  UNL d   1      -1.424  -3.388   1.309  0.00  0.00     0.034 A 
ATOM      4  C3  UNL d   1      -1.659  -3.940   2.573  0.00  0.00     0.017 A 
ATOM      5  C4  UNL d   1      -1.250  -5.250   2.847  0.00  0.00     0.017 A 
ATOM      6  C5  UNL d   1      -0.609  -5.999   1.856  0.00  0.00     0.034 A 
ATOM      7 Cl   UNL d   1      -1.505  -5.999   4.384  0.00  0.00    -0.070 Cl
ATOM      8 Cl1  UNL d   1      -2.456  -2.952   3.746  0.00  0.00    -0.070 Cl
ENDROOT
TORSDOF 0
ENDMDL
