MODEL 1
REMARK minimizedAffinity 12.5365086
REMARK minimizedRMSD -1
REMARK  0 active torsions:
REMARK  status: ('A' for Active; 'I' for Inactive)
ROOT
ATOM      1  C   UNL d   1      -1.331  -1.924  -0.810  0.00  0.00     0.020 A 
ATOM      2  C1  UNL d   1      -2.193  -1.155  -0.029  0.00  0.00     0.020 A 
ATOM      3  C2  UNL d   1      -2.519  -1.569   1.265  0.00  0.00     0.034 A 
ATOM      4  C3  UNL d   1      -1.983  -2.754   1.781  0.00  0.00     0.017 A 
ATOM      5  C4  UNL d   1      -1.118  -3.525   0.996  0.00  0.00     0.017 A 
ATOM      6  C5  UNL d   1      -0.794  -3.106  -0.298  0.00  0.00     0.034 A 
ATOM      7 Cl   UNL d   1      -0.417  -4.999   1.564  0.00  0.00    -0.070 Cl
ATOM      8 Cl1  UNL d   1      -2.430  -3.205   3.388  0.00  0.00    -0.070 Cl
ENDROOT
TORSDOF 0
ENDMDL
