MODEL 1
REMARK minimizedAffinity 8.81783867
REMARK minimizedRMSD -1
REMARK  0 active torsions:
REMARK  status: ('A' for Active; 'I' for Inactive)
ROOT
ATOM      1  C   UNL d   1      -5.071   6.000   0.714  0.00  0.00     0.020 A 
ATOM      2  C1  UNL d   1      -6.000   5.546  -0.222  0.00  0.00     0.020 A 
ATOM      3  C2  UNL d   1      -5.911   4.244  -0.719  0.00  0.00     0.034 A 
ATOM      4  C3  UNL d   1      -4.890   3.392  -0.281  0.00  0.00     0.017 A 
ATOM      5  C4  UNL d   1      -3.958   3.849   0.658  0.00  0.00     0.017 A 
ATOM      6  C5  UNL d   1      -4.053   5.153   1.153  0.00  0.00     0.034 A 
ATOM      7 Cl   UNL d   1      -2.672   2.856   1.246  0.00  0.00    -0.070 Cl
ATOM      8 Cl1  UNL d   1      -4.840   1.794  -0.937  0.00  0.00    -0.070 Cl
ENDROOT
TORSDOF 0
ENDMDL
