MODEL 1
REMARK minimizedAffinity 10.0796518
REMARK minimizedRMSD -1
REMARK  0 active torsions:
REMARK  status: ('A' for Active; 'I' for Inactive)
ROOT
ATOM      1  C   UNL d   1      -0.096  -5.214   0.284  0.00  0.00     0.020 A 
ATOM      2  C1  UNL d   1      -0.946  -5.093   1.382  0.00  0.00     0.020 A 
ATOM      3  C2  UNL d   1      -1.678  -3.918   1.571  0.00  0.00     0.034 A 
ATOM      4  C3  UNL d   1      -1.561  -2.861   0.662  0.00  0.00     0.017 A 
ATOM      5  C4  UNL d   1      -0.707  -2.984  -0.440  0.00  0.00     0.017 A 
ATOM      6  C5  UNL d   1       0.024  -4.162  -0.625  0.00  0.00     0.034 A 
ATOM      7 Cl   UNL d   1      -0.509  -1.723  -1.606  0.00  0.00    -0.070 Cl
ATOM      8 Cl1  UNL d   1      -2.495  -1.439   0.958  0.00  0.00    -0.070 Cl
ENDROOT
TORSDOF 0
ENDMDL
