MODEL 1
REMARK minimizedAffinity 8.23898506
REMARK minimizedRMSD -1
REMARK  0 active torsions:
REMARK  status: ('A' for Active; 'I' for Inactive)
ROOT
ATOM      1  C   UNL d   1      -1.793  -3.081   1.216  0.00  0.00     0.020 A 
ATOM      2  C1  UNL d   1      -1.031  -3.889   0.373  0.00  0.00     0.020 A 
ATOM      3  C2  UNL d   1      -1.005  -3.635  -1.000  0.00  0.00     0.034 A 
ATOM      4  C3  UNL d   1      -1.741  -2.571  -1.534  0.00  0.00     0.017 A 
ATOM      5  C4  UNL d   1      -2.506  -1.761  -0.686  0.00  0.00     0.017 A 
ATOM      6  C5  UNL d   1      -2.529  -2.019   0.688  0.00  0.00     0.034 A 
ATOM      7 Cl   UNL d   1      -3.440  -0.430  -1.271  0.00  0.00    -0.070 Cl
ATOM      8 Cl1  UNL d   1      -1.661  -2.315  -3.241  0.00  0.00    -0.070 Cl
ENDROOT
TORSDOF 0
ENDMDL
