MODEL 1
REMARK minimizedAffinity 16.7098389
REMARK minimizedRMSD -1
REMARK  0 active torsions:
REMARK  status: ('A' for Active; 'I' for Inactive)
ROOT
ATOM      1  C   UNL d   1       3.597   2.163  -0.434  0.00  0.00     0.020 A 
ATOM      2  C1  UNL d   1       2.255   2.235  -0.062  0.00  0.00     0.020 A 
ATOM      3  C2  UNL d   1       1.324   1.363  -0.632  0.00  0.00     0.034 A 
ATOM      4  C3  UNL d   1       1.735   0.416  -1.577  0.00  0.00     0.017 A 
ATOM      5  C4  UNL d   1       3.082   0.344  -1.950  0.00  0.00     0.017 A 
ATOM      6  C5  UNL d   1       4.009   1.219  -1.376  0.00  0.00     0.034 A 
ATOM      7 Cl   UNL d   1       3.663  -0.798  -3.110  0.00  0.00    -0.070 Cl
ATOM      8 Cl1  UNL d   1       0.530  -0.631  -2.241  0.00  0.00    -0.070 Cl
ENDROOT
TORSDOF 0
ENDMDL
