MODEL 1
REMARK minimizedAffinity 13.0184832
REMARK minimizedRMSD -1
REMARK  0 active torsions:
REMARK  status: ('A' for Active; 'I' for Inactive)
ROOT
ATOM      1  C   UNL d   1      -4.118   2.560   5.996  0.00  0.00     0.020 A 
ATOM      2  C1  UNL d   1      -5.495   2.342   6.000  0.00  0.00     0.020 A 
ATOM      3  C2  UNL d   1      -5.999   1.061   5.765  0.00  0.00     0.034 A 
ATOM      4  C3  UNL d   1      -5.126  -0.006   5.524  0.00  0.00     0.017 A 
ATOM      5  C4  UNL d   1      -3.744   0.214   5.521  0.00  0.00     0.017 A 
ATOM      6  C5  UNL d   1      -3.244   1.499   5.758  0.00  0.00     0.034 A 
ATOM      7 Cl   UNL d   1      -2.604  -1.052   5.233  0.00  0.00    -0.070 Cl
ATOM      8 Cl1  UNL d   1      -5.819  -1.563   5.241  0.00  0.00    -0.070 Cl
ENDROOT
TORSDOF 0
ENDMDL
