MODEL 1
REMARK minimizedAffinity 11.5884085
REMARK minimizedRMSD -1
REMARK  0 active torsions:
REMARK  status: ('A' for Active; 'I' for Inactive)
ROOT
ATOM      1  C   UNL d   1      -0.787  -1.649  -3.014  0.00  0.00     0.020 A 
ATOM      2  C1  UNL d   1      -1.012  -2.743  -3.848  0.00  0.00     0.020 A 
ATOM      3  C2  UNL d   1      -0.957  -4.039  -3.331  0.00  0.00     0.034 A 
ATOM      4  C3  UNL d   1      -0.675  -4.244  -1.975  0.00  0.00     0.017 A 
ATOM      5  C4  UNL d   1      -0.449  -3.145  -1.139  0.00  0.00     0.017 A 
ATOM      6  C5  UNL d   1      -0.506  -1.850  -1.662  0.00  0.00     0.034 A 
ATOM      7 Cl   UNL d   1      -0.096  -3.319   0.544  0.00  0.00    -0.070 Cl
ATOM      8 Cl1  UNL d   1      -0.622  -5.874  -1.403  0.00  0.00    -0.070 Cl
ENDROOT
TORSDOF 0
ENDMDL
