MODEL 1
REMARK minimizedAffinity 15.6213465
REMARK minimizedRMSD -1
REMARK  0 active torsions:
REMARK  status: ('A' for Active; 'I' for Inactive)
ROOT
ATOM      1  C   UNL d   1      -4.149  -0.593   5.837  0.00  0.00     0.020 A 
ATOM      2  C1  UNL d   1      -4.920  -1.743   6.000  0.00  0.00     0.020 A 
ATOM      3  C2  UNL d   1      -4.372  -2.997   5.723  0.00  0.00     0.034 A 
ATOM      4  C3  UNL d   1      -3.049  -3.104   5.281  0.00  0.00     0.017 A 
ATOM      5  C4  UNL d   1      -2.275  -1.950   5.117  0.00  0.00     0.017 A 
ATOM      6  C5  UNL d   1      -2.829  -0.696   5.396  0.00  0.00     0.034 A 
ATOM      7 Cl   UNL d   1      -0.634  -2.002   4.576  0.00  0.00    -0.070 Cl
ATOM      8 Cl1  UNL d   1      -2.436  -4.687   4.957  0.00  0.00    -0.070 Cl
ENDROOT
TORSDOF 0
ENDMDL
