MODEL 1
REMARK minimizedAffinity 10.9340572
REMARK minimizedRMSD -1
REMARK  0 active torsions:
REMARK  status: ('A' for Active; 'I' for Inactive)
ROOT
ATOM      1  C   UNL d   1      -0.583  -5.309  -0.418  0.00  0.00     0.020 A 
ATOM      2  C1  UNL d   1      -0.676  -4.700   0.833  0.00  0.00     0.020 A 
ATOM      3  C2  UNL d   1      -0.906  -3.326   0.925  0.00  0.00     0.034 A 
ATOM      4  C3  UNL d   1      -1.044  -2.556  -0.235  0.00  0.00     0.017 A 
ATOM      5  C4  UNL d   1      -0.951  -3.168  -1.490  0.00  0.00     0.017 A 
ATOM      6  C5  UNL d   1      -0.720  -4.545  -1.577  0.00  0.00     0.034 A 
ATOM      7 Cl   UNL d   1      -1.110  -2.284  -2.967  0.00  0.00    -0.070 Cl
ATOM      8 Cl1  UNL d   1      -1.327  -0.862  -0.047  0.00  0.00    -0.070 Cl
ENDROOT
TORSDOF 0
ENDMDL
