MODEL 1
REMARK minimizedAffinity 16.2495289
REMARK minimizedRMSD -1
REMARK  0 active torsions:
REMARK  status: ('A' for Active; 'I' for Inactive)
ROOT
ATOM      1  C   UNL d   1      -1.489  -2.045   4.447  0.00  0.00     0.020 A 
ATOM      2  C1  UNL d   1      -1.600  -0.820   5.103  0.00  0.00     0.020 A 
ATOM      3  C2  UNL d   1      -1.739   0.357   4.365  0.00  0.00     0.034 A 
ATOM      4  C3  UNL d   1      -1.767   0.312   2.966  0.00  0.00     0.017 A 
ATOM      5  C4  UNL d   1      -1.655  -0.918   2.308  0.00  0.00     0.017 A 
ATOM      6  C5  UNL d   1      -1.516  -2.094   3.052  0.00  0.00     0.034 A 
ATOM      7 Cl   UNL d   1      -1.681  -1.054   0.586  0.00  0.00    -0.070 Cl
ATOM      8 Cl1  UNL d   1      -1.942   1.807   2.117  0.00  0.00    -0.070 Cl
ENDROOT
TORSDOF 0
ENDMDL
