MODEL 1
REMARK minimizedAffinity 6.95741844
REMARK minimizedRMSD -1
REMARK  0 active torsions:
REMARK  status: ('A' for Active; 'I' for Inactive)
ROOT
ATOM      1  C   UNL d   1      -2.842  -3.306   5.998  0.00  0.00     0.020 A 
ATOM      2  C1  UNL d   1      -4.057  -2.622   5.998  0.00  0.00     0.020 A 
ATOM      3  C2  UNL d   1      -4.071  -1.225   5.998  0.00  0.00     0.034 A 
ATOM      4  C3  UNL d   1      -2.869  -0.509   5.999  0.00  0.00     0.017 A 
ATOM      5  C4  UNL d   1      -1.650  -1.197   5.998  0.00  0.00     0.017 A 
ATOM      6  C5  UNL d   1      -1.641  -2.595   5.998  0.00  0.00     0.034 A 
ATOM      7 Cl   UNL d   1      -0.126  -0.382   5.999  0.00  0.00    -0.070 Cl
ATOM      8 Cl1  UNL d   1      -2.962   1.217   5.999  0.00  0.00    -0.070 Cl
ENDROOT
TORSDOF 0
ENDMDL
