MODEL 1
REMARK minimizedAffinity 9.58036518
REMARK minimizedRMSD -1
REMARK  0 active torsions:
REMARK  status: ('A' for Active; 'I' for Inactive)
ROOT
ATOM      1  C   UNL d   1      -1.782  -1.936   1.259  0.00  0.00     0.020 A 
ATOM      2  C1  UNL d   1      -3.082  -1.435   1.214  0.00  0.00     0.020 A 
ATOM      3  C2  UNL d   1      -3.530  -0.755   0.079  0.00  0.00     0.034 A 
ATOM      4  C3  UNL d   1      -2.677  -0.576  -1.016  0.00  0.00     0.017 A 
ATOM      5  C4  UNL d   1      -1.373  -1.080  -0.970  0.00  0.00     0.017 A 
ATOM      6  C5  UNL d   1      -0.929  -1.759   0.168  0.00  0.00     0.034 A 
ATOM      7 Cl   UNL d   1      -0.262  -0.898  -2.283  0.00  0.00    -0.070 Cl
ATOM      8 Cl1  UNL d   1      -3.298   0.274  -2.386  0.00  0.00    -0.070 Cl
ENDROOT
TORSDOF 0
ENDMDL
