MODEL 1
REMARK minimizedAffinity 22.0989113
REMARK minimizedRMSD -1
REMARK  0 active torsions:
REMARK  status: ('A' for Active; 'I' for Inactive)
ROOT
ATOM      1  C   UNL d   1       4.423   3.722   0.041  0.00  0.00     0.020 A 
ATOM      2  C1  UNL d   1       3.251   3.139   0.521  0.00  0.00     0.020 A 
ATOM      3  C2  UNL d   1       2.674   2.066  -0.161  0.00  0.00     0.034 A 
ATOM      4  C3  UNL d   1       3.270   1.573  -1.328  0.00  0.00     0.017 A 
ATOM      5  C4  UNL d   1       4.446   2.158  -1.809  0.00  0.00     0.017 A 
ATOM      6  C5  UNL d   1       5.019   3.232  -1.121  0.00  0.00     0.034 A 
ATOM      7 Cl   UNL d   1       5.239   1.604  -3.242  0.00  0.00    -0.070 Cl
ATOM      8 Cl1  UNL d   1       2.502   0.243  -2.121  0.00  0.00    -0.070 Cl
ENDROOT
TORSDOF 0
ENDMDL
