MODEL 1
REMARK minimizedAffinity 9.75318527
REMARK minimizedRMSD -1
REMARK  0 active torsions:
REMARK  status: ('A' for Active; 'I' for Inactive)
ROOT
ATOM      1  C   UNL d   1      -4.878   0.385   6.000  0.00  0.00     0.020 A 
ATOM      2  C1  UNL d   1      -3.863   1.327   5.836  0.00  0.00     0.020 A 
ATOM      3  C2  UNL d   1      -2.542   0.907   5.663  0.00  0.00     0.034 A 
ATOM      4  C3  UNL d   1      -2.233  -0.458   5.653  0.00  0.00     0.017 A 
ATOM      5  C4  UNL d   1      -3.253  -1.402   5.818  0.00  0.00     0.017 A 
ATOM      6  C5  UNL d   1      -4.573  -0.976   5.991  0.00  0.00     0.034 A 
ATOM      7 Cl   UNL d   1      -2.949  -3.104   5.817  0.00  0.00    -0.070 Cl
ATOM      8 Cl1  UNL d   1      -0.579  -0.906   5.434  0.00  0.00    -0.070 Cl
ENDROOT
TORSDOF 0
ENDMDL
