MODEL 1
REMARK minimizedAffinity 7.71623135
REMARK minimizedRMSD -1
REMARK  0 active torsions:
REMARK  status: ('A' for Active; 'I' for Inactive)
ROOT
ATOM      1  C   UNL d   1      -5.999   5.471   1.279  0.00  0.00     0.020 A 
ATOM      2  C1  UNL d   1      -5.483   4.221   1.620  0.00  0.00     0.020 A 
ATOM      3  C2  UNL d   1      -4.731   3.500   0.691  0.00  0.00     0.034 A 
ATOM      4  C3  UNL d   1      -4.492   4.027  -0.584  0.00  0.00     0.017 A 
ATOM      5  C4  UNL d   1      -5.010   5.282  -0.925  0.00  0.00     0.017 A 
ATOM      6  C5  UNL d   1      -5.763   6.000   0.009  0.00  0.00     0.034 A 
ATOM      7 Cl   UNL d   1      -4.757   5.998  -2.477  0.00  0.00    -0.070 Cl
ATOM      8 Cl1  UNL d   1      -3.553   3.080  -1.682  0.00  0.00    -0.070 Cl
ENDROOT
TORSDOF 0
ENDMDL
