MODEL 1
REMARK minimizedAffinity 11.1711092
REMARK minimizedRMSD -1
REMARK  0 active torsions:
REMARK  status: ('A' for Active; 'I' for Inactive)
ROOT
ATOM      1  C   UNL d   1       4.366   3.325   0.012  0.00  0.00     0.020 A 
ATOM      2  C1  UNL d   1       5.517   2.581  -0.244  0.00  0.00     0.020 A 
ATOM      3  C2  UNL d   1       5.999   1.688   0.716  0.00  0.00     0.034 A 
ATOM      4  C3  UNL d   1       5.329   1.536   1.935  0.00  0.00     0.017 A 
ATOM      5  C4  UNL d   1       4.173   2.284   2.191  0.00  0.00     0.017 A 
ATOM      6  C5  UNL d   1       3.696   3.177   1.227  0.00  0.00     0.034 A 
ATOM      7 Cl   UNL d   1       3.292   2.151   3.672  0.00  0.00    -0.070 Cl
ATOM      8 Cl1  UNL d   1       5.980   0.413   3.076  0.00  0.00    -0.070 Cl
ENDROOT
TORSDOF 0
ENDMDL
