MODEL 1
REMARK minimizedAffinity 8.29402924
REMARK minimizedRMSD -1
REMARK  1 active torsions:
REMARK  status: ('A' for Active; 'I' for Inactive)
REMARK    1  A    between atoms: C1_2  and  C2_3 
ROOT
ATOM      1  C2  UNL d   1      -1.959   1.866  -1.747  0.00  0.00    -0.073 A 
ATOM      2  C3  UNL d   1      -1.252   2.730  -2.590  0.00  0.00    -0.002 A 
ATOM      3  C4  UNL d   1      -0.156   3.447  -2.107  0.00  0.00     0.004 A 
ATOM      4  C5  UNL d   1       0.248   3.301  -0.780  0.00  0.00    -0.004 A 
ATOM      5  C6  UNL d   1      -0.439   2.433   0.075  0.00  0.00    -0.075 A 
ATOM      6  C7  UNL d   1      -0.018   2.266   1.506  0.00  0.00     0.076 C 
ATOM      7  C8  UNL d   1      -1.540   1.719  -0.417  0.00  0.00     0.001 A 
ENDROOT
BRANCH   1   8
ATOM      8  C1  UNL d   1      -3.139   1.085  -2.266  0.00  0.00     0.053 C 
ATOM      9  C   UNL d   1      -3.698   1.683  -3.548  0.00  0.00     0.018 C 
ENDBRANCH   1   8
TORSDOF 1
ENDMDL
