MODEL 1
REMARK minimizedAffinity 19.2372036
REMARK minimizedRMSD -1
REMARK  1 active torsions:
REMARK  status: ('A' for Active; 'I' for Inactive)
REMARK    1  A    between atoms: C1_2  and  C2_3 
ROOT
ATOM      1  C2  UNL d   1       3.522  -5.330  -1.166  0.00  0.00    -0.073 A 
ATOM      2  C3  UNL d   1       2.319  -5.996  -1.425  0.00  0.00    -0.002 A 
ATOM      3  C4  UNL d   1       1.098  -5.370  -1.170  0.00  0.00     0.004 A 
ATOM      4  C5  UNL d   1       1.067  -4.071  -0.663  0.00  0.00    -0.004 A 
ATOM      5  C6  UNL d   1       2.259  -3.384  -0.409  0.00  0.00    -0.075 A 
ATOM      6  C7  UNL d   1       2.243  -1.988   0.139  0.00  0.00     0.076 C 
ATOM      7  C8  UNL d   1       3.481  -4.021  -0.665  0.00  0.00     0.001 A 
ENDROOT
BRANCH   1   8
ATOM      8  C1  UNL d   1       4.843  -5.999  -1.446  0.00  0.00     0.053 C 
ATOM      9  C   UNL d   1       5.997  -5.298  -0.746  0.00  0.00     0.018 C 
ENDBRANCH   1   8
TORSDOF 1
ENDMDL
