MODEL 1
REMARK minimizedAffinity 0.0858936235
REMARK minimizedRMSD -1
REMARK  1 active torsions:
REMARK  status: ('A' for Active; 'I' for Inactive)
REMARK    1  A    between atoms: C1_2  and  C2_3 
ROOT
ATOM      1  C2  UNL d   1      -0.307   1.605  -0.191  0.00  0.00    -0.073 A 
ATOM      2  C3  UNL d   1      -0.933   1.850  -1.418  0.00  0.00    -0.002 A 
ATOM      3  C4  UNL d   1      -0.575   1.117  -2.551  0.00  0.00     0.004 A 
ATOM      4  C5  UNL d   1       0.406   0.130  -2.467  0.00  0.00    -0.004 A 
ATOM      5  C6  UNL d   1       1.035  -0.137  -1.247  0.00  0.00    -0.075 A 
ATOM      6  C7  UNL d   1       2.094  -1.195  -1.140  0.00  0.00     0.076 C 
ATOM      7  C8  UNL d   1       0.672   0.604  -0.114  0.00  0.00     0.001 A 
ENDROOT
BRANCH   1   8
ATOM      8  C1  UNL d   1      -0.694   2.389   1.036  0.00  0.00     0.053 C 
ATOM      9  C   UNL d   1       0.098   1.959   2.261  0.00  0.00     0.018 C 
ENDBRANCH   1   8
TORSDOF 1
ENDMDL
