MODEL 1
REMARK minimizedAffinity 4.95923901
REMARK minimizedRMSD -1
REMARK  1 active torsions:
REMARK  status: ('A' for Active; 'I' for Inactive)
REMARK    1  A    between atoms: C1_2  and  C2_3 
ROOT
ATOM      1  C2  UNL d   1      -0.499   2.087   0.792  0.00  0.00    -0.073 A 
ATOM      2  C3  UNL d   1       0.555   1.793   1.664  0.00  0.00    -0.002 A 
ATOM      3  C4  UNL d   1       1.616   0.990   1.241  0.00  0.00     0.004 A 
ATOM      4  C5  UNL d   1       1.636   0.479  -0.057  0.00  0.00    -0.004 A 
ATOM      5  C6  UNL d   1       0.597   0.772  -0.946  0.00  0.00    -0.075 A 
ATOM      6  C7  UNL d   1       0.603   0.228  -2.345  0.00  0.00     0.076 C 
ATOM      7  C8  UNL d   1      -0.466   1.577  -0.514  0.00  0.00     0.001 A 
ENDROOT
BRANCH   1   8
ATOM      8  C1  UNL d   1      -1.643   2.959   1.242  0.00  0.00     0.053 C 
ATOM      9  C   UNL d   1      -2.413   2.338   2.397  0.00  0.00     0.018 C 
ENDBRANCH   1   8
TORSDOF 1
ENDMDL
