MODEL 1
REMARK minimizedAffinity 1.20765364
REMARK minimizedRMSD -1
REMARK  0 active torsions:
REMARK  status: ('A' for Active; 'I' for Inactive)
ROOT
ATOM      1  C   UNL d   1      -3.974   4.151  -4.416  0.00  0.00     0.023 A 
ATOM      2  C1  UNL d   1      -5.265   3.779  -4.790  0.00  0.00     0.003 A 
ATOM      3  C2  UNL d   1      -5.560   2.440  -5.051  0.00  0.00     0.048 A 
ATOM      4  C3  UNL d   1      -4.558   1.476  -4.936  0.00  0.00     0.023 A 
ATOM      5  C4  UNL d   1      -3.264   1.844  -4.562  0.00  0.00     0.048 A 
ATOM      6  C5  UNL d   1      -2.974   3.184  -4.303  0.00  0.00     0.003 A 
ATOM      7  I   UNL d   1      -4.994  -0.518  -5.325  0.00  0.00    -0.146 I 
ENDROOT
TORSDOF 0
ENDMDL
