MODEL 1
REMARK minimizedAffinity 7.88354254
REMARK minimizedRMSD -1
REMARK  0 active torsions:
REMARK  status: ('A' for Active; 'I' for Inactive)
ROOT
ATOM      1  C   UNL d   1       1.444   0.897  -3.343  0.00  0.00     0.023 A 
ATOM      2  C1  UNL d   1       1.195   0.124  -2.209  0.00  0.00     0.003 A 
ATOM      3  C2  UNL d   1       1.551   0.601  -0.946  0.00  0.00     0.048 A 
ATOM      4  C3  UNL d   1       2.155   1.852  -0.824  0.00  0.00     0.023 A 
ATOM      5  C4  UNL d   1       2.405   2.629  -1.956  0.00  0.00     0.048 A 
ATOM      6  C5  UNL d   1       2.049   2.148  -3.217  0.00  0.00     0.003 A 
ATOM      7  I   UNL d   1       2.685   2.564   1.055  0.00  0.00    -0.146 I 
ENDROOT
TORSDOF 0
ENDMDL
