MODEL 1
REMARK minimizedAffinity 7.44864273
REMARK minimizedRMSD -1
REMARK  0 active torsions:
REMARK  status: ('A' for Active; 'I' for Inactive)
ROOT
ATOM      1  C   UNL d   1       2.901   0.565  -0.690  0.00  0.00     0.023 A 
ATOM      2  C1  UNL d   1       3.110   1.944  -0.737  0.00  0.00     0.003 A 
ATOM      3  C2  UNL d   1       2.286   2.750  -1.524  0.00  0.00     0.048 A 
ATOM      4  C3  UNL d   1       1.254   2.172  -2.263  0.00  0.00     0.023 A 
ATOM      5  C4  UNL d   1       1.040   0.793  -2.219  0.00  0.00     0.048 A 
ATOM      6  C5  UNL d   1       1.867  -0.009  -1.430  0.00  0.00     0.003 A 
ATOM      7  I   UNL d   1       0.026   3.370  -3.436  0.00  0.00    -0.146 I 
ENDROOT
TORSDOF 0
ENDMDL
