MODEL 1
REMARK minimizedAffinity 7.65815973
REMARK minimizedRMSD -1
REMARK  0 active torsions:
REMARK  status: ('A' for Active; 'I' for Inactive)
ROOT
ATOM      1  C   UNL d   1       2.132  -1.209   3.292  0.00  0.00     0.023 A 
ATOM      2  C1  UNL d   1       3.025  -0.736   2.330  0.00  0.00     0.003 A 
ATOM      3  C2  UNL d   1       2.625  -0.629   0.997  0.00  0.00     0.048 A 
ATOM      4  C3  UNL d   1       1.330  -0.997   0.632  0.00  0.00     0.023 A 
ATOM      5  C4  UNL d   1       0.433  -1.470   1.591  0.00  0.00     0.048 A 
ATOM      6  C5  UNL d   1       0.838  -1.576   2.923  0.00  0.00     0.003 A 
ATOM      7  I   UNL d   1       0.732  -0.838  -1.352  0.00  0.00    -0.146 I 
ENDROOT
TORSDOF 0
ENDMDL
