MODEL 1
REMARK minimizedAffinity 8.01137733
REMARK minimizedRMSD -1
REMARK  0 active torsions:
REMARK  status: ('A' for Active; 'I' for Inactive)
ROOT
ATOM      1  C   UNL d   1       0.970  -1.008   3.776  0.00  0.00     0.023 A 
ATOM      2  C1  UNL d   1       0.126  -1.634   2.858  0.00  0.00     0.003 A 
ATOM      3  C2  UNL d   1       0.497  -1.725   1.515  0.00  0.00     0.048 A 
ATOM      4  C3  UNL d   1       1.714  -1.189   1.096  0.00  0.00     0.023 A 
ATOM      5  C4  UNL d   1       2.562  -0.563   2.011  0.00  0.00     0.048 A 
ATOM      6  C5  UNL d   1       2.186  -0.473   3.352  0.00  0.00     0.003 A 
ATOM      7  I   UNL d   1       2.269  -1.324  -0.902  0.00  0.00    -0.146 I 
ENDROOT
TORSDOF 0
ENDMDL
