MODEL 1
REMARK minimizedAffinity 6.01971722
REMARK minimizedRMSD -1
REMARK  0 active torsions:
REMARK  status: ('A' for Active; 'I' for Inactive)
ROOT
ATOM      1  C   UNL d   1       1.503   0.492   2.908  0.00  0.00     0.023 A 
ATOM      2  C1  UNL d   1       2.224  -0.701   2.857  0.00  0.00     0.003 A 
ATOM      3  C2  UNL d   1       1.554  -1.926   2.906  0.00  0.00     0.048 A 
ATOM      4  C3  UNL d   1       0.163  -1.950   3.004  0.00  0.00     0.023 A 
ATOM      5  C4  UNL d   1      -0.562  -0.758   3.053  0.00  0.00     0.048 A 
ATOM      6  C5  UNL d   1       0.112   0.464   3.006  0.00  0.00     0.003 A 
ATOM      7  I   UNL d   1      -0.836  -3.771   3.076  0.00  0.00    -0.146 I 
ENDROOT
TORSDOF 0
ENDMDL
