MODEL 1
REMARK minimizedAffinity 5.19393396
REMARK minimizedRMSD -1
REMARK  0 active torsions:
REMARK  status: ('A' for Active; 'I' for Inactive)
ROOT
ATOM      1  C   UNL d   1       0.436  -1.679   3.141  0.00  0.00     0.023 A 
ATOM      2  C1  UNL d   1      -0.283  -2.814   2.768  0.00  0.00     0.003 A 
ATOM      3  C2  UNL d   1      -1.280  -2.722   1.795  0.00  0.00     0.048 A 
ATOM      4  C3  UNL d   1      -1.553  -1.492   1.198  0.00  0.00     0.023 A 
ATOM      5  C4  UNL d   1      -0.835  -0.353   1.568  0.00  0.00     0.048 A 
ATOM      6  C5  UNL d   1       0.160  -0.449   2.542  0.00  0.00     0.003 A 
ATOM      7  I   UNL d   1      -3.036  -1.352  -0.250  0.00  0.00    -0.146 I 
ENDROOT
TORSDOF 0
ENDMDL
