MODEL 1
REMARK minimizedAffinity 3.98945451
REMARK minimizedRMSD -1
REMARK  0 active torsions:
REMARK  status: ('A' for Active; 'I' for Inactive)
ROOT
ATOM      1  C   UNL d   1       2.212  -1.078  -2.119  0.00  0.00     0.023 A 
ATOM      2  C1  UNL d   1       3.128  -1.428  -1.126  0.00  0.00     0.003 A 
ATOM      3  C2  UNL d   1       2.711  -1.542   0.201  0.00  0.00     0.048 A 
ATOM      4  C3  UNL d   1       1.377  -1.305   0.530  0.00  0.00     0.023 A 
ATOM      5  C4  UNL d   1       0.457  -0.955  -0.460  0.00  0.00     0.048 A 
ATOM      6  C5  UNL d   1       0.878  -0.842  -1.786  0.00  0.00     0.003 A 
ATOM      7  I   UNL d   1       0.754  -1.475   2.505  0.00  0.00    -0.146 I 
ENDROOT
TORSDOF 0
ENDMDL
