MODEL 1
REMARK minimizedAffinity 10.5027905
REMARK minimizedRMSD -1
REMARK  1 active torsions:
REMARK  status: ('A' for Active; 'I' for Inactive)
REMARK    1  A    between atoms: C1_2  and  C2_3 
ROOT
ATOM      1  C2  UNL d   1      -2.872   3.597  -4.774  0.00  0.00    -0.076 A 
ATOM      2  C3  UNL d   1      -3.534   4.807  -4.506  0.00  0.00     0.004 A 
ATOM      3  C4  UNL d   1      -2.824   5.999  -4.372  0.00  0.00    -0.003 A 
ATOM      4  C5  UNL d   1      -1.440   6.000  -4.504  0.00  0.00     0.000 A 
ATOM      5  C6  UNL d   1      -0.768   4.811  -4.787  0.00  0.00     0.000 A 
ATOM      6  C7  UNL d   1      -1.471   3.604  -4.941  0.00  0.00    -0.073 A 
ATOM      7  C8  UNL d   1      -0.695   2.350  -5.240  0.00  0.00     0.078 C 
ENDROOT
BRANCH   1   8
ATOM      8  C1  UNL d   1      -3.692   2.331  -4.881  0.00  0.00     0.053 C 
ATOM      9  C   UNL d   1      -5.137   2.604  -5.268  0.00  0.00     0.018 C 
ENDBRANCH   1   8
TORSDOF 1
ENDMDL
