MODEL 1
REMARK minimizedAffinity 10.81635
REMARK minimizedRMSD -1
REMARK  1 active torsions:
REMARK  status: ('A' for Active; 'I' for Inactive)
REMARK    1  A    between atoms: C1_2  and  C2_3 
ROOT
ATOM      1  C2  UNL d   1      -3.623   3.471  -5.367  0.00  0.00    -0.076 A 
ATOM      2  C3  UNL d   1      -2.847   2.475  -4.750  0.00  0.00     0.004 A 
ATOM      3  C4  UNL d   1      -1.615   2.781  -4.173  0.00  0.00    -0.003 A 
ATOM      4  C5  UNL d   1      -1.140   4.087  -4.204  0.00  0.00     0.000 A 
ATOM      5  C6  UNL d   1      -1.905   5.091  -4.797  0.00  0.00     0.000 A 
ATOM      6  C7  UNL d   1      -3.157   4.803  -5.368  0.00  0.00    -0.073 A 
ATOM      7  C8  UNL d   1      -3.937   5.923  -6.000  0.00  0.00     0.078 C 
ENDROOT
BRANCH   1   8
ATOM      8  C1  UNL d   1      -4.939   3.075  -5.999  0.00  0.00     0.053 C 
ATOM      9  C   UNL d   1      -5.396   1.689  -5.573  0.00  0.00     0.018 C 
ENDBRANCH   1   8
TORSDOF 1
ENDMDL
