MODEL 1
REMARK minimizedAffinity 7.50684023
REMARK minimizedRMSD -1
REMARK  1 active torsions:
REMARK  status: ('A' for Active; 'I' for Inactive)
REMARK    1  A    between atoms: C1_2  and  C2_3 
ROOT
ATOM      1  C2  UNL d   1      -3.302   3.869  -4.932  0.00  0.00    -0.076 A 
ATOM      2  C3  UNL d   1      -2.301   3.232  -4.179  0.00  0.00     0.004 A 
ATOM      3  C4  UNL d   1      -1.180   3.932  -3.736  0.00  0.00    -0.003 A 
ATOM      4  C5  UNL d   1      -1.043   5.282  -4.038  0.00  0.00     0.000 A 
ATOM      5  C6  UNL d   1      -2.034   5.935  -4.769  0.00  0.00     0.000 A 
ATOM      6  C7  UNL d   1      -3.178   5.248  -5.209  0.00  0.00    -0.073 A 
ATOM      7  C8  UNL d   1      -4.214   6.000  -6.000  0.00  0.00     0.078 C 
ENDROOT
BRANCH   1   8
ATOM      8  C1  UNL d   1      -4.481   3.052  -5.408  0.00  0.00     0.053 C 
ATOM      9  C   UNL d   1      -4.441   1.619  -4.898  0.00  0.00     0.018 C 
ENDBRANCH   1   8
TORSDOF 1
ENDMDL
