MODEL 1
REMARK minimizedAffinity 13.8862724
REMARK minimizedRMSD -1
REMARK  1 active torsions:
REMARK  status: ('A' for Active; 'I' for Inactive)
REMARK    1  A    between atoms: C1_2  and  C2_3 
ROOT
ATOM      1  C2  UNL d   1       1.011  -2.063   2.133  0.00  0.00    -0.076 A 
ATOM      2  C3  UNL d   1       0.483  -3.362   2.246  0.00  0.00     0.004 A 
ATOM      3  C4  UNL d   1      -0.430  -3.680   3.250  0.00  0.00    -0.003 A 
ATOM      4  C5  UNL d   1      -0.831  -2.705   4.157  0.00  0.00     0.000 A 
ATOM      5  C6  UNL d   1      -0.332  -1.408   4.049  0.00  0.00     0.000 A 
ATOM      6  C7  UNL d   1       0.577  -1.066   3.033  0.00  0.00    -0.073 A 
ATOM      7  C8  UNL d   1       1.088   0.347   2.967  0.00  0.00     0.078 C 
ENDROOT
BRANCH   1   8
ATOM      8  C1  UNL d   1       2.018  -1.783   1.041  0.00  0.00     0.053 C 
ATOM      9  C   UNL d   1       3.451  -2.004   1.500  0.00  0.00     0.018 C 
ENDBRANCH   1   8
TORSDOF 1
ENDMDL
