MODEL 1
REMARK minimizedAffinity 21.0529537
REMARK minimizedRMSD -1
REMARK  1 active torsions:
REMARK  status: ('A' for Active; 'I' for Inactive)
REMARK    1  A    between atoms: C1_2  and  C2_3 
ROOT
ATOM      1  C2  UNL d   1      -3.733   4.586   0.179  0.00  0.00    -0.076 A 
ATOM      2  C3  UNL d   1      -4.055   4.606   1.547  0.00  0.00     0.004 A 
ATOM      3  C4  UNL d   1      -5.166   5.308   2.012  0.00  0.00    -0.003 A 
ATOM      4  C5  UNL d   1      -5.974   6.000   1.116  0.00  0.00     0.000 A 
ATOM      5  C6  UNL d   1      -5.679   5.975  -0.247  0.00  0.00     0.000 A 
ATOM      6  C7  UNL d   1      -4.572   5.259  -0.734  0.00  0.00    -0.073 A 
ATOM      7  C8  UNL d   1      -4.298   5.272  -2.213  0.00  0.00     0.078 C 
ENDROOT
BRANCH   1   8
ATOM      8  C1  UNL d   1      -2.500   3.830  -0.264  0.00  0.00     0.053 C 
ATOM      9  C   UNL d   1      -2.406   2.449   0.366  0.00  0.00     0.018 C 
ENDBRANCH   1   8
TORSDOF 1
ENDMDL
