MODEL 1
REMARK minimizedAffinity 2.86486292
REMARK minimizedRMSD -1
REMARK  1 active torsions:
REMARK  status: ('A' for Active; 'I' for Inactive)
REMARK    1  A    between atoms: C1_2  and  C2_3 
ROOT
ATOM      1  C2  UNL d   1      -3.876   3.382  -5.462  0.00  0.00    -0.076 A 
ATOM      2  C3  UNL d   1      -4.590   4.468  -5.998  0.00  0.00     0.004 A 
ATOM      3  C4  UNL d   1      -4.089   5.766  -5.915  0.00  0.00    -0.003 A 
ATOM      4  C5  UNL d   1      -2.866   5.999  -5.295  0.00  0.00     0.000 A 
ATOM      5  C6  UNL d   1      -2.137   4.931  -4.774  0.00  0.00     0.000 A 
ATOM      6  C7  UNL d   1      -2.619   3.614  -4.864  0.00  0.00    -0.073 A 
ATOM      7  C8  UNL d   1      -1.794   2.501  -4.279  0.00  0.00     0.078 C 
ENDROOT
BRANCH   1   8
ATOM      8  C1  UNL d   1      -4.482   1.999  -5.557  0.00  0.00     0.053 C 
ATOM      9  C   UNL d   1      -5.996   2.035  -5.700  0.00  0.00     0.018 C 
ENDBRANCH   1   8
TORSDOF 1
ENDMDL
