MODEL 1
REMARK minimizedAffinity 9.22343254
REMARK minimizedRMSD -1
REMARK  1 active torsions:
REMARK  status: ('A' for Active; 'I' for Inactive)
REMARK    1  A    between atoms: C1_2  and  C2_3 
ROOT
ATOM      1  C2  UNL d   1      -4.123  -4.166   4.623  0.00  0.00    -0.076 A 
ATOM      2  C3  UNL d   1      -2.772  -4.230   4.240  0.00  0.00     0.004 A 
ATOM      3  C4  UNL d   1      -1.845  -3.308   4.722  0.00  0.00    -0.003 A 
ATOM      4  C5  UNL d   1      -2.253  -2.306   5.596  0.00  0.00     0.000 A 
ATOM      5  C6  UNL d   1      -3.586  -2.238   6.000  0.00  0.00     0.000 A 
ATOM      6  C7  UNL d   1      -4.531  -3.170   5.536  0.00  0.00    -0.073 A 
ATOM      7  C8  UNL d   1      -5.956  -3.045   6.000  0.00  0.00     0.078 C 
ENDROOT
BRANCH   1   8
ATOM      8  C1  UNL d   1      -5.088  -5.176   4.046  0.00  0.00     0.053 C 
ATOM      9  C   UNL d   1      -5.997  -5.784   5.104  0.00  0.00     0.018 C 
ENDBRANCH   1   8
TORSDOF 1
ENDMDL
