MODEL 1
REMARK minimizedAffinity 8.04212475
REMARK minimizedRMSD -1
REMARK  1 active torsions:
REMARK  status: ('A' for Active; 'I' for Inactive)
REMARK    1  A    between atoms: C1_2  and  C2_3 
ROOT
ATOM      1  C2  UNL d   1      -3.970  -4.004   4.852  0.00  0.00    -0.076 A 
ATOM      2  C3  UNL d   1      -2.599  -3.960   4.545  0.00  0.00     0.004 A 
ATOM      3  C4  UNL d   1      -1.808  -2.886   4.948  0.00  0.00    -0.003 A 
ATOM      4  C5  UNL d   1      -2.375  -1.838   5.665  0.00  0.00     0.000 A 
ATOM      5  C6  UNL d   1      -3.729  -1.873   5.994  0.00  0.00     0.000 A 
ATOM      6  C7  UNL d   1      -4.538  -2.957   5.609  0.00  0.00    -0.073 A 
ATOM      7  C8  UNL d   1      -5.994  -2.940   5.986  0.00  0.00     0.078 C 
ENDROOT
BRANCH   1   8
ATOM      8  C1  UNL d   1      -4.784  -5.182   4.366  0.00  0.00     0.053 C 
ATOM      9  C   UNL d   1      -5.987  -5.465   5.252  0.00  0.00     0.018 C 
ENDBRANCH   1   8
TORSDOF 1
ENDMDL
