MODEL 1
REMARK minimizedAffinity 4.00757933
REMARK minimizedRMSD -1
REMARK  1 active torsions:
REMARK  status: ('A' for Active; 'I' for Inactive)
REMARK    1  A    between atoms: C1_2  and  C2_3 
ROOT
ATOM      1  C2  UNL d   1      -3.002   3.263  -4.923  0.00  0.00    -0.076 A 
ATOM      2  C3  UNL d   1      -3.575   4.075  -5.918  0.00  0.00     0.004 A 
ATOM      3  C4  UNL d   1      -3.268   5.433  -6.000  0.00  0.00    -0.003 A 
ATOM      4  C5  UNL d   1      -2.384   6.000  -5.089  0.00  0.00     0.000 A 
ATOM      5  C6  UNL d   1      -1.793   5.205  -4.107  0.00  0.00     0.000 A 
ATOM      6  C7  UNL d   1      -2.079   3.832  -4.021  0.00  0.00    -0.073 A 
ATOM      7  C8  UNL d   1      -1.418   3.024  -2.938  0.00  0.00     0.078 C 
ENDROOT
BRANCH   1   8
ATOM      8  C1  UNL d   1      -3.393   1.804  -4.867  0.00  0.00     0.053 C 
ATOM      9  C   UNL d   1      -4.859   1.579  -5.205  0.00  0.00     0.018 C 
ENDBRANCH   1   8
TORSDOF 1
ENDMDL
