MODEL 1
REMARK minimizedAffinity 3.22501373
REMARK minimizedRMSD -1
REMARK  1 active torsions:
REMARK  status: ('A' for Active; 'I' for Inactive)
REMARK    1  A    between atoms: C1_2  and  C2_3 
ROOT
ATOM      1  C2  UNL d   1      -2.857   3.418  -4.713  0.00  0.00    -0.076 A 
ATOM      2  C3  UNL d   1      -3.653   4.558  -4.508  0.00  0.00     0.004 A 
ATOM      3  C4  UNL d   1      -3.113   5.839  -4.616  0.00  0.00    -0.003 A 
ATOM      4  C5  UNL d   1      -1.768   6.000  -4.930  0.00  0.00     0.000 A 
ATOM      5  C6  UNL d   1      -0.968   4.880  -5.153  0.00  0.00     0.000 A 
ATOM      6  C7  UNL d   1      -1.500   3.582  -5.065  0.00  0.00    -0.073 A 
ATOM      7  C8  UNL d   1      -0.590   2.410  -5.310  0.00  0.00     0.078 C 
ENDROOT
BRANCH   1   8
ATOM      8  C1  UNL d   1      -3.491   2.054  -4.556  0.00  0.00     0.053 C 
ATOM      9  C   UNL d   1      -4.981   2.066  -4.862  0.00  0.00     0.018 C 
ENDBRANCH   1   8
TORSDOF 1
ENDMDL
