MODEL 1
REMARK minimizedAffinity 14.88591
REMARK minimizedRMSD -1
REMARK  1 active torsions:
REMARK  status: ('A' for Active; 'I' for Inactive)
REMARK    1  A    between atoms: C1_2  and  C2_3 
ROOT
ATOM      1  C2  UNL d   1      -0.451  -1.397   4.102  0.00  0.00    -0.076 A 
ATOM      2  C3  UNL d   1      -0.117  -2.753   4.268  0.00  0.00     0.004 A 
ATOM      3  C4  UNL d   1      -0.787  -3.548   5.196  0.00  0.00    -0.003 A 
ATOM      4  C5  UNL d   1      -1.802  -3.001   5.973  0.00  0.00     0.000 A 
ATOM      5  C6  UNL d   1      -2.158  -1.662   5.809  0.00  0.00     0.000 A 
ATOM      6  C7  UNL d   1      -1.504  -0.851   4.867  0.00  0.00    -0.073 A 
ATOM      7  C8  UNL d   1      -1.924   0.587   4.736  0.00  0.00     0.078 C 
ENDROOT
BRANCH   1   8
ATOM      8  C1  UNL d   1       0.329  -0.577   3.099  0.00  0.00     0.053 C 
ATOM      9  C   UNL d   1       0.919  -1.427   1.984  0.00  0.00     0.018 C 
ENDBRANCH   1   8
TORSDOF 1
ENDMDL
