MODEL 1
REMARK minimizedAffinity 21.1721916
REMARK minimizedRMSD -1
REMARK  1 active torsions:
REMARK  status: ('A' for Active; 'I' for Inactive)
REMARK    1  A    between atoms: C1_2  and  C2_3 
ROOT
ATOM      1  C2  UNL d   1      -2.538   1.872   1.388  0.00  0.00    -0.076 A 
ATOM      2  C3  UNL d   1      -2.098   1.593   2.693  0.00  0.00     0.004 A 
ATOM      3  C4  UNL d   1      -0.806   1.128   2.931  0.00  0.00    -0.003 A 
ATOM      4  C5  UNL d   1       0.068   0.934   1.866  0.00  0.00     0.000 A 
ATOM      5  C6  UNL d   1      -0.346   1.223   0.566  0.00  0.00     0.000 A 
ATOM      6  C7  UNL d   1      -1.640   1.708   0.311  0.00  0.00    -0.073 A 
ATOM      7  C8  UNL d   1      -2.036   1.997  -1.111  0.00  0.00     0.078 C 
ENDROOT
BRANCH   1   8
ATOM      8  C1  UNL d   1      -3.959   2.349   1.189  0.00  0.00     0.053 C 
ATOM      9  C   UNL d   1      -4.035   3.829   0.851  0.00  0.00     0.018 C 
ENDBRANCH   1   8
TORSDOF 1
ENDMDL
