MODEL 1
REMARK minimizedAffinity -2.2233007
REMARK minimizedRMSD -1
REMARK  0 active torsions:
REMARK  status: ('A' for Active; 'I' for Inactive)
ROOT
ATOM      1  N1  IND d   1       1.212   0.501  -0.494  0.00  0.00    -0.196 N 
ATOM      2  C2  IND d   1      -0.096   0.229  -0.202  0.00  0.00     0.054 A 
ATOM      3  C3  IND d   1      -0.679   1.297   0.386  0.00  0.00    -0.031 A 
ATOM      4  C4  IND d   1       0.296   3.629   0.874  0.00  0.00     0.051 A 
ATOM      5  C5  IND d   1       1.460   4.343   0.821  0.00  0.00    -0.031 A 
ATOM      6  C6  IND d   1       2.624   3.803   0.313  0.00  0.00     0.015 A 
ATOM      7  C7  IND d   1       2.664   2.526  -0.172  0.00  0.00    -0.016 A 
ATOM      8  C8  IND d   1       1.485   1.796  -0.112  0.00  0.00    -0.047 A 
ATOM      9  C9  IND d   1       0.312   2.325   0.440  0.00  0.00    -0.096 A 
ATOM     10  HN1 IND d   1       1.770  -0.045  -0.854  0.00  0.00     0.298 HD
ENDROOT
TORSDOF 0
ENDMDL
