MODEL 1
REMARK minimizedAffinity -3.28087354
REMARK minimizedRMSD -1
REMARK  0 active torsions:
REMARK  status: ('A' for Active; 'I' for Inactive)
ROOT
ATOM      1  N1  IND d   1       0.960  -1.881  -1.021  0.00  0.00    -0.196 N 
ATOM      2  C2  IND d   1       1.073  -3.221  -0.772  0.00  0.00     0.054 A 
ATOM      3  C3  IND d   1       0.360  -3.557   0.326  0.00  0.00    -0.031 A 
ATOM      4  C4  IND d   1      -1.148  -2.090   1.809  0.00  0.00     0.051 A 
ATOM      5  C5  IND d   1      -1.538  -0.795   2.000  0.00  0.00    -0.031 A 
ATOM      6  C6  IND d   1      -1.109   0.225   1.176  0.00  0.00     0.015 A 
ATOM      7  C7  IND d   1      -0.279  -0.015   0.118  0.00  0.00    -0.016 A 
ATOM      8  C8  IND d   1       0.125  -1.329  -0.075  0.00  0.00    -0.047 A 
ATOM      9  C9  IND d   1      -0.273  -2.362   0.784  0.00  0.00    -0.096 A 
ATOM     10  HN1 IND d   1       1.346  -1.455  -1.660  0.00  0.00     0.298 HD
ENDROOT
TORSDOF 0
ENDMDL
