MODEL 1
REMARK minimizedAffinity -3.4628911
REMARK minimizedRMSD -1
REMARK  0 active torsions:
REMARK  status: ('A' for Active; 'I' for Inactive)
ROOT
ATOM      1  N1  IND d   1      -0.111   0.665  -2.052  0.00  0.00    -0.196 N 
ATOM      2  C2  IND d   1       0.285  -0.190  -3.042  0.00  0.00     0.054 A 
ATOM      3  C3  IND d   1       0.610  -1.395  -2.521  0.00  0.00    -0.031 A 
ATOM      4  C4  IND d   1       0.468  -2.216  -0.086  0.00  0.00     0.051 A 
ATOM      5  C5  IND d   1       0.197  -1.784   1.183  0.00  0.00    -0.031 A 
ATOM      6  C6  IND d   1      -0.201  -0.489   1.442  0.00  0.00     0.015 A 
ATOM      7  C7  IND d   1      -0.355   0.424   0.438  0.00  0.00    -0.016 A 
ATOM      8  C8  IND d   1      -0.074  -0.009  -0.850  0.00  0.00    -0.047 A 
ATOM      9  C9  IND d   1       0.372  -1.310  -1.115  0.00  0.00    -0.096 A 
ATOM     10  HN1 IND d   1      -0.345   1.485  -2.161  0.00  0.00     0.298 HD
ENDROOT
TORSDOF 0
ENDMDL
