MODEL 1
REMARK minimizedAffinity -4.48401451
REMARK minimizedRMSD -1
REMARK  0 active torsions:
REMARK  status: ('A' for Active; 'I' for Inactive)
ROOT
ATOM      1  N1  IND d   1      -1.794   0.213   0.413  0.00  0.00    -0.196 N 
ATOM      2  C2  IND d   1      -0.985   1.178  -0.118  0.00  0.00     0.054 A 
ATOM      3  C3  IND d   1       0.253   0.683  -0.343  0.00  0.00    -0.031 A 
ATOM      4  C4  IND d   1       1.143  -1.709  -0.007  0.00  0.00     0.051 A 
ATOM      5  C5  IND d   1       0.787  -2.932   0.489  0.00  0.00    -0.031 A 
ATOM      6  C6  IND d   1      -0.475  -3.174   0.993  0.00  0.00     0.015 A 
ATOM      7  C7  IND d   1      -1.434  -2.202   1.009  0.00  0.00    -0.016 A 
ATOM      8  C8  IND d   1      -1.074  -0.957   0.512  0.00  0.00    -0.047 A 
ATOM      9  C9  IND d   1       0.218  -0.693   0.039  0.00  0.00    -0.096 A 
ATOM     10  HN1 IND d   1      -2.615   0.319   0.646  0.00  0.00     0.298 HD
ENDROOT
TORSDOF 0
ENDMDL
