MODEL 1
REMARK minimizedAffinity -4.71145296
REMARK minimizedRMSD -1
REMARK  0 active torsions:
REMARK  status: ('A' for Active; 'I' for Inactive)
ROOT
ATOM      1  N1  IND d   1       0.373   0.617  -0.387  0.00  0.00    -0.196 N 
ATOM      2  C2  IND d   1      -0.301   1.108   0.697  0.00  0.00     0.054 A 
ATOM      3  C3  IND d   1      -0.844   0.096   1.411  0.00  0.00    -0.031 A 
ATOM      4  C4  IND d   1      -0.667  -2.445   1.041  0.00  0.00     0.051 A 
ATOM      5  C5  IND d   1      -0.187  -3.375   0.162  0.00  0.00    -0.031 A 
ATOM      6  C6  IND d   1       0.521  -3.014  -0.967  0.00  0.00     0.015 A 
ATOM      7  C7  IND d   1       0.786  -1.705  -1.253  0.00  0.00    -0.016 A 
ATOM      8  C8  IND d   1       0.294  -0.758  -0.366  0.00  0.00    -0.047 A 
ATOM      9  C9  IND d   1      -0.462  -1.116   0.758  0.00  0.00    -0.096 A 
ATOM     10  HN1 IND d   1       0.777   1.088  -0.981  0.00  0.00     0.298 HD
ENDROOT
TORSDOF 0
ENDMDL
