MODEL 1
REMARK minimizedAffinity -4.98588228
REMARK minimizedRMSD -1
REMARK  0 active torsions:
REMARK  status: ('A' for Active; 'I' for Inactive)
ROOT
ATOM      1  N1  IND d   1       0.874  -0.644  -2.075  0.00  0.00    -0.196 N 
ATOM      2  C2  IND d   1       0.342   0.596  -2.296  0.00  0.00     0.054 A 
ATOM      3  C3  IND d   1      -0.465   0.950  -1.271  0.00  0.00    -0.031 A 
ATOM      4  C4  IND d   1      -0.978  -0.306   0.917  0.00  0.00     0.051 A 
ATOM      5  C5  IND d   1      -0.754  -1.494   1.555  0.00  0.00    -0.031 A 
ATOM      6  C6  IND d   1       0.042  -2.478   1.006  0.00  0.00     0.015 A 
ATOM      7  C7  IND d   1       0.656  -2.306  -0.203  0.00  0.00    -0.016 A 
ATOM      8  C8  IND d   1       0.426  -1.104  -0.857  0.00  0.00    -0.047 A 
ATOM      9  C9  IND d   1      -0.416  -0.118  -0.324  0.00  0.00    -0.096 A 
ATOM     10  HN1 IND d   1       1.400  -1.067  -2.609  0.00  0.00     0.298 HD
ENDROOT
TORSDOF 0
ENDMDL
