MODEL 1
REMARK minimizedAffinity -4.40468884
REMARK minimizedRMSD -1
REMARK  0 active torsions:
REMARK  status: ('A' for Active; 'I' for Inactive)
ROOT
ATOM      1  N1  IND d   1       0.444   0.278  -1.365  0.00  0.00    -0.196 N 
ATOM      2  C2  IND d   1       0.097   1.490  -0.836  0.00  0.00     0.054 A 
ATOM      3  C3  IND d   1      -0.664   1.320   0.268  0.00  0.00    -0.031 A 
ATOM      4  C4  IND d   1      -1.379  -0.855   1.444  0.00  0.00     0.051 A 
ATOM      5  C5  IND d   1      -1.336  -2.215   1.313  0.00  0.00    -0.031 A 
ATOM      6  C6  IND d   1      -0.681  -2.826   0.262  0.00  0.00     0.015 A 
ATOM      7  C7  IND d   1      -0.033  -2.096  -0.694  0.00  0.00    -0.016 A 
ATOM      8  C8  IND d   1      -0.081  -0.715  -0.568  0.00  0.00    -0.047 A 
ATOM      9  C9  IND d   1      -0.780  -0.089   0.472  0.00  0.00    -0.096 A 
ATOM     10  HN1 IND d   1       0.911   0.156  -2.077  0.00  0.00     0.298 HD
ENDROOT
TORSDOF 0
ENDMDL
