MODEL 1
REMARK minimizedAffinity 0.467012346
REMARK minimizedRMSD -1
REMARK  0 active torsions:
REMARK  status: ('A' for Active; 'I' for Inactive)
ROOT
ATOM      1  N1  IND d   1       1.452   0.419  -0.465  0.00  0.00    -0.196 N 
ATOM      2  C2  IND d   1       0.133   0.061  -0.430  0.00  0.00     0.054 A 
ATOM      3  C3  IND d   1      -0.613   1.063   0.087  0.00  0.00    -0.031 A 
ATOM      4  C4  IND d   1       0.108   3.414   0.848  0.00  0.00     0.051 A 
ATOM      5  C5  IND d   1       1.215   4.192   1.040  0.00  0.00    -0.031 A 
ATOM      6  C6  IND d   1       2.483   3.744   0.732  0.00  0.00     0.015 A 
ATOM      7  C7  IND d   1       2.691   2.500   0.207  0.00  0.00    -0.016 A 
ATOM      8  C8  IND d   1       1.570   1.705   0.017  0.00  0.00    -0.047 A 
ATOM      9  C9  IND d   1       0.285   2.138   0.367  0.00  0.00    -0.096 A 
ATOM     10  HN1 IND d   1       2.099  -0.075  -0.741  0.00  0.00     0.298 HD
ENDROOT
TORSDOF 0
ENDMDL
