MODEL 1
REMARK minimizedAffinity -2.75217009
REMARK minimizedRMSD -1
REMARK  0 active torsions:
REMARK  status: ('A' for Active; 'I' for Inactive)
ROOT
ATOM      1  N1  IND d   1      -0.933  -2.540   0.996  0.00  0.00    -0.196 N 
ATOM      2  C2  IND d   1      -0.048  -3.359   0.352  0.00  0.00     0.054 A 
ATOM      3  C3  IND d   1       0.781  -2.634  -0.432  0.00  0.00    -0.031 A 
ATOM      4  C4  IND d   1       0.929  -0.082  -0.734  0.00  0.00     0.051 A 
ATOM      5  C5  IND d   1       0.306   1.083  -0.382  0.00  0.00    -0.031 A 
ATOM      6  C6  IND d   1      -0.782   1.100   0.467  0.00  0.00     0.015 A 
ATOM      7  C7  IND d   1      -1.282  -0.051   1.006  0.00  0.00    -0.016 A 
ATOM      8  C8  IND d   1      -0.657  -1.236   0.645  0.00  0.00    -0.047 A 
ATOM      9  C9  IND d   1       0.421  -1.264  -0.249  0.00  0.00    -0.096 A 
ATOM     10  HN1 IND d   1      -1.556  -2.795   1.529  0.00  0.00     0.298 HD
ENDROOT
TORSDOF 0
ENDMDL
