MODEL 1
REMARK minimizedAffinity -4.66041517
REMARK minimizedRMSD -1
REMARK  0 active torsions:
REMARK  status: ('A' for Active; 'I' for Inactive)
ROOT
ATOM      1  N1  IND d   1       0.250   1.031  -1.620  0.00  0.00    -0.196 N 
ATOM      2  C2  IND d   1       0.190   2.200  -0.914  0.00  0.00     0.054 A 
ATOM      3  C3  IND d   1      -0.087   1.950   0.386  0.00  0.00    -0.031 A 
ATOM      4  C4  IND d   1      -0.380  -0.306   1.591  0.00  0.00     0.051 A 
ATOM      5  C5  IND d   1      -0.450  -1.651   1.358  0.00  0.00    -0.031 A 
ATOM      6  C6  IND d   1      -0.284  -2.181   0.095  0.00  0.00     0.015 A 
ATOM      7  C7  IND d   1      -0.030  -1.384  -0.985  0.00  0.00    -0.016 A 
ATOM      8  C8  IND d   1       0.035  -0.017  -0.753  0.00  0.00    -0.047 A 
ATOM      9  C9  IND d   1      -0.175   0.530   0.519  0.00  0.00    -0.096 A 
ATOM     10  HN1 IND d   1       0.397   0.963  -2.465  0.00  0.00     0.298 HD
ENDROOT
TORSDOF 0
ENDMDL
