MODEL 1
REMARK minimizedAffinity -6.12543964
REMARK minimizedRMSD -1
REMARK  0 active torsions:
REMARK  status: ('A' for Active; 'I' for Inactive)
ROOT
ATOM      1  N1  IND d   1      -0.647   0.814  -0.541  0.00  0.00    -0.196 N 
ATOM      2  C2  IND d   1       0.075   0.622  -1.686  0.00  0.00     0.054 A 
ATOM      3  C3  IND d   1       0.531  -0.650  -1.746  0.00  0.00    -0.031 A 
ATOM      4  C4  IND d   1       0.127  -2.611  -0.128  0.00  0.00     0.051 A 
ATOM      5  C5  IND d   1      -0.441  -2.912   1.079  0.00  0.00    -0.031 A 
ATOM      6  C6  IND d   1      -1.122  -1.969   1.820  0.00  0.00     0.015 A 
ATOM      7  C7  IND d   1      -1.272  -0.686   1.376  0.00  0.00    -0.016 A 
ATOM      8  C8  IND d   1      -0.691  -0.374   0.155  0.00  0.00    -0.047 A 
ATOM      9  C9  IND d   1       0.038  -1.316  -0.582  0.00  0.00    -0.096 A 
ATOM     10  HN1 IND d   1      -1.012   1.553  -0.297  0.00  0.00     0.298 HD
ENDROOT
TORSDOF 0
ENDMDL
