MODEL 1
REMARK minimizedAffinity -4.17682552
REMARK minimizedRMSD -1
REMARK  0 active torsions:
REMARK  status: ('A' for Active; 'I' for Inactive)
ROOT
ATOM      1  N1  IND d   1       0.485  -2.359  -0.207  0.00  0.00    -0.196 N 
ATOM      2  C2  IND d   1      -0.309  -3.071   0.648  0.00  0.00     0.054 A 
ATOM      3  C3  IND d   1      -1.181  -2.250   1.275  0.00  0.00    -0.031 A 
ATOM      4  C4  IND d   1      -1.548   0.280   0.975  0.00  0.00     0.051 A 
ATOM      5  C5  IND d   1      -1.039   1.374   0.333  0.00  0.00    -0.031 A 
ATOM      6  C6  IND d   1       0.023   1.277  -0.542  0.00  0.00     0.015 A 
ATOM      7  C7  IND d   1       0.612   0.075  -0.817  0.00  0.00    -0.016 A 
ATOM      8  C8  IND d   1       0.103  -1.036  -0.161  0.00  0.00    -0.047 A 
ATOM      9  C9  IND d   1      -0.948  -0.938   0.760  0.00  0.00    -0.096 A 
ATOM     10  HN1 IND d   1       1.117  -2.683  -0.692  0.00  0.00     0.298 HD
ENDROOT
TORSDOF 0
ENDMDL
