MODEL 1
REMARK minimizedAffinity -6.55917072
REMARK minimizedRMSD -1
REMARK  0 active torsions:
REMARK  status: ('A' for Active; 'I' for Inactive)
ROOT
ATOM      1  N1  IND d   1       0.009  -0.142  -2.374  0.00  0.00    -0.196 N 
ATOM      2  C2  IND d   1      -0.162   0.942  -1.559  0.00  0.00     0.054 A 
ATOM      3  C3  IND d   1      -0.296   0.548  -0.273  0.00  0.00    -0.031 A 
ATOM      4  C4  IND d   1      -0.166  -1.818   0.734  0.00  0.00     0.051 A 
ATOM      5  C5  IND d   1      -0.060  -3.134   0.382  0.00  0.00    -0.031 A 
ATOM      6  C6  IND d   1       0.080  -3.528  -0.933  0.00  0.00     0.015 A 
ATOM      7  C7  IND d   1       0.131  -2.616  -1.949  0.00  0.00    -0.016 A 
ATOM      8  C8  IND d   1       0.017  -1.279  -1.596  0.00  0.00    -0.047 A 
ATOM      9  C9  IND d   1      -0.168  -0.875  -0.267  0.00  0.00    -0.096 A 
ATOM     10  HN1 IND d   1       0.097  -0.118  -3.229  0.00  0.00     0.298 HD
ENDROOT
TORSDOF 0
ENDMDL
