MODEL 1
REMARK minimizedAffinity -5.50647211
REMARK minimizedRMSD -1
REMARK  0 active torsions:
REMARK  status: ('A' for Active; 'I' for Inactive)
ROOT
ATOM      1  N1  IND d   1       0.296   0.406  -1.216  0.00  0.00    -0.196 N 
ATOM      2  C2  IND d   1      -0.343   1.150  -0.264  0.00  0.00     0.054 A 
ATOM      3  C3  IND d   1      -0.785   0.356   0.736  0.00  0.00    -0.031 A 
ATOM      4  C4  IND d   1      -0.483  -2.180   1.065  0.00  0.00     0.051 A 
ATOM      5  C5  IND d   1       0.000  -3.297   0.444  0.00  0.00    -0.031 A 
ATOM      6  C6  IND d   1       0.622  -3.235  -0.787  0.00  0.00     0.015 A 
ATOM      7  C7  IND d   1       0.794  -2.047  -1.439  0.00  0.00    -0.016 A 
ATOM      8  C8  IND d   1       0.298  -0.912  -0.814  0.00  0.00    -0.047 A 
ATOM      9  C9  IND d   1      -0.371  -0.974   0.415  0.00  0.00    -0.096 A 
ATOM     10  HN1 IND d   1       0.638   0.710  -1.944  0.00  0.00     0.298 HD
ENDROOT
TORSDOF 0
ENDMDL
