MODEL 1
REMARK minimizedAffinity -1.72519779
REMARK minimizedRMSD -1
REMARK  0 active torsions:
REMARK  status: ('A' for Active; 'I' for Inactive)
ROOT
ATOM      1  N1  IND d   1      -0.380   0.121  -1.797  0.00  0.00    -0.196 N 
ATOM      2  C2  IND d   1       0.184   1.339  -1.539  0.00  0.00     0.054 A 
ATOM      3  C3  IND d   1       0.244   1.558  -0.206  0.00  0.00    -0.031 A 
ATOM      4  C4  IND d   1      -0.431   0.009   1.736  0.00  0.00     0.051 A 
ATOM      5  C5  IND d   1      -1.027  -1.192   1.999  0.00  0.00    -0.031 A 
ATOM      6  C6  IND d   1      -1.444  -2.036   0.990  0.00  0.00     0.015 A 
ATOM      7  C7  IND d   1      -1.269  -1.713  -0.326  0.00  0.00    -0.016 A 
ATOM      8  C8  IND d   1      -0.670  -0.490  -0.597  0.00  0.00    -0.047 A 
ATOM      9  C9  IND d   1      -0.284   0.389   0.423  0.00  0.00    -0.096 A 
ATOM     10  HN1 IND d   1      -0.528  -0.209  -2.577  0.00  0.00     0.298 HD
ENDROOT
TORSDOF 0
ENDMDL
