MODEL 1
REMARK minimizedAffinity -4.37131071
REMARK minimizedRMSD -1
REMARK  0 active torsions:
REMARK  status: ('A' for Active; 'I' for Inactive)
ROOT
ATOM      1  N1  IND d   1      -1.294   0.485   0.172  0.00  0.00    -0.196 N 
ATOM      2  C2  IND d   1      -0.520   1.353  -0.547  0.00  0.00     0.054 A 
ATOM      3  C3  IND d   1       0.680   0.796  -0.821  0.00  0.00    -0.031 A 
ATOM      4  C4  IND d   1       1.551  -1.565  -0.276  0.00  0.00     0.051 A 
ATOM      5  C5  IND d   1       1.219  -2.706   0.399  0.00  0.00    -0.031 A 
ATOM      6  C6  IND d   1       0.007  -2.846   1.043  0.00  0.00     0.015 A 
ATOM      7  C7  IND d   1      -0.928  -1.849   1.027  0.00  0.00    -0.016 A 
ATOM      8  C8  IND d   1      -0.591  -0.686   0.349  0.00  0.00    -0.047 A 
ATOM      9  C9  IND d   1       0.655  -0.522  -0.271  0.00  0.00    -0.096 A 
ATOM     10  HN1 IND d   1      -2.087   0.644   0.465  0.00  0.00     0.298 HD
ENDROOT
TORSDOF 0
ENDMDL
