MODEL 1
REMARK minimizedAffinity -4.12917852
REMARK minimizedRMSD -1
REMARK  0 active torsions:
REMARK  status: ('A' for Active; 'I' for Inactive)
ROOT
ATOM      1  N1  IND d   1       1.229   0.276  -1.169  0.00  0.00    -0.196 N 
ATOM      2  C2  IND d   1       0.895   1.503  -0.667  0.00  0.00     0.054 A 
ATOM      3  C3  IND d   1      -0.058   1.379   0.284  0.00  0.00    -0.031 A 
ATOM      4  C4  IND d   1      -1.139  -0.748   1.249  0.00  0.00     0.051 A 
ATOM      5  C5  IND d   1      -1.184  -2.104   1.083  0.00  0.00    -0.031 A 
ATOM      6  C6  IND d   1      -0.408  -2.749   0.141  0.00  0.00     0.015 A 
ATOM      7  C7  IND d   1       0.452  -2.060  -0.666  0.00  0.00    -0.016 A 
ATOM      8  C8  IND d   1       0.495  -0.683  -0.505  0.00  0.00    -0.047 A 
ATOM      9  C9  IND d   1      -0.321  -0.018   0.420  0.00  0.00    -0.096 A 
ATOM     10  HN1 IND d   1       1.801   0.128  -1.793  0.00  0.00     0.298 HD
ENDROOT
TORSDOF 0
ENDMDL
