MODEL 1
REMARK minimizedAffinity -4.47932196
REMARK minimizedRMSD -1
REMARK  0 active torsions:
REMARK  status: ('A' for Active; 'I' for Inactive)
ROOT
ATOM      1  N1  IND d   1       1.436   0.574  -0.756  0.00  0.00    -0.196 N 
ATOM      2  C2  IND d   1       0.811   1.753  -0.457  0.00  0.00     0.054 A 
ATOM      3  C3  IND d   1      -0.307   1.521   0.267  0.00  0.00    -0.031 A 
ATOM      4  C4  IND d   1      -1.247  -0.703   1.161  0.00  0.00     0.051 A 
ATOM      5  C5  IND d   1      -1.044  -2.054   1.115  0.00  0.00    -0.031 A 
ATOM      6  C6  IND d   1       0.019  -2.609   0.432  0.00  0.00     0.015 A 
ATOM      7  C7  IND d   1       0.929  -1.829  -0.224  0.00  0.00    -0.016 A 
ATOM      8  C8  IND d   1       0.722  -0.458  -0.186  0.00  0.00    -0.047 A 
ATOM      9  C9  IND d   1      -0.379   0.109   0.470  0.00  0.00    -0.096 A 
ATOM     10  HN1 IND d   1       2.153   0.491  -1.222  0.00  0.00     0.298 HD
ENDROOT
TORSDOF 0
ENDMDL
