MODEL 1
REMARK minimizedAffinity -3.10390782
REMARK minimizedRMSD -1
REMARK  0 active torsions:
REMARK  status: ('A' for Active; 'I' for Inactive)
ROOT
ATOM      1  N1  IND d   1       0.082   1.500   1.483  0.00  0.00    -0.196 N 
ATOM      2  C2  IND d   1       1.100   1.927   0.676  0.00  0.00     0.054 A 
ATOM      3  C3  IND d   1       1.541   0.913  -0.102  0.00  0.00    -0.031 A 
ATOM      4  C4  IND d   1       0.669  -1.502  -0.290  0.00  0.00     0.051 A 
ATOM      5  C5  IND d   1      -0.223  -2.372   0.271  0.00  0.00    -0.031 A 
ATOM      6  C6  IND d   1      -1.079  -1.987   1.283  0.00  0.00     0.015 A 
ATOM      7  C7  IND d   1      -1.081  -0.709   1.767  0.00  0.00    -0.016 A 
ATOM      8  C8  IND d   1      -0.172   0.175   1.204  0.00  0.00    -0.047 A 
ATOM      9  C9  IND d   1       0.728  -0.221   0.206  0.00  0.00    -0.096 A 
ATOM     10  HN1 IND d   1      -0.330   1.978   2.066  0.00  0.00     0.298 HD
ENDROOT
TORSDOF 0
ENDMDL
