MODEL 1
REMARK minimizedAffinity 5.62906027
REMARK minimizedRMSD -1
REMARK  0 active torsions:
REMARK  status: ('A' for Active; 'I' for Inactive)
ROOT
ATOM      1  C   UNL d   1       2.855   1.985   0.299  0.00  0.00     0.020 A 
ATOM      2  C1  UNL d   1       1.540   1.850   0.742  0.00  0.00     0.020 A 
ATOM      3  C2  UNL d   1       1.199   0.809   1.608  0.00  0.00     0.034 A 
ATOM      4  C3  UNL d   1       2.173  -0.100   2.034  0.00  0.00     0.017 A 
ATOM      5  C4  UNL d   1       3.493   0.036   1.589  0.00  0.00     0.017 A 
ATOM      6  C5  UNL d   1       3.829   1.080   0.722  0.00  0.00     0.034 A 
ATOM      7 Cl   UNL d   1       4.751  -1.047   2.072  0.00  0.00    -0.070 Cl
ATOM      8 Cl1  UNL d   1       1.681  -1.363   3.106  0.00  0.00    -0.070 Cl
ENDROOT
TORSDOF 0
ENDMDL
