MODEL 1
REMARK minimizedAffinity 4.1477356
REMARK minimizedRMSD -1
REMARK  0 active torsions:
REMARK  status: ('A' for Active; 'I' for Inactive)
ROOT
ATOM      1  C   UNL d   1      -3.285   3.180  -1.358  0.00  0.00     0.020 A 
ATOM      2  C1  UNL d   1      -3.008   1.877  -0.945  0.00  0.00     0.020 A 
ATOM      3  C2  UNL d   1      -3.215   0.808  -1.819  0.00  0.00     0.034 A 
ATOM      4  C3  UNL d   1      -3.702   1.040  -3.111  0.00  0.00     0.017 A 
ATOM      5  C4  UNL d   1      -3.980   2.347  -3.525  0.00  0.00     0.017 A 
ATOM      6  C5  UNL d   1      -3.770   3.414  -2.645  0.00  0.00     0.034 A 
ATOM      7 Cl   UNL d   1      -4.582   2.712  -5.103  0.00  0.00    -0.070 Cl
ATOM      8 Cl1  UNL d   1      -3.934  -0.329  -4.139  0.00  0.00    -0.070 Cl
ENDROOT
TORSDOF 0
ENDMDL
