MODEL 1
REMARK minimizedAffinity 8.86729431
REMARK minimizedRMSD -1
REMARK  0 active torsions:
REMARK  status: ('A' for Active; 'I' for Inactive)
ROOT
ATOM      1  C   UNL d   1      -2.863   1.827  -1.059  0.00  0.00     0.020 A 
ATOM      2  C1  UNL d   1      -3.240   3.116  -1.433  0.00  0.00     0.020 A 
ATOM      3  C2  UNL d   1      -3.892   3.328  -2.649  0.00  0.00     0.034 A 
ATOM      4  C3  UNL d   1      -4.169   2.249  -3.496  0.00  0.00     0.017 A 
ATOM      5  C4  UNL d   1      -3.790   0.955  -3.120  0.00  0.00     0.017 A 
ATOM      6  C5  UNL d   1      -3.138   0.749  -1.901  0.00  0.00     0.034 A 
ATOM      7 Cl   UNL d   1      -4.098  -0.427  -4.112  0.00  0.00    -0.070 Cl
ATOM      8 Cl1  UNL d   1      -4.979   2.583  -4.985  0.00  0.00    -0.070 Cl
ENDROOT
TORSDOF 0
ENDMDL
