MODEL 1
REMARK minimizedAffinity 5.31627512
REMARK minimizedRMSD -1
REMARK  0 active torsions:
REMARK  status: ('A' for Active; 'I' for Inactive)
ROOT
ATOM      1  C   UNL d   1       5.785   5.973  -4.596  0.00  0.00     0.020 A 
ATOM      2  C1  UNL d   1       4.484   5.965  -5.099  0.00  0.00     0.020 A 
ATOM      3  C2  UNL d   1       3.397   5.967  -4.222  0.00  0.00     0.034 A 
ATOM      4  C3  UNL d   1       3.608   5.978  -2.839  0.00  0.00     0.017 A 
ATOM      5  C4  UNL d   1       4.914   5.986  -2.335  0.00  0.00     0.017 A 
ATOM      6  C5  UNL d   1       5.999   5.984  -3.217  0.00  0.00     0.034 A 
ATOM      7 Cl   UNL d   1       5.254   6.000  -0.641  0.00  0.00    -0.070 Cl
ATOM      8 Cl1  UNL d   1       2.217   5.981  -1.814  0.00  0.00    -0.070 Cl
ENDROOT
TORSDOF 0
ENDMDL
