MODEL 1
REMARK minimizedAffinity 9.09176731
REMARK minimizedRMSD -1
REMARK  0 active torsions:
REMARK  status: ('A' for Active; 'I' for Inactive)
ROOT
ATOM      1  C   UNL d   1      -5.324  -5.628  -5.882  0.00  0.00     0.020 A 
ATOM      2  C1  UNL d   1      -5.927  -4.376  -5.999  0.00  0.00     0.020 A 
ATOM      3  C2  UNL d   1      -5.847  -3.462  -4.946  0.00  0.00     0.034 A 
ATOM      4  C3  UNL d   1      -5.163  -3.798  -3.772  0.00  0.00     0.017 A 
ATOM      5  C4  UNL d   1      -4.558  -5.055  -3.656  0.00  0.00     0.017 A 
ATOM      6  C5  UNL d   1      -4.641  -5.967  -4.713  0.00  0.00     0.034 A 
ATOM      7 Cl   UNL d   1      -3.697  -5.542  -2.239  0.00  0.00    -0.070 Cl
ATOM      8 Cl1  UNL d   1      -5.104  -2.619  -2.511  0.00  0.00    -0.070 Cl
ENDROOT
TORSDOF 0
ENDMDL
