MODEL 1
REMARK minimizedAffinity 9.93240738
REMARK minimizedRMSD -1
REMARK  0 active torsions:
REMARK  status: ('A' for Active; 'I' for Inactive)
ROOT
ATOM      1  C   UNL d   1       2.420  -1.886   2.905  0.00  0.00     0.020 A 
ATOM      2  C1  UNL d   1       1.186  -2.443   2.570  0.00  0.00     0.020 A 
ATOM      3  C2  UNL d   1       0.277  -1.713   1.800  0.00  0.00     0.034 A 
ATOM      4  C3  UNL d   1       0.601  -0.424   1.363  0.00  0.00     0.017 A 
ATOM      5  C4  UNL d   1       1.839   0.134   1.701  0.00  0.00     0.017 A 
ATOM      6  C5  UNL d   1       2.745  -0.601   2.472  0.00  0.00     0.034 A 
ATOM      7 Cl   UNL d   1       2.309   1.720   1.199  0.00  0.00    -0.070 Cl
ATOM      8 Cl1  UNL d   1      -0.571   0.421   0.415  0.00  0.00    -0.070 Cl
ENDROOT
TORSDOF 0
ENDMDL
