MODEL 1
REMARK minimizedAffinity 14.3065834
REMARK minimizedRMSD -1
REMARK  0 active torsions:
REMARK  status: ('A' for Active; 'I' for Inactive)
ROOT
ATOM      1  C   UNL d   1      -3.709   2.157  -3.045  0.00  0.00     0.020 A 
ATOM      2  C1  UNL d   1      -3.155   0.885  -3.179  0.00  0.00     0.020 A 
ATOM      3  C2  UNL d   1      -2.614   0.237  -2.067  0.00  0.00     0.034 A 
ATOM      4  C3  UNL d   1      -2.626   0.862  -0.814  0.00  0.00     0.017 A 
ATOM      5  C4  UNL d   1      -3.182   2.139  -0.680  0.00  0.00     0.017 A 
ATOM      6  C5  UNL d   1      -3.723   2.783  -1.798  0.00  0.00     0.034 A 
ATOM      7 Cl   UNL d   1      -3.233   2.974   0.833  0.00  0.00    -0.070 Cl
ATOM      8 Cl1  UNL d   1      -1.940   0.003   0.519  0.00  0.00    -0.070 Cl
ENDROOT
TORSDOF 0
ENDMDL
