MODEL 1
REMARK minimizedAffinity 2.73306513
REMARK minimizedRMSD -1
REMARK  0 active torsions:
REMARK  status: ('A' for Active; 'I' for Inactive)
ROOT
ATOM      1  C   UNL d   1       3.392  -5.905  -1.467  0.00  0.00     0.020 A 
ATOM      2  C1  UNL d   1       2.107  -5.680  -1.960  0.00  0.00     0.020 A 
ATOM      3  C2  UNL d   1       1.901  -5.551  -3.335  0.00  0.00     0.034 A 
ATOM      4  C3  UNL d   1       2.980  -5.646  -4.221  0.00  0.00     0.017 A 
ATOM      5  C4  UNL d   1       4.269  -5.871  -3.725  0.00  0.00     0.017 A 
ATOM      6  C5  UNL d   1       4.470  -6.000  -2.347  0.00  0.00     0.034 A 
ATOM      7 Cl   UNL d   1       5.650  -6.000  -4.756  0.00  0.00    -0.070 Cl
ATOM      8 Cl1  UNL d   1       2.651  -5.477  -5.909  0.00  0.00    -0.070 Cl
ENDROOT
TORSDOF 0
ENDMDL
