MODEL 1
REMARK minimizedAffinity 5.33534765
REMARK minimizedRMSD -1
REMARK  0 active torsions:
REMARK  status: ('A' for Active; 'I' for Inactive)
ROOT
ATOM      1  C   UNL d   1       5.998  -3.977   3.469  0.00  0.00     0.020 A 
ATOM      2  C1  UNL d   1       5.407  -3.374   4.579  0.00  0.00     0.020 A 
ATOM      3  C2  UNL d   1       4.039  -3.531   4.812  0.00  0.00     0.034 A 
ATOM      4  C3  UNL d   1       3.258  -4.292   3.935  0.00  0.00     0.017 A 
ATOM      5  C4  UNL d   1       3.852  -4.897   2.822  0.00  0.00     0.017 A 
ATOM      6  C5  UNL d   1       5.222  -4.737   2.593  0.00  0.00     0.034 A 
ATOM      7 Cl   UNL d   1       2.953  -5.851   1.696  0.00  0.00    -0.070 Cl
ATOM      8 Cl1  UNL d   1       1.573  -4.443   4.286  0.00  0.00    -0.070 Cl
ENDROOT
TORSDOF 0
ENDMDL
