MODEL 1
REMARK minimizedAffinity 2.6781249
REMARK minimizedRMSD -1
REMARK  0 active torsions:
REMARK  status: ('A' for Active; 'I' for Inactive)
ROOT
ATOM      1  C   UNL d   1       3.207  -0.533  -0.332  0.00  0.00     0.020 A 
ATOM      2  C1  UNL d   1       3.785   0.581   0.276  0.00  0.00     0.020 A 
ATOM      3  C2  UNL d   1       3.421   0.933   1.577  0.00  0.00     0.034 A 
ATOM      4  C3  UNL d   1       2.478   0.170   2.275  0.00  0.00     0.017 A 
ATOM      5  C4  UNL d   1       1.899  -0.948   1.664  0.00  0.00     0.017 A 
ATOM      6  C5  UNL d   1       2.266  -1.296   0.360  0.00  0.00     0.034 A 
ATOM      7 Cl   UNL d   1       0.728  -1.938   2.462  0.00  0.00    -0.070 Cl
ATOM      8 Cl1  UNL d   1       2.076   0.662   3.882  0.00  0.00    -0.070 Cl
ENDROOT
TORSDOF 0
ENDMDL
