MODEL 1
REMARK minimizedAffinity 10.0553389
REMARK minimizedRMSD -1
REMARK  0 active torsions:
REMARK  status: ('A' for Active; 'I' for Inactive)
ROOT
ATOM      1  C   UNL d   1      -5.962  -3.866  -6.000  0.00  0.00     0.020 A 
ATOM      2  C1  UNL d   1      -5.680  -5.225  -5.865  0.00  0.00     0.020 A 
ATOM      3  C2  UNL d   1      -4.981  -5.685  -4.747  0.00  0.00     0.034 A 
ATOM      4  C3  UNL d   1      -4.560  -4.786  -3.761  0.00  0.00     0.017 A 
ATOM      5  C4  UNL d   1      -4.843  -3.422  -3.897  0.00  0.00     0.017 A 
ATOM      6  C5  UNL d   1      -5.544  -2.967  -5.018  0.00  0.00     0.034 A 
ATOM      7 Cl   UNL d   1      -4.357  -2.253  -2.721  0.00  0.00    -0.070 Cl
ATOM      8 Cl1  UNL d   1      -3.700  -5.425  -2.405  0.00  0.00    -0.070 Cl
ENDROOT
TORSDOF 0
ENDMDL
