MODEL 1
REMARK minimizedAffinity 4.90815687
REMARK minimizedRMSD -1
REMARK  0 active torsions:
REMARK  status: ('A' for Active; 'I' for Inactive)
ROOT
ATOM      1  C   UNL d   1       2.197  -1.230   2.226  0.00  0.00     0.020 A 
ATOM      2  C1  UNL d   1       1.093  -1.656   2.963  0.00  0.00     0.020 A 
ATOM      3  C2  UNL d   1       1.249  -2.620   3.962  0.00  0.00     0.034 A 
ATOM      4  C3  UNL d   1       2.513  -3.161   4.225  0.00  0.00     0.017 A 
ATOM      5  C4  UNL d   1       3.620  -2.733   3.484  0.00  0.00     0.017 A 
ATOM      6  C5  UNL d   1       3.458  -1.768   2.486  0.00  0.00     0.034 A 
ATOM      7 Cl   UNL d   1       5.211  -3.355   3.752  0.00  0.00    -0.070 Cl
ATOM      8 Cl1  UNL d   1       2.633  -4.349   5.474  0.00  0.00    -0.070 Cl
ENDROOT
TORSDOF 0
ENDMDL
