MODEL 1
REMARK minimizedAffinity 11.5174675
REMARK minimizedRMSD -1
REMARK  0 active torsions:
REMARK  status: ('A' for Active; 'I' for Inactive)
ROOT
ATOM      1  C   UNL d   1       0.967  -1.026   1.675  0.00  0.00     0.020 A 
ATOM      2  C1  UNL d   1       2.278  -0.576   1.828  0.00  0.00     0.020 A 
ATOM      3  C2  UNL d   1       3.145  -1.237   2.700  0.00  0.00     0.034 A 
ATOM      4  C3  UNL d   1       2.704  -2.352   3.422  0.00  0.00     0.017 A 
ATOM      5  C4  UNL d   1       1.388  -2.803   3.267  0.00  0.00     0.017 A 
ATOM      6  C5  UNL d   1       0.524  -2.138   2.392  0.00  0.00     0.034 A 
ATOM      7 Cl   UNL d   1       0.771  -4.172   4.123  0.00  0.00    -0.070 Cl
ATOM      8 Cl1  UNL d   1       3.831  -3.120   4.482  0.00  0.00    -0.070 Cl
ENDROOT
TORSDOF 0
ENDMDL
