MODEL 1
REMARK minimizedAffinity 0.774582267
REMARK minimizedRMSD -1
REMARK  1 active torsions:
REMARK  status: ('A' for Active; 'I' for Inactive)
REMARK    1  A    between atoms: C1_2  and  C2_3 
ROOT
ATOM      1  C2  UNL d   1      -0.640   0.759   2.047  0.00  0.00    -0.077 A 
ATOM      2  C3  UNL d   1      -0.923  -0.036   0.927  0.00  0.00     0.002 A 
ATOM      3  C4  UNL d   1      -2.188  -0.003   0.339  0.00  0.00     0.002 A 
ATOM      4  C5  UNL d   1      -3.179   0.827   0.860  0.00  0.00    -0.004 A 
ATOM      5  C6  UNL d   1      -2.908   1.620   1.974  0.00  0.00     0.002 A 
ATOM      6  C7  UNL d   1      -1.644   1.586   2.565  0.00  0.00     0.002 A 
ENDROOT
BRANCH   1   7
ATOM      7  C1  UNL d   1       0.739   0.761   2.653  0.00  0.00     0.055 C 
ATOM      8  C   UNL d   1       1.481  -0.532   2.344  0.00  0.00     0.019 C 
ENDBRANCH   1   7
TORSDOF 1
ENDMDL
