MODEL 1
REMARK minimizedAffinity 2.69634748
REMARK minimizedRMSD -1
REMARK  1 active torsions:
REMARK  status: ('A' for Active; 'I' for Inactive)
REMARK    1  A    between atoms: C1_2  and  C2_3 
ROOT
ATOM      1  C2  UNL d   1      -5.780   3.129   3.617  0.00  0.00    -0.077 A 
ATOM      2  C3  UNL d   1      -5.913   1.735   3.543  0.00  0.00     0.002 A 
ATOM      3  C4  UNL d   1      -5.765   0.950   4.688  0.00  0.00     0.002 A 
ATOM      4  C5  UNL d   1      -5.488   1.549   5.915  0.00  0.00    -0.004 A 
ATOM      5  C6  UNL d   1      -5.352   2.934   5.998  0.00  0.00     0.002 A 
ATOM      6  C7  UNL d   1      -5.498   3.720   4.855  0.00  0.00     0.002 A 
ENDROOT
BRANCH   1   7
ATOM      7  C1  UNL d   1      -5.987   3.982   2.393  0.00  0.00     0.055 C 
ATOM      8  C   UNL d   1      -5.034   3.586   1.274  0.00  0.00     0.019 C 
ENDBRANCH   1   7
TORSDOF 1
ENDMDL
