MODEL 1
REMARK minimizedAffinity 4.62114906
REMARK minimizedRMSD -1
REMARK  1 active torsions:
REMARK  status: ('A' for Active; 'I' for Inactive)
REMARK    1  A    between atoms: C1_2  and  C2_3 
ROOT
ATOM      1  C2  UNL d   1      -1.024   0.804   1.651  0.00  0.00    -0.077 A 
ATOM      2  C3  UNL d   1       0.110   1.135   2.406  0.00  0.00     0.002 A 
ATOM      3  C4  UNL d   1      -0.012   1.904   3.565  0.00  0.00     0.002 A 
ATOM      4  C5  UNL d   1      -1.266   2.344   3.981  0.00  0.00    -0.004 A 
ATOM      5  C6  UNL d   1      -2.400   2.023   3.236  0.00  0.00     0.002 A 
ATOM      6  C7  UNL d   1      -2.280   1.255   2.077  0.00  0.00     0.002 A 
ENDROOT
BRANCH   1   7
ATOM      7  C1  UNL d   1      -0.900  -0.066   0.428  0.00  0.00     0.055 C 
ATOM      8  C   UNL d   1      -2.265  -0.520  -0.069  0.00  0.00     0.019 C 
ENDBRANCH   1   7
TORSDOF 1
ENDMDL
