MODEL 1
REMARK minimizedAffinity 4.28747606
REMARK minimizedRMSD -1
REMARK  1 active torsions:
REMARK  status: ('A' for Active; 'I' for Inactive)
REMARK    1  A    between atoms: C1_2  and  C2_3 
ROOT
ATOM      1  C2  UNL d   1       1.111   0.405   0.841  0.00  0.00    -0.077 A 
ATOM      2  C3  UNL d   1       1.390   1.244   1.928  0.00  0.00     0.002 A 
ATOM      3  C4  UNL d   1       0.381   1.593   2.828  0.00  0.00     0.002 A 
ATOM      4  C5  UNL d   1      -0.912   1.104   2.653  0.00  0.00    -0.004 A 
ATOM      5  C6  UNL d   1      -1.200   0.270   1.573  0.00  0.00     0.002 A 
ATOM      6  C7  UNL d   1      -0.193  -0.079   0.672  0.00  0.00     0.002 A 
ENDROOT
BRANCH   1   7
ATOM      7  C1  UNL d   1       2.208  -0.012  -0.103  0.00  0.00     0.055 C 
ATOM      8  C   UNL d   1       3.554  -0.069   0.604  0.00  0.00     0.019 C 
ENDBRANCH   1   7
TORSDOF 1
ENDMDL
