MODEL 1
REMARK minimizedAffinity 0.541267633
REMARK minimizedRMSD -1
REMARK  1 active torsions:
REMARK  status: ('A' for Active; 'I' for Inactive)
REMARK    1  A    between atoms: C1_2  and  C2_3 
ROOT
ATOM      1  C2  UNL d   1       0.378  -0.017   1.109  0.00  0.00    -0.077 A 
ATOM      2  C3  UNL d   1      -0.859  -0.146   0.462  0.00  0.00     0.002 A 
ATOM      3  C4  UNL d   1      -2.001   0.452   0.997  0.00  0.00     0.002 A 
ATOM      4  C5  UNL d   1      -1.918   1.185   2.179  0.00  0.00    -0.004 A 
ATOM      5  C6  UNL d   1      -0.692   1.317   2.831  0.00  0.00     0.002 A 
ATOM      6  C7  UNL d   1       0.451   0.719   2.298  0.00  0.00     0.002 A 
ENDROOT
BRANCH   1   7
ATOM      7  C1  UNL d   1       1.621  -0.619   0.507  0.00  0.00     0.055 C 
ATOM      8  C   UNL d   1       2.443   0.428  -0.230  0.00  0.00     0.019 C 
ENDBRANCH   1   7
TORSDOF 1
ENDMDL
