MODEL 1
REMARK minimizedAffinity 6.46955824
REMARK minimizedRMSD -1
REMARK  1 active torsions:
REMARK  status: ('A' for Active; 'I' for Inactive)
REMARK    1  A    between atoms: C1_2  and  C2_3 
ROOT
ATOM      1  C2  UNL d   1      -3.490   1.477   2.439  0.00  0.00    -0.077 A 
ATOM      2  C3  UNL d   1      -3.589   1.999   3.736  0.00  0.00     0.002 A 
ATOM      3  C4  UNL d   1      -4.839   2.278   4.292  0.00  0.00     0.002 A 
ATOM      4  C5  UNL d   1      -5.999   2.034   3.560  0.00  0.00    -0.004 A 
ATOM      5  C6  UNL d   1      -5.911   1.517   2.268  0.00  0.00     0.002 A 
ATOM      6  C7  UNL d   1      -4.663   1.239   1.710  0.00  0.00     0.002 A 
ENDROOT
BRANCH   1   7
ATOM      7  C1  UNL d   1      -2.145   1.130   1.857  0.00  0.00     0.055 C 
ATOM      8  C   UNL d   1      -2.270   0.077   0.765  0.00  0.00     0.019 C 
ENDBRANCH   1   7
TORSDOF 1
ENDMDL
