MODEL 1
REMARK minimizedAffinity -3.32094288
REMARK minimizedRMSD -1
REMARK  1 active torsions:
REMARK  status: ('A' for Active; 'I' for Inactive)
REMARK    1  A    between atoms: C1_2  and  C2_3 
ROOT
ATOM      1  C2  UNL d   1      -3.086   1.189   2.104  0.00  0.00    -0.077 A 
ATOM      2  C3  UNL d   1      -2.782   0.581   0.878  0.00  0.00     0.002 A 
ATOM      3  C4  UNL d   1      -1.483   0.145   0.609  0.00  0.00     0.002 A 
ATOM      4  C5  UNL d   1      -0.480   0.308   1.562  0.00  0.00    -0.004 A 
ATOM      5  C6  UNL d   1      -0.772   0.914   2.783  0.00  0.00     0.002 A 
ATOM      6  C7  UNL d   1      -2.070   1.352   3.053  0.00  0.00     0.002 A 
ENDROOT
BRANCH   1   7
ATOM      7  C1  UNL d   1      -4.497   1.615   2.415  0.00  0.00     0.055 C 
ATOM      8  C   UNL d   1      -4.805   1.470   3.898  0.00  0.00     0.019 C 
ENDBRANCH   1   7
TORSDOF 1
ENDMDL
