MODEL 1
REMARK minimizedAffinity 6.69016457
REMARK minimizedRMSD -1
REMARK  1 active torsions:
REMARK  status: ('A' for Active; 'I' for Inactive)
REMARK    1  A    between atoms: C1_2  and  C2_3 
ROOT
ATOM      1  C2  UNL d   1      -0.887   0.262   1.385  0.00  0.00    -0.077 A 
ATOM      2  C3  UNL d   1      -1.042   0.963   2.589  0.00  0.00     0.002 A 
ATOM      3  C4  UNL d   1      -2.268   1.547   2.914  0.00  0.00     0.002 A 
ATOM      4  C5  UNL d   1      -3.349   1.431   2.044  0.00  0.00    -0.004 A 
ATOM      5  C6  UNL d   1      -3.205   0.737   0.843  0.00  0.00     0.002 A 
ATOM      6  C7  UNL d   1      -1.980   0.154   0.516  0.00  0.00     0.002 A 
ENDROOT
BRANCH   1   7
ATOM      7  C1  UNL d   1       0.420  -0.410   1.055  0.00  0.00     0.055 C 
ATOM      8  C   UNL d   1       1.502   0.611   0.737  0.00  0.00     0.019 C 
ENDBRANCH   1   7
TORSDOF 1
ENDMDL
