MODEL 1
REMARK minimizedAffinity 1.1175642
REMARK minimizedRMSD -1
REMARK  1 active torsions:
REMARK  status: ('A' for Active; 'I' for Inactive)
REMARK    1  A    between atoms: C1_2  and  C2_3 
ROOT
ATOM      1  C2  UNL d   1       2.692   3.345  -5.694  0.00  0.00    -0.077 A 
ATOM      2  C3  UNL d   1       3.826   4.110  -5.999  0.00  0.00     0.002 A 
ATOM      3  C4  UNL d   1       5.095   3.528  -5.991  0.00  0.00     0.002 A 
ATOM      4  C5  UNL d   1       5.240   2.177  -5.683  0.00  0.00    -0.004 A 
ATOM      5  C6  UNL d   1       4.119   1.407  -5.376  0.00  0.00     0.002 A 
ATOM      6  C7  UNL d   1       2.850   1.988  -5.383  0.00  0.00     0.002 A 
ENDROOT
BRANCH   1   7
ATOM      7  C1  UNL d   1       1.318   3.960  -5.751  0.00  0.00     0.055 C 
ATOM      8  C   UNL d   1       0.245   2.900  -5.956  0.00  0.00     0.019 C 
ENDBRANCH   1   7
TORSDOF 1
ENDMDL
