MODEL 1
REMARK minimizedAffinity -3.629246
REMARK minimizedRMSD -1
REMARK  0 active torsions:
REMARK  status: ('A' for Active; 'I' for Inactive)
ROOT
ATOM      1  C4' PXY d   1       0.995  -1.578  -0.815  0.00  0.00     0.077 C 
ATOM      2  C1' PXY d   1      -1.495   2.804   2.016  0.00  0.00     0.077 C 
ATOM      3  C1  PXY d   1      -0.833   1.654   1.283  0.00  0.00    -0.082 A 
ATOM      4  C2  PXY d   1      -1.020   1.514  -0.019  0.00  0.00     0.003 A 
ATOM      5  C3  PXY d   1      -0.455   0.461  -0.692  0.00  0.00     0.003 A 
ATOM      6  C4  PXY d   1       0.354  -0.427  -0.035  0.00  0.00    -0.082 A 
ATOM      7  C5  PXY d   1       0.559  -0.285   1.292  0.00  0.00     0.003 A 
ATOM      8  C6  PXY d   1      -0.057   0.767   1.964  0.00  0.00     0.003 A 
ENDROOT
TORSDOF 0
ENDMDL
