MODEL 1
REMARK minimizedAffinity -2.82271481
REMARK minimizedRMSD -1
REMARK  0 active torsions:
REMARK  status: ('A' for Active; 'I' for Inactive)
ROOT
ATOM      1  C4' PXY d   1      -1.474   2.525   1.124  0.00  0.00     0.077 C 
ATOM      2  C1' PXY d   1       1.035  -2.123  -1.226  0.00  0.00     0.077 C 
ATOM      3  C1  PXY d   1       0.379  -0.898  -0.621  0.00  0.00    -0.082 A 
ATOM      4  C2  PXY d   1       0.383  -0.734   0.692  0.00  0.00     0.003 A 
ATOM      5  C3  PXY d   1      -0.233   0.352   1.258  0.00  0.00     0.003 A 
ATOM      6  C4  PXY d   1      -0.815   1.308   0.469  0.00  0.00    -0.082 A 
ATOM      7  C5  PXY d   1      -0.815   1.153  -0.872  0.00  0.00     0.003 A 
ATOM      8  C6  PXY d   1      -0.219   0.023  -1.425  0.00  0.00     0.003 A 
ENDROOT
TORSDOF 0
ENDMDL
