MODEL 1
REMARK minimizedAffinity -4.20285988
REMARK minimizedRMSD -1
REMARK  0 active torsions:
REMARK  status: ('A' for Active; 'I' for Inactive)
ROOT
ATOM      1  C4' PXY d   1      -0.163  -2.114  -0.588  0.00  0.00     0.077 C 
ATOM      2  C1' PXY d   1      -1.078   3.043   1.858  0.00  0.00     0.077 C 
ATOM      3  C1  PXY d   1      -0.827   1.690   1.222  0.00  0.00    -0.082 A 
ATOM      4  C2  PXY d   1      -1.453   1.367   0.102  0.00  0.00     0.003 A 
ATOM      5  C3  PXY d   1      -1.261   0.135  -0.468  0.00  0.00     0.003 A 
ATOM      6  C4  PXY d   1      -0.379  -0.755   0.084  0.00  0.00    -0.082 A 
ATOM      7  C5  PXY d   1       0.272  -0.429   1.221  0.00  0.00     0.003 A 
ATOM      8  C6  PXY d   1       0.032   0.811   1.807  0.00  0.00     0.003 A 
ENDROOT
TORSDOF 0
ENDMDL
