MODEL 1
REMARK minimizedAffinity -3.4271791
REMARK minimizedRMSD -1
REMARK  0 active torsions:
REMARK  status: ('A' for Active; 'I' for Inactive)
ROOT
ATOM      1  C4' PXY d   1       2.067  -1.847   3.499  0.00  0.00     0.077 C 
ATOM      2  C1' PXY d   1      -1.257   2.601   1.893  0.00  0.00     0.077 C 
ATOM      3  C1  PXY d   1      -0.383   1.432   2.302  0.00  0.00    -0.082 A 
ATOM      4  C2  PXY d   1      -0.549   0.875   3.491  0.00  0.00     0.003 A 
ATOM      5  C3  PXY d   1       0.254  -0.163   3.889  0.00  0.00     0.003 A 
ATOM      6  C4  PXY d   1       1.201  -0.670   3.040  0.00  0.00    -0.082 A 
ATOM      7  C5  PXY d   1       1.370  -0.115   1.822  0.00  0.00     0.003 A 
ATOM      8  C6  PXY d   1       0.572   0.964   1.453  0.00  0.00     0.003 A 
ENDROOT
TORSDOF 0
ENDMDL
