MODEL 1
REMARK minimizedAffinity -4.34104681
REMARK minimizedRMSD -1
REMARK  0 active torsions:
REMARK  status: ('A' for Active; 'I' for Inactive)
ROOT
ATOM      1  C4' PXY d   1       0.941  -2.414  -1.303  0.00  0.00     0.077 C 
ATOM      2  C1' PXY d   1      -0.806   2.123   1.825  0.00  0.00     0.077 C 
ATOM      3  C1  PXY d   1      -0.358   0.935   0.996  0.00  0.00    -0.082 A 
ATOM      4  C2  PXY d   1       0.375  -0.014   1.556  0.00  0.00     0.003 A 
ATOM      5  C3  PXY d   1       0.816  -1.079   0.813  0.00  0.00     0.003 A 
ATOM      6  C4  PXY d   1       0.458  -1.201  -0.502  0.00  0.00    -0.082 A 
ATOM      7  C5  PXY d   1      -0.299  -0.243  -1.078  0.00  0.00     0.003 A 
ATOM      8  C6  PXY d   1      -0.701   0.851  -0.318  0.00  0.00     0.003 A 
ENDROOT
TORSDOF 0
ENDMDL
