MODEL 1
REMARK minimizedAffinity -4.54583311
REMARK minimizedRMSD -1
REMARK  0 active torsions:
REMARK  status: ('A' for Active; 'I' for Inactive)
ROOT
ATOM      1  C4' PXY d   1      -0.989   2.232   1.806  0.00  0.00     0.077 C 
ATOM      2  C1' PXY d   1       1.153  -2.315  -1.049  0.00  0.00     0.077 C 
ATOM      3  C1  PXY d   1       0.595  -1.128  -0.289  0.00  0.00    -0.082 A 
ATOM      4  C2  PXY d   1      -0.374  -0.405  -0.825  0.00  0.00     0.003 A 
ATOM      5  C3  PXY d   1      -0.868   0.691  -0.166  0.00  0.00     0.003 A 
ATOM      6  C4  PXY d   1      -0.402   1.019   1.079  0.00  0.00    -0.082 A 
ATOM      7  C5  PXY d   1       0.579   0.280   1.638  0.00  0.00     0.003 A 
ATOM      8  C6  PXY d   1       1.096  -0.804   0.934  0.00  0.00     0.003 A 
ENDROOT
TORSDOF 0
ENDMDL
