MODEL 1
REMARK minimizedAffinity -2.08650994
REMARK minimizedRMSD -1
REMARK  0 active torsions:
REMARK  status: ('A' for Active; 'I' for Inactive)
ROOT
ATOM      1  C4' PXY d   1       0.644  -1.787  -1.668  0.00  0.00     0.077 C 
ATOM      2  C1' PXY d   1      -1.141   2.388   1.910  0.00  0.00     0.077 C 
ATOM      3  C1  PXY d   1      -0.662   1.291   0.978  0.00  0.00    -0.082 A 
ATOM      4  C2  PXY d   1      -1.121   1.240  -0.262  0.00  0.00     0.003 A 
ATOM      5  C3  PXY d   1      -0.723   0.236  -1.107  0.00  0.00     0.003 A 
ATOM      6  C4  PXY d   1       0.195  -0.692  -0.696  0.00  0.00    -0.082 A 
ATOM      7  C5  PXY d   1       0.676  -0.640   0.564  0.00  0.00     0.003 A 
ATOM      8  C6  PXY d   1       0.228   0.362   1.420  0.00  0.00     0.003 A 
ENDROOT
TORSDOF 0
ENDMDL
