MODEL 1
REMARK minimizedAffinity -5.08308601
REMARK minimizedRMSD -1
REMARK  0 active torsions:
REMARK  status: ('A' for Active; 'I' for Inactive)
ROOT
ATOM      1  C4' PXY d   1       0.458  -1.992  -1.132  0.00  0.00     0.077 C 
ATOM      2  C1' PXY d   1      -1.145   2.630   1.948  0.00  0.00     0.077 C 
ATOM      3  C1  PXY d   1      -0.731   1.422   1.130  0.00  0.00    -0.082 A 
ATOM      4  C2  PXY d   1      -0.433   0.288   1.742  0.00  0.00     0.003 A 
ATOM      5  C3  PXY d   1      -0.026  -0.804   1.020  0.00  0.00     0.003 A 
ATOM      6  C4  PXY d   1       0.026  -0.751  -0.347  0.00  0.00    -0.082 A 
ATOM      7  C5  PXY d   1      -0.286   0.400  -0.980  0.00  0.00     0.003 A 
ATOM      8  C6  PXY d   1      -0.658   1.510  -0.226  0.00  0.00     0.003 A 
ENDROOT
TORSDOF 0
ENDMDL
