MODEL 1
REMARK minimizedAffinity -5.2525363
REMARK minimizedRMSD -1
REMARK  0 active torsions:
REMARK  status: ('A' for Active; 'I' for Inactive)
ROOT
ATOM      1  C4' PXY d   1       0.903  -2.097  -0.561  0.00  0.00     0.077 C 
ATOM      2  C1' PXY d   1      -1.065   2.718   1.961  0.00  0.00     0.077 C 
ATOM      3  C1  PXY d   1      -0.559   1.455   1.291  0.00  0.00    -0.082 A 
ATOM      4  C2  PXY d   1       0.232   0.632   1.960  0.00  0.00     0.003 A 
ATOM      5  C3  PXY d   1       0.724  -0.498   1.360  0.00  0.00     0.003 A 
ATOM      6  C4  PXY d   1       0.361  -0.816   0.078  0.00  0.00    -0.082 A 
ATOM      7  C5  PXY d   1      -0.453   0.014  -0.608  0.00  0.00     0.003 A 
ATOM      8  C6  PXY d   1      -0.909   1.177   0.006  0.00  0.00     0.003 A 
ENDROOT
TORSDOF 0
ENDMDL
