MODEL 1
REMARK minimizedAffinity -4.23731232
REMARK minimizedRMSD -1
REMARK  0 active torsions:
REMARK  status: ('A' for Active; 'I' for Inactive)
ROOT
ATOM      1  C4' PXY d   1       0.437  -2.342  -1.102  0.00  0.00     0.077 C 
ATOM      2  C1' PXY d   1      -1.168   2.470   1.669  0.00  0.00     0.077 C 
ATOM      3  C1  PXY d   1      -0.750   1.214   0.931  0.00  0.00    -0.082 A 
ATOM      4  C2  PXY d   1      -0.757   0.051   1.563  0.00  0.00     0.003 A 
ATOM      5  C3  PXY d   1      -0.351  -1.090   0.920  0.00  0.00     0.003 A 
ATOM      6  C4  PXY d   1       0.014  -1.049  -0.399  0.00  0.00    -0.082 A 
ATOM      7  C5  PXY d   1       0.013   0.131  -1.054  0.00  0.00     0.003 A 
ATOM      8  C6  PXY d   1      -0.362   1.285  -0.372  0.00  0.00     0.003 A 
ENDROOT
TORSDOF 0
ENDMDL
