MODEL 1
REMARK minimizedAffinity -4.39138412
REMARK minimizedRMSD -1
REMARK  0 active torsions:
REMARK  status: ('A' for Active; 'I' for Inactive)
ROOT
ATOM      1  C4' PXY d   1       0.889  -0.894   2.755  0.00  0.00     0.077 C 
ATOM      2  C1' PXY d   1      -1.244   2.116  -1.695  0.00  0.00     0.077 C 
ATOM      3  C1  PXY d   1      -0.686   1.316  -0.535  0.00  0.00    -0.082 A 
ATOM      4  C2  PXY d   1      -0.783   1.793   0.695  0.00  0.00     0.003 A 
ATOM      5  C3  PXY d   1      -0.255   1.097   1.752  0.00  0.00     0.003 A 
ATOM      6  C4  PXY d   1       0.331  -0.124   1.554  0.00  0.00    -0.082 A 
ATOM      7  C5  PXY d   1       0.424  -0.623   0.303  0.00  0.00     0.003 A 
ATOM      8  C6  PXY d   1      -0.081   0.118  -0.761  0.00  0.00     0.003 A 
ENDROOT
TORSDOF 0
ENDMDL
