MODEL 1
REMARK minimizedAffinity -4.22415733
REMARK minimizedRMSD -1
REMARK  0 active torsions:
REMARK  status: ('A' for Active; 'I' for Inactive)
ROOT
ATOM      1  C4' PXY d   1      -1.553   2.667   1.578  0.00  0.00     0.077 C 
ATOM      2  C1' PXY d   1       1.257  -1.578  -1.161  0.00  0.00     0.077 C 
ATOM      3  C1  PXY d   1       0.519  -0.459  -0.454  0.00  0.00    -0.082 A 
ATOM      4  C2  PXY d   1       0.685  -0.285   0.847  0.00  0.00     0.003 A 
ATOM      5  C3  PXY d   1       0.001   0.703   1.508  0.00  0.00     0.003 A 
ATOM      6  C4  PXY d   1      -0.821   1.555   0.821  0.00  0.00    -0.082 A 
ATOM      7  C5  PXY d   1      -0.988   1.391  -0.508  0.00  0.00     0.003 A 
ATOM      8  C6  PXY d   1      -0.316   0.357  -1.154  0.00  0.00     0.003 A 
ENDROOT
TORSDOF 0
ENDMDL
