MODEL 1
REMARK minimizedAffinity -4.40200329
REMARK minimizedRMSD -1
REMARK  0 active torsions:
REMARK  status: ('A' for Active; 'I' for Inactive)
ROOT
ATOM      1  C4' PXY d   1       0.376  -2.996  -1.351  0.00  0.00     0.077 C 
ATOM      2  C1' PXY d   1      -0.194   1.994   1.510  0.00  0.00     0.077 C 
ATOM      3  C1  PXY d   1      -0.048   0.692   0.748  0.00  0.00    -0.082 A 
ATOM      4  C2  PXY d   1      -0.169  -0.459   1.391  0.00  0.00     0.003 A 
ATOM      5  C3  PXY d   1      -0.008  -1.646   0.724  0.00  0.00     0.003 A 
ATOM      6  C4  PXY d   1       0.227  -1.656  -0.625  0.00  0.00    -0.082 A 
ATOM      7  C5  PXY d   1       0.341  -0.487  -1.290  0.00  0.00     0.003 A 
ATOM      8  C6  PXY d   1       0.215   0.708  -0.587  0.00  0.00     0.003 A 
ENDROOT
TORSDOF 0
ENDMDL
