MODEL 1
REMARK minimizedAffinity -2.90894747
REMARK minimizedRMSD -1
REMARK  0 active torsions:
REMARK  status: ('A' for Active; 'I' for Inactive)
ROOT
ATOM      1  C   UNL d   1      -1.369   2.299   2.293  0.00  0.00     0.023 A 
ATOM      2  C1  UNL d   1      -0.230   1.568   2.630  0.00  0.00     0.003 A 
ATOM      3  C2  UNL d   1       0.272   0.608   1.749  0.00  0.00     0.048 A 
ATOM      4  C3  UNL d   1      -0.371   0.385   0.531  0.00  0.00     0.023 A 
ATOM      5  C4  UNL d   1      -1.510   1.115   0.189  0.00  0.00     0.048 A 
ATOM      6  C5  UNL d   1      -2.008   2.073   1.074  0.00  0.00     0.003 A 
ATOM      7  I   UNL d   1       0.374  -1.044  -0.782  0.00  0.00    -0.146 I 
ENDROOT
TORSDOF 0
ENDMDL
