MODEL 1
REMARK minimizedAffinity -3.80909538
REMARK minimizedRMSD -1
REMARK  0 active torsions:
REMARK  status: ('A' for Active; 'I' for Inactive)
ROOT
ATOM      1  C   UNL d   1      -1.868   2.243   0.749  0.00  0.00     0.023 A 
ATOM      2  C1  UNL d   1      -1.114   2.587   1.871  0.00  0.00     0.003 A 
ATOM      3  C2  UNL d   1       0.002   1.825   2.224  0.00  0.00     0.048 A 
ATOM      4  C3  UNL d   1       0.358   0.721   1.450  0.00  0.00     0.023 A 
ATOM      5  C4  UNL d   1      -0.393   0.374   0.326  0.00  0.00     0.048 A 
ATOM      6  C5  UNL d   1      -1.508   1.138  -0.022  0.00  0.00     0.003 A 
ATOM      7  I   UNL d   1       2.018  -0.415   1.973  0.00  0.00    -0.146 I 
ENDROOT
TORSDOF 0
ENDMDL
