MODEL 1
REMARK minimizedAffinity -0.602079391
REMARK minimizedRMSD -1
REMARK  0 active torsions:
REMARK  status: ('A' for Active; 'I' for Inactive)
ROOT
ATOM      1  C   UNL d   1       0.169  -0.249  -1.932  0.00  0.00     0.023 A 
ATOM      2  C1  UNL d   1       0.025  -0.790  -0.654  0.00  0.00     0.003 A 
ATOM      3  C2  UNL d   1      -0.335   0.031   0.416  0.00  0.00     0.048 A 
ATOM      4  C3  UNL d   1      -0.551   1.392   0.202  0.00  0.00     0.023 A 
ATOM      5  C4  UNL d   1      -0.409   1.937  -1.075  0.00  0.00     0.048 A 
ATOM      6  C5  UNL d   1      -0.048   1.113  -2.142  0.00  0.00     0.003 A 
ATOM      7  I   UNL d   1      -1.087   2.616   1.794  0.00  0.00    -0.146 I 
ENDROOT
TORSDOF 0
ENDMDL
