MODEL 1
REMARK minimizedAffinity -2.05395627
REMARK minimizedRMSD -1
REMARK  0 active torsions:
REMARK  status: ('A' for Active; 'I' for Inactive)
ROOT
ATOM      1  C   UNL d   1      -0.560   2.204   2.074  0.00  0.00     0.023 A 
ATOM      2  C1  UNL d   1      -1.391   2.003   0.972  0.00  0.00     0.003 A 
ATOM      3  C2  UNL d   1      -1.165   0.926   0.113  0.00  0.00     0.048 A 
ATOM      4  C3  UNL d   1      -0.107   0.052   0.362  0.00  0.00     0.023 A 
ATOM      5  C4  UNL d   1       0.727   0.249   1.464  0.00  0.00     0.048 A 
ATOM      6  C5  UNL d   1       0.498   1.328   2.320  0.00  0.00     0.003 A 
ATOM      7  I   UNL d   1       0.231  -1.552  -0.915  0.00  0.00    -0.146 I 
ENDROOT
TORSDOF 0
ENDMDL
