MODEL 1
REMARK minimizedAffinity -0.174300894
REMARK minimizedRMSD -1
REMARK  0 active torsions:
REMARK  status: ('A' for Active; 'I' for Inactive)
ROOT
ATOM      1  C   UNL d   1      -0.395   2.535   1.198  0.00  0.00     0.023 A 
ATOM      2  C1  UNL d   1      -0.463   1.511   2.143  0.00  0.00     0.003 A 
ATOM      3  C2  UNL d   1      -0.352   0.179   1.741  0.00  0.00     0.048 A 
ATOM      4  C3  UNL d   1      -0.172  -0.123   0.392  0.00  0.00     0.023 A 
ATOM      5  C4  UNL d   1      -0.102   0.898  -0.558  0.00  0.00     0.048 A 
ATOM      6  C5  UNL d   1      -0.215   2.228  -0.151  0.00  0.00     0.003 A 
ATOM      7  I   UNL d   1      -0.006  -2.106  -0.210  0.00  0.00    -0.146 I 
ENDROOT
TORSDOF 0
ENDMDL
