MODEL 1
REMARK minimizedAffinity -0.642117143
REMARK minimizedRMSD -1
REMARK  0 active torsions:
REMARK  status: ('A' for Active; 'I' for Inactive)
ROOT
ATOM      1  C   UNL d   1       0.698  -5.694  -0.554  0.00  0.00     0.023 A 
ATOM      2  C1  UNL d   1      -0.509  -5.074  -0.876  0.00  0.00     0.003 A 
ATOM      3  C2  UNL d   1      -0.565  -3.686  -1.024  0.00  0.00     0.048 A 
ATOM      4  C3  UNL d   1       0.590  -2.925  -0.851  0.00  0.00     0.023 A 
ATOM      5  C4  UNL d   1       1.801  -3.542  -0.530  0.00  0.00     0.048 A 
ATOM      6  C5  UNL d   1       1.852  -4.929  -0.382  0.00  0.00     0.003 A 
ATOM      7  I   UNL d   1       0.510  -0.860  -1.072  0.00  0.00    -0.146 I 
ENDROOT
TORSDOF 0
ENDMDL
