MODEL 1
REMARK minimizedAffinity 3.178653
REMARK minimizedRMSD -1
REMARK  0 active torsions:
REMARK  status: ('A' for Active; 'I' for Inactive)
ROOT
ATOM      1  C   UNL d   1       0.003   1.750  -0.267  0.00  0.00     0.023 A 
ATOM      2  C1  UNL d   1       0.172   1.111  -1.496  0.00  0.00     0.003 A 
ATOM      3  C2  UNL d   1      -0.016  -0.268  -1.598  0.00  0.00     0.048 A 
ATOM      4  C3  UNL d   1      -0.374  -1.003  -0.468  0.00  0.00     0.023 A 
ATOM      5  C4  UNL d   1      -0.544  -0.368   0.763  0.00  0.00     0.048 A 
ATOM      6  C5  UNL d   1      -0.354   1.012   0.861  0.00  0.00     0.003 A 
ATOM      7  I   UNL d   1      -0.655  -3.057  -0.618  0.00  0.00    -0.146 I 
ENDROOT
TORSDOF 0
ENDMDL
