MODEL 1
REMARK minimizedAffinity -0.8470245
REMARK minimizedRMSD -1
REMARK  0 active torsions:
REMARK  status: ('A' for Active; 'I' for Inactive)
ROOT
ATOM      1  C   UNL d   1      -0.427   1.637   0.776  0.00  0.00     0.023 A 
ATOM      2  C1  UNL d   1       0.678   0.835   0.492  0.00  0.00     0.003 A 
ATOM      3  C2  UNL d   1       0.497  -0.491   0.096  0.00  0.00     0.048 A 
ATOM      4  C3  UNL d   1      -0.793  -1.010  -0.014  0.00  0.00     0.023 A 
ATOM      5  C4  UNL d   1      -1.902  -0.211   0.268  0.00  0.00     0.048 A 
ATOM      6  C5  UNL d   1      -1.716   1.115   0.664  0.00  0.00     0.003 A 
ATOM      7  I   UNL d   1      -1.066  -2.984  -0.603  0.00  0.00    -0.146 I 
ENDROOT
TORSDOF 0
ENDMDL
