MODEL 1
REMARK minimizedAffinity 0.638324678
REMARK minimizedRMSD -1
REMARK  0 active torsions:
REMARK  status: ('A' for Active; 'I' for Inactive)
ROOT
ATOM      1  C   UNL d   1      -0.149   1.375   1.351  0.00  0.00     0.023 A 
ATOM      2  C1  UNL d   1      -0.144   0.075   1.857  0.00  0.00     0.003 A 
ATOM      3  C2  UNL d   1      -0.432  -1.003   1.017  0.00  0.00     0.048 A 
ATOM      4  C3  UNL d   1      -0.724  -0.774  -0.327  0.00  0.00     0.023 A 
ATOM      5  C4  UNL d   1      -0.729   0.525  -0.837  0.00  0.00     0.048 A 
ATOM      6  C5  UNL d   1      -0.441   1.600   0.006  0.00  0.00     0.003 A 
ATOM      7  I   UNL d   1      -1.153  -2.377  -1.579  0.00  0.00    -0.146 I 
ENDROOT
TORSDOF 0
ENDMDL
