MODEL 1
REMARK minimizedAffinity -4.42453098
REMARK minimizedRMSD -1
REMARK  0 active torsions:
REMARK  status: ('A' for Active; 'I' for Inactive)
ROOT
ATOM      1  C1  BNZ d   1       0.994   0.561   1.470  0.00  0.00     0.000 A 
ATOM      2  C2  BNZ d   1      -0.115   1.034   2.119  0.00  0.00     0.000 A 
ATOM      3  C3  BNZ d   1      -1.367   0.815   1.615  0.00  0.00     0.000 A 
ATOM      4  C4  BNZ d   1      -1.505   0.160   0.444  0.00  0.00     0.000 A 
ATOM      5  C5  BNZ d   1      -0.396  -0.315  -0.227  0.00  0.00     0.000 A 
ATOM      6  C6  BNZ d   1       0.860  -0.127   0.304  0.00  0.00     0.000 A 
ENDROOT
TORSDOF 0
ENDMDL
