MODEL 1
REMARK minimizedAffinity -1.88099837
REMARK minimizedRMSD -1
REMARK  0 active torsions:
REMARK  status: ('A' for Active; 'I' for Inactive)
ROOT
ATOM      1  C1  BNZ d   1      -0.469  -0.163   0.000  0.00  0.00     0.000 A 
ATOM      2  C2  BNZ d   1      -0.916   1.129   0.089  0.00  0.00     0.000 A 
ATOM      3  C3  BNZ d   1      -2.248   1.417  -0.023  0.00  0.00     0.000 A 
ATOM      4  C4  BNZ d   1      -3.124   0.420  -0.262  0.00  0.00     0.000 A 
ATOM      5  C5  BNZ d   1      -2.687  -0.885  -0.363  0.00  0.00     0.000 A 
ATOM      6  C6  BNZ d   1      -1.351  -1.177  -0.212  0.00  0.00     0.000 A 
ENDROOT
TORSDOF 0
ENDMDL
