MODEL 1
REMARK minimizedAffinity -4.36014605
REMARK minimizedRMSD -1
REMARK  0 active torsions:
REMARK  status: ('A' for Active; 'I' for Inactive)
ROOT
ATOM      1  C1  BNZ d   1       1.385  -0.064   1.156  0.00  0.00     0.000 A 
ATOM      2  C2  BNZ d   1       0.414   0.508   1.933  0.00  0.00     0.000 A 
ATOM      3  C3  BNZ d   1      -0.881   0.570   1.503  0.00  0.00     0.000 A 
ATOM      4  C4  BNZ d   1      -1.197   0.095   0.280  0.00  0.00     0.000 A 
ATOM      5  C5  BNZ d   1      -0.228  -0.477  -0.519  0.00  0.00     0.000 A 
ATOM      6  C6  BNZ d   1       1.068  -0.572  -0.067  0.00  0.00     0.000 A 
ENDROOT
TORSDOF 0
ENDMDL
