MODEL 1
REMARK minimizedAffinity -1.72808301
REMARK minimizedRMSD -1
REMARK  0 active torsions:
REMARK  status: ('A' for Active; 'I' for Inactive)
ROOT
ATOM      1  C1  BNZ d   1      -0.780   0.190  -4.365  0.00  0.00     0.000 A 
ATOM      2  C2  BNZ d   1       0.271   1.049  -4.544  0.00  0.00     0.000 A 
ATOM      3  C3  BNZ d   1       1.418   0.915  -3.812  0.00  0.00     0.000 A 
ATOM      4  C4  BNZ d   1       1.497  -0.053  -2.875  0.00  0.00     0.000 A 
ATOM      5  C5  BNZ d   1       0.443  -0.921  -2.677  0.00  0.00     0.000 A 
ATOM      6  C6  BNZ d   1      -0.695  -0.807  -3.442  0.00  0.00     0.000 A 
ENDROOT
TORSDOF 0
ENDMDL
