MODEL 1
REMARK minimizedAffinity -4.53316307
REMARK minimizedRMSD -1
REMARK  0 active torsions:
REMARK  status: ('A' for Active; 'I' for Inactive)
ROOT
ATOM      1  C1  BNZ d   1      -1.987   0.778   1.626  0.00  0.00     0.000 A 
ATOM      2  C2  BNZ d   1      -1.540  -0.065   0.644  0.00  0.00     0.000 A 
ATOM      3  C3  BNZ d   1      -0.238  -0.029   0.229  0.00  0.00     0.000 A 
ATOM      4  C4  BNZ d   1       0.604   0.876   0.768  0.00  0.00     0.000 A 
ATOM      5  C5  BNZ d   1       0.166   1.740   1.752  0.00  0.00     0.000 A 
ATOM      6  C6  BNZ d   1      -1.135   1.674   2.195  0.00  0.00     0.000 A 
ENDROOT
TORSDOF 0
ENDMDL
