MODEL 1
REMARK minimizedAffinity -4.01922226
REMARK minimizedRMSD -1
REMARK  0 active torsions:
REMARK  status: ('A' for Active; 'I' for Inactive)
ROOT
ATOM      1  C1  BNZ d   1      -2.059   1.012   0.957  0.00  0.00     0.000 A 
ATOM      2  C2  BNZ d   1      -2.157   0.705  -0.374  0.00  0.00     0.000 A 
ATOM      3  C3  BNZ d   1      -1.171  -0.004  -1.002  0.00  0.00     0.000 A 
ATOM      4  C4  BNZ d   1      -0.073  -0.369  -0.310  0.00  0.00     0.000 A 
ATOM      5  C5  BNZ d   1       0.044  -0.059   1.030  0.00  0.00     0.000 A 
ATOM      6  C6  BNZ d   1      -0.967   0.621   1.669  0.00  0.00     0.000 A 
ENDROOT
TORSDOF 0
ENDMDL
