MODEL 1
REMARK minimizedAffinity -3.59373212
REMARK minimizedRMSD -1
REMARK  0 active torsions:
REMARK  status: ('A' for Active; 'I' for Inactive)
ROOT
ATOM      1  C1  BNZ d   1       0.781   0.671  -1.505  0.00  0.00     0.000 A 
ATOM      2  C2  BNZ d   1       1.032   1.295  -0.312  0.00  0.00     0.000 A 
ATOM      3  C3  BNZ d   1       0.429   0.874   0.839  0.00  0.00     0.000 A 
ATOM      4  C4  BNZ d   1      -0.455  -0.144   0.791  0.00  0.00     0.000 A 
ATOM      5  C5  BNZ d   1      -0.727  -0.777  -0.405  0.00  0.00     0.000 A 
ATOM      6  C6  BNZ d   1      -0.088  -0.376  -1.556  0.00  0.00     0.000 A 
ENDROOT
TORSDOF 0
ENDMDL
