MODEL 1
REMARK minimizedAffinity -4.40019178
REMARK minimizedRMSD -1
REMARK  0 active torsions:
REMARK  status: ('A' for Active; 'I' for Inactive)
ROOT
ATOM      1  C1  BNZ d   1       0.503   1.153   2.189  0.00  0.00     0.000 A 
ATOM      2  C2  BNZ d   1       1.440   0.571   1.378  0.00  0.00     0.000 A 
ATOM      3  C3  BNZ d   1       1.073  -0.051   0.218  0.00  0.00     0.000 A 
ATOM      4  C4  BNZ d   1      -0.233  -0.124  -0.110  0.00  0.00     0.000 A 
ATOM      5  C5  BNZ d   1      -1.191   0.449   0.702  0.00  0.00     0.000 A 
ATOM      6  C6  BNZ d   1      -0.814   1.108   1.850  0.00  0.00     0.000 A 
ENDROOT
TORSDOF 0
ENDMDL
