MODEL 1
REMARK minimizedAffinity -5.2097578
REMARK minimizedRMSD -1
REMARK  0 active torsions:
REMARK  status: ('A' for Active; 'I' for Inactive)
ROOT
ATOM      1  C1  BNZ d   1      -1.763   0.672   1.423  0.00  0.00     0.000 A 
ATOM      2  C2  BNZ d   1      -0.805   1.265   2.202  0.00  0.00     0.000 A 
ATOM      3  C3  BNZ d   1       0.521   0.996   2.006  0.00  0.00     0.000 A 
ATOM      4  C4  BNZ d   1       0.885   0.105   1.061  0.00  0.00     0.000 A 
ATOM      5  C5  BNZ d   1      -0.070  -0.508   0.275  0.00  0.00     0.000 A 
ATOM      6  C6  BNZ d   1      -1.401  -0.206   0.448  0.00  0.00     0.000 A 
ENDROOT
TORSDOF 0
ENDMDL
