MODEL 1
REMARK minimizedAffinity -4.41107893
REMARK minimizedRMSD -1
REMARK  0 active torsions:
REMARK  status: ('A' for Active; 'I' for Inactive)
ROOT
ATOM      1  C1  BNZ d   1       1.354   0.178   1.257  0.00  0.00     0.000 A 
ATOM      2  C2  BNZ d   1       0.135   0.740   1.530  0.00  0.00     0.000 A 
ATOM      3  C3  BNZ d   1      -0.916   0.582   0.670  0.00  0.00     0.000 A 
ATOM      4  C4  BNZ d   1      -0.736  -0.101  -0.479  0.00  0.00     0.000 A 
ATOM      5  C5  BNZ d   1       0.489  -0.665  -0.772  0.00  0.00     0.000 A 
ATOM      6  C6  BNZ d   1       1.534  -0.538   0.114  0.00  0.00     0.000 A 
ENDROOT
TORSDOF 0
ENDMDL
