MODEL 1
REMARK minimizedAffinity -2.51167083
REMARK minimizedRMSD -1
REMARK  0 active torsions:
REMARK  status: ('A' for Active; 'I' for Inactive)
ROOT
ATOM      1  N1  IND d   1       0.000  -1.227  -0.549  0.00  0.00    -0.196 N 
ATOM      2  C2  IND d   1       1.336  -1.313  -0.273  0.00  0.00     0.054 A 
ATOM      3  C3  IND d   1       1.678  -0.421   0.683  0.00  0.00    -0.031 A 
ATOM      4  C4  IND d   1       0.188   1.209   2.006  0.00  0.00     0.051 A 
ATOM      5  C5  IND d   1      -1.094   1.677   2.083  0.00  0.00    -0.031 A 
ATOM      6  C6  IND d   1      -2.097   1.189   1.271  0.00  0.00     0.015 A 
ATOM      7  C7  IND d   1      -1.858   0.202   0.357  0.00  0.00    -0.016 A 
ATOM      8  C8  IND d   1      -0.556  -0.270   0.272  0.00  0.00    -0.047 A 
ATOM      9  C9  IND d   1       0.476   0.251   1.063  0.00  0.00    -0.096 A 
ATOM     10  HN1 IND d   1      -0.422  -1.691  -1.136  0.00  0.00     0.298 HD
ENDROOT
TORSDOF 0
ENDMDL
