MODEL 1
REMARK minimizedAffinity -4.1074338
REMARK minimizedRMSD -1
REMARK  0 active torsions:
REMARK  status: ('A' for Active; 'I' for Inactive)
ROOT
ATOM      1  N1  IND d   1       0.952  -0.139  -0.472  0.00  0.00    -0.196 N 
ATOM      2  C2  IND d   1      -0.138  -0.590  -1.162  0.00  0.00     0.054 A 
ATOM      3  C3  IND d   1      -1.271  -0.340  -0.467  0.00  0.00    -0.031 A 
ATOM      4  C4  IND d   1      -1.578   0.889   1.774  0.00  0.00     0.051 A 
ATOM      5  C5  IND d   1      -0.871   1.451   2.800  0.00  0.00    -0.031 A 
ATOM      6  C6  IND d   1       0.508   1.516   2.786  0.00  0.00     0.015 A 
ATOM      7  C7  IND d   1       1.233   1.029   1.736  0.00  0.00    -0.016 A 
ATOM      8  C8  IND d   1       0.519   0.451   0.696  0.00  0.00    -0.047 A 
ATOM      9  C9  IND d   1      -0.878   0.344   0.724  0.00  0.00    -0.096 A 
ATOM     10  HN1 IND d   1       1.771  -0.211  -0.724  0.00  0.00     0.298 HD
ENDROOT
TORSDOF 0
ENDMDL
