MODEL 1
REMARK minimizedAffinity 7.88458061
REMARK minimizedRMSD -1
REMARK  0 active torsions:
REMARK  status: ('A' for Active; 'I' for Inactive)
ROOT
ATOM      1  N1  IND d   1       1.331  -0.442   2.524  0.00  0.00    -0.196 N 
ATOM      2  C2  IND d   1       2.224  -0.601   1.501  0.00  0.00     0.054 A 
ATOM      3  C3  IND d   1       1.579  -0.633   0.314  0.00  0.00    -0.031 A 
ATOM      4  C4  IND d   1      -0.929  -0.343  -0.193  0.00  0.00     0.051 A 
ATOM      5  C5  IND d   1      -2.143  -0.209   0.420  0.00  0.00    -0.031 A 
ATOM      6  C6  IND d   1      -2.263  -0.142   1.793  0.00  0.00     0.015 A 
ATOM      7  C7  IND d   1      -1.168  -0.195   2.608  0.00  0.00    -0.016 A 
ATOM      8  C8  IND d   1       0.066  -0.338   1.989  0.00  0.00    -0.047 A 
ATOM      9  C9  IND d   1       0.191  -0.450   0.599  0.00  0.00    -0.096 A 
ATOM     10  HN1 IND d   1       1.527  -0.413   3.361  0.00  0.00     0.298 HD
ENDROOT
TORSDOF 0
ENDMDL
