MODEL 1
REMARK minimizedAffinity -4.12787247
REMARK minimizedRMSD -1
REMARK  0 active torsions:
REMARK  status: ('A' for Active; 'I' for Inactive)
ROOT
ATOM      1  N1  IND d   1       0.647   0.204   0.120  0.00  0.00    -0.196 N 
ATOM      2  C2  IND d   1      -0.429  -0.464  -0.395  0.00  0.00     0.054 A 
ATOM      3  C3  IND d   1      -1.473  -0.406   0.463  0.00  0.00    -0.031 A 
ATOM      4  C4  IND d   1      -1.669   0.815   2.720  0.00  0.00     0.051 A 
ATOM      5  C5  IND d   1      -0.936   1.531   3.625  0.00  0.00    -0.031 A 
ATOM      6  C6  IND d   1       0.388   1.851   3.401  0.00  0.00     0.015 A 
ATOM      7  C7  IND d   1       1.028   1.474   2.255  0.00  0.00    -0.016 A 
ATOM      8  C8  IND d   1       0.289   0.740   1.337  0.00  0.00    -0.047 A 
ATOM      9  C9  IND d   1      -1.043   0.376   1.578  0.00  0.00    -0.096 A 
ATOM     10  HN1 IND d   1       1.418   0.277  -0.254  0.00  0.00     0.298 HD
ENDROOT
TORSDOF 0
ENDMDL
