MODEL 1
REMARK minimizedAffinity -2.35601258
REMARK minimizedRMSD -1
REMARK  0 active torsions:
REMARK  status: ('A' for Active; 'I' for Inactive)
ROOT
ATOM      1  N1  IND d   1       1.675  -0.541  -1.544  0.00  0.00    -0.196 N 
ATOM      2  C2  IND d   1       0.706  -0.629  -2.504  0.00  0.00     0.054 A 
ATOM      3  C3  IND d   1      -0.505  -0.339  -1.978  0.00  0.00    -0.031 A 
ATOM      4  C4  IND d   1      -1.116   0.404   0.410  0.00  0.00     0.051 A 
ATOM      5  C5  IND d   1      -0.575   0.593   1.651  0.00  0.00    -0.031 A 
ATOM      6  C6  IND d   1       0.772   0.413   1.894  0.00  0.00     0.015 A 
ATOM      7  C7  IND d   1       1.633   0.047   0.899  0.00  0.00    -0.016 A 
ATOM      8  C8  IND d   1       1.086  -0.153  -0.360  0.00  0.00    -0.047 A 
ATOM      9  C9  IND d   1      -0.287  -0.014  -0.604  0.00  0.00    -0.096 A 
ATOM     10  HN1 IND d   1       2.512  -0.700  -1.660  0.00  0.00     0.298 HD
ENDROOT
TORSDOF 0
ENDMDL
