MODEL 1
REMARK minimizedAffinity -5.40411043
REMARK minimizedRMSD -1
REMARK  0 active torsions:
REMARK  status: ('A' for Active; 'I' for Inactive)
ROOT
ATOM      1  N1  IND d   1      -1.139  -0.885  -0.296  0.00  0.00    -0.196 N 
ATOM      2  C2  IND d   1       0.030  -1.186  -0.938  0.00  0.00     0.054 A 
ATOM      3  C3  IND d   1       1.062  -0.521  -0.372  0.00  0.00    -0.031 A 
ATOM      4  C4  IND d   1       1.078   1.034   1.680  0.00  0.00     0.051 A 
ATOM      5  C5  IND d   1       0.246   1.640   2.578  0.00  0.00    -0.031 A 
ATOM      6  C6  IND d   1      -1.118   1.430   2.566  0.00  0.00     0.015 A 
ATOM      7  C7  IND d   1      -1.701   0.592   1.658  0.00  0.00    -0.016 A 
ATOM      8  C8  IND d   1      -0.860  -0.020   0.739  0.00  0.00    -0.047 A 
ATOM      9  C9  IND d   1       0.519   0.223   0.720  0.00  0.00    -0.096 A 
ATOM     10  HN1 IND d   1      -1.917  -1.185  -0.504  0.00  0.00     0.298 HD
ENDROOT
TORSDOF 0
ENDMDL
