MODEL 1
REMARK minimizedAffinity -2.95125961
REMARK minimizedRMSD -1
REMARK  0 active torsions:
REMARK  status: ('A' for Active; 'I' for Inactive)
ROOT
ATOM      1  N1  IND d   1       1.130   1.102   1.194  0.00  0.00    -0.196 N 
ATOM      2  C2  IND d   1       0.684   2.003   2.120  0.00  0.00     0.054 A 
ATOM      3  C3  IND d   1      -0.663   1.943   2.223  0.00  0.00    -0.031 A 
ATOM      4  C4  IND d   1      -2.326   0.371   1.045  0.00  0.00     0.051 A 
ATOM      5  C5  IND d   1      -2.396  -0.599   0.084  0.00  0.00    -0.031 A 
ATOM      6  C6  IND d   1      -1.271  -1.062  -0.567  0.00  0.00     0.015 A 
ATOM      7  C7  IND d   1      -0.027  -0.579  -0.272  0.00  0.00    -0.016 A 
ATOM      8  C8  IND d   1       0.047   0.410   0.698  0.00  0.00    -0.047 A 
ATOM      9  C9  IND d   1      -1.096   0.915   1.332  0.00  0.00    -0.096 A 
ATOM     10  HN1 IND d   1       1.949   0.986   0.960  0.00  0.00     0.298 HD
ENDROOT
TORSDOF 0
ENDMDL
