MODEL 1
REMARK minimizedAffinity -4.25125027
REMARK minimizedRMSD -1
REMARK  0 active torsions:
REMARK  status: ('A' for Active; 'I' for Inactive)
ROOT
ATOM      1  N1  IND d   1       0.232   1.057  -0.509  0.00  0.00    -0.196 N 
ATOM      2  C2  IND d   1       0.766  -0.140  -0.895  0.00  0.00     0.054 A 
ATOM      3  C3  IND d   1       0.945  -0.944   0.177  0.00  0.00    -0.031 A 
ATOM      4  C4  IND d   1       0.336  -0.538   2.645  0.00  0.00     0.051 A 
ATOM      5  C5  IND d   1      -0.142   0.421   3.493  0.00  0.00    -0.031 A 
ATOM      6  C6  IND d   1      -0.530   1.666   3.041  0.00  0.00     0.015 A 
ATOM      7  C7  IND d   1      -0.465   1.995   1.716  0.00  0.00    -0.016 A 
ATOM      8  C8  IND d   1       0.026   1.025   0.853  0.00  0.00    -0.047 A 
ATOM      9  C9  IND d   1       0.461  -0.225   1.312  0.00  0.00    -0.096 A 
ATOM     10  HN1 IND d   1       0.053   1.718  -1.028  0.00  0.00     0.298 HD
ENDROOT
TORSDOF 0
ENDMDL
