MODEL 1
REMARK minimizedAffinity -2.12939978
REMARK minimizedRMSD -1
REMARK  0 active torsions:
REMARK  status: ('A' for Active; 'I' for Inactive)
ROOT
ATOM      1  N1  IND d   1       0.711   0.015  -0.449  0.00  0.00    -0.196 N 
ATOM      2  C2  IND d   1      -0.186  -0.884  -0.954  0.00  0.00     0.054 A 
ATOM      3  C3  IND d   1      -1.300  -0.918  -0.188  0.00  0.00    -0.031 A 
ATOM      4  C4  IND d   1      -1.906   0.489   1.880  0.00  0.00     0.051 A 
ATOM      5  C5  IND d   1      -1.390   1.419   2.740  0.00  0.00    -0.031 A 
ATOM      6  C6  IND d   1      -0.123   1.940   2.575  0.00  0.00     0.015 A 
ATOM      7  C7  IND d   1       0.674   1.558   1.534  0.00  0.00    -0.016 A 
ATOM      8  C8  IND d   1       0.157   0.610   0.663  0.00  0.00    -0.047 A 
ATOM      9  C9  IND d   1      -1.112   0.046   0.849  0.00  0.00    -0.096 A 
ATOM     10  HN1 IND d   1       1.490   0.182  -0.772  0.00  0.00     0.298 HD
ENDROOT
TORSDOF 0
ENDMDL
