MODEL 1
REMARK minimizedAffinity -3.83149505
REMARK minimizedRMSD -1
REMARK  0 active torsions:
REMARK  status: ('A' for Active; 'I' for Inactive)
ROOT
ATOM      1  N1  IND d   1       0.130   0.870   2.595  0.00  0.00    -0.196 N 
ATOM      2  C2  IND d   1      -1.100   1.103   3.144  0.00  0.00     0.054 A 
ATOM      3  C3  IND d   1      -2.071   0.901   2.225  0.00  0.00    -0.031 A 
ATOM      4  C4  IND d   1      -1.875   0.087  -0.209  0.00  0.00     0.051 A 
ATOM      5  C5  IND d   1      -0.954  -0.221  -1.171  0.00  0.00    -0.031 A 
ATOM      6  C6  IND d   1       0.402  -0.184  -0.921  0.00  0.00     0.015 A 
ATOM      7  C7  IND d   1       0.890   0.155   0.309  0.00  0.00    -0.016 A 
ATOM      8  C8  IND d   1      -0.041   0.475   1.287  0.00  0.00    -0.047 A 
ATOM      9  C9  IND d   1      -1.418   0.480   1.026  0.00  0.00    -0.096 A 
ATOM     10  HN1 IND d   1       0.884   0.956   2.999  0.00  0.00     0.298 HD
ENDROOT
TORSDOF 0
ENDMDL
