MODEL 1
REMARK minimizedAffinity 4.2307086
REMARK minimizedRMSD -1
REMARK  0 active torsions:
REMARK  status: ('A' for Active; 'I' for Inactive)
ROOT
ATOM      1  C   UNL d   1      -0.171   3.407   5.619  0.00  0.00     0.077 C 
ATOM      2  C1  UNL d   1      -0.261   2.622   4.344  0.00  0.00    -0.074 A 
ATOM      3  C2  UNL d   1       0.891   2.254   3.643  0.00  0.00    -0.005 A 
ATOM      4  C3  UNL d   1       0.792   1.516   2.464  0.00  0.00     0.006 A 
ATOM      5  C4  UNL d   1      -0.460   1.138   1.975  0.00  0.00    -0.005 A 
ATOM      6  C5  UNL d   1      -1.623   1.496   2.663  0.00  0.00    -0.074 A 
ATOM      7  C6  UNL d   1      -2.975   1.090   2.157  0.00  0.00     0.077 C 
ATOM      8  C7  UNL d   1      -1.514   2.232   3.851  0.00  0.00    -0.001 A 
ENDROOT
TORSDOF 0
ENDMDL
