MODEL 1
REMARK minimizedAffinity 21.2480583
REMARK minimizedRMSD -1
REMARK  0 active torsions:
REMARK  status: ('A' for Active; 'I' for Inactive)
ROOT
ATOM      1  C   UNL d   1      -6.000   3.033   3.217  0.00  0.00     0.077 C 
ATOM      2  C1  UNL d   1      -5.102   2.182   4.065  0.00  0.00    -0.074 A 
ATOM      3  C2  UNL d   1      -4.497   2.699   5.215  0.00  0.00    -0.005 A 
ATOM      4  C3  UNL d   1      -3.672   1.892   5.999  0.00  0.00     0.006 A 
ATOM      5  C4  UNL d   1      -3.445   0.562   5.642  0.00  0.00    -0.005 A 
ATOM      6  C5  UNL d   1      -4.042   0.028   4.496  0.00  0.00    -0.074 A 
ATOM      7  C6  UNL d   1      -3.816  -1.402   4.103  0.00  0.00     0.077 C 
ATOM      8  C7  UNL d   1      -4.875   0.843   3.717  0.00  0.00    -0.001 A 
ENDROOT
TORSDOF 0
ENDMDL
