MODEL 1
REMARK minimizedAffinity 17.3285084
REMARK minimizedRMSD -1
REMARK  0 active torsions:
REMARK  status: ('A' for Active; 'I' for Inactive)
ROOT
ATOM      1  C   UNL d   1      -2.227   0.250  -5.990  0.00  0.00     0.077 C 
ATOM      2  C1  UNL d   1      -2.354   1.588  -5.325  0.00  0.00    -0.074 A 
ATOM      3  C2  UNL d   1      -1.702   1.856  -4.117  0.00  0.00    -0.005 A 
ATOM      4  C3  UNL d   1      -1.822   3.108  -3.516  0.00  0.00     0.006 A 
ATOM      5  C4  UNL d   1      -2.593   4.105  -4.115  0.00  0.00    -0.005 A 
ATOM      6  C5  UNL d   1      -3.252   3.856  -5.323  0.00  0.00    -0.074 A 
ATOM      7  C6  UNL d   1      -4.077   4.919  -5.986  0.00  0.00     0.077 C 
ATOM      8  C7  UNL d   1      -3.121   2.597  -5.925  0.00  0.00    -0.001 A 
ENDROOT
TORSDOF 0
ENDMDL
