MODEL 1
REMARK minimizedAffinity 12.1232719
REMARK minimizedRMSD -1
REMARK  0 active torsions:
REMARK  status: ('A' for Active; 'I' for Inactive)
ROOT
ATOM      1  C   UNL d   1      -6.000   3.705   3.377  0.00  0.00     0.077 C 
ATOM      2  C1  UNL d   1      -5.073   2.754   4.075  0.00  0.00    -0.074 A 
ATOM      3  C2  UNL d   1      -4.593   3.030   5.359  0.00  0.00    -0.005 A 
ATOM      4  C3  UNL d   1      -3.740   2.131   5.999  0.00  0.00     0.006 A 
ATOM      5  C4  UNL d   1      -3.358   0.950   5.363  0.00  0.00    -0.005 A 
ATOM      6  C5  UNL d   1      -3.829   0.656   4.079  0.00  0.00    -0.074 A 
ATOM      7  C6  UNL d   1      -3.437  -0.614   3.384  0.00  0.00     0.077 C 
ATOM      8  C7  UNL d   1      -4.692   1.561   3.445  0.00  0.00    -0.001 A 
ENDROOT
TORSDOF 0
ENDMDL
