MODEL 1
REMARK minimizedAffinity 13.9398727
REMARK minimizedRMSD -1
REMARK  0 active torsions:
REMARK  status: ('A' for Active; 'I' for Inactive)
ROOT
ATOM      1  C   UNL d   1      -3.355  -3.071  -4.451  0.00  0.00     0.077 C 
ATOM      2  C1  UNL d   1      -2.329  -2.081  -3.988  0.00  0.00    -0.074 A 
ATOM      3  C2  UNL d   1      -1.078  -2.504  -3.526  0.00  0.00    -0.005 A 
ATOM      4  C3  UNL d   1      -0.130  -1.570  -3.108  0.00  0.00     0.006 A 
ATOM      5  C4  UNL d   1      -0.422  -0.206  -3.147  0.00  0.00    -0.005 A 
ATOM      6  C5  UNL d   1      -1.667   0.236  -3.606  0.00  0.00    -0.074 A 
ATOM      7  C6  UNL d   1      -1.993   1.698  -3.664  0.00  0.00     0.077 C 
ATOM      8  C7  UNL d   1      -2.612  -0.708  -4.032  0.00  0.00    -0.001 A 
ENDROOT
TORSDOF 0
ENDMDL
