MODEL 1
REMARK minimizedAffinity 16.2602901
REMARK minimizedRMSD -1
REMARK  0 active torsions:
REMARK  status: ('A' for Active; 'I' for Inactive)
ROOT
ATOM      1  C   UNL d   1      -0.076   0.718   2.155  0.00  0.00     0.077 C 
ATOM      2  C1  UNL d   1       0.364   1.219   3.499  0.00  0.00    -0.074 A 
ATOM      3  C2  UNL d   1       1.469   0.659   4.148  0.00  0.00    -0.005 A 
ATOM      4  C3  UNL d   1       1.872   1.142   5.393  0.00  0.00     0.006 A 
ATOM      5  C4  UNL d   1       1.176   2.188   6.000  0.00  0.00    -0.005 A 
ATOM      6  C5  UNL d   1       0.069   2.760   5.366  0.00  0.00    -0.074 A 
ATOM      7  C6  UNL d   1      -0.685   3.891   6.000  0.00  0.00     0.077 C 
ATOM      8  C7  UNL d   1      -0.326   2.274   4.112  0.00  0.00    -0.001 A 
ENDROOT
TORSDOF 0
ENDMDL
