MODEL 1
REMARK minimizedAffinity 4.85975885
REMARK minimizedRMSD -1
REMARK  0 active torsions:
REMARK  status: ('A' for Active; 'I' for Inactive)
ROOT
ATOM      1  C   UNL d   1      -2.677   1.678  -5.032  0.00  0.00     0.077 C 
ATOM      2  C1  UNL d   1      -2.648   3.178  -5.053  0.00  0.00    -0.074 A 
ATOM      3  C2  UNL d   1      -3.402   3.898  -5.985  0.00  0.00    -0.005 A 
ATOM      4  C3  UNL d   1      -3.372   5.293  -5.987  0.00  0.00     0.006 A 
ATOM      5  C4  UNL d   1      -2.590   5.980  -5.058  0.00  0.00    -0.005 A 
ATOM      6  C5  UNL d   1      -1.830   5.277  -4.118  0.00  0.00    -0.074 A 
ATOM      7  C6  UNL d   1      -0.992   6.000  -3.106  0.00  0.00     0.077 C 
ATOM      8  C7  UNL d   1      -1.871   3.876  -4.118  0.00  0.00    -0.001 A 
ENDROOT
TORSDOF 0
ENDMDL
