MODEL 1
REMARK minimizedAffinity 15.332962
REMARK minimizedRMSD -1
REMARK  0 active torsions:
REMARK  status: ('A' for Active; 'I' for Inactive)
ROOT
ATOM      1  C   UNL d   1      -3.880   1.178   4.107  0.00  0.00     0.077 C 
ATOM      2  C1  UNL d   1      -2.475   1.311   3.598  0.00  0.00    -0.074 A 
ATOM      3  C2  UNL d   1      -2.217   1.826   2.324  0.00  0.00    -0.005 A 
ATOM      4  C3  UNL d   1      -0.905   1.952   1.869  0.00  0.00     0.006 A 
ATOM      5  C4  UNL d   1       0.161   1.564   2.681  0.00  0.00    -0.005 A 
ATOM      6  C5  UNL d   1      -0.077   1.048   3.959  0.00  0.00    -0.074 A 
ATOM      7  C6  UNL d   1       1.058   0.635   4.849  0.00  0.00     0.077 C 
ATOM      8  C7  UNL d   1      -1.398   0.931   4.412  0.00  0.00    -0.001 A 
ENDROOT
TORSDOF 0
ENDMDL
