MODEL 1
REMARK minimizedAffinity 22.9831924
REMARK minimizedRMSD -1
REMARK  0 active torsions:
REMARK  status: ('A' for Active; 'I' for Inactive)
ROOT
ATOM      1  C   UNL d   1      -1.619   1.003  -3.427  0.00  0.00     0.077 C 
ATOM      2  C1  UNL d   1      -1.839   2.310  -4.128  0.00  0.00    -0.074 A 
ATOM      3  C2  UNL d   1      -2.490   2.363  -5.365  0.00  0.00    -0.005 A 
ATOM      4  C3  UNL d   1      -2.695   3.587  -6.000  0.00  0.00     0.006 A 
ATOM      5  C4  UNL d   1      -2.252   4.770  -5.406  0.00  0.00    -0.005 A 
ATOM      6  C5  UNL d   1      -1.600   4.737  -4.169  0.00  0.00    -0.074 A 
ATOM      7  C6  UNL d   1      -1.127   6.000  -3.513  0.00  0.00     0.077 C 
ATOM      8  C7  UNL d   1      -1.404   3.503  -3.534  0.00  0.00    -0.001 A 
ENDROOT
TORSDOF 0
ENDMDL
