MODEL 1
REMARK minimizedAffinity 20.9096107
REMARK minimizedRMSD -1
REMARK  0 active torsions:
REMARK  status: ('A' for Active; 'I' for Inactive)
ROOT
ATOM      1  C   UNL d   1       1.306   1.911   5.999  0.00  0.00     0.077 C 
ATOM      2  C1  UNL d   1       1.140   1.666   4.529  0.00  0.00    -0.074 A 
ATOM      3  C2  UNL d   1      -0.034   1.097   4.023  0.00  0.00    -0.005 A 
ATOM      4  C3  UNL d   1      -0.178   0.884   2.652  0.00  0.00     0.006 A 
ATOM      5  C4  UNL d   1       0.848   1.236   1.775  0.00  0.00    -0.005 A 
ATOM      6  C5  UNL d   1       2.028   1.807   2.262  0.00  0.00    -0.074 A 
ATOM      7  C6  UNL d   1       3.137   2.201   1.331  0.00  0.00     0.077 C 
ATOM      8  C7  UNL d   1       2.163   2.024   3.640  0.00  0.00    -0.001 A 
ENDROOT
TORSDOF 0
ENDMDL
