MODEL 1
REMARK minimizedAffinity 14.505024
REMARK minimizedRMSD -1
REMARK  0 active torsions:
REMARK  status: ('A' for Active; 'I' for Inactive)
ROOT
ATOM      1  C   UNL d   1       1.172   1.128   6.000  0.00  0.00     0.077 C 
ATOM      2  C1  UNL d   1       1.001   1.192   4.511  0.00  0.00    -0.074 A 
ATOM      3  C2  UNL d   1      -0.148   0.684   3.897  0.00  0.00    -0.005 A 
ATOM      4  C3  UNL d   1      -0.297   0.759   2.512  0.00  0.00     0.006 A 
ATOM      5  C4  UNL d   1       0.700   1.341   1.728  0.00  0.00    -0.005 A 
ATOM      6  C5  UNL d   1       1.856   1.854   2.325  0.00  0.00    -0.074 A 
ATOM      7  C6  UNL d   1       2.933   2.491   1.498  0.00  0.00     0.077 C 
ATOM      8  C7  UNL d   1       1.995   1.782   3.718  0.00  0.00    -0.001 A 
ENDROOT
TORSDOF 0
ENDMDL
