MODEL 1
REMARK minimizedAffinity 22.6349773
REMARK minimizedRMSD -1
REMARK  0 active torsions:
REMARK  status: ('A' for Active; 'I' for Inactive)
ROOT
ATOM      1  C   UNL d   1      -4.525   2.596   6.000  0.00  0.00     0.077 C 
ATOM      2  C1  UNL d   1      -4.171   1.460   5.087  0.00  0.00    -0.074 A 
ATOM      3  C2  UNL d   1      -3.969   1.672   3.720  0.00  0.00    -0.005 A 
ATOM      4  C3  UNL d   1      -3.631   0.607   2.885  0.00  0.00     0.006 A 
ATOM      5  C4  UNL d   1      -3.492  -0.679   3.408  0.00  0.00    -0.005 A 
ATOM      6  C5  UNL d   1      -3.689  -0.911   4.773  0.00  0.00    -0.074 A 
ATOM      7  C6  UNL d   1      -3.534  -2.285   5.353  0.00  0.00     0.077 C 
ATOM      8  C7  UNL d   1      -4.022   0.166   5.606  0.00  0.00    -0.001 A 
ENDROOT
TORSDOF 0
ENDMDL
