MODEL 1
REMARK minimizedAffinity 14.7875547
REMARK minimizedRMSD -1
REMARK  0 active torsions:
REMARK  status: ('A' for Active; 'I' for Inactive)
ROOT
ATOM      1  C   UNL d   1      -5.827  -5.967  -6.000  0.00  0.00     0.077 C 
ATOM      2  C1  UNL d   1      -4.961  -4.872  -5.452  0.00  0.00    -0.074 A 
ATOM      3  C2  UNL d   1      -5.026  -3.576  -5.973  0.00  0.00    -0.005 A 
ATOM      4  C3  UNL d   1      -4.222  -2.565  -5.447  0.00  0.00     0.006 A 
ATOM      5  C4  UNL d   1      -3.344  -2.840  -4.397  0.00  0.00    -0.005 A 
ATOM      6  C5  UNL d   1      -3.265  -4.130  -3.864  0.00  0.00    -0.074 A 
ATOM      7  C6  UNL d   1      -2.335  -4.440  -2.729  0.00  0.00     0.077 C 
ATOM      8  C7  UNL d   1      -4.082  -5.139  -4.393  0.00  0.00    -0.001 A 
ENDROOT
TORSDOF 0
ENDMDL
