MODEL 1
REMARK minimizedAffinity 13.9822025
REMARK minimizedRMSD -1
REMARK  0 active torsions:
REMARK  status: ('A' for Active; 'I' for Inactive)
ROOT
ATOM      1  C   UNL d   1      -1.006   1.532   2.711  0.00  0.00     0.077 C 
ATOM      2  C1  UNL d   1       0.479   1.552   2.925  0.00  0.00    -0.074 A 
ATOM      3  C2  UNL d   1       1.019   1.555   4.214  0.00  0.00    -0.005 A 
ATOM      4  C3  UNL d   1       2.402   1.564   4.397  0.00  0.00     0.006 A 
ATOM      5  C4  UNL d   1       3.257   1.571   3.294  0.00  0.00    -0.005 A 
ATOM      6  C5  UNL d   1       2.734   1.567   1.997  0.00  0.00    -0.074 A 
ATOM      7  C6  UNL d   1       3.639   1.564   0.800  0.00  0.00     0.077 C 
ATOM      8  C7  UNL d   1       1.344   1.551   1.821  0.00  0.00    -0.001 A 
ENDROOT
TORSDOF 0
ENDMDL
