MODEL 1
REMARK minimizedAffinity 2.81983733
REMARK minimizedRMSD -1
REMARK  0 active torsions:
REMARK  status: ('A' for Active; 'I' for Inactive)
ROOT
ATOM      1  C   UNL d   1      -3.027   1.691  -5.180  0.00  0.00     0.077 C 
ATOM      2  C1  UNL d   1      -3.021   3.191  -5.171  0.00  0.00    -0.074 A 
ATOM      3  C2  UNL d   1      -3.881   3.918  -6.000  0.00  0.00    -0.005 A 
ATOM      4  C3  UNL d   1      -3.871   5.313  -5.974  0.00  0.00     0.006 A 
ATOM      5  C4  UNL d   1      -3.002   5.993  -5.120  0.00  0.00    -0.005 A 
ATOM      6  C5  UNL d   1      -2.136   5.283  -4.283  0.00  0.00    -0.074 A 
ATOM      7  C6  UNL d   1      -1.202   5.999  -3.352  0.00  0.00     0.077 C 
ATOM      8  C7  UNL d   1      -2.157   3.882  -4.310  0.00  0.00    -0.001 A 
ENDROOT
TORSDOF 0
ENDMDL
