MODEL 1
REMARK minimizedAffinity 21.2062016
REMARK minimizedRMSD -1
REMARK  0 active torsions:
REMARK  status: ('A' for Active; 'I' for Inactive)
ROOT
ATOM      1  C   UNL d   1       4.319   1.883   0.030  0.00  0.00     0.077 C 
ATOM      2  C1  UNL d   1       3.401   0.964  -0.720  0.00  0.00    -0.074 A 
ATOM      3  C2  UNL d   1       3.002  -0.259  -0.171  0.00  0.00    -0.005 A 
ATOM      4  C3  UNL d   1       2.140  -1.099  -0.876  0.00  0.00     0.006 A 
ATOM      5  C4  UNL d   1       1.669  -0.725  -2.136  0.00  0.00    -0.005 A 
ATOM      6  C5  UNL d   1       2.057   0.495  -2.700  0.00  0.00    -0.074 A 
ATOM      7  C6  UNL d   1       1.552   0.916  -4.048  0.00  0.00     0.077 C 
ATOM      8  C7  UNL d   1       2.918   1.336  -1.982  0.00  0.00    -0.001 A 
ENDROOT
TORSDOF 0
ENDMDL
