MODEL 1
REMARK minimizedAffinity 9.91982365
REMARK minimizedRMSD -1
REMARK  0 active torsions:
REMARK  status: ('A' for Active; 'I' for Inactive)
ROOT
ATOM      1  C   UNL d   1       0.339   1.229   2.149  0.00  0.00     0.077 C 
ATOM      2  C1  UNL d   1       1.275   1.010   0.998  0.00  0.00    -0.074 A 
ATOM      3  C2  UNL d   1       2.622   1.375   1.086  0.00  0.00    -0.005 A 
ATOM      4  C3  UNL d   1       3.482   1.156   0.011  0.00  0.00     0.006 A 
ATOM      5  C4  UNL d   1       3.005   0.571  -1.163  0.00  0.00    -0.005 A 
ATOM      6  C5  UNL d   1       1.662   0.198  -1.269  0.00  0.00    -0.074 A 
ATOM      7  C6  UNL d   1       1.135  -0.442  -2.520  0.00  0.00     0.077 C 
ATOM      8  C7  UNL d   1       0.805   0.414  -0.182  0.00  0.00    -0.001 A 
ENDROOT
TORSDOF 0
ENDMDL
