MODEL 1
REMARK minimizedAffinity 11.9719114
REMARK minimizedRMSD -1
REMARK  0 active torsions:
REMARK  status: ('A' for Active; 'I' for Inactive)
ROOT
ATOM      1  C   UNL d   1      -4.239   4.839  -6.000  0.00  0.00     0.077 C 
ATOM      2  C1  UNL d   1      -3.114   4.041  -5.412  0.00  0.00    -0.074 A 
ATOM      3  C2  UNL d   1      -2.699   2.842  -6.000  0.00  0.00    -0.005 A 
ATOM      4  C3  UNL d   1      -1.645   2.115  -5.447  0.00  0.00     0.006 A 
ATOM      5  C4  UNL d   1      -0.995   2.580  -4.303  0.00  0.00    -0.005 A 
ATOM      6  C5  UNL d   1      -1.395   3.777  -3.702  0.00  0.00    -0.074 A 
ATOM      7  C6  UNL d   1      -0.701   4.296  -2.477  0.00  0.00     0.077 C 
ATOM      8  C7  UNL d   1      -2.451   4.505  -4.267  0.00  0.00    -0.001 A 
ENDROOT
TORSDOF 0
ENDMDL
