MODEL 1
REMARK minimizedAffinity 7.96681595
REMARK minimizedRMSD -1
REMARK  0 active torsions:
REMARK  status: ('A' for Active; 'I' for Inactive)
ROOT
ATOM      1  C   UNL d   1      -4.160  -2.158   2.226  0.00  0.00     0.077 C 
ATOM      2  C1  UNL d   1      -3.599  -0.802   2.538  0.00  0.00    -0.074 A 
ATOM      3  C2  UNL d   1      -2.362  -0.400   2.025  0.00  0.00    -0.005 A 
ATOM      4  C3  UNL d   1      -1.858   0.867   2.317  0.00  0.00     0.006 A 
ATOM      5  C4  UNL d   1      -2.585   1.744   3.123  0.00  0.00    -0.005 A 
ATOM      6  C5  UNL d   1      -3.824   1.360   3.644  0.00  0.00    -0.074 A 
ATOM      7  C6  UNL d   1      -4.623   2.294   4.504  0.00  0.00     0.077 C 
ATOM      8  C7  UNL d   1      -4.327   0.087   3.341  0.00  0.00    -0.001 A 
ENDROOT
TORSDOF 0
ENDMDL
