MODEL 1
REMARK minimizedAffinity -5.32529402
REMARK minimizedRMSD -1
REMARK  0 active torsions:
REMARK  status: ('A' for Active; 'I' for Inactive)
ROOT
ATOM      1  O1  BZF d   1       0.562  -0.514  -0.820  0.00  0.00    -0.204 OA
ATOM      2  C2  BZF d   1      -0.456   0.334  -0.429  0.00  0.00     0.174 A 
ATOM      3  C3  BZF d   1      -0.521   0.416   0.916  0.00  0.00    -0.012 A 
ATOM      4  C3A BZF d   1       0.581  -0.362   1.394  0.00  0.00    -0.107 A 
ATOM      5  C4  BZF d   1       1.055  -0.651   2.641  0.00  0.00     0.055 A 
ATOM      6  C5  BZF d   1       2.108  -1.501   2.767  0.00  0.00    -0.016 A 
ATOM      7  C6  BZF d   1       2.706  -2.083   1.669  0.00  0.00     0.022 A 
ATOM      8  C7  BZF d   1       2.274  -1.823   0.411  0.00  0.00     0.029 A 
ATOM      9  C7A BZF d   1       1.232  -0.939   0.279  0.00  0.00     0.058 A 
ENDROOT
TORSDOF 0
ENDMDL
