MODEL 1
REMARK minimizedAffinity -4.27865219
REMARK minimizedRMSD -1
REMARK  0 active torsions:
REMARK  status: ('A' for Active; 'I' for Inactive)
ROOT
ATOM      1  O1  BZF d   1       0.097  -1.220   3.190  0.00  0.00    -0.204 OA
ATOM      2  C2  BZF d   1       1.445  -1.163   3.490  0.00  0.00     0.174 A 
ATOM      3  C3  BZF d   1       2.155  -0.744   2.423  0.00  0.00    -0.012 A 
ATOM      4  C3A BZF d   1       1.182  -0.437   1.420  0.00  0.00    -0.107 A 
ATOM      5  C4  BZF d   1       1.268   0.040   0.144  0.00  0.00     0.055 A 
ATOM      6  C5  BZF d   1       0.134   0.160  -0.595  0.00  0.00    -0.016 A 
ATOM      7  C6  BZF d   1      -1.101  -0.193  -0.091  0.00  0.00     0.022 A 
ATOM      8  C7  BZF d   1      -1.237  -0.666   1.172  0.00  0.00     0.029 A 
ATOM      9  C7A BZF d   1      -0.097  -0.756   1.932  0.00  0.00     0.058 A 
ENDROOT
TORSDOF 0
ENDMDL
