MODEL 1
REMARK minimizedAffinity -6.60683346
REMARK minimizedRMSD -1
REMARK  0 active torsions:
REMARK  status: ('A' for Active; 'I' for Inactive)
ROOT
ATOM      1  O1  BZF d   1       0.193  -0.228  -0.923  0.00  0.00    -0.204 OA
ATOM      2  C2  BZF d   1      -0.842   0.558  -0.455  0.00  0.00     0.174 A 
ATOM      3  C3  BZF d   1      -0.881   0.543   0.893  0.00  0.00    -0.012 A 
ATOM      4  C3A BZF d   1       0.254  -0.231   1.294  0.00  0.00    -0.107 A 
ATOM      5  C4  BZF d   1       0.762  -0.591   2.509  0.00  0.00     0.055 A 
ATOM      6  C5  BZF d   1       1.843  -1.414   2.555  0.00  0.00    -0.016 A 
ATOM      7  C6  BZF d   1       2.436  -1.898   1.408  0.00  0.00     0.022 A 
ATOM      8  C7  BZF d   1       1.970  -1.564   0.180  0.00  0.00     0.029 A 
ATOM      9  C7A BZF d   1       0.898  -0.706   0.129  0.00  0.00     0.058 A 
ENDROOT
TORSDOF 0
ENDMDL
