MODEL 1
REMARK minimizedAffinity -4.98762751
REMARK minimizedRMSD -1
REMARK  0 active torsions:
REMARK  status: ('A' for Active; 'I' for Inactive)
ROOT
ATOM      1  O1  BZF d   1       2.000  -1.511  -0.104  0.00  0.00    -0.204 OA
ATOM      2  C2  BZF d   1       2.764  -2.290   0.744  0.00  0.00     0.174 A 
ATOM      3  C3  BZF d   1       2.319  -2.192   2.013  0.00  0.00    -0.012 A 
ATOM      4  C3A BZF d   1       1.152  -1.368   1.941  0.00  0.00    -0.107 A 
ATOM      5  C4  BZF d   1       0.259  -0.921   2.872  0.00  0.00     0.055 A 
ATOM      6  C5  BZF d   1      -0.729  -0.072   2.486  0.00  0.00    -0.016 A 
ATOM      7  C6  BZF d   1      -0.851   0.353   1.179  0.00  0.00     0.022 A 
ATOM      8  C7  BZF d   1       0.007  -0.067   0.219  0.00  0.00     0.029 A 
ATOM      9  C7A BZF d   1       0.987  -0.951   0.600  0.00  0.00     0.058 A 
ENDROOT
TORSDOF 0
ENDMDL
