MODEL 1
REMARK minimizedAffinity -1.46077931
REMARK minimizedRMSD -1
REMARK  0 active torsions:
REMARK  status: ('A' for Active; 'I' for Inactive)
ROOT
ATOM      1  C   UNL d   1       3.618  -0.613   1.485  0.00  0.00    -0.002 A 
ATOM      2  C1  UNL d   1       3.792  -1.160   0.222  0.00  0.00     0.010 A 
ATOM      3  C2  UNL d   1       2.718  -1.252  -0.666  0.00  0.00     0.041 A 
ATOM      4  C3  UNL d   1       1.455  -0.777  -0.260  0.00  0.00    -0.075 A 
ATOM      5  S   UNL d   1      -0.003  -0.785  -1.179  0.00  0.00     0.015 SA
ATOM      6  C4  UNL d   1      -0.891  -0.062   0.083  0.00  0.00     0.022 A 
ATOM      7  C5  UNL d   1      -0.109   0.186   1.187  0.00  0.00     0.026 A 
ATOM      8  C6  UNL d   1       1.256  -0.222   1.007  0.00  0.00    -0.082 A 
ATOM      9  C7  UNL d   1       2.364  -0.144   1.885  0.00  0.00     0.045 A 
ENDROOT
TORSDOF 0
ENDMDL
