MODEL 1
REMARK minimizedAffinity -0.393590331
REMARK minimizedRMSD -1
REMARK  0 active torsions:
REMARK  status: ('A' for Active; 'I' for Inactive)
ROOT
ATOM      1  C   UNL d   1       4.232  -1.056   2.114  0.00  0.00    -0.002 A 
ATOM      2  C1  UNL d   1       4.385  -1.228   0.745  0.00  0.00     0.010 A 
ATOM      3  C2  UNL d   1       3.326  -0.966  -0.126  0.00  0.00     0.041 A 
ATOM      4  C3  UNL d   1       2.100  -0.521   0.405  0.00  0.00    -0.075 A 
ATOM      5  S   UNL d   1       0.665  -0.137  -0.470  0.00  0.00     0.015 SA
ATOM      6  C4  UNL d   1      -0.184   0.266   0.951  0.00  0.00     0.022 A 
ATOM      7  C5  UNL d   1       0.593   0.117   2.076  0.00  0.00     0.026 A 
ATOM      8  C6  UNL d   1       1.922  -0.339   1.780  0.00  0.00    -0.082 A 
ATOM      9  C7  UNL d   1       3.014  -0.614   2.637  0.00  0.00     0.045 A 
ENDROOT
TORSDOF 0
ENDMDL
