MODEL 1
REMARK minimizedAffinity 0.879025519
REMARK minimizedRMSD -1
REMARK  0 active torsions:
REMARK  status: ('A' for Active; 'I' for Inactive)
ROOT
ATOM      1  C   UNL d   1      -0.588   1.530   2.398  0.00  0.00    -0.002 A 
ATOM      2  C1  UNL d   1      -0.093   0.255   2.167  0.00  0.00     0.010 A 
ATOM      3  C2  UNL d   1       0.249  -0.151   0.875  0.00  0.00     0.041 A 
ATOM      4  C3  UNL d   1       0.086   0.756  -0.190  0.00  0.00    -0.075 A 
ATOM      5  S   UNL d   1       0.441   0.480  -1.854  0.00  0.00     0.015 SA
ATOM      6  C4  UNL d   1      -0.056   2.049  -2.298  0.00  0.00     0.022 A 
ATOM      7  C5  UNL d   1      -0.485   2.779  -1.215  0.00  0.00     0.026 A 
ATOM      8  C6  UNL d   1      -0.409   2.047   0.018  0.00  0.00    -0.082 A 
ATOM      9  C7  UNL d   1      -0.749   2.428   1.338  0.00  0.00     0.045 A 
ENDROOT
TORSDOF 0
ENDMDL
