MODEL 1
REMARK minimizedAffinity -0.156750858
REMARK minimizedRMSD -1
REMARK  0 active torsions:
REMARK  status: ('A' for Active; 'I' for Inactive)
ROOT
ATOM      1  C   UNL d   1      -1.316   2.849   1.607  0.00  0.00    -0.002 A 
ATOM      2  C1  UNL d   1      -0.172   2.381   2.238  0.00  0.00     0.010 A 
ATOM      3  C2  UNL d   1       0.608   1.386   1.648  0.00  0.00     0.041 A 
ATOM      4  C3  UNL d   1       0.218   0.864   0.399  0.00  0.00    -0.075 A 
ATOM      5  S   UNL d   1       1.020  -0.360  -0.513  0.00  0.00     0.015 SA
ATOM      6  C4  UNL d   1      -0.136  -0.291  -1.763  0.00  0.00     0.022 A 
ATOM      7  C5  UNL d   1      -1.118   0.638  -1.507  0.00  0.00     0.026 A 
ATOM      8  C6  UNL d   1      -0.929   1.319  -0.257  0.00  0.00    -0.082 A 
ATOM      9  C7  UNL d   1      -1.701   2.328   0.368  0.00  0.00     0.045 A 
ENDROOT
TORSDOF 0
ENDMDL
