MODEL 1
REMARK minimizedAffinity 2.77438712
REMARK minimizedRMSD -1
REMARK  0 active torsions:
REMARK  status: ('A' for Active; 'I' for Inactive)
ROOT
ATOM      1  C   UNL d   1      -1.419   2.800   0.315  0.00  0.00    -0.002 A 
ATOM      2  C1  UNL d   1      -1.419   2.331  -0.991  0.00  0.00     0.010 A 
ATOM      3  C2  UNL d   1      -0.748   1.152  -1.323  0.00  0.00     0.041 A 
ATOM      4  C3  UNL d   1      -0.073   0.444  -0.309  0.00  0.00    -0.075 A 
ATOM      5  S   UNL d   1       0.814  -1.024  -0.482  0.00  0.00     0.015 SA
ATOM      6  C4  UNL d   1       1.214  -1.064   1.175  0.00  0.00     0.022 A 
ATOM      7  C5  UNL d   1       0.691   0.009   1.857  0.00  0.00     0.026 A 
ATOM      8  C6  UNL d   1      -0.060   0.896   1.013  0.00  0.00    -0.082 A 
ATOM      9  C7  UNL d   1      -0.748   2.095   1.317  0.00  0.00     0.045 A 
ENDROOT
TORSDOF 0
ENDMDL
