MODEL 1
REMARK minimizedAffinity 7.98942614
REMARK minimizedRMSD -1
REMARK  0 active torsions:
REMARK  status: ('A' for Active; 'I' for Inactive)
ROOT
ATOM      1  C   UNL d   1      -5.454  -4.856  -5.270  0.00  0.00     0.023 A 
ATOM      2  C1  UNL d   1      -6.000  -4.355  -4.088  0.00  0.00     0.003 A 
ATOM      3  C2  UNL d   1      -5.636  -3.087  -3.631  0.00  0.00     0.048 A 
ATOM      4  C3  UNL d   1      -4.727  -2.324  -4.363  0.00  0.00     0.023 A 
ATOM      5  C4  UNL d   1      -4.179  -2.820  -5.547  0.00  0.00     0.048 A 
ATOM      6  C5  UNL d   1      -4.545  -4.089  -5.999  0.00  0.00     0.003 A 
ATOM      7  I   UNL d   1      -4.184  -0.435  -3.685  0.00  0.00    -0.146 I 
ENDROOT
TORSDOF 0
ENDMDL
