MODEL 1
REMARK minimizedAffinity 8.43529892
REMARK minimizedRMSD -1
REMARK  0 active torsions:
REMARK  status: ('A' for Active; 'I' for Inactive)
ROOT
ATOM      1  C   UNL d   1      -4.140  -0.837  -2.192  0.00  0.00     0.023 A 
ATOM      2  C1  UNL d   1      -5.429  -0.468  -1.807  0.00  0.00     0.003 A 
ATOM      3  C2  UNL d   1      -5.962   0.753  -2.224  0.00  0.00     0.048 A 
ATOM      4  C3  UNL d   1      -5.201   1.602  -3.027  0.00  0.00     0.023 A 
ATOM      5  C4  UNL d   1      -3.911   1.237  -3.416  0.00  0.00     0.048 A 
ATOM      6  C5  UNL d   1      -3.382   0.015  -2.996  0.00  0.00     0.003 A 
ATOM      7  I   UNL d   1      -5.991   3.420  -3.649  0.00  0.00    -0.146 I 
ENDROOT
TORSDOF 0
ENDMDL
