MODEL 1
REMARK minimizedAffinity 1.25357246
REMARK minimizedRMSD -1
REMARK  0 active torsions:
REMARK  status: ('A' for Active; 'I' for Inactive)
ROOT
ATOM      1  C   UNL d   1       2.631  -1.847   2.839  0.00  0.00     0.023 A 
ATOM      2  C1  UNL d   1       3.527  -2.815   3.293  0.00  0.00     0.003 A 
ATOM      3  C2  UNL d   1       3.104  -3.791   4.198  0.00  0.00     0.048 A 
ATOM      4  C3  UNL d   1       1.783  -3.793   4.644  0.00  0.00     0.023 A 
ATOM      5  C4  UNL d   1       0.882  -2.827   4.192  0.00  0.00     0.048 A 
ATOM      6  C5  UNL d   1       1.311  -1.853   3.288  0.00  0.00     0.003 A 
ATOM      7  I   UNL d   1       1.150  -5.244   5.990  0.00  0.00    -0.146 I 
ENDROOT
TORSDOF 0
ENDMDL
