MODEL 1
REMARK minimizedAffinity 1.25327456
REMARK minimizedRMSD -1
REMARK  0 active torsions:
REMARK  status: ('A' for Active; 'I' for Inactive)
ROOT
ATOM      1  C   UNL d   1       2.667  -5.999  -2.148  0.00  0.00     0.023 A 
ATOM      2  C1  UNL d   1       2.196  -5.999  -3.460  0.00  0.00     0.003 A 
ATOM      3  C2  UNL d   1       3.097  -5.999  -4.527  0.00  0.00     0.048 A 
ATOM      4  C3  UNL d   1       4.468  -5.999  -4.274  0.00  0.00     0.023 A 
ATOM      5  C4  UNL d   1       4.944  -6.000  -2.962  0.00  0.00     0.048 A 
ATOM      6  C5  UNL d   1       4.040  -5.999  -1.899  0.00  0.00     0.003 A 
ATOM      7  I   UNL d   1       5.811  -5.999  -5.860  0.00  0.00    -0.146 I 
ENDROOT
TORSDOF 0
ENDMDL
