MODEL 1
REMARK minimizedAffinity 1.56087875
REMARK minimizedRMSD -1
REMARK  0 active torsions:
REMARK  status: ('A' for Active; 'I' for Inactive)
ROOT
ATOM      1  C   UNL d   1       4.018  -5.995  -1.412  0.00  0.00     0.023 A 
ATOM      2  C1  UNL d   1       2.639  -5.996  -1.618  0.00  0.00     0.003 A 
ATOM      3  C2  UNL d   1       2.125  -5.995  -2.917  0.00  0.00     0.048 A 
ATOM      4  C3  UNL d   1       2.998  -5.995  -4.005  0.00  0.00     0.023 A 
ATOM      5  C4  UNL d   1       4.379  -5.995  -3.804  0.00  0.00     0.048 A 
ATOM      6  C5  UNL d   1       4.887  -5.995  -2.504  0.00  0.00     0.003 A 
ATOM      7  I   UNL d   1       2.236  -5.994  -5.939  0.00  0.00    -0.146 I 
ENDROOT
TORSDOF 0
ENDMDL
