MODEL 1
REMARK minimizedAffinity 6.75342178
REMARK minimizedRMSD -1
REMARK  0 active torsions:
REMARK  status: ('A' for Active; 'I' for Inactive)
ROOT
ATOM      1  C   UNL d   1       1.305  -3.433   2.373  0.00  0.00     0.023 A 
ATOM      2  C1  UNL d   1       1.361  -2.258   3.122  0.00  0.00     0.003 A 
ATOM      3  C2  UNL d   1       2.284  -2.136   4.163  0.00  0.00     0.048 A 
ATOM      4  C3  UNL d   1       3.149  -3.192   4.449  0.00  0.00     0.023 A 
ATOM      5  C4  UNL d   1       3.097  -4.369   3.701  0.00  0.00     0.048 A 
ATOM      6  C5  UNL d   1       2.172  -4.487   2.661  0.00  0.00     0.003 A 
ATOM      7  I   UNL d   1       4.523  -3.012   5.997  0.00  0.00    -0.146 I 
ENDROOT
TORSDOF 0
ENDMDL
