MODEL 1
REMARK minimizedAffinity 1.34214854
REMARK minimizedRMSD -1
REMARK  0 active torsions:
REMARK  status: ('A' for Active; 'I' for Inactive)
ROOT
ATOM      1  C   UNL d   1       1.143  -2.919   3.359  0.00  0.00     0.023 A 
ATOM      2  C1  UNL d   1       1.893  -4.030   3.744  0.00  0.00     0.003 A 
ATOM      3  C2  UNL d   1       3.288  -3.956   3.774  0.00  0.00     0.048 A 
ATOM      4  C3  UNL d   1       3.925  -2.768   3.420  0.00  0.00     0.023 A 
ATOM      5  C4  UNL d   1       3.178  -1.653   3.035  0.00  0.00     0.048 A 
ATOM      6  C5  UNL d   1       1.784  -1.732   3.005  0.00  0.00     0.003 A 
ATOM      7  I   UNL d   1       6.000  -2.655   3.464  0.00  0.00    -0.146 I 
ENDROOT
TORSDOF 0
ENDMDL
