MODEL 1
REMARK minimizedAffinity 3.8254621
REMARK minimizedRMSD -1
REMARK  0 active torsions:
REMARK  status: ('A' for Active; 'I' for Inactive)
ROOT
ATOM      1  C   UNL d   1       1.137  -2.783   3.046  0.00  0.00     0.023 A 
ATOM      2  C1  UNL d   1       1.769  -1.576   2.746  0.00  0.00     0.003 A 
ATOM      3  C2  UNL d   1       3.160  -1.477   2.821  0.00  0.00     0.048 A 
ATOM      4  C3  UNL d   1       3.913  -2.590   3.195  0.00  0.00     0.023 A 
ATOM      5  C4  UNL d   1       3.285  -3.800   3.495  0.00  0.00     0.048 A 
ATOM      6  C5  UNL d   1       1.894  -3.893   3.420  0.00  0.00     0.003 A 
ATOM      7  I   UNL d   1       5.983  -2.446   3.308  0.00  0.00    -0.146 I 
ENDROOT
TORSDOF 0
ENDMDL
