MODEL 1
REMARK minimizedAffinity 6.24495935
REMARK minimizedRMSD -1
REMARK  0 active torsions:
REMARK  status: ('A' for Active; 'I' for Inactive)
ROOT
ATOM      1  C   UNL d   1       4.414  -5.825  -1.612  0.00  0.00     0.023 A 
ATOM      2  C1  UNL d   1       3.022  -5.885  -1.680  0.00  0.00     0.003 A 
ATOM      3  C2  UNL d   1       2.384  -5.934  -2.920  0.00  0.00     0.048 A 
ATOM      4  C3  UNL d   1       3.143  -5.925  -4.090  0.00  0.00     0.023 A 
ATOM      5  C4  UNL d   1       4.536  -5.866  -4.027  0.00  0.00     0.048 A 
ATOM      6  C5  UNL d   1       5.170  -5.815  -2.784  0.00  0.00     0.003 A 
ATOM      7  I   UNL d   1       2.195  -5.999  -5.938  0.00  0.00    -0.146 I 
ENDROOT
TORSDOF 0
ENDMDL
