MODEL 1
REMARK minimizedAffinity 0.943805158
REMARK minimizedRMSD -1
REMARK  0 active torsions:
REMARK  status: ('A' for Active; 'I' for Inactive)
ROOT
ATOM      1  C   UNL d   1       3.134  -3.478   4.968  0.00  0.00     0.023 A 
ATOM      2  C1  UNL d   1       1.823  -3.722   4.557  0.00  0.00     0.003 A 
ATOM      3  C2  UNL d   1       1.317  -3.088   3.421  0.00  0.00     0.048 A 
ATOM      4  C3  UNL d   1       2.127  -2.212   2.699  0.00  0.00     0.023 A 
ATOM      5  C4  UNL d   1       3.439  -1.965   3.106  0.00  0.00     0.048 A 
ATOM      6  C5  UNL d   1       3.941  -2.601   4.243  0.00  0.00     0.003 A 
ATOM      7  I   UNL d   1       1.376  -1.267   1.007  0.00  0.00    -0.146 I 
ENDROOT
TORSDOF 0
ENDMDL
