MODEL 1
REMARK minimizedAffinity -2.94626498
REMARK minimizedRMSD -1
REMARK  0 active torsions:
REMARK  status: ('A' for Active; 'I' for Inactive)
ROOT
ATOM      1  O1  BZF d   1       1.485  -1.890  -0.183  0.00  0.00    -0.204 OA
ATOM      2  C2  BZF d   1       0.797  -2.896   0.468  0.00  0.00     0.174 A 
ATOM      3  C3  BZF d   1      -0.303  -2.408   1.076  0.00  0.00    -0.012 A 
ATOM      4  C3A BZF d   1      -0.353  -1.025   0.710  0.00  0.00    -0.107 A 
ATOM      5  C4  BZF d   1      -1.223  -0.011   0.991  0.00  0.00     0.055 A 
ATOM      6  C5  BZF d   1      -0.946   1.241   0.540  0.00  0.00    -0.016 A 
ATOM      7  C6  BZF d   1       0.193   1.514  -0.189  0.00  0.00     0.022 A 
ATOM      8  C7  BZF d   1       1.083   0.539  -0.497  0.00  0.00     0.029 A 
ATOM      9  C7A BZF d   1       0.789  -0.733  -0.071  0.00  0.00     0.058 A 
ENDROOT
TORSDOF 0
ENDMDL
