MODEL 1
REMARK minimizedAffinity -0.792054892
REMARK minimizedRMSD -1
REMARK  0 active torsions:
REMARK  status: ('A' for Active; 'I' for Inactive)
ROOT
ATOM      1  O1  BZF d   1      -0.130   1.227  -1.895  0.00  0.00    -0.204 OA
ATOM      2  C2  BZF d   1       0.499   2.345  -1.384  0.00  0.00     0.174 A 
ATOM      3  C3  BZF d   1       1.065   2.073  -0.191  0.00  0.00    -0.012 A 
ATOM      4  C3A BZF d   1       0.850   0.674   0.017  0.00  0.00    -0.107 A 
ATOM      5  C4  BZF d   1       1.194  -0.191   1.017  0.00  0.00     0.055 A 
ATOM      6  C5  BZF d   1       0.768  -1.480   0.950  0.00  0.00    -0.016 A 
ATOM      7  C6  BZF d   1      -0.005  -1.936  -0.097  0.00  0.00     0.022 A 
ATOM      8  C7  BZF d   1      -0.366  -1.117  -1.114  0.00  0.00     0.029 A 
ATOM      9  C7A BZF d   1       0.089   0.177  -1.067  0.00  0.00     0.058 A 
ENDROOT
TORSDOF 0
ENDMDL
