MODEL 1
REMARK minimizedAffinity -5.72052479
REMARK minimizedRMSD -1
REMARK  0 active torsions:
REMARK  status: ('A' for Active; 'I' for Inactive)
ROOT
ATOM      1  O1  BZF d   1      -0.546   0.925   0.068  0.00  0.00    -0.204 OA
ATOM      2  C2  BZF d   1       0.426   0.431  -0.781  0.00  0.00     0.174 A 
ATOM      3  C3  BZF d   1       0.454  -0.917  -0.743  0.00  0.00    -0.012 A 
ATOM      4  C3A BZF d   1      -0.626  -1.291   0.118  0.00  0.00    -0.107 A 
ATOM      5  C4  BZF d   1      -1.118  -2.494   0.538  0.00  0.00     0.055 A 
ATOM      6  C5  BZF d   1      -2.137  -2.513   1.437  0.00  0.00    -0.016 A 
ATOM      7  C6  BZF d   1      -2.683  -1.351   1.941  0.00  0.00     0.022 A 
ATOM      8  C7  BZF d   1      -2.231  -0.134   1.550  0.00  0.00     0.029 A 
ATOM      9  C7A BZF d   1      -1.224  -0.111   0.617  0.00  0.00     0.058 A 
ENDROOT
TORSDOF 0
ENDMDL
