MODEL 1
REMARK minimizedAffinity -1.53016675
REMARK minimizedRMSD -1
REMARK  0 active torsions:
REMARK  status: ('A' for Active; 'I' for Inactive)
ROOT
ATOM      1  O1  BZF d   1      -0.590   0.430  -0.692  0.00  0.00    -0.204 OA
ATOM      2  C2  BZF d   1       0.101  -0.024   0.415  0.00  0.00     0.174 A 
ATOM      3  C3  BZF d   1       1.391   0.365   0.366  0.00  0.00    -0.012 A 
ATOM      4  C3A BZF d   1       1.492   1.187  -0.801  0.00  0.00    -0.107 A 
ATOM      5  C4  BZF d   1       2.520   1.879  -1.376  0.00  0.00     0.055 A 
ATOM      6  C5  BZF d   1       2.305   2.522  -2.553  0.00  0.00    -0.016 A 
ATOM      7  C6  BZF d   1       1.080   2.490  -3.186  0.00  0.00     0.022 A 
ATOM      8  C7  BZF d   1       0.029   1.821  -2.652  0.00  0.00     0.029 A 
ATOM      9  C7A BZF d   1       0.234   1.197  -1.445  0.00  0.00     0.058 A 
ENDROOT
TORSDOF 0
ENDMDL
