MODEL 1
REMARK minimizedAffinity -1.67220283
REMARK minimizedRMSD -1
REMARK  0 active torsions:
REMARK  status: ('A' for Active; 'I' for Inactive)
ROOT
ATOM      1  O1  BZF d   1      -1.528   0.600   1.463  0.00  0.00    -0.204 OA
ATOM      2  C2  BZF d   1      -2.329   0.154   2.496  0.00  0.00     0.174 A 
ATOM      3  C3  BZF d   1      -2.322  -1.193   2.560  0.00  0.00    -0.012 A 
ATOM      4  C3A BZF d   1      -1.390  -1.613   1.559  0.00  0.00    -0.107 A 
ATOM      5  C4  BZF d   1      -0.938  -2.835   1.151  0.00  0.00     0.055 A 
ATOM      6  C5  BZF d   1      -0.082  -2.904   0.097  0.00  0.00    -0.016 A 
ATOM      7  C6  BZF d   1       0.337  -1.774  -0.573  0.00  0.00     0.022 A 
ATOM      8  C7  BZF d   1      -0.080  -0.539  -0.201  0.00  0.00     0.029 A 
ATOM      9  C7A BZF d   1      -0.919  -0.463   0.884  0.00  0.00     0.058 A 
ENDROOT
TORSDOF 0
ENDMDL
