MODEL 1
REMARK minimizedAffinity -0.838082314
REMARK minimizedRMSD -1
REMARK  0 active torsions:
REMARK  status: ('A' for Active; 'I' for Inactive)
ROOT
ATOM      1  O1  BZF d   1       0.812   0.829  -3.199  0.00  0.00    -0.204 OA
ATOM      2  C2  BZF d   1       1.126   2.174  -3.230  0.00  0.00     0.174 A 
ATOM      3  C3  BZF d   1       1.091   2.702  -1.990  0.00  0.00    -0.012 A 
ATOM      4  C3A BZF d   1       0.823   1.599  -1.119  0.00  0.00    -0.107 A 
ATOM      5  C4  BZF d   1       0.685   1.484   0.235  0.00  0.00     0.055 A 
ATOM      6  C5  BZF d   1       0.353   0.277   0.765  0.00  0.00    -0.016 A 
ATOM      7  C6  BZF d   1       0.146  -0.832  -0.029  0.00  0.00     0.022 A 
ATOM      8  C7  BZF d   1       0.276  -0.768  -1.376  0.00  0.00     0.029 A 
ATOM      9  C7A BZF d   1       0.644   0.442  -1.912  0.00  0.00     0.058 A 
ENDROOT
TORSDOF 0
ENDMDL
