MODEL 1
REMARK minimizedAffinity -3.71130562
REMARK minimizedRMSD -1
REMARK  0 active torsions:
REMARK  status: ('A' for Active; 'I' for Inactive)
ROOT
ATOM      1  O1  BZF d   1      -0.014  -1.505  -1.387  0.00  0.00    -0.204 OA
ATOM      2  C2  BZF d   1      -0.100  -1.875  -0.058  0.00  0.00     0.174 A 
ATOM      3  C3  BZF d   1       0.136  -0.820   0.748  0.00  0.00    -0.012 A 
ATOM      4  C3A BZF d   1       0.294   0.298  -0.131  0.00  0.00    -0.107 A 
ATOM      5  C4  BZF d   1       0.533   1.627   0.074  0.00  0.00     0.055 A 
ATOM      6  C5  BZF d   1       0.705   2.440  -1.001  0.00  0.00    -0.016 A 
ATOM      7  C6  BZF d   1       0.650   1.958  -2.292  0.00  0.00     0.022 A 
ATOM      8  C7  BZF d   1       0.411   0.649  -2.545  0.00  0.00     0.029 A 
ATOM      9  C7A BZF d   1       0.203  -0.170  -1.462  0.00  0.00     0.058 A 
ENDROOT
TORSDOF 0
ENDMDL
