MODEL 1
REMARK minimizedAffinity -4.87263489
REMARK minimizedRMSD -1
REMARK  0 active torsions:
REMARK  status: ('A' for Active; 'I' for Inactive)
ROOT
ATOM      1  O1  BZF d   1      -2.356  -0.255   1.770  0.00  0.00    -0.204 OA
ATOM      2  C2  BZF d   1      -2.315  -1.635   1.829  0.00  0.00     0.174 A 
ATOM      3  C3  BZF d   1      -1.336  -2.119   1.038  0.00  0.00    -0.012 A 
ATOM      4  C3A BZF d   1      -0.667  -0.965   0.519  0.00  0.00    -0.107 A 
ATOM      5  C4  BZF d   1       0.401  -0.795  -0.315  0.00  0.00     0.055 A 
ATOM      6  C5  BZF d   1       0.757   0.463  -0.684  0.00  0.00    -0.016 A 
ATOM      7  C6  BZF d   1       0.066   1.572  -0.243  0.00  0.00     0.022 A 
ATOM      8  C7  BZF d   1      -0.997   1.454   0.590  0.00  0.00     0.029 A 
ATOM      9  C7A BZF d   1      -1.339   0.186   0.991  0.00  0.00     0.058 A 
ENDROOT
TORSDOF 0
ENDMDL
