MODEL 1
REMARK minimizedAffinity -4.07862616
REMARK minimizedRMSD -1
REMARK  0 active torsions:
REMARK  status: ('A' for Active; 'I' for Inactive)
ROOT
ATOM      1  O1  BZF d   1       0.139  -0.301   0.677  0.00  0.00    -0.204 OA
ATOM      2  C2  BZF d   1       0.268  -1.511   0.023  0.00  0.00     0.174 A 
ATOM      3  C3  BZF d   1       0.412  -1.324  -1.305  0.00  0.00    -0.012 A 
ATOM      4  C3A BZF d   1       0.462   0.095  -1.482  0.00  0.00    -0.107 A 
ATOM      5  C4  BZF d   1       0.609   0.900  -2.575  0.00  0.00     0.055 A 
ATOM      6  C5  BZF d   1       0.542   2.248  -2.417  0.00  0.00    -0.016 A 
ATOM      7  C6  BZF d   1       0.325   2.824  -1.182  0.00  0.00     0.022 A 
ATOM      8  C7  BZF d   1       0.178   2.067  -0.068  0.00  0.00     0.029 A 
ATOM      9  C7A BZF d   1       0.278   0.705  -0.220  0.00  0.00     0.058 A 
ENDROOT
TORSDOF 0
ENDMDL
