MODEL 1
REMARK minimizedAffinity -0.931175113
REMARK minimizedRMSD -1
REMARK  0 active torsions:
REMARK  status: ('A' for Active; 'I' for Inactive)
ROOT
ATOM      1  O1  BZF d   1       0.875  -0.377   1.067  0.00  0.00    -0.204 OA
ATOM      2  C2  BZF d   1       0.700   0.665   0.177  0.00  0.00     0.174 A 
ATOM      3  C3  BZF d   1      -0.491   0.564  -0.449  0.00  0.00    -0.012 A 
ATOM      4  C3A BZF d   1      -1.137  -0.563   0.151  0.00  0.00    -0.107 A 
ATOM      5  C4  BZF d   1      -2.352  -1.158  -0.036  0.00  0.00     0.055 A 
ATOM      6  C5  BZF d   1      -2.648  -2.287   0.659  0.00  0.00    -0.016 A 
ATOM      7  C6  BZF d   1      -1.753  -2.851   1.544  0.00  0.00     0.022 A 
ATOM      8  C7  BZF d   1      -0.537  -2.295   1.766  0.00  0.00     0.029 A 
ATOM      9  C7A BZF d   1      -0.247  -1.135   1.090  0.00  0.00     0.058 A 
ENDROOT
TORSDOF 0
ENDMDL
