MODEL 1
REMARK minimizedAffinity -3.84797931
REMARK minimizedRMSD -1
REMARK  0 active torsions:
REMARK  status: ('A' for Active; 'I' for Inactive)
ROOT
ATOM      1  O1  BZF d   1      -2.246  -1.572   2.273  0.00  0.00    -0.204 OA
ATOM      2  C2  BZF d   1      -1.569  -2.763   2.455  0.00  0.00     0.174 A 
ATOM      3  C3  BZF d   1      -0.403  -2.758   1.778  0.00  0.00    -0.012 A 
ATOM      4  C3A BZF d   1      -0.304  -1.450   1.208  0.00  0.00    -0.107 A 
ATOM      5  C4  BZF d   1       0.639  -0.830   0.438  0.00  0.00     0.055 A 
ATOM      6  C5  BZF d   1       0.399   0.429  -0.014  0.00  0.00    -0.016 A 
ATOM      7  C6  BZF d   1      -0.773   1.095   0.281  0.00  0.00     0.022 A 
ATOM      8  C7  BZF d   1      -1.735   0.523   1.045  0.00  0.00     0.029 A 
ATOM      9  C7A BZF d   1      -1.481  -0.736   1.530  0.00  0.00     0.058 A 
ENDROOT
TORSDOF 0
ENDMDL
