MODEL 1
REMARK minimizedAffinity -3.69024014
REMARK minimizedRMSD -1
REMARK  0 active torsions:
REMARK  status: ('A' for Active; 'I' for Inactive)
ROOT
ATOM      1  O1  BZF d   1      -0.244  -0.618  -1.105  0.00  0.00    -0.204 OA
ATOM      2  C2  BZF d   1       0.307  -0.381   0.139  0.00  0.00     0.174 A 
ATOM      3  C3  BZF d   1       1.137   0.681   0.100  0.00  0.00    -0.012 A 
ATOM      4  C3A BZF d   1       1.032   1.193  -1.232  0.00  0.00    -0.107 A 
ATOM      5  C4  BZF d   1       1.604   2.250  -1.879  0.00  0.00     0.055 A 
ATOM      6  C5  BZF d   1       1.347   2.432  -3.201  0.00  0.00    -0.016 A 
ATOM      7  C6  BZF d   1       0.528   1.575  -3.907  0.00  0.00     0.022 A 
ATOM      8  C7  BZF d   1      -0.066   0.515  -3.306  0.00  0.00     0.029 A 
ATOM      9  C7A BZF d   1       0.165   0.348  -1.963  0.00  0.00     0.058 A 
ENDROOT
TORSDOF 0
ENDMDL
