MODEL 1
REMARK minimizedAffinity -4.61748314
REMARK minimizedRMSD -1
REMARK  0 active torsions:
REMARK  status: ('A' for Active; 'I' for Inactive)
ROOT
ATOM      1  O1  BZF d   1      -0.595  -0.543  -1.678  0.00  0.00    -0.204 OA
ATOM      2  C2  BZF d   1      -0.294  -0.231  -0.367  0.00  0.00     0.174 A 
ATOM      3  C3  BZF d   1       0.513   0.847  -0.304  0.00  0.00    -0.012 A 
ATOM      4  C3A BZF d   1       0.654   1.290  -1.658  0.00  0.00    -0.107 A 
ATOM      5  C4  BZF d   1       1.323   2.328  -2.241  0.00  0.00     0.055 A 
ATOM      6  C5  BZF d   1       1.319   2.439  -3.595  0.00  0.00    -0.016 A 
ATOM      7  C6  BZF d   1       0.661   1.529  -4.396  0.00  0.00     0.022 A 
ATOM      8  C7  BZF d   1      -0.021   0.485  -3.863  0.00  0.00     0.029 A 
ATOM      9  C7A BZF d   1      -0.046   0.389  -2.493  0.00  0.00     0.058 A 
ENDROOT
TORSDOF 0
ENDMDL
