MODEL 1
REMARK minimizedAffinity -6.08465719
REMARK minimizedRMSD -1
REMARK  0 active torsions:
REMARK  status: ('A' for Active; 'I' for Inactive)
ROOT
ATOM      1  O1  BZF d   1      -2.118   0.823   1.672  0.00  0.00    -0.204 OA
ATOM      2  C2  BZF d   1      -2.775   0.010   2.576  0.00  0.00     0.174 A 
ATOM      3  C3  BZF d   1      -2.262  -1.237   2.558  0.00  0.00    -0.012 A 
ATOM      4  C3A BZF d   1      -1.158  -1.178   1.649  0.00  0.00    -0.107 A 
ATOM      5  C4  BZF d   1      -0.243  -2.096   1.222  0.00  0.00     0.055 A 
ATOM      6  C5  BZF d   1       0.661  -1.736   0.273  0.00  0.00    -0.016 A 
ATOM      7  C6  BZF d   1       0.675  -0.470  -0.273  0.00  0.00     0.022 A 
ATOM      8  C7  BZF d   1      -0.210   0.477   0.123  0.00  0.00     0.029 A 
ATOM      9  C7A BZF d   1      -1.104   0.126   1.105  0.00  0.00     0.058 A 
ENDROOT
TORSDOF 0
ENDMDL
