MODEL 1
REMARK minimizedAffinity -4.69886351
REMARK minimizedRMSD -1
REMARK  0 active torsions:
REMARK  status: ('A' for Active; 'I' for Inactive)
ROOT
ATOM      1  O1  BZF d   1      -0.129   0.967  -0.086  0.00  0.00    -0.204 OA
ATOM      2  C2  BZF d   1       0.892   0.283  -0.717  0.00  0.00     0.174 A 
ATOM      3  C3  BZF d   1       0.989  -0.976  -0.243  0.00  0.00    -0.012 A 
ATOM      4  C3A BZF d   1      -0.095  -1.115   0.680  0.00  0.00    -0.107 A 
ATOM      5  C4  BZF d   1      -0.537  -2.145   1.462  0.00  0.00     0.055 A 
ATOM      6  C5  BZF d   1      -1.580  -1.932   2.306  0.00  0.00    -0.016 A 
ATOM      7  C6  BZF d   1      -2.200  -0.704   2.399  0.00  0.00     0.022 A 
ATOM      8  C7  BZF d   1      -1.801   0.346   1.640  0.00  0.00     0.029 A 
ATOM      9  C7A BZF d   1      -0.769   0.125   0.762  0.00  0.00     0.058 A 
ENDROOT
TORSDOF 0
ENDMDL
