MODEL 1
REMARK minimizedAffinity -2.62590861
REMARK minimizedRMSD -1
REMARK  0 active torsions:
REMARK  status: ('A' for Active; 'I' for Inactive)
ROOT
ATOM      1  O1  BZF d   1      -0.457   1.359   0.285  0.00  0.00    -0.204 OA
ATOM      2  C2  BZF d   1       0.357   1.813  -0.734  0.00  0.00     0.174 A 
ATOM      3  C3  BZF d   1       1.131   0.816  -1.208  0.00  0.00    -0.012 A 
ATOM      4  C3A BZF d   1       0.713  -0.355  -0.498  0.00  0.00    -0.107 A 
ATOM      5  C4  BZF d   1       1.098  -1.664  -0.538  0.00  0.00     0.055 A 
ATOM      6  C5  BZF d   1       0.543  -2.543   0.337  0.00  0.00    -0.016 A 
ATOM      7  C6  BZF d   1      -0.395  -2.146   1.268  0.00  0.00     0.022 A 
ATOM      8  C7  BZF d   1      -0.812  -0.858   1.342  0.00  0.00     0.029 A 
ATOM      9  C7A BZF d   1      -0.277   0.025   0.437  0.00  0.00     0.058 A 
ENDROOT
TORSDOF 0
ENDMDL
