MODEL 1
REMARK minimizedAffinity 13.1219177
REMARK minimizedRMSD -1
REMARK  0 active torsions:
REMARK  status: ('A' for Active; 'I' for Inactive)
ROOT
ATOM      1  C2' OXE d   1       3.584   0.845   0.229  0.00  0.00     0.078 C 
ATOM      2  C1' OXE d   1       2.250   2.565   2.002  0.00  0.00     0.078 C 
ATOM      3  C1  OXE d   1       2.298   1.097   2.347  0.00  0.00    -0.078 A 
ATOM      4  C2  OXE d   1       2.912   0.257   1.451  0.00  0.00    -0.078 A 
ATOM      5  C3  OXE d   1       3.031  -1.098   1.746  0.00  0.00     0.003 A 
ATOM      6  C4  OXE d   1       2.398  -1.636   2.873  0.00  0.00    -0.002 A 
ATOM      7  C5  OXE d   1       1.733  -0.803   3.780  0.00  0.00    -0.002 A 
ATOM      8  C6  OXE d   1       1.711   0.569   3.554  0.00  0.00     0.003 A 
ENDROOT
TORSDOF 0
ENDMDL
