MODEL 1
REMARK minimizedAffinity 16.857542
REMARK minimizedRMSD -1
REMARK  0 active torsions:
REMARK  status: ('A' for Active; 'I' for Inactive)
ROOT
ATOM      1  C2' OXE d   1       3.632  -3.141   5.479  0.00  0.00     0.078 C 
ATOM      2  C1' OXE d   1       3.207  -4.469   3.042  0.00  0.00     0.078 C 
ATOM      3  C1  OXE d   1       2.809  -3.017   3.131  0.00  0.00    -0.078 A 
ATOM      4  C2  OXE d   1       2.977  -2.388   4.341  0.00  0.00    -0.078 A 
ATOM      5  C3  OXE d   1       2.678  -1.034   4.462  0.00  0.00     0.003 A 
ATOM      6  C4  OXE d   1       2.064  -0.347   3.408  0.00  0.00    -0.002 A 
ATOM      7  C5  OXE d   1       1.847  -0.979   2.179  0.00  0.00    -0.002 A 
ATOM      8  C6  OXE d   1       2.252  -2.299   2.011  0.00  0.00     0.003 A 
ENDROOT
TORSDOF 0
ENDMDL
