MODEL 1
REMARK minimizedAffinity 10.3290586
REMARK minimizedRMSD -1
REMARK  0 active torsions:
REMARK  status: ('A' for Active; 'I' for Inactive)
ROOT
ATOM      1  C2' OXE d   1       5.872  -5.518  -3.554  0.00  0.00     0.078 C 
ATOM      2  C1' OXE d   1       3.715  -5.695  -1.767  0.00  0.00     0.078 C 
ATOM      3  C1  OXE d   1       3.413  -5.765  -3.243  0.00  0.00    -0.078 A 
ATOM      4  C2  OXE d   1       4.470  -5.631  -4.112  0.00  0.00    -0.078 A 
ATOM      5  C3  OXE d   1       4.254  -5.743  -5.482  0.00  0.00     0.003 A 
ATOM      6  C4  OXE d   1       2.952  -5.837  -5.989  0.00  0.00    -0.002 A 
ATOM      7  C5  OXE d   1       1.858  -5.935  -5.123  0.00  0.00    -0.002 A 
ATOM      8  C6  OXE d   1       2.075  -5.944  -3.750  0.00  0.00     0.003 A 
ENDROOT
TORSDOF 0
ENDMDL
