MODEL 1
REMARK minimizedAffinity 10.3803444
REMARK minimizedRMSD -1
REMARK  0 active torsions:
REMARK  status: ('A' for Active; 'I' for Inactive)
ROOT
ATOM      1  C2' OXE d   1      -0.819  -0.306   1.557  0.00  0.00     0.078 C 
ATOM      2  C1' OXE d   1       1.955  -0.625   1.844  0.00  0.00     0.078 C 
ATOM      3  C1  OXE d   1       1.436   0.751   1.506  0.00  0.00    -0.078 A 
ATOM      4  C2  OXE d   1       0.082   0.887   1.322  0.00  0.00    -0.078 A 
ATOM      5  C3  OXE d   1      -0.455   2.145   1.063  0.00  0.00     0.003 A 
ATOM      6  C4  OXE d   1       0.385   3.242   0.837  0.00  0.00    -0.002 A 
ATOM      7  C5  OXE d   1       1.771   3.116   0.981  0.00  0.00    -0.002 A 
ATOM      8  C6  OXE d   1       2.308   1.889   1.356  0.00  0.00     0.003 A 
ENDROOT
TORSDOF 0
ENDMDL
