MODEL 1
REMARK minimizedAffinity 4.4929924
REMARK minimizedRMSD -1
REMARK  0 active torsions:
REMARK  status: ('A' for Active; 'I' for Inactive)
ROOT
ATOM      1  C2' OXE d   1       3.110  -5.944  -1.711  0.00  0.00     0.078 C 
ATOM      2  C1' OXE d   1       1.707  -5.964  -4.143  0.00  0.00     0.078 C 
ATOM      3  C1  OXE d   1       3.215  -5.964  -4.200  0.00  0.00    -0.078 A 
ATOM      4  C2  OXE d   1       3.892  -5.907  -3.006  0.00  0.00    -0.078 A 
ATOM      5  C3  OXE d   1       5.283  -5.960  -3.000  0.00  0.00     0.003 A 
ATOM      6  C4  OXE d   1       6.000  -5.915  -4.202  0.00  0.00    -0.002 A 
ATOM      7  C5  OXE d   1       5.329  -5.932  -5.429  0.00  0.00    -0.002 A 
ATOM      8  C6  OXE d   1       3.940  -5.999  -5.446  0.00  0.00     0.003 A 
ENDROOT
TORSDOF 0
ENDMDL
