MODEL 1
REMARK minimizedAffinity 9.62610435
REMARK minimizedRMSD -1
REMARK  0 active torsions:
REMARK  status: ('A' for Active; 'I' for Inactive)
ROOT
ATOM      1  C2' OXE d   1       3.841   0.555  -3.645  0.00  0.00     0.078 C 
ATOM      2  C1' OXE d   1       5.321   0.939  -5.999  0.00  0.00     0.078 C 
ATOM      3  C1  OXE d   1       5.307  -0.443  -5.394  0.00  0.00    -0.078 A 
ATOM      4  C2  OXE d   1       4.619  -0.611  -4.217  0.00  0.00    -0.078 A 
ATOM      5  C3  OXE d   1       4.529  -1.877  -3.645  0.00  0.00     0.003 A 
ATOM      6  C4  OXE d   1       5.259  -2.947  -4.175  0.00  0.00    -0.002 A 
ATOM      7  C5  OXE d   1       6.000  -2.788  -5.351  0.00  0.00    -0.002 A 
ATOM      8  C6  OXE d   1       6.000  -1.556  -5.995  0.00  0.00     0.003 A 
ENDROOT
TORSDOF 0
ENDMDL
