MODEL 1
REMARK minimizedAffinity 14.8598623
REMARK minimizedRMSD -1
REMARK  0 active torsions:
REMARK  status: ('A' for Active; 'I' for Inactive)
ROOT
ATOM      1  C2' OXE d   1       1.860  -2.271   4.956  0.00  0.00     0.078 C 
ATOM      2  C1' OXE d   1       3.354  -3.453   2.894  0.00  0.00     0.078 C 
ATOM      3  C1  OXE d   1       2.986  -1.997   2.751  0.00  0.00    -0.078 A 
ATOM      4  C2  OXE d   1       2.215  -1.439   3.743  0.00  0.00    -0.078 A 
ATOM      5  C3  OXE d   1       1.894  -0.086   3.687  0.00  0.00     0.003 A 
ATOM      6  C4  OXE d   1       2.218   0.674   2.557  0.00  0.00    -0.002 A 
ATOM      7  C5  OXE d   1       2.969   0.115   1.517  0.00  0.00    -0.002 A 
ATOM      8  C6  OXE d   1       3.396  -1.205   1.618  0.00  0.00     0.003 A 
ENDROOT
TORSDOF 0
ENDMDL
