MODEL 1
REMARK minimizedAffinity 8.35230064
REMARK minimizedRMSD -1
REMARK  0 active torsions:
REMARK  status: ('A' for Active; 'I' for Inactive)
ROOT
ATOM      1  C2' OXE d   1      -5.880   2.312  -1.006  0.00  0.00     0.078 C 
ATOM      2  C1' OXE d   1      -3.079   2.421  -0.857  0.00  0.00     0.078 C 
ATOM      3  C1  OXE d   1      -3.860   2.640   0.414  0.00  0.00    -0.078 A 
ATOM      4  C2  OXE d   1      -5.231   2.632   0.323  0.00  0.00    -0.078 A 
ATOM      5  C3  OXE d   1      -6.000   2.775   1.475  0.00  0.00     0.003 A 
ATOM      6  C4  OXE d   1      -5.392   3.080   2.699  0.00  0.00    -0.002 A 
ATOM      7  C5  OXE d   1      -3.998   3.133   2.806  0.00  0.00    -0.002 A 
ATOM      8  C6  OXE d   1      -3.218   2.874   1.684  0.00  0.00     0.003 A 
ENDROOT
TORSDOF 0
ENDMDL
