MODEL 1
REMARK minimizedAffinity 3.25119448
REMARK minimizedRMSD -1
REMARK  0 active torsions:
REMARK  status: ('A' for Active; 'I' for Inactive)
ROOT
ATOM      1  C2' OXE d   1       2.589   1.140   4.957  0.00  0.00     0.078 C 
ATOM      2  C1' OXE d   1       1.906  -0.707   2.956  0.00  0.00     0.078 C 
ATOM      3  C1  OXE d   1       2.882  -1.149   4.018  0.00  0.00    -0.078 A 
ATOM      4  C2  OXE d   1       3.246  -0.223   4.966  0.00  0.00    -0.078 A 
ATOM      5  C3  OXE d   1       4.101  -0.595   6.000  0.00  0.00     0.003 A 
ATOM      6  C4  OXE d   1       4.712  -1.855   5.995  0.00  0.00    -0.002 A 
ATOM      7  C5  OXE d   1       4.385  -2.799   5.016  0.00  0.00    -0.002 A 
ATOM      8  C6  OXE d   1       3.442  -2.477   4.047  0.00  0.00     0.003 A 
ENDROOT
TORSDOF 0
ENDMDL
