MODEL 1
REMARK minimizedAffinity 5.37497187
REMARK minimizedRMSD -1
REMARK  0 active torsions:
REMARK  status: ('A' for Active; 'I' for Inactive)
ROOT
ATOM      1  C2' OXE d   1       3.051  -1.992   3.748  0.00  0.00     0.078 C 
ATOM      2  C1' OXE d   1       5.225  -3.362   4.878  0.00  0.00     0.078 C 
ATOM      3  C1  OXE d   1       3.847  -3.942   5.077  0.00  0.00    -0.078 A 
ATOM      4  C2  OXE d   1       2.785  -3.240   4.561  0.00  0.00    -0.078 A 
ATOM      5  C3  OXE d   1       1.498  -3.759   4.670  0.00  0.00     0.003 A 
ATOM      6  C4  OXE d   1       1.259  -4.909   5.432  0.00  0.00    -0.002 A 
ATOM      7  C5  OXE d   1       2.323  -5.618   6.000  0.00  0.00    -0.002 A 
ATOM      8  C6  OXE d   1       3.624  -5.172   5.797  0.00  0.00     0.003 A 
ENDROOT
TORSDOF 0
ENDMDL
