MODEL 1
REMARK minimizedAffinity 10.6876106
REMARK minimizedRMSD -1
REMARK  0 active torsions:
REMARK  status: ('A' for Active; 'I' for Inactive)
ROOT
ATOM      1  C2' OXE d   1       2.146   3.820   3.034  0.00  0.00     0.078 C 
ATOM      2  C1' OXE d   1       2.651   1.834   1.117  0.00  0.00     0.078 C 
ATOM      3  C1  OXE d   1       2.276   3.208   0.623  0.00  0.00    -0.078 A 
ATOM      4  C2  OXE d   1       1.985   4.162   1.569  0.00  0.00    -0.078 A 
ATOM      5  C3  OXE d   1       1.687   5.461   1.168  0.00  0.00     0.003 A 
ATOM      6  C4  OXE d   1       1.531   5.767  -0.189  0.00  0.00    -0.002 A 
ATOM      7  C5  OXE d   1       1.784   4.800  -1.168  0.00  0.00    -0.002 A 
ATOM      8  C6  OXE d   1       2.198   3.530  -0.780  0.00  0.00     0.003 A 
ENDROOT
TORSDOF 0
ENDMDL
