MODEL 1
REMARK minimizedAffinity 11.6063356
REMARK minimizedRMSD -1
REMARK  0 active torsions:
REMARK  status: ('A' for Active; 'I' for Inactive)
ROOT
ATOM      1  C2' OXE d   1       4.991   5.824  -1.682  0.00  0.00     0.078 C 
ATOM      2  C1' OXE d   1       2.524   5.124  -2.825  0.00  0.00     0.078 C 
ATOM      3  C1  OXE d   1       3.684   5.377  -3.755  0.00  0.00    -0.078 A 
ATOM      4  C2  OXE d   1       4.875   5.765  -3.190  0.00  0.00    -0.078 A 
ATOM      5  C3  OXE d   1       5.991   5.958  -3.999  0.00  0.00     0.003 A 
ATOM      6  C4  OXE d   1       5.872   5.912  -5.394  0.00  0.00    -0.002 A 
ATOM      7  C5  OXE d   1       4.658   5.558  -5.991  0.00  0.00    -0.002 A 
ATOM      8  C6  OXE d   1       3.568   5.247  -5.187  0.00  0.00     0.003 A 
ENDROOT
TORSDOF 0
ENDMDL
