MODEL 1
REMARK minimizedAffinity 9.23077774
REMARK minimizedRMSD -1
REMARK  0 active torsions:
REMARK  status: ('A' for Active; 'I' for Inactive)
ROOT
ATOM      1  C2' OXE d   1       1.956   0.952   2.518  0.00  0.00     0.078 C 
ATOM      2  C1' OXE d   1       2.248   1.011   5.309  0.00  0.00     0.078 C 
ATOM      3  C1  OXE d   1       2.562  -0.280   4.597  0.00  0.00    -0.078 A 
ATOM      4  C2  OXE d   1       2.372  -0.314   3.236  0.00  0.00    -0.078 A 
ATOM      5  C3  OXE d   1       2.699  -1.463   2.522  0.00  0.00     0.003 A 
ATOM      6  C4  OXE d   1       3.073  -2.633   3.195  0.00  0.00    -0.002 A 
ATOM      7  C5  OXE d   1       3.234  -2.632   4.585  0.00  0.00    -0.002 A 
ATOM      8  C6  OXE d   1       3.025  -1.455   5.294  0.00  0.00     0.003 A 
ENDROOT
TORSDOF 0
ENDMDL
