MODEL 1
REMARK minimizedAffinity -4.91249323
REMARK minimizedRMSD -1
REMARK  0 active torsions:
REMARK  status: ('A' for Active; 'I' for Inactive)
ROOT
ATOM      1  N1  IND d   1       1.060   2.153  -0.125  0.00  0.00    -0.196 N 
ATOM      2  C2  IND d   1      -0.257   1.795  -0.200  0.00  0.00     0.054 A 
ATOM      3  C3  IND d   1      -0.377   0.449  -0.240  0.00  0.00    -0.031 A 
ATOM      4  C4  IND d   1       1.447  -1.361  -0.092  0.00  0.00     0.051 A 
ATOM      5  C5  IND d   1       2.804  -1.523  -0.050  0.00  0.00    -0.031 A 
ATOM      6  C6  IND d   1       3.666  -0.445  -0.028  0.00  0.00     0.015 A 
ATOM      7  C7  IND d   1       3.201   0.839  -0.035  0.00  0.00    -0.016 A 
ATOM      8  C8  IND d   1       1.824   1.007  -0.085  0.00  0.00    -0.047 A 
ATOM      9  C9  IND d   1       0.946  -0.082  -0.150  0.00  0.00    -0.096 A 
ATOM     10  HN1 IND d   1       1.361   2.958  -0.106  0.00  0.00     0.298 HD
ENDROOT
TORSDOF 0
ENDMDL
