MODEL 1
REMARK minimizedAffinity -2.41373777
REMARK minimizedRMSD -1
REMARK  0 active torsions:
REMARK  status: ('A' for Active; 'I' for Inactive)
ROOT
ATOM      1  N1  IND d   1       3.320   0.403  -0.152  0.00  0.00    -0.196 N 
ATOM      2  C2  IND d   1       3.669  -0.919  -0.155  0.00  0.00     0.054 A 
ATOM      3  C3  IND d   1       2.565  -1.697  -0.111  0.00  0.00    -0.031 A 
ATOM      4  C4  IND d   1       0.082  -1.017  -0.131  0.00  0.00     0.051 A 
ATOM      5  C5  IND d   1      -0.735   0.077  -0.087  0.00  0.00    -0.031 A 
ATOM      6  C6  IND d   1      -0.233   1.362  -0.066  0.00  0.00     0.015 A 
ATOM      7  C7  IND d   1       1.112   1.602  -0.098  0.00  0.00    -0.016 A 
ATOM      8  C8  IND d   1       1.945   0.493  -0.135  0.00  0.00    -0.047 A 
ATOM      9  C9  IND d   1       1.442  -0.814  -0.114  0.00  0.00    -0.096 A 
ATOM     10  HN1 IND d   1       3.867   1.067  -0.159  0.00  0.00     0.298 HD
ENDROOT
TORSDOF 0
ENDMDL
