MODEL 1
REMARK minimizedAffinity -0.187597141
REMARK minimizedRMSD -1
REMARK  0 active torsions:
REMARK  status: ('A' for Active; 'I' for Inactive)
ROOT
ATOM      1  N1  IND d   1      -2.706   1.691   0.429  0.00  0.00    -0.196 N 
ATOM      2  C2  IND d   1      -3.617   1.099   1.258  0.00  0.00     0.054 A 
ATOM      3  C3  IND d   1      -3.247  -0.172   1.532  0.00  0.00    -0.031 A 
ATOM      4  C4  IND d   1      -1.134  -1.453   0.810  0.00  0.00     0.051 A 
ATOM      5  C5  IND d   1      -0.025  -1.342   0.019  0.00  0.00    -0.031 A 
ATOM      6  C6  IND d   1       0.254  -0.191  -0.688  0.00  0.00     0.015 A 
ATOM      7  C7  IND d   1      -0.563   0.902  -0.621  0.00  0.00    -0.016 A 
ATOM      8  C8  IND d   1      -1.694   0.791   0.176  0.00  0.00    -0.047 A 
ATOM      9  C9  IND d   1      -2.005  -0.390   0.862  0.00  0.00    -0.096 A 
ATOM     10  HN1 IND d   1      -2.756   2.491   0.118  0.00  0.00     0.298 HD
ENDROOT
TORSDOF 0
ENDMDL
