MODEL 1
REMARK minimizedAffinity 0.3004798
REMARK minimizedRMSD -1
REMARK  0 active torsions:
REMARK  status: ('A' for Active; 'I' for Inactive)
ROOT
ATOM      1  N1  IND d   1      -0.842   1.582   0.414  0.00  0.00    -0.196 N 
ATOM      2  C2  IND d   1      -0.332   0.889  -0.648  0.00  0.00     0.054 A 
ATOM      3  C3  IND d   1      -1.249   0.018  -1.125  0.00  0.00    -0.031 A 
ATOM      4  C4  IND d   1      -3.683  -0.366  -0.381  0.00  0.00     0.051 A 
ATOM      5  C5  IND d   1      -4.589   0.006   0.573  0.00  0.00    -0.031 A 
ATOM      6  C6  IND d   1      -4.287   0.942   1.540  0.00  0.00     0.015 A 
ATOM      7  C7  IND d   1      -3.066   1.553   1.583  0.00  0.00    -0.016 A 
ATOM      8  C8  IND d   1      -2.141   1.174   0.621  0.00  0.00    -0.047 A 
ATOM      9  C9  IND d   1      -2.427   0.193  -0.337  0.00  0.00    -0.096 A 
ATOM     10  HN1 IND d   1      -0.421   2.173   0.876  0.00  0.00     0.298 HD
ENDROOT
TORSDOF 0
ENDMDL
