MODEL 1
REMARK minimizedAffinity -2.42258382
REMARK minimizedRMSD -1
REMARK  0 active torsions:
REMARK  status: ('A' for Active; 'I' for Inactive)
ROOT
ATOM      1  N1  IND d   1       0.361   1.555  -0.373  0.00  0.00    -0.196 N 
ATOM      2  C2  IND d   1      -0.653   0.651  -0.520  0.00  0.00     0.054 A 
ATOM      3  C3  IND d   1      -0.153  -0.595  -0.682  0.00  0.00    -0.031 A 
ATOM      4  C4  IND d   1       2.295  -1.392  -0.637  0.00  0.00     0.051 A 
ATOM      5  C5  IND d   1       3.578  -0.928  -0.568  0.00  0.00    -0.031 A 
ATOM      6  C6  IND d   1       3.860   0.415  -0.425  0.00  0.00     0.015 A 
ATOM      7  C7  IND d   1       2.865   1.347  -0.334  0.00  0.00    -0.016 A 
ATOM      8  C8  IND d   1       1.561   0.879  -0.411  0.00  0.00    -0.047 A 
ATOM      9  C9  IND d   1       1.269  -0.478  -0.599  0.00  0.00    -0.096 A 
ATOM     10  HN1 IND d   1       0.266   2.404  -0.275  0.00  0.00     0.298 HD
ENDROOT
TORSDOF 0
ENDMDL
