MODEL 1
REMARK minimizedAffinity -0.14731808
REMARK minimizedRMSD -1
REMARK  0 active torsions:
REMARK  status: ('A' for Active; 'I' for Inactive)
ROOT
ATOM      1  N1  IND d   1       2.103   2.180  -0.523  0.00  0.00    -0.196 N 
ATOM      2  C2  IND d   1       3.032   1.429   0.142  0.00  0.00     0.054 A 
ATOM      3  C3  IND d   1       2.458   0.320   0.660  0.00  0.00    -0.031 A 
ATOM      4  C4  IND d   1       0.032  -0.515   0.452  0.00  0.00     0.051 A 
ATOM      5  C5  IND d   1      -1.195  -0.151  -0.029  0.00  0.00    -0.031 A 
ATOM      6  C6  IND d   1      -1.389   1.030  -0.715  0.00  0.00     0.015 A 
ATOM      7  C7  IND d   1      -0.355   1.891  -0.957  0.00  0.00    -0.016 A 
ATOM      8  C8  IND d   1       0.890   1.529  -0.464  0.00  0.00    -0.047 A 
ATOM      9  C9  IND d   1       1.084   0.351   0.270  0.00  0.00    -0.096 A 
ATOM     10  HN1 IND d   1       2.251   2.932  -0.912  0.00  0.00     0.298 HD
ENDROOT
TORSDOF 0
ENDMDL
