MODEL 1
REMARK minimizedAffinity -0.544467688
REMARK minimizedRMSD -1
REMARK  0 active torsions:
REMARK  status: ('A' for Active; 'I' for Inactive)
ROOT
ATOM      1  N1  IND d   1       2.327  -1.136  -0.181  0.00  0.00    -0.196 N 
ATOM      2  C2  IND d   1       1.707  -2.264  -0.640  0.00  0.00     0.054 A 
ATOM      3  C3  IND d   1       0.442  -1.982  -1.026  0.00  0.00    -0.031 A 
ATOM      4  C4  IND d   1      -0.782   0.282  -1.085  0.00  0.00     0.051 A 
ATOM      5  C5  IND d   1      -0.638   1.594  -0.731  0.00  0.00    -0.031 A 
ATOM      6  C6  IND d   1       0.526   2.073  -0.166  0.00  0.00     0.015 A 
ATOM      7  C7  IND d   1       1.599   1.257   0.056  0.00  0.00    -0.016 A 
ATOM      8  C8  IND d   1       1.454  -0.077  -0.296  0.00  0.00    -0.047 A 
ATOM      9  C9  IND d   1       0.259  -0.578  -0.830  0.00  0.00    -0.096 A 
ATOM     10  HN1 IND d   1       3.129  -1.095   0.128  0.00  0.00     0.298 HD
ENDROOT
TORSDOF 0
ENDMDL
