MODEL 1
REMARK minimizedAffinity -1.32509828
REMARK minimizedRMSD -1
REMARK  0 active torsions:
REMARK  status: ('A' for Active; 'I' for Inactive)
ROOT
ATOM      1  N1  IND d   1      -0.888   0.348  -0.963  0.00  0.00    -0.196 N 
ATOM      2  C2  IND d   1      -1.717   0.981  -0.080  0.00  0.00     0.054 A 
ATOM      3  C3  IND d   1      -1.382   0.662   1.191  0.00  0.00    -0.031 A 
ATOM      4  C4  IND d   1       0.556  -0.797   2.054  0.00  0.00     0.051 A 
ATOM      5  C5  IND d   1       1.561  -1.617   1.624  0.00  0.00    -0.031 A 
ATOM      6  C6  IND d   1       1.808  -1.826   0.282  0.00  0.00     0.015 A 
ATOM      7  C7  IND d   1       1.063  -1.211  -0.683  0.00  0.00    -0.016 A 
ATOM      8  C8  IND d   1       0.037  -0.383  -0.251  0.00  0.00    -0.047 A 
ATOM      9  C9  IND d   1      -0.246  -0.201   1.109  0.00  0.00    -0.096 A 
ATOM     10  HN1 IND d   1      -0.936   0.399  -1.820  0.00  0.00     0.298 HD
ENDROOT
TORSDOF 0
ENDMDL
