MODEL 1
REMARK minimizedAffinity 9.5538969
REMARK minimizedRMSD -1
REMARK  0 active torsions:
REMARK  status: ('A' for Active; 'I' for Inactive)
ROOT
ATOM      1  C   UNL d   1       2.987  -3.486   6.000  0.00  0.00    -0.002 A 
ATOM      2  C1  UNL d   1       2.883  -4.485   5.042  0.00  0.00     0.010 A 
ATOM      3  C2  UNL d   1       2.507  -4.177   3.733  0.00  0.00     0.041 A 
ATOM      4  C3  UNL d   1       2.237  -2.835   3.399  0.00  0.00    -0.075 A 
ATOM      5  S   UNL d   1       1.761  -2.222   1.860  0.00  0.00     0.015 SA
ATOM      6  C4  UNL d   1       1.686  -0.621   2.437  0.00  0.00     0.022 A 
ATOM      7  C5  UNL d   1       2.012  -0.537   3.770  0.00  0.00     0.026 A 
ATOM      8  C6  UNL d   1       2.336  -1.812   4.346  0.00  0.00    -0.082 A 
ATOM      9  C7  UNL d   1       2.719  -2.156   5.665  0.00  0.00     0.045 A 
ENDROOT
TORSDOF 0
ENDMDL
