MODEL 1
REMARK minimizedAffinity 7.19441748
REMARK minimizedRMSD -1
REMARK  0 active torsions:
REMARK  status: ('A' for Active; 'I' for Inactive)
ROOT
ATOM      1  C   UNL d   1      -5.444   2.594  -4.781  0.00  0.00    -0.002 A 
ATOM      2  C1  UNL d   1      -4.478   1.641  -4.491  0.00  0.00     0.010 A 
ATOM      3  C2  UNL d   1      -4.046   1.443  -3.178  0.00  0.00     0.041 A 
ATOM      4  C3  UNL d   1      -4.609   2.226  -2.150  0.00  0.00    -0.075 A 
ATOM      5  S   UNL d   1      -4.235   2.157  -0.469  0.00  0.00     0.015 SA
ATOM      6  C4  UNL d   1      -5.350   3.391  -0.095  0.00  0.00     0.022 A 
ATOM      7  C5  UNL d   1      -5.999   3.856  -1.214  0.00  0.00     0.026 A 
ATOM      8  C6  UNL d   1      -5.584   3.191  -2.417  0.00  0.00    -0.082 A 
ATOM      9  C7  UNL d   1      -5.999   3.369  -3.759  0.00  0.00     0.045 A 
ENDROOT
TORSDOF 0
ENDMDL
