MODEL 1
REMARK minimizedAffinity 5.74136543
REMARK minimizedRMSD -1
REMARK  0 active torsions:
REMARK  status: ('A' for Active; 'I' for Inactive)
ROOT
ATOM      1  C   UNL d   1       1.442  -1.997   1.811  0.00  0.00    -0.002 A 
ATOM      2  C1  UNL d   1       2.073  -1.742   3.021  0.00  0.00     0.010 A 
ATOM      3  C2  UNL d   1       2.679  -0.506   3.259  0.00  0.00     0.041 A 
ATOM      4  C3  UNL d   1       2.638   0.478   2.252  0.00  0.00    -0.075 A 
ATOM      5  S   UNL d   1       3.310   2.064   2.322  0.00  0.00     0.015 SA
ATOM      6  C4  UNL d   1       2.776   2.440   0.748  0.00  0.00     0.022 A 
ATOM      7  C5  UNL d   1       2.099   1.393   0.169  0.00  0.00     0.026 A 
ATOM      8  C6  UNL d   1       2.008   0.245   1.027  0.00  0.00    -0.082 A 
ATOM      9  C7  UNL d   1       1.404  -1.018   0.815  0.00  0.00     0.045 A 
ENDROOT
TORSDOF 0
ENDMDL
