MODEL 1
REMARK minimizedAffinity 7.86996031
REMARK minimizedRMSD -1
REMARK  0 active torsions:
REMARK  status: ('A' for Active; 'I' for Inactive)
ROOT
ATOM      1  C   UNL d   1       3.142   2.527   3.814  0.00  0.00    -0.002 A 
ATOM      2  C1  UNL d   1       3.110   2.630   2.431  0.00  0.00     0.010 A 
ATOM      3  C2  UNL d   1       2.703   1.549   1.647  0.00  0.00     0.041 A 
ATOM      4  C3  UNL d   1       2.325   0.350   2.284  0.00  0.00    -0.075 A 
ATOM      5  S   UNL d   1       1.791  -1.105   1.529  0.00  0.00     0.015 SA
ATOM      6  C4  UNL d   1       1.593  -1.897   3.024  0.00  0.00     0.022 A 
ATOM      7  C5  UNL d   1       1.921  -1.086   4.085  0.00  0.00     0.026 A 
ATOM      8  C6  UNL d   1       2.348   0.223   3.676  0.00  0.00    -0.082 A 
ATOM      9  C7  UNL d   1       2.766   1.337   4.442  0.00  0.00     0.045 A 
ENDROOT
TORSDOF 0
ENDMDL
