MODEL 1
REMARK minimizedAffinity 6.14050055
REMARK minimizedRMSD -1
REMARK  0 active torsions:
REMARK  status: ('A' for Active; 'I' for Inactive)
ROOT
ATOM      1  C   UNL d   1       3.125  -1.219  -2.677  0.00  0.00    -0.002 A 
ATOM      2  C1  UNL d   1       2.240  -0.239  -3.105  0.00  0.00     0.010 A 
ATOM      3  C2  UNL d   1       2.596   0.641  -4.129  0.00  0.00     0.041 A 
ATOM      4  C3  UNL d   1       3.868   0.517  -4.723  0.00  0.00    -0.075 A 
ATOM      5  S   UNL d   1       4.520   1.482  -5.994  0.00  0.00     0.015 SA
ATOM      6  C4  UNL d   1       5.988   0.616  -6.000  0.00  0.00     0.022 A 
ATOM      7  C5  UNL d   1       5.997  -0.389  -5.061  0.00  0.00     0.026 A 
ATOM      8  C6  UNL d   1       4.775  -0.462  -4.310  0.00  0.00    -0.082 A 
ATOM      9  C7  UNL d   1       4.385  -1.339  -3.269  0.00  0.00     0.045 A 
ENDROOT
TORSDOF 0
ENDMDL
