MODEL 1
REMARK minimizedAffinity 14.547678
REMARK minimizedRMSD -1
REMARK  0 active torsions:
REMARK  status: ('A' for Active; 'I' for Inactive)
ROOT
ATOM      1  C   UNL d   1       2.546  -0.707   4.571  0.00  0.00    -0.002 A 
ATOM      2  C1  UNL d   1       3.087  -1.721   3.794  0.00  0.00     0.010 A 
ATOM      3  C2  UNL d   1       3.305  -1.531   2.428  0.00  0.00     0.041 A 
ATOM      4  C3  UNL d   1       2.968  -0.291   1.851  0.00  0.00    -0.075 A 
ATOM      5  S   UNL d   1       3.147   0.169   0.199  0.00  0.00     0.015 SA
ATOM      6  C4  UNL d   1       2.511   1.723   0.485  0.00  0.00     0.022 A 
ATOM      7  C5  UNL d   1       2.165   1.904   1.803  0.00  0.00     0.026 A 
ATOM      8  C6  UNL d   1       2.423   0.746   2.612  0.00  0.00    -0.082 A 
ATOM      9  C7  UNL d   1       2.214   0.522   3.994  0.00  0.00     0.045 A 
ENDROOT
TORSDOF 0
ENDMDL
