MODEL 1
REMARK minimizedAffinity 12.8931036
REMARK minimizedRMSD -1
REMARK  0 active torsions:
REMARK  status: ('A' for Active; 'I' for Inactive)
ROOT
ATOM      1  C   UNL d   1      -0.890  -3.332  -0.604  0.00  0.00    -0.002 A 
ATOM      2  C1  UNL d   1      -0.497  -2.460  -1.609  0.00  0.00     0.010 A 
ATOM      3  C2  UNL d   1      -1.428  -1.970  -2.528  0.00  0.00     0.041 A 
ATOM      4  C3  UNL d   1      -2.773  -2.373  -2.416  0.00  0.00    -0.075 A 
ATOM      5  S   UNL d   1      -4.087  -1.901  -3.427  0.00  0.00     0.015 SA
ATOM      6  C4  UNL d   1      -5.201  -2.844  -2.548  0.00  0.00     0.022 A 
ATOM      7  C5  UNL d   1      -4.601  -3.511  -1.505  0.00  0.00     0.026 A 
ATOM      8  C6  UNL d   1      -3.193  -3.250  -1.412  0.00  0.00    -0.082 A 
ATOM      9  C7  UNL d   1      -2.225  -3.730  -0.496  0.00  0.00     0.045 A 
ENDROOT
TORSDOF 0
ENDMDL
