MODEL 1
REMARK minimizedAffinity 37.4360199
REMARK minimizedRMSD -1
REMARK  0 active torsions:
REMARK  status: ('A' for Active; 'I' for Inactive)
ROOT
ATOM      1  C   UNL d   1      -1.127   2.695  -1.783  0.00  0.00     0.124 A 
ATOM      2  C1  UNL d   1      -0.018   3.167  -1.095  0.00  0.00     0.062 A 
ATOM      3  C2  UNL d   1       0.821   4.110  -1.683  0.00  0.00     0.162 A 
ATOM      4  C3  UNL d   1       0.552   4.588  -2.965  0.00  0.00    -0.034 A 
ATOM      5  C4  UNL d   1      -0.565   4.108  -3.651  0.00  0.00     0.162 A 
ATOM      6  C5  UNL d   1      -1.400   3.165  -3.059  0.00  0.00     0.062 A 
ATOM      7  F   UNL d   1      -2.471   2.710  -3.725  0.00  0.00    -0.097 F 
ATOM      8  F1  UNL d   1      -0.852   4.546  -4.885  0.00  0.00    -0.096 F 
ATOM      9  I   UNL d   1       1.803   5.999  -3.847  0.00  0.00    -0.060 I 
ATOM     10  F2  UNL d   1       1.885   4.549  -0.995  0.00  0.00    -0.096 F 
ATOM     11  F3  UNL d   1       0.248   2.713   0.138  0.00  0.00    -0.097 F 
ATOM     12  F4  UNL d   1      -1.931   1.786  -1.215  0.00  0.00    -0.092 F 
ENDROOT
TORSDOF 0
ENDMDL
