MODEL 1
REMARK minimizedAffinity 21.8388767
REMARK minimizedRMSD -1
REMARK  0 active torsions:
REMARK  status: ('A' for Active; 'I' for Inactive)
ROOT
ATOM      1  C   UNL d   1      -1.460   2.939  -2.149  0.00  0.00     0.124 A 
ATOM      2  C1  UNL d   1      -2.127   3.893  -2.906  0.00  0.00     0.062 A 
ATOM      3  C2  UNL d   1      -3.028   4.763  -2.299  0.00  0.00     0.162 A 
ATOM      4  C3  UNL d   1      -3.267   4.684  -0.927  0.00  0.00    -0.034 A 
ATOM      5  C4  UNL d   1      -2.593   3.721  -0.173  0.00  0.00     0.162 A 
ATOM      6  C5  UNL d   1      -1.694   2.854  -0.784  0.00  0.00     0.062 A 
ATOM      7  F   UNL d   1      -1.051   1.933  -0.052  0.00  0.00    -0.097 F 
ATOM      8  F1  UNL d   1      -2.800   3.618   1.148  0.00  0.00    -0.096 F 
ATOM      9  I   UNL d   1      -4.613   5.983  -0.016  0.00  0.00    -0.060 I 
ATOM     10  F2  UNL d   1      -3.658   5.675  -3.055  0.00  0.00    -0.096 F 
ATOM     11  F3  UNL d   1      -1.903   3.976  -4.225  0.00  0.00    -0.097 F 
ATOM     12  F4  UNL d   1      -0.594   2.102  -2.736  0.00  0.00    -0.092 F 
ENDROOT
TORSDOF 0
ENDMDL
