MODEL 1
REMARK minimizedAffinity 23.394783
REMARK minimizedRMSD -1
REMARK  0 active torsions:
REMARK  status: ('A' for Active; 'I' for Inactive)
ROOT
ATOM      1  C   UNL d   1       3.953  -4.445  -2.590  0.00  0.00     0.124 A 
ATOM      2  C1  UNL d   1       4.652  -3.749  -3.566  0.00  0.00     0.062 A 
ATOM      3  C2  UNL d   1       3.966  -3.030  -4.541  0.00  0.00     0.162 A 
ATOM      4  C3  UNL d   1       2.571  -3.003  -4.543  0.00  0.00    -0.034 A 
ATOM      5  C4  UNL d   1       1.875  -3.707  -3.559  0.00  0.00     0.162 A 
ATOM      6  C5  UNL d   1       2.565  -4.424  -2.587  0.00  0.00     0.062 A 
ATOM      7  F   UNL d   1       1.888  -5.096  -1.645  0.00  0.00    -0.097 F 
ATOM      8  F1  UNL d   1       0.534  -3.702  -3.533  0.00  0.00    -0.096 F 
ATOM      9  I   UNL d   1       1.541  -1.930  -5.999  0.00  0.00    -0.060 I 
ATOM     10  F2  UNL d   1       4.667  -2.367  -5.471  0.00  0.00    -0.096 F 
ATOM     11  F3  UNL d   1       5.993  -3.769  -3.571  0.00  0.00    -0.097 F 
ATOM     12  F4  UNL d   1       4.616  -5.137  -1.654  0.00  0.00    -0.092 F 
ENDROOT
TORSDOF 0
ENDMDL
