MODEL 1
REMARK minimizedAffinity 35.6055832
REMARK minimizedRMSD -1
REMARK  0 active torsions:
REMARK  status: ('A' for Active; 'I' for Inactive)
ROOT
ATOM      1  C   UNL d   1      -2.235   3.932  -3.162  0.00  0.00     0.124 A 
ATOM      2  C1  UNL d   1      -2.009   2.685  -3.728  0.00  0.00     0.062 A 
ATOM      3  C2  UNL d   1      -3.082   1.882  -4.104  0.00  0.00     0.162 A 
ATOM      4  C3  UNL d   1      -4.392   2.324  -3.915  0.00  0.00    -0.034 A 
ATOM      5  C4  UNL d   1      -4.611   3.579  -3.344  0.00  0.00     0.162 A 
ATOM      6  C5  UNL d   1      -3.535   4.378  -2.970  0.00  0.00     0.062 A 
ATOM      7  F   UNL d   1      -3.755   5.582  -2.423  0.00  0.00    -0.097 F 
ATOM      8  F1  UNL d   1      -5.857   4.035  -3.148  0.00  0.00    -0.096 F 
ATOM      9  I   UNL d   1      -5.999   1.126  -4.475  0.00  0.00    -0.060 I 
ATOM     10  F2  UNL d   1      -2.834   0.682  -4.649  0.00  0.00    -0.096 F 
ATOM     11  F3  UNL d   1      -0.754   2.252  -3.914  0.00  0.00    -0.097 F 
ATOM     12  F4  UNL d   1      -1.201   4.702  -2.801  0.00  0.00    -0.092 F 
ENDROOT
TORSDOF 0
ENDMDL
