MODEL 1
REMARK minimizedAffinity 28.8971806
REMARK minimizedRMSD -1
REMARK  0 active torsions:
REMARK  status: ('A' for Active; 'I' for Inactive)
ROOT
ATOM      1  C   UNL d   1      -3.489  -2.589   3.893  0.00  0.00     0.124 A 
ATOM      2  C1  UNL d   1      -4.404  -3.426   3.269  0.00  0.00     0.062 A 
ATOM      3  C2  UNL d   1      -5.122  -2.978   2.164  0.00  0.00     0.162 A 
ATOM      4  C3  UNL d   1      -4.928  -1.686   1.675  0.00  0.00    -0.034 A 
ATOM      5  C4  UNL d   1      -4.006  -0.850   2.308  0.00  0.00     0.162 A 
ATOM      6  C5  UNL d   1      -3.291  -1.302   3.412  0.00  0.00     0.062 A 
ATOM      7  F   UNL d   1      -2.407  -0.493   4.013  0.00  0.00    -0.097 F 
ATOM      8  F1  UNL d   1      -3.795   0.397   1.863  0.00  0.00    -0.096 F 
ATOM      9  I   UNL d   1      -6.000  -1.013   0.023  0.00  0.00    -0.060 I 
ATOM     10  F2  UNL d   1      -6.000  -3.808   1.582  0.00  0.00    -0.096 F 
ATOM     11  F3  UNL d   1      -4.598  -4.669   3.733  0.00  0.00    -0.097 F 
ATOM     12  F4  UNL d   1      -2.799  -3.022   4.956  0.00  0.00    -0.092 F 
ENDROOT
TORSDOF 0
ENDMDL
