MODEL 1
REMARK minimizedAffinity 35.82481
REMARK minimizedRMSD -1
REMARK  0 active torsions:
REMARK  status: ('A' for Active; 'I' for Inactive)
ROOT
ATOM      1  C   UNL d   1       1.541  -3.973  -4.751  0.00  0.00     0.124 A 
ATOM      2  C1  UNL d   1       1.217  -4.776  -3.665  0.00  0.00     0.062 A 
ATOM      3  C2  UNL d   1       1.443  -4.324  -2.368  0.00  0.00     0.162 A 
ATOM      4  C3  UNL d   1       1.995  -3.061  -2.149  0.00  0.00    -0.034 A 
ATOM      5  C4  UNL d   1       2.319  -2.261  -3.246  0.00  0.00     0.162 A 
ATOM      6  C5  UNL d   1       2.092  -2.717  -4.540  0.00  0.00     0.062 A 
ATOM      7  F   UNL d   1       2.406  -1.941  -5.587  0.00  0.00    -0.097 F 
ATOM      8  F1  UNL d   1       2.852  -1.042  -3.071  0.00  0.00    -0.096 F 
ATOM      9  I   UNL d   1       2.334  -2.382  -0.212  0.00  0.00    -0.060 I 
ATOM     10  F2  UNL d   1       1.120  -5.120  -1.339  0.00  0.00    -0.096 F 
ATOM     11  F3  UNL d   1       0.686  -5.990  -3.866  0.00  0.00    -0.097 F 
ATOM     12  F4  UNL d   1       1.324  -4.411  -5.997  0.00  0.00    -0.092 F 
ENDROOT
TORSDOF 0
ENDMDL
