MODEL 1
REMARK minimizedAffinity 31.1424026
REMARK minimizedRMSD -1
REMARK  0 active torsions:
REMARK  status: ('A' for Active; 'I' for Inactive)
ROOT
ATOM      1  C   UNL d   1       0.927   2.799   2.161  0.00  0.00     0.124 A 
ATOM      2  C1  UNL d   1      -0.048   1.918   1.715  0.00  0.00     0.062 A 
ATOM      3  C2  UNL d   1      -0.482   1.963   0.393  0.00  0.00     0.162 A 
ATOM      4  C3  UNL d   1       0.061   2.892  -0.494  0.00  0.00    -0.034 A 
ATOM      5  C4  UNL d   1       1.042   3.776  -0.038  0.00  0.00     0.162 A 
ATOM      6  C5  UNL d   1       1.471   3.727   1.284  0.00  0.00     0.062 A 
ATOM      7  F   UNL d   1       2.414   4.578   1.712  0.00  0.00    -0.097 F 
ATOM      8  F1  UNL d   1       1.585   4.682  -0.865  0.00  0.00    -0.096 F 
ATOM      9  I   UNL d   1      -0.584   2.963  -2.471  0.00  0.00    -0.060 I 
ATOM     10  F2  UNL d   1      -1.426   1.100  -0.009  0.00  0.00    -0.096 F 
ATOM     11  F3  UNL d   1      -0.576   1.021   2.561  0.00  0.00    -0.097 F 
ATOM     12  F4  UNL d   1       1.342   2.754   3.433  0.00  0.00    -0.092 F 
ENDROOT
TORSDOF 0
ENDMDL
