MODEL 1
REMARK minimizedAffinity 30.3790188
REMARK minimizedRMSD -1
REMARK  0 active torsions:
REMARK  status: ('A' for Active; 'I' for Inactive)
ROOT
ATOM      1  C   UNL d   1      -0.834   2.721  -1.386  0.00  0.00     0.124 A 
ATOM      2  C1  UNL d   1       0.344   3.170  -0.806  0.00  0.00     0.062 A 
ATOM      3  C2  UNL d   1       1.136   4.106  -1.465  0.00  0.00     0.162 A 
ATOM      4  C3  UNL d   1       0.752   4.600  -2.711  0.00  0.00    -0.034 A 
ATOM      5  C4  UNL d   1      -0.434   4.144  -3.289  0.00  0.00     0.162 A 
ATOM      6  C5  UNL d   1      -1.222   3.208  -2.626  0.00  0.00     0.062 A 
ATOM      7  F   UNL d   1      -2.361   2.776  -3.188  0.00  0.00    -0.097 F 
ATOM      8  F1  UNL d   1      -0.833   4.599  -4.486  0.00  0.00    -0.096 F 
ATOM      9  I   UNL d   1       1.934   6.000  -3.700  0.00  0.00    -0.060 I 
ATOM     10  F2  UNL d   1       2.270   4.521  -0.881  0.00  0.00    -0.096 F 
ATOM     11  F3  UNL d   1       0.722   2.700   0.391  0.00  0.00    -0.097 F 
ATOM     12  F4  UNL d   1      -1.594   1.820  -0.751  0.00  0.00    -0.092 F 
ENDROOT
TORSDOF 0
ENDMDL
