MODEL 1
REMARK minimizedAffinity 29.7053757
REMARK minimizedRMSD -1
REMARK  0 active torsions:
REMARK  status: ('A' for Active; 'I' for Inactive)
ROOT
ATOM      1  C   UNL d   1      -0.772   2.626  -1.411  0.00  0.00     0.124 A 
ATOM      2  C1  UNL d   1       0.350   3.186  -0.818  0.00  0.00     0.062 A 
ATOM      3  C2  UNL d   1       1.093   4.149  -1.495  0.00  0.00     0.162 A 
ATOM      4  C3  UNL d   1       0.715   4.559  -2.774  0.00  0.00    -0.034 A 
ATOM      5  C4  UNL d   1      -0.414   3.990  -3.365  0.00  0.00     0.162 A 
ATOM      6  C5  UNL d   1      -1.153   3.028  -2.684  0.00  0.00     0.062 A 
ATOM      7  F   UNL d   1      -2.238   2.488  -3.259  0.00  0.00    -0.097 F 
ATOM      8  F1  UNL d   1      -0.806   4.361  -4.593  0.00  0.00    -0.096 F 
ATOM      9  I   UNL d   1       1.824   5.998  -3.790  0.00  0.00    -0.060 I 
ATOM     10  F2  UNL d   1       2.174   4.674  -0.897  0.00  0.00    -0.096 F 
ATOM     11  F3  UNL d   1       0.721   2.799   0.411  0.00  0.00    -0.097 F 
ATOM     12  F4  UNL d   1      -1.485   1.699  -0.758  0.00  0.00    -0.092 F 
ENDROOT
TORSDOF 0
ENDMDL
