MODEL 1
REMARK minimizedAffinity 18.9836121
REMARK minimizedRMSD -1
REMARK  0 active torsions:
REMARK  status: ('A' for Active; 'I' for Inactive)
ROOT
ATOM      1  C   UNL d   1       0.550   3.241   1.315  0.00  0.00     0.124 A 
ATOM      2  C1  UNL d   1      -0.301   2.263   0.818  0.00  0.00     0.062 A 
ATOM      3  C2  UNL d   1      -0.903   2.426  -0.426  0.00  0.00     0.162 A 
ATOM      4  C3  UNL d   1      -0.656   3.571  -1.183  0.00  0.00    -0.034 A 
ATOM      5  C4  UNL d   1       0.200   4.550  -0.676  0.00  0.00     0.162 A 
ATOM      6  C5  UNL d   1       0.799   4.383   0.568  0.00  0.00     0.062 A 
ATOM      7  F   UNL d   1       1.621   5.329   1.046  0.00  0.00    -0.097 F 
ATOM      8  F1  UNL d   1       0.460   5.663  -1.378  0.00  0.00    -0.096 F 
ATOM      9  I   UNL d   1      -1.554   3.818  -3.045  0.00  0.00    -0.060 I 
ATOM     10  F2  UNL d   1      -1.720   1.465  -0.882  0.00  0.00    -0.096 F 
ATOM     11  F3  UNL d   1      -0.544   1.159   1.539  0.00  0.00    -0.097 F 
ATOM     12  F4  UNL d   1       1.127   3.082   2.513  0.00  0.00    -0.092 F 
ENDROOT
TORSDOF 0
ENDMDL
