MODEL 1
REMARK minimizedAffinity 12.4896498
REMARK minimizedRMSD -1
REMARK  0 active torsions:
REMARK  status: ('A' for Active; 'I' for Inactive)
ROOT
ATOM      1  C   UNL d   1      -1.017   4.017  -2.435  0.00  0.00     0.124 A 
ATOM      2  C1  UNL d   1      -1.690   2.819  -2.244  0.00  0.00     0.062 A 
ATOM      3  C2  UNL d   1      -1.552   2.122  -1.047  0.00  0.00     0.162 A 
ATOM      4  C3  UNL d   1      -0.737   2.622  -0.031  0.00  0.00    -0.034 A 
ATOM      5  C4  UNL d   1      -0.063   3.828  -0.231  0.00  0.00     0.162 A 
ATOM      6  C5  UNL d   1      -0.204   4.521  -1.429  0.00  0.00     0.062 A 
ATOM      7  F   UNL d   1       0.447   5.678  -1.612  0.00  0.00    -0.097 F 
ATOM      8  F1  UNL d   1       0.728   4.337   0.724  0.00  0.00    -0.096 F 
ATOM      9  I   UNL d   1      -0.528   1.583   1.760  0.00  0.00    -0.060 I 
ATOM     10  F2  UNL d   1      -2.214   0.966  -0.890  0.00  0.00    -0.096 F 
ATOM     11  F3  UNL d   1      -2.475   2.330  -3.215  0.00  0.00    -0.097 F 
ATOM     12  F4  UNL d   1      -1.151   4.686  -3.588  0.00  0.00    -0.092 F 
ENDROOT
TORSDOF 0
ENDMDL
