MODEL 1
REMARK minimizedAffinity 11.6358557
REMARK minimizedRMSD -1
REMARK  0 active torsions:
REMARK  status: ('A' for Active; 'I' for Inactive)
ROOT
ATOM      1  C   UNL d   1      -0.803   2.201   0.914  0.00  0.00     0.124 A 
ATOM      2  C1  UNL d   1      -0.667   3.382   0.196  0.00  0.00     0.062 A 
ATOM      3  C2  UNL d   1      -1.633   4.378   0.299  0.00  0.00     0.162 A 
ATOM      4  C3  UNL d   1      -2.744   4.200   1.124  0.00  0.00    -0.034 A 
ATOM      5  C4  UNL d   1      -2.873   3.010   1.842  0.00  0.00     0.162 A 
ATOM      6  C5  UNL d   1      -1.905   2.017   1.736  0.00  0.00     0.062 A 
ATOM      7  F   UNL d   1      -2.038   0.877   2.430  0.00  0.00    -0.097 F 
ATOM      8  F1  UNL d   1      -3.928   2.805   2.645  0.00  0.00    -0.096 F 
ATOM      9  I   UNL d   1      -4.190   5.688   1.281  0.00  0.00    -0.060 I 
ATOM     10  F2  UNL d   1      -1.477   5.508  -0.407  0.00  0.00    -0.096 F 
ATOM     11  F3  UNL d   1       0.397   3.562  -0.600  0.00  0.00    -0.097 F 
ATOM     12  F4  UNL d   1       0.128   1.244   0.812  0.00  0.00    -0.092 F 
ENDROOT
TORSDOF 0
ENDMDL
