MODEL 1
REMARK minimizedAffinity 6.08198738
REMARK minimizedRMSD -1
REMARK  0 active torsions:
REMARK  status: ('A' for Active; 'I' for Inactive)
ROOT
ATOM      1  C   UNL d   1      -0.425   2.758   0.231  0.00  0.00     0.124 A 
ATOM      2  C1  UNL d   1      -0.015   3.928  -0.392  0.00  0.00     0.062 A 
ATOM      3  C2  UNL d   1       0.759   4.855   0.300  0.00  0.00     0.162 A 
ATOM      4  C3  UNL d   1       1.128   4.616   1.624  0.00  0.00    -0.034 A 
ATOM      5  C4  UNL d   1       0.711   3.437   2.244  0.00  0.00     0.162 A 
ATOM      6  C5  UNL d   1      -0.062   2.513   1.548  0.00  0.00     0.062 A 
ATOM      7  F   UNL d   1      -0.458   1.383   2.152  0.00  0.00    -0.097 F 
ATOM      8  F1  UNL d   1       1.048   3.175   3.516  0.00  0.00    -0.096 F 
ATOM      9  I   UNL d   1       2.285   6.000   2.662  0.00  0.00    -0.060 I 
ATOM     10  F2  UNL d   1       1.141   5.978  -0.327  0.00  0.00    -0.096 F 
ATOM     11  F3  UNL d   1      -0.365   4.167  -1.664  0.00  0.00    -0.097 F 
ATOM     12  F4  UNL d   1      -1.170   1.867  -0.437  0.00  0.00    -0.092 F 
ENDROOT
TORSDOF 0
ENDMDL
