MODEL 1
REMARK minimizedAffinity 16.0947914
REMARK minimizedRMSD -1
REMARK  0 active torsions:
REMARK  status: ('A' for Active; 'I' for Inactive)
ROOT
ATOM      1  C   UNL d   1       0.170   4.545  -0.006  0.00  0.00     0.124 A 
ATOM      2  C1  UNL d   1      -0.679   4.751  -1.085  0.00  0.00     0.062 A 
ATOM      3  C2  UNL d   1      -1.199   3.665  -1.783  0.00  0.00     0.162 A 
ATOM      4  C3  UNL d   1      -0.872   2.363  -1.405  0.00  0.00    -0.034 A 
ATOM      5  C4  UNL d   1      -0.016   2.164  -0.320  0.00  0.00     0.162 A 
ATOM      6  C5  UNL d   1       0.501   3.252   0.375  0.00  0.00     0.062 A 
ATOM      7  F   UNL d   1       1.322   3.052   1.416  0.00  0.00    -0.097 F 
ATOM      8  F1  UNL d   1       0.319   0.925   0.071  0.00  0.00    -0.096 F 
ATOM      9  I   UNL d   1      -1.647   0.736  -2.446  0.00  0.00    -0.060 I 
ATOM     10  F2  UNL d   1      -2.018   3.893  -2.821  0.00  0.00    -0.096 F 
ATOM     11  F3  UNL d   1      -0.999   5.999  -1.456  0.00  0.00    -0.097 F 
ATOM     12  F4  UNL d   1       0.670   5.592   0.663  0.00  0.00    -0.092 F 
ENDROOT
TORSDOF 0
ENDMDL
