MODEL 1
REMARK minimizedAffinity 27.8330402
REMARK minimizedRMSD -1
REMARK  0 active torsions:
REMARK  status: ('A' for Active; 'I' for Inactive)
ROOT
ATOM      1  C   UNL d   1      -1.340  -2.063   4.020  0.00  0.00     0.124 A 
ATOM      2  C1  UNL d   1      -1.029  -0.787   3.572  0.00  0.00     0.062 A 
ATOM      3  C2  UNL d   1       0.043  -0.591   2.706  0.00  0.00     0.162 A 
ATOM      4  C3  UNL d   1       0.813  -1.675   2.283  0.00  0.00    -0.034 A 
ATOM      5  C4  UNL d   1       0.494  -2.955   2.739  0.00  0.00     0.162 A 
ATOM      6  C5  UNL d   1      -0.579  -3.145   3.604  0.00  0.00     0.062 A 
ATOM      7  F   UNL d   1      -0.878  -4.379   4.036  0.00  0.00    -0.097 F 
ATOM      8  F1  UNL d   1       1.213  -4.019   2.352  0.00  0.00    -0.096 F 
ATOM      9  I   UNL d   1       2.417  -1.387   0.989  0.00  0.00    -0.060 I 
ATOM     10  F2  UNL d   1       0.321   0.653   2.289  0.00  0.00    -0.096 F 
ATOM     11  F3  UNL d   1      -1.763   0.261   3.973  0.00  0.00    -0.097 F 
ATOM     12  F4  UNL d   1      -2.372  -2.248   4.853  0.00  0.00    -0.092 F 
ENDROOT
TORSDOF 0
ENDMDL
