MODEL 1
REMARK minimizedAffinity 9.64352226
REMARK minimizedRMSD -1
REMARK  0 active torsions:
REMARK  status: ('A' for Active; 'I' for Inactive)
ROOT
ATOM      1  C   UNL d   1      -0.007   3.190   1.491  0.00  0.00     0.124 A 
ATOM      2  C1  UNL d   1      -0.205   3.069   0.122  0.00  0.00     0.062 A 
ATOM      3  C2  UNL d   1      -1.208   2.239  -0.369  0.00  0.00     0.162 A 
ATOM      4  C3  UNL d   1      -2.022   1.522   0.509  0.00  0.00    -0.034 A 
ATOM      5  C4  UNL d   1      -1.816   1.648   1.884  0.00  0.00     0.162 A 
ATOM      6  C5  UNL d   1      -0.812   2.479   2.370  0.00  0.00     0.062 A 
ATOM      7  F   UNL d   1      -0.622   2.594   3.692  0.00  0.00    -0.097 F 
ATOM      8  F1  UNL d   1      -2.580   0.974   2.756  0.00  0.00    -0.096 F 
ATOM      9  I   UNL d   1      -3.523   0.279  -0.222  0.00  0.00    -0.060 I 
ATOM     10  F2  UNL d   1      -1.378   2.141  -1.696  0.00  0.00    -0.096 F 
ATOM     11  F3  UNL d   1       0.572   3.754  -0.729  0.00  0.00    -0.097 F 
ATOM     12  F4  UNL d   1       0.960   3.989   1.961  0.00  0.00    -0.092 F 
ENDROOT
TORSDOF 0
ENDMDL
