MODEL 1
REMARK minimizedAffinity 20.7706547
REMARK minimizedRMSD -1
REMARK  0 active torsions:
REMARK  status: ('A' for Active; 'I' for Inactive)
ROOT
ATOM      1  C   UNL d   1       3.598  -4.338  -2.167  0.00  0.00     0.124 A 
ATOM      2  C1  UNL d   1       2.228  -4.272  -2.378  0.00  0.00     0.062 A 
ATOM      3  C2  UNL d   1       1.720  -3.574  -3.470  0.00  0.00     0.162 A 
ATOM      4  C3  UNL d   1       2.584  -2.937  -4.361  0.00  0.00    -0.034 A 
ATOM      5  C4  UNL d   1       3.961  -3.007  -4.143  0.00  0.00     0.162 A 
ATOM      6  C5  UNL d   1       4.463  -3.706  -3.050  0.00  0.00     0.062 A 
ATOM      7  F   UNL d   1       5.787  -3.769  -2.848  0.00  0.00    -0.097 F 
ATOM      8  F1  UNL d   1       4.819  -2.407  -4.980  0.00  0.00    -0.096 F 
ATOM      9  I   UNL d   1       1.829  -1.893  -5.996  0.00  0.00    -0.060 I 
ATOM     10  F2  UNL d   1       0.392  -3.526  -3.649  0.00  0.00    -0.096 F 
ATOM     11  F3  UNL d   1       1.390  -4.881  -1.526  0.00  0.00    -0.097 F 
ATOM     12  F4  UNL d   1       4.084  -5.009  -1.115  0.00  0.00    -0.092 F 
ENDROOT
TORSDOF 0
ENDMDL
