MODEL 1
REMARK minimizedAffinity -3.0477705
REMARK minimizedRMSD -1
REMARK  0 active torsions:
REMARK  status: ('A' for Active; 'I' for Inactive)
ROOT
ATOM      1  N1  IND d   1       0.070  -1.586  -0.998  0.00  0.00    -0.196 N 
ATOM      2  C2  IND d   1      -1.217  -1.988  -1.223  0.00  0.00     0.054 A 
ATOM      3  C3  IND d   1      -2.068  -1.313  -0.417  0.00  0.00    -0.031 A 
ATOM      4  C4  IND d   1      -1.577   0.566   1.272  0.00  0.00     0.051 A 
ATOM      5  C5  IND d   1      -0.547   1.252   1.852  0.00  0.00    -0.031 A 
ATOM      6  C6  IND d   1       0.768   1.023   1.502  0.00  0.00     0.015 A 
ATOM      7  C7  IND d   1       1.103   0.105   0.547  0.00  0.00    -0.016 A 
ATOM      8  C8  IND d   1       0.059  -0.597  -0.038  0.00  0.00    -0.047 A 
ATOM      9  C9  IND d   1      -1.274  -0.400   0.343  0.00  0.00    -0.096 A 
ATOM     10  HN1 IND d   1       0.769  -1.898  -1.390  0.00  0.00     0.298 HD
ENDROOT
TORSDOF 0
ENDMDL
