MODEL 1
REMARK minimizedAffinity -2.02166176
REMARK minimizedRMSD -1
REMARK  0 active torsions:
REMARK  status: ('A' for Active; 'I' for Inactive)
ROOT
ATOM      1  N1  IND d   1      -1.009   1.270   1.671  0.00  0.00    -0.196 N 
ATOM      2  C2  IND d   1      -0.095   2.048   2.328  0.00  0.00     0.054 A 
ATOM      3  C3  IND d   1       1.159   1.729   1.939  0.00  0.00    -0.031 A 
ATOM      4  C4  IND d   1       1.941   0.036   0.164  0.00  0.00     0.051 A 
ATOM      5  C5  IND d   1       1.476  -0.936  -0.676  0.00  0.00    -0.031 A 
ATOM      6  C6  IND d   1       0.131  -1.227  -0.781  0.00  0.00     0.015 A 
ATOM      7  C7  IND d   1      -0.804  -0.545  -0.054  0.00  0.00    -0.016 A 
ATOM      8  C8  IND d   1      -0.334   0.438   0.805  0.00  0.00    -0.047 A 
ATOM      9  C9  IND d   1       1.033   0.708   0.947  0.00  0.00    -0.096 A 
ATOM     10  HN1 IND d   1      -1.861   1.297   1.781  0.00  0.00     0.298 HD
ENDROOT
TORSDOF 0
ENDMDL
