MODEL 1
REMARK minimizedAffinity -3.84042311
REMARK minimizedRMSD -1
REMARK  0 active torsions:
REMARK  status: ('A' for Active; 'I' for Inactive)
ROOT
ATOM      1  N1  IND d   1       0.530  -0.509  -0.514  0.00  0.00    -0.196 N 
ATOM      2  C2  IND d   1      -0.770  -0.635  -0.112  0.00  0.00     0.054 A 
ATOM      3  C3  IND d   1      -0.989   0.090   1.008  0.00  0.00    -0.031 A 
ATOM      4  C4  IND d   1       0.616   1.639   2.293  0.00  0.00     0.051 A 
ATOM      5  C5  IND d   1       1.919   2.049   2.329  0.00  0.00    -0.031 A 
ATOM      6  C6  IND d   1       2.844   1.621   1.399  0.00  0.00     0.015 A 
ATOM      7  C7  IND d   1       2.496   0.772   0.387  0.00  0.00    -0.016 A 
ATOM      8  C8  IND d   1       1.175   0.348   0.351  0.00  0.00    -0.047 A 
ATOM      9  C9  IND d   1       0.242   0.745   1.317  0.00  0.00    -0.096 A 
ATOM     10  HN1 IND d   1       0.886  -0.898  -1.193  0.00  0.00     0.298 HD
ENDROOT
TORSDOF 0
ENDMDL
