MODEL 1
REMARK minimizedAffinity -2.0969243
REMARK minimizedRMSD -1
REMARK  0 active torsions:
REMARK  status: ('A' for Active; 'I' for Inactive)
ROOT
ATOM      1  N1  IND d   1      -2.865  -0.842  -2.203  0.00  0.00    -0.196 N 
ATOM      2  C2  IND d   1      -2.916  -1.849  -3.126  0.00  0.00     0.054 A 
ATOM      3  C3  IND d   1      -1.765  -2.558  -3.114  0.00  0.00    -0.031 A 
ATOM      4  C4  IND d   1       0.296  -2.304  -1.592  0.00  0.00     0.051 A 
ATOM      5  C5  IND d   1       0.824  -1.504  -0.618  0.00  0.00    -0.031 A 
ATOM      6  C6  IND d   1       0.135  -0.421  -0.111  0.00  0.00     0.015 A 
ATOM      7  C7  IND d   1      -1.119  -0.105  -0.552  0.00  0.00    -0.016 A 
ATOM      8  C8  IND d   1      -1.656  -0.911  -1.546  0.00  0.00    -0.047 A 
ATOM      9  C9  IND d   1      -0.944  -1.986  -2.095  0.00  0.00    -0.096 A 
ATOM     10  HN1 IND d   1      -3.483  -0.263  -2.057  0.00  0.00     0.298 HD
ENDROOT
TORSDOF 0
ENDMDL
