MODEL 1
REMARK minimizedAffinity -3.93434525
REMARK minimizedRMSD -1
REMARK  0 active torsions:
REMARK  status: ('A' for Active; 'I' for Inactive)
ROOT
ATOM      1  N1  IND d   1       0.482  -1.039  -0.506  0.00  0.00    -0.196 N 
ATOM      2  C2  IND d   1      -0.808  -1.052  -0.052  0.00  0.00     0.054 A 
ATOM      3  C3  IND d   1      -0.997  -0.067   0.855  0.00  0.00    -0.031 A 
ATOM      4  C4  IND d   1       0.641   1.744   1.669  0.00  0.00     0.051 A 
ATOM      5  C5  IND d   1       1.944   2.142   1.568  0.00  0.00    -0.031 A 
ATOM      6  C6  IND d   1       2.845   1.488   0.752  0.00  0.00     0.015 A 
ATOM      7  C7  IND d   1       2.470   0.414  -0.006  0.00  0.00    -0.016 A 
ATOM      8  C8  IND d   1       1.149   0.003   0.100  0.00  0.00    -0.047 A 
ATOM      9  C9  IND d   1       0.241   0.637   0.959  0.00  0.00    -0.096 A 
ATOM     10  HN1 IND d   1       0.819  -1.589  -1.073  0.00  0.00     0.298 HD
ENDROOT
TORSDOF 0
ENDMDL
