MODEL 1
REMARK minimizedAffinity -4.21228266
REMARK minimizedRMSD -1
REMARK  0 active torsions:
REMARK  status: ('A' for Active; 'I' for Inactive)
ROOT
ATOM      1  N1  IND d   1       0.099   0.595  -1.044  0.00  0.00    -0.196 N 
ATOM      2  C2  IND d   1       0.621  -0.171  -0.039  0.00  0.00     0.054 A 
ATOM      3  C3  IND d   1      -0.000  -1.370   0.010  0.00  0.00    -0.031 A 
ATOM      4  C4  IND d   1      -1.831  -2.327  -1.527  0.00  0.00     0.051 A 
ATOM      5  C5  IND d   1      -2.653  -1.987  -2.564  0.00  0.00    -0.031 A 
ATOM      6  C6  IND d   1      -2.597  -0.744  -3.161  0.00  0.00     0.015 A 
ATOM      7  C7  IND d   1      -1.705   0.205  -2.749  0.00  0.00    -0.016 A 
ATOM      8  C8  IND d   1      -0.873  -0.135  -1.692  0.00  0.00    -0.047 A 
ATOM      9  C9  IND d   1      -0.954  -1.380  -1.054  0.00  0.00    -0.096 A 
ATOM     10  HN1 IND d   1       0.337   1.398  -1.238  0.00  0.00     0.298 HD
ENDROOT
TORSDOF 0
ENDMDL
