MODEL 1
REMARK minimizedAffinity -1.68276
REMARK minimizedRMSD -1
REMARK  0 active torsions:
REMARK  status: ('A' for Active; 'I' for Inactive)
ROOT
ATOM      1  N1  IND d   1       0.649  -0.768  -0.645  0.00  0.00    -0.196 N 
ATOM      2  C2  IND d   1      -0.692  -0.861  -0.400  0.00  0.00     0.054 A 
ATOM      3  C3  IND d   1      -1.038  -0.062   0.635  0.00  0.00    -0.031 A 
ATOM      4  C4  IND d   1       0.417   1.561   2.004  0.00  0.00     0.051 A 
ATOM      5  C5  IND d   1       1.711   1.966   2.174  0.00  0.00    -0.031 A 
ATOM      6  C6  IND d   1       2.738   1.472   1.396  0.00  0.00     0.015 A 
ATOM      7  C7  IND d   1       2.506   0.559   0.406  0.00  0.00    -0.016 A 
ATOM      8  C8  IND d   1       1.194   0.141   0.235  0.00  0.00    -0.047 A 
ATOM      9  C9  IND d   1       0.154   0.606   1.050  0.00  0.00    -0.096 A 
ATOM     10  HN1 IND d   1       1.080  -1.204  -1.248  0.00  0.00     0.298 HD
ENDROOT
TORSDOF 0
ENDMDL
