MODEL 1
REMARK minimizedAffinity 1.1814177
REMARK minimizedRMSD -1
REMARK  0 active torsions:
REMARK  status: ('A' for Active; 'I' for Inactive)
ROOT
ATOM      1  N1  IND d   1       0.327  -0.215  -1.061  0.00  0.00    -0.196 N 
ATOM      2  C2  IND d   1       0.116  -0.206   0.290  0.00  0.00     0.054 A 
ATOM      3  C3  IND d   1      -1.042  -0.835   0.589  0.00  0.00    -0.031 A 
ATOM      4  C4  IND d   1      -2.697  -2.044  -0.969  0.00  0.00     0.051 A 
ATOM      5  C5  IND d   1      -2.950  -2.289  -2.289  0.00  0.00    -0.031 A 
ATOM      6  C6  IND d   1      -2.106  -1.849  -3.287  0.00  0.00     0.015 A 
ATOM      7  C7  IND d   1      -0.965  -1.154  -3.001  0.00  0.00    -0.016 A 
ATOM      8  C8  IND d   1      -0.708  -0.897  -1.661  0.00  0.00    -0.047 A 
ATOM      9  C9  IND d   1      -1.584  -1.304  -0.646  0.00  0.00    -0.096 A 
ATOM     10  HN1 IND d   1       0.995   0.144  -1.467  0.00  0.00     0.298 HD
ENDROOT
TORSDOF 0
ENDMDL
