MODEL 1
REMARK minimizedAffinity 1.66978133
REMARK minimizedRMSD -1
REMARK  0 active torsions:
REMARK  status: ('A' for Active; 'I' for Inactive)
ROOT
ATOM      1  N1  IND d   1      -0.053  -0.816  -0.668  0.00  0.00    -0.196 N 
ATOM      2  C2  IND d   1      -1.369  -0.791  -0.296  0.00  0.00     0.054 A 
ATOM      3  C3  IND d   1      -1.537   0.008   0.782  0.00  0.00    -0.031 A 
ATOM      4  C4  IND d   1       0.188   1.451   2.035  0.00  0.00     0.051 A 
ATOM      5  C5  IND d   1       1.525   1.729   2.086  0.00  0.00    -0.031 A 
ATOM      6  C6  IND d   1       2.422   1.164   1.203  0.00  0.00     0.015 A 
ATOM      7  C7  IND d   1       2.012   0.305   0.223  0.00  0.00    -0.016 A 
ATOM      8  C8  IND d   1       0.656   0.014   0.172  0.00  0.00    -0.047 A 
ATOM      9  C9  IND d   1      -0.253   0.551   1.093  0.00  0.00    -0.096 A 
ATOM     10  HN1 IND d   1       0.275  -1.273  -1.317  0.00  0.00     0.298 HD
ENDROOT
TORSDOF 0
ENDMDL
