MODEL 1
REMARK minimizedAffinity -2.20092678
REMARK minimizedRMSD -1
REMARK  0 active torsions:
REMARK  status: ('A' for Active; 'I' for Inactive)
ROOT
ATOM      1  N1  IND d   1      -0.737  -0.865   0.125  0.00  0.00    -0.196 N 
ATOM      2  C2  IND d   1       0.514  -0.338  -0.039  0.00  0.00     0.054 A 
ATOM      3  C3  IND d   1       0.817  -0.247  -1.353  0.00  0.00    -0.031 A 
ATOM      4  C4  IND d   1      -0.629  -0.810  -3.408  0.00  0.00     0.051 A 
ATOM      5  C5  IND d   1      -1.831  -1.355  -3.762  0.00  0.00    -0.031 A 
ATOM      6  C6  IND d   1      -2.750  -1.771  -2.820  0.00  0.00     0.015 A 
ATOM      7  C7  IND d   1      -2.504  -1.645  -1.482  0.00  0.00    -0.016 A 
ATOM      8  C8  IND d   1      -1.281  -1.099  -1.118  0.00  0.00    -0.047 A 
ATOM      9  C9  IND d   1      -0.327  -0.715  -2.070  0.00  0.00    -0.096 A 
ATOM     10  HN1 IND d   1      -1.119  -1.023   0.879  0.00  0.00     0.298 HD
ENDROOT
TORSDOF 0
ENDMDL
