MODEL 1
REMARK minimizedAffinity -0.899843216
REMARK minimizedRMSD -1
REMARK  0 active torsions:
REMARK  status: ('A' for Active; 'I' for Inactive)
ROOT
ATOM      1  N1  IND d   1      -2.651  -0.503  -2.018  0.00  0.00    -0.196 N 
ATOM      2  C2  IND d   1      -2.292  -1.697  -2.579  0.00  0.00     0.054 A 
ATOM      3  C3  IND d   1      -1.218  -2.213  -1.940  0.00  0.00    -0.031 A 
ATOM      4  C4  IND d   1       0.050  -1.318   0.114  0.00  0.00     0.051 A 
ATOM      5  C5  IND d   1       0.115  -0.243   0.955  0.00  0.00    -0.031 A 
ATOM      6  C6  IND d   1      -0.758   0.820   0.848  0.00  0.00     0.015 A 
ATOM      7  C7  IND d   1      -1.740   0.843  -0.101  0.00  0.00    -0.016 A 
ATOM      8  C8  IND d   1      -1.805  -0.244  -0.962  0.00  0.00    -0.047 A 
ATOM      9  C9  IND d   1      -0.895  -1.306  -0.885  0.00  0.00    -0.096 A 
ATOM     10  HN1 IND d   1      -3.296   0.001  -2.280  0.00  0.00     0.298 HD
ENDROOT
TORSDOF 0
ENDMDL
