MODEL 1
REMARK minimizedAffinity -1.70730245
REMARK minimizedRMSD -1
REMARK  0 active torsions:
REMARK  status: ('A' for Active; 'I' for Inactive)
ROOT
ATOM      1  N1  IND d   1       1.018  -1.436  -0.116  0.00  0.00    -0.196 N 
ATOM      2  C2  IND d   1      -0.158  -1.795  -0.712  0.00  0.00     0.054 A 
ATOM      3  C3  IND d   1      -1.132  -0.911  -0.401  0.00  0.00    -0.031 A 
ATOM      4  C4  IND d   1      -0.995   1.254   0.985  0.00  0.00     0.051 A 
ATOM      5  C5  IND d   1      -0.139   1.982   1.763  0.00  0.00    -0.031 A 
ATOM      6  C6  IND d   1       1.173   1.602   1.957  0.00  0.00     0.015 A 
ATOM      7  C7  IND d   1       1.684   0.480   1.368  0.00  0.00    -0.016 A 
ATOM      8  C8  IND d   1       0.816  -0.265   0.582  0.00  0.00    -0.047 A 
ATOM      9  C9  IND d   1      -0.528   0.093   0.416  0.00  0.00    -0.096 A 
ATOM     10  HN1 IND d   1       1.760  -1.868  -0.167  0.00  0.00     0.298 HD
ENDROOT
TORSDOF 0
ENDMDL
