MODEL 1
REMARK minimizedAffinity -2.92086363
REMARK minimizedRMSD -1
REMARK  0 active torsions:
REMARK  status: ('A' for Active; 'I' for Inactive)
ROOT
ATOM      1  N1  IND d   1       0.768  -1.277  -0.431  0.00  0.00    -0.196 N 
ATOM      2  C2  IND d   1       2.047  -0.836  -0.620  0.00  0.00     0.054 A 
ATOM      3  C3  IND d   1       2.230   0.356  -0.008  0.00  0.00    -0.031 A 
ATOM      4  C4  IND d   1       0.596   1.714   1.446  0.00  0.00     0.051 A 
ATOM      5  C5  IND d   1      -0.701   1.735   1.877  0.00  0.00    -0.031 A 
ATOM      6  C6  IND d   1      -1.592   0.731   1.556  0.00  0.00     0.015 A 
ATOM      7  C7  IND d   1      -1.214  -0.342   0.799  0.00  0.00    -0.016 A 
ATOM      8  C8  IND d   1       0.100  -0.362   0.354  0.00  0.00    -0.047 A 
ATOM      9  C9  IND d   1       0.997   0.674   0.641  0.00  0.00    -0.096 A 
ATOM     10  HN1 IND d   1       0.435  -2.004  -0.748  0.00  0.00     0.298 HD
ENDROOT
TORSDOF 0
ENDMDL
