MODEL 1
REMARK minimizedAffinity 0.871927798
REMARK minimizedRMSD -1
REMARK  1 active torsions:
REMARK  status: ('A' for Active; 'I' for Inactive)
REMARK    1  A    between atoms: C1_2  and  C2_3 
ROOT
ATOM      1  C2  UNL d   1       5.358  -1.456   3.906  0.00  0.00    -0.076 A 
ATOM      2  C3  UNL d   1       5.989  -2.635   4.336  0.00  0.00     0.004 A 
ATOM      3  C4  UNL d   1       5.455  -3.398   5.373  0.00  0.00    -0.003 A 
ATOM      4  C5  UNL d   1       4.279  -2.994   5.996  0.00  0.00     0.000 A 
ATOM      5  C6  UNL d   1       3.630  -1.836   5.570  0.00  0.00     0.000 A 
ATOM      6  C7  UNL d   1       4.146  -1.064   4.515  0.00  0.00    -0.073 A 
ATOM      7  C8  UNL d   1       3.408   0.179   4.101  0.00  0.00     0.078 C 
ENDROOT
BRANCH   1   8
ATOM      8  C1  UNL d   1       5.998  -0.655   2.795  0.00  0.00     0.053 C 
ATOM      9  C   UNL d   1       5.963   0.842   3.060  0.00  0.00     0.018 C 
ENDBRANCH   1   8
TORSDOF 1
ENDMDL
