MODEL 1
REMARK minimizedAffinity 2.66221309
REMARK minimizedRMSD -1
REMARK  1 active torsions:
REMARK  status: ('A' for Active; 'I' for Inactive)
REMARK    1  A    between atoms: C1_2  and  C2_3 
ROOT
ATOM      1  C2  UNL d   1       0.857  -0.850  -2.852  0.00  0.00    -0.076 A 
ATOM      2  C3  UNL d   1       0.538  -1.774  -1.842  0.00  0.00     0.004 A 
ATOM      3  C4  UNL d   1       0.117  -1.345  -0.584  0.00  0.00    -0.003 A 
ATOM      4  C5  UNL d   1       0.009   0.015  -0.316  0.00  0.00     0.000 A 
ATOM      5  C6  UNL d   1       0.305   0.945  -1.311  0.00  0.00     0.000 A 
ATOM      6  C7  UNL d   1       0.714   0.530  -2.590  0.00  0.00    -0.073 A 
ATOM      7  C8  UNL d   1       1.026   1.576  -3.624  0.00  0.00     0.078 C 
ENDROOT
BRANCH   1   8
ATOM      8  C1  UNL d   1       1.334  -1.373  -4.188  0.00  0.00     0.053 C 
ATOM      9  C   UNL d   1       0.474  -2.516  -4.706  0.00  0.00     0.018 C 
ENDBRANCH   1   8
TORSDOF 1
ENDMDL
