MODEL 1
REMARK minimizedAffinity 5.71554661
REMARK minimizedRMSD -1
REMARK  1 active torsions:
REMARK  status: ('A' for Active; 'I' for Inactive)
REMARK    1  A    between atoms: C1_2  and  C2_3 
ROOT
ATOM      1  C2  UNL d   1       0.880  -0.361  -3.485  0.00  0.00    -0.076 A 
ATOM      2  C3  UNL d   1       0.699  -1.201  -2.373  0.00  0.00     0.004 A 
ATOM      3  C4  UNL d   1       0.380  -0.676  -1.122  0.00  0.00    -0.003 A 
ATOM      4  C5  UNL d   1       0.235   0.698  -0.963  0.00  0.00     0.000 A 
ATOM      5  C6  UNL d   1       0.394   1.545  -2.059  0.00  0.00     0.000 A 
ATOM      6  C7  UNL d   1       0.700   1.030  -3.331  0.00  0.00    -0.073 A 
ATOM      7  C8  UNL d   1       0.865   1.990  -4.477  0.00  0.00     0.078 C 
ENDROOT
BRANCH   1   8
ATOM      8  C1  UNL d   1       1.251  -0.985  -4.811  0.00  0.00     0.053 C 
ATOM      9  C   UNL d   1       0.557  -2.318  -5.043  0.00  0.00     0.018 C 
ENDBRANCH   1   8
TORSDOF 1
ENDMDL
