MODEL 1
REMARK minimizedAffinity -3.01587653
REMARK minimizedRMSD -1
REMARK  1 active torsions:
REMARK  status: ('A' for Active; 'I' for Inactive)
REMARK    1  A    between atoms: C1_2  and  C2_3 
ROOT
ATOM      1  C2  UNL d   1      -3.604   3.547   3.877  0.00  0.00    -0.076 A 
ATOM      2  C3  UNL d   1      -3.668   2.284   3.263  0.00  0.00     0.004 A 
ATOM      3  C4  UNL d   1      -3.487   1.117   4.003  0.00  0.00    -0.003 A 
ATOM      4  C5  UNL d   1      -3.240   1.194   5.370  0.00  0.00     0.000 A 
ATOM      5  C6  UNL d   1      -3.190   2.438   5.998  0.00  0.00     0.000 A 
ATOM      6  C7  UNL d   1      -3.387   3.623   5.269  0.00  0.00    -0.073 A 
ATOM      7  C8  UNL d   1      -3.317   4.938   5.997  0.00  0.00     0.078 C 
ENDROOT
BRANCH   1   8
ATOM      8  C1  UNL d   1      -3.781   4.779   3.019  0.00  0.00     0.053 C 
ATOM      9  C   UNL d   1      -4.607   5.855   3.707  0.00  0.00     0.018 C 
ENDBRANCH   1   8
TORSDOF 1
ENDMDL
