MODEL 1
REMARK minimizedAffinity 9.66891384
REMARK minimizedRMSD -1
REMARK  1 active torsions:
REMARK  status: ('A' for Active; 'I' for Inactive)
REMARK    1  A    between atoms: C1_2  and  C2_3 
ROOT
ATOM      1  C2  UNL d   1       5.878  -1.186  -3.508  0.00  0.00    -0.076 A 
ATOM      2  C3  UNL d   1       5.866   0.217  -3.593  0.00  0.00     0.004 A 
ATOM      3  C4  UNL d   1       5.910   0.861  -4.829  0.00  0.00    -0.003 A 
ATOM      4  C5  UNL d   1       5.964   0.113  -5.999  0.00  0.00     0.000 A 
ATOM      5  C6  UNL d   1       5.959  -1.280  -5.934  0.00  0.00     0.000 A 
ATOM      6  C7  UNL d   1       5.899  -1.945  -4.697  0.00  0.00    -0.073 A 
ATOM      7  C8  UNL d   1       5.902  -3.450  -4.686  0.00  0.00     0.078 C 
ENDROOT
BRANCH   1   8
ATOM      8  C1  UNL d   1       5.857  -1.828  -2.140  0.00  0.00     0.053 C 
ATOM      9  C   UNL d   1       5.206  -0.942  -1.089  0.00  0.00     0.018 C 
ENDBRANCH   1   8
TORSDOF 1
ENDMDL
