MODEL 1
REMARK minimizedAffinity 7.84051847
REMARK minimizedRMSD -1
REMARK  1 active torsions:
REMARK  status: ('A' for Active; 'I' for Inactive)
REMARK    1  A    between atoms: C1_2  and  C2_3 
ROOT
ATOM      1  C2  UNL d   1       1.973   1.827  -0.401  0.00  0.00    -0.076 A 
ATOM      2  C3  UNL d   1       1.122   0.708  -0.433  0.00  0.00     0.004 A 
ATOM      3  C4  UNL d   1       0.838   0.056  -1.632  0.00  0.00    -0.003 A 
ATOM      4  C5  UNL d   1       1.402   0.511  -2.818  0.00  0.00     0.000 A 
ATOM      5  C6  UNL d   1       2.263   1.608  -2.803  0.00  0.00     0.000 A 
ATOM      6  C7  UNL d   1       2.572   2.267  -1.601  0.00  0.00    -0.073 A 
ATOM      7  C8  UNL d   1       3.502   3.449  -1.643  0.00  0.00     0.078 C 
ENDROOT
BRANCH   1   8
ATOM      8  C1  UNL d   1       2.222   2.510   0.924  0.00  0.00     0.053 C 
ATOM      9  C   UNL d   1       3.407   1.917   1.672  0.00  0.00     0.018 C 
ENDBRANCH   1   8
TORSDOF 1
ENDMDL
