MODEL 1
REMARK minimizedAffinity 8.87643719
REMARK minimizedRMSD -1
REMARK  1 active torsions:
REMARK  status: ('A' for Active; 'I' for Inactive)
REMARK    1  A    between atoms: C1_2  and  C2_3 
ROOT
ATOM      1  C2  UNL d   1       0.266  -0.837  -1.296  0.00  0.00    -0.076 A 
ATOM      2  C3  UNL d   1       0.624  -2.071  -1.867  0.00  0.00     0.004 A 
ATOM      3  C4  UNL d   1       1.020  -2.156  -3.201  0.00  0.00    -0.003 A 
ATOM      4  C5  UNL d   1       1.065  -1.008  -3.985  0.00  0.00     0.000 A 
ATOM      5  C6  UNL d   1       0.731   0.227  -3.430  0.00  0.00     0.000 A 
ATOM      6  C7  UNL d   1       0.345   0.332  -2.083  0.00  0.00    -0.073 A 
ATOM      7  C8  UNL d   1      -0.011   1.688  -1.538  0.00  0.00     0.078 C 
ENDROOT
BRANCH   1   8
ATOM      8  C1  UNL d   1      -0.182  -0.810   0.148  0.00  0.00     0.053 C 
ATOM      9  C   UNL d   1      -0.834  -2.115   0.580  0.00  0.00     0.018 C 
ENDBRANCH   1   8
TORSDOF 1
ENDMDL
