MODEL 1
REMARK minimizedAffinity 14.7743692
REMARK minimizedRMSD -1
REMARK  1 active torsions:
REMARK  status: ('A' for Active; 'I' for Inactive)
REMARK    1  A    between atoms: C1_2  and  C2_3 
ROOT
ATOM      1  C2  UNL d   1      -1.547  -2.160   2.387  0.00  0.00    -0.076 A 
ATOM      2  C3  UNL d   1      -1.926  -2.510   1.080  0.00  0.00     0.004 A 
ATOM      3  C4  UNL d   1      -1.011  -2.460   0.030  0.00  0.00    -0.003 A 
ATOM      4  C5  UNL d   1       0.298  -2.059   0.270  0.00  0.00     0.000 A 
ATOM      5  C6  UNL d   1       0.696  -1.724   1.564  0.00  0.00     0.000 A 
ATOM      6  C7  UNL d   1      -0.210  -1.785   2.637  0.00  0.00    -0.073 A 
ATOM      7  C8  UNL d   1       0.272  -1.408   4.011  0.00  0.00     0.078 C 
ENDROOT
BRANCH   1   8
ATOM      8  C1  UNL d   1      -2.590  -2.207   3.481  0.00  0.00     0.053 C 
ATOM      9  C   UNL d   1      -3.202  -0.844   3.763  0.00  0.00     0.018 C 
ENDBRANCH   1   8
TORSDOF 1
ENDMDL
