MODEL 1
REMARK minimizedAffinity 8.12330532
REMARK minimizedRMSD -1
REMARK  1 active torsions:
REMARK  status: ('A' for Active; 'I' for Inactive)
REMARK    1  A    between atoms: C1_2  and  C2_3 
ROOT
ATOM      1  C2  UNL d   1      -4.660  -0.703   3.829  0.00  0.00    -0.076 A 
ATOM      2  C3  UNL d   1      -4.402  -2.075   3.990  0.00  0.00     0.004 A 
ATOM      3  C4  UNL d   1      -3.203  -2.519   4.545  0.00  0.00    -0.003 A 
ATOM      4  C5  UNL d   1      -2.243  -1.598   4.949  0.00  0.00     0.000 A 
ATOM      5  C6  UNL d   1      -2.489  -0.233   4.813  0.00  0.00     0.000 A 
ATOM      6  C7  UNL d   1      -3.699   0.233   4.270  0.00  0.00    -0.073 A 
ATOM      7  C8  UNL d   1      -3.909   1.716   4.141  0.00  0.00     0.078 C 
ENDROOT
BRANCH   1   8
ATOM      8  C1  UNL d   1      -5.966  -0.281   3.196  0.00  0.00     0.053 C 
ATOM      9  C   UNL d   1      -5.947  -0.408   1.680  0.00  0.00     0.018 C 
ENDBRANCH   1   8
TORSDOF 1
ENDMDL
