MODEL 1
REMARK minimizedAffinity 10.0627222
REMARK minimizedRMSD -1
REMARK  1 active torsions:
REMARK  status: ('A' for Active; 'I' for Inactive)
REMARK    1  A    between atoms: C1_2  and  C2_3 
ROOT
ATOM      1  C2  UNL d   1       3.725   3.790  -5.353  0.00  0.00    -0.076 A 
ATOM      2  C3  UNL d   1       4.233   2.648  -5.996  0.00  0.00     0.004 A 
ATOM      3  C4  UNL d   1       5.360   1.990  -5.506  0.00  0.00    -0.003 A 
ATOM      4  C5  UNL d   1       5.997   2.463  -4.364  0.00  0.00     0.000 A 
ATOM      5  C6  UNL d   1       5.497   3.585  -3.704  0.00  0.00     0.000 A 
ATOM      6  C7  UNL d   1       4.352   4.250  -4.175  0.00  0.00    -0.073 A 
ATOM      7  C8  UNL d   1       3.860   5.458  -3.427  0.00  0.00     0.078 C 
ENDROOT
BRANCH   1   8
ATOM      8  C1  UNL d   1       2.516   4.478  -5.946  0.00  0.00     0.053 C 
ATOM      9  C   UNL d   1       1.233   3.692  -5.727  0.00  0.00     0.018 C 
ENDBRANCH   1   8
TORSDOF 1
ENDMDL
