MODEL 1
REMARK minimizedAffinity 10.1465921
REMARK minimizedRMSD -1
REMARK  1 active torsions:
REMARK  status: ('A' for Active; 'I' for Inactive)
REMARK    1  A    between atoms: C1_2  and  C2_3 
ROOT
ATOM      1  C2  UNL d   1       4.196   4.345  -4.247  0.00  0.00    -0.076 A 
ATOM      2  C3  UNL d   1       5.477   3.842  -3.964  0.00  0.00     0.004 A 
ATOM      3  C4  UNL d   1       5.999   2.766  -4.680  0.00  0.00    -0.003 A 
ATOM      4  C5  UNL d   1       5.248   2.176  -5.691  0.00  0.00     0.000 A 
ATOM      5  C6  UNL d   1       3.982   2.674  -5.997  0.00  0.00     0.000 A 
ATOM      6  C7  UNL d   1       3.448   3.769  -5.295  0.00  0.00    -0.073 A 
ATOM      7  C8  UNL d   1       2.075   4.261  -5.663  0.00  0.00     0.078 C 
ENDROOT
BRANCH   1   8
ATOM      8  C1  UNL d   1       3.671   5.497  -3.419  0.00  0.00     0.053 C 
ATOM      9  C   UNL d   1       4.688   5.995  -2.403  0.00  0.00     0.018 C 
ENDBRANCH   1   8
TORSDOF 1
ENDMDL
