MODEL 1
REMARK minimizedAffinity 13.0386152
REMARK minimizedRMSD -1
REMARK  1 active torsions:
REMARK  status: ('A' for Active; 'I' for Inactive)
REMARK    1  A    between atoms: C1_2  and  C2_3 
ROOT
ATOM      1  C2  UNL d   1       0.005  -1.513  -0.833  0.00  0.00    -0.076 A 
ATOM      2  C3  UNL d   1      -0.183  -0.175  -0.443  0.00  0.00     0.004 A 
ATOM      3  C4  UNL d   1       0.215   0.875  -1.269  0.00  0.00    -0.003 A 
ATOM      4  C5  UNL d   1       0.806   0.605  -2.498  0.00  0.00     0.000 A 
ATOM      5  C6  UNL d   1       0.983  -0.716  -2.908  0.00  0.00     0.000 A 
ATOM      6  C7  UNL d   1       0.573  -1.786  -2.095  0.00  0.00    -0.073 A 
ATOM      7  C8  UNL d   1       0.795  -3.191  -2.585  0.00  0.00     0.078 C 
ENDROOT
BRANCH   1   8
ATOM      8  C1  UNL d   1      -0.422  -2.610   0.116  0.00  0.00     0.053 C 
ATOM      9  C   UNL d   1      -1.817  -2.385   0.678  0.00  0.00     0.018 C 
ENDBRANCH   1   8
TORSDOF 1
ENDMDL
