MODEL 1
REMARK minimizedAffinity -2.51560903
REMARK minimizedRMSD -1
REMARK  0 active torsions:
REMARK  status: ('A' for Active; 'I' for Inactive)
ROOT
ATOM      1  C1  DEN d   1      -0.171  -0.596  -1.490  0.00  0.00     0.130 A 
ATOM      2  C2  DEN d   1       0.788  -1.681  -1.296  0.00  0.00    -0.031 A 
ATOM      3  C3  DEN d   1       1.201  -1.677   0.121  0.00  0.00     0.027 A 
ATOM      4  C4  DEN d   1       0.449  -0.110   2.027  0.00  0.00     0.027 A 
ATOM      5  C5  DEN d   1      -0.343   0.972   2.344  0.00  0.00    -0.003 A 
ATOM      6  C6  DEN d   1      -1.101   1.622   1.407  0.00  0.00     0.001 A 
ATOM      7  C7  DEN d   1      -1.118   1.168   0.114  0.00  0.00     0.017 A 
ATOM      8  C8  DEN d   1      -0.316   0.083  -0.215  0.00  0.00    -0.094 A 
ATOM      9  C9  DEN d   1       0.434  -0.568   0.750  0.00  0.00    -0.072 A 
ENDROOT
TORSDOF 0
ENDMDL
