MODEL 1
REMARK minimizedAffinity -3.76157689
REMARK minimizedRMSD -1
REMARK  0 active torsions:
REMARK  status: ('A' for Active; 'I' for Inactive)
ROOT
ATOM      1  C1  DEN d   1       1.048   1.318  -1.411  0.00  0.00     0.130 A 
ATOM      2  C2  DEN d   1       1.374  -0.087  -1.642  0.00  0.00    -0.031 A 
ATOM      3  C3  DEN d   1       0.818  -0.874  -0.523  0.00  0.00     0.027 A 
ATOM      4  C4  DEN d   1      -0.512  -0.060   1.531  0.00  0.00     0.027 A 
ATOM      5  C5  DEN d   1      -1.025   1.048   2.169  0.00  0.00    -0.003 A 
ATOM      6  C6  DEN d   1      -0.856   2.316   1.680  0.00  0.00     0.001 A 
ATOM      7  C7  DEN d   1      -0.194   2.504   0.496  0.00  0.00     0.017 A 
ATOM      8  C8  DEN d   1       0.333   1.393  -0.149  0.00  0.00    -0.094 A 
ATOM      9  C9  DEN d   1       0.140   0.117   0.355  0.00  0.00    -0.072 A 
ENDROOT
TORSDOF 0
ENDMDL
