MODEL 1
REMARK minimizedAffinity -3.88720608
REMARK minimizedRMSD -1
REMARK  0 active torsions:
REMARK  status: ('A' for Active; 'I' for Inactive)
ROOT
ATOM      1  C1  DEN d   1       0.277   0.785  -1.458  0.00  0.00     0.130 A 
ATOM      2  C2  DEN d   1       1.037  -0.458  -1.552  0.00  0.00    -0.031 A 
ATOM      3  C3  DEN d   1       0.962  -1.140  -0.245  0.00  0.00     0.027 A 
ATOM      4  C4  DEN d   1      -0.256  -0.398   1.905  0.00  0.00     0.027 A 
ATOM      5  C5  DEN d   1      -1.026   0.592   2.473  0.00  0.00    -0.003 A 
ATOM      6  C6  DEN d   1      -1.385   1.722   1.788  0.00  0.00     0.001 A 
ATOM      7  C7  DEN d   1      -1.011   1.870   0.478  0.00  0.00     0.017 A 
ATOM      8  C8  DEN d   1      -0.228   0.879  -0.100  0.00  0.00    -0.094 A 
ATOM      9  C9  DEN d   1       0.115  -0.261   0.606  0.00  0.00    -0.072 A 
ENDROOT
TORSDOF 0
ENDMDL
