MODEL 1
REMARK minimizedAffinity 0.877344608
REMARK minimizedRMSD -1
REMARK  0 active torsions:
REMARK  status: ('A' for Active; 'I' for Inactive)
ROOT
ATOM      1  C1  DEN d   1       1.302  -1.099   0.566  0.00  0.00     0.130 A 
ATOM      2  C2  DEN d   1       0.862   0.228   0.146  0.00  0.00    -0.031 A 
ATOM      3  C3  DEN d   1       0.456   0.148  -1.271  0.00  0.00     0.027 A 
ATOM      4  C4  DEN d   1       0.459  -1.895  -2.846  0.00  0.00     0.027 A 
ATOM      5  C5  DEN d   1       0.758  -3.236  -2.945  0.00  0.00    -0.003 A 
ATOM      6  C6  DEN d   1       1.287  -3.945  -1.899  0.00  0.00     0.001 A 
ATOM      7  C7  DEN d   1       1.491  -3.326  -0.694  0.00  0.00     0.017 A 
ATOM      8  C8  DEN d   1       1.199  -1.973  -0.589  0.00  0.00    -0.094 A 
ATOM      9  C9  DEN d   1       0.654  -1.276  -1.654  0.00  0.00    -0.072 A 
ENDROOT
TORSDOF 0
ENDMDL
