MODEL 1
REMARK minimizedAffinity 0.270203263
REMARK minimizedRMSD -1
REMARK  0 active torsions:
REMARK  status: ('A' for Active; 'I' for Inactive)
ROOT
ATOM      1  C1  DEN d   1       0.113  -2.089  -3.306  0.00  0.00     0.130 A 
ATOM      2  C2  DEN d   1       0.579  -3.436  -2.988  0.00  0.00    -0.031 A 
ATOM      3  C3  DEN d   1       0.951  -3.464  -1.559  0.00  0.00     0.027 A 
ATOM      4  C4  DEN d   1       0.847  -1.566   0.184  0.00  0.00     0.027 A 
ATOM      5  C5  DEN d   1       0.530  -0.240   0.381  0.00  0.00    -0.003 A 
ATOM      6  C6  DEN d   1       0.088   0.565  -0.635  0.00  0.00     0.001 A 
ATOM      7  C7  DEN d   1      -0.093   0.039  -1.887  0.00  0.00     0.017 A 
ATOM      8  C8  DEN d   1       0.231  -1.295  -2.096  0.00  0.00    -0.094 A 
ATOM      9  C9  DEN d   1       0.665  -2.095  -1.053  0.00  0.00    -0.072 A 
ENDROOT
TORSDOF 0
ENDMDL
