MODEL 1
REMARK minimizedAffinity -1.55484009
REMARK minimizedRMSD -1
REMARK  0 active torsions:
REMARK  status: ('A' for Active; 'I' for Inactive)
ROOT
ATOM      1  C1  DEN d   1      -0.774  -0.148   1.606  0.00  0.00     0.130 A 
ATOM      2  C2  DEN d   1      -1.422   1.074   2.075  0.00  0.00    -0.031 A 
ATOM      3  C3  DEN d   1      -1.103   2.155   1.121  0.00  0.00     0.027 A 
ATOM      4  C4  DEN d   1       0.321   2.055  -1.028  0.00  0.00     0.027 A 
ATOM      5  C5  DEN d   1       1.086   1.238  -1.830  0.00  0.00    -0.003 A 
ATOM      6  C6  DEN d   1       1.312  -0.079  -1.528  0.00  0.00     0.001 A 
ATOM      7  C7  DEN d   1       0.728  -0.630  -0.417  0.00  0.00     0.017 A 
ATOM      8  C8  DEN d   1      -0.039   0.189   0.400  0.00  0.00    -0.094 A 
ATOM      9  C9  DEN d   1      -0.265   1.515   0.071  0.00  0.00    -0.072 A 
ENDROOT
TORSDOF 0
ENDMDL
