MODEL 1
REMARK minimizedAffinity -2.41634202
REMARK minimizedRMSD -1
REMARK  0 active torsions:
REMARK  status: ('A' for Active; 'I' for Inactive)
ROOT
ATOM      1  C1  DEN d   1      -0.595   0.679  -0.160  0.00  0.00     0.130 A 
ATOM      2  C2  DEN d   1      -0.318   0.413   1.249  0.00  0.00    -0.031 A 
ATOM      3  C3  DEN d   1       0.199  -0.966   1.360  0.00  0.00     0.027 A 
ATOM      4  C4  DEN d   1       0.602  -2.702  -0.504  0.00  0.00     0.027 A 
ATOM      5  C5  DEN d   1       0.505  -2.939  -1.858  0.00  0.00    -0.003 A 
ATOM      6  C6  DEN d   1       0.007  -2.007  -2.729  0.00  0.00     0.001 A 
ATOM      7  C7  DEN d   1      -0.371  -0.776  -2.261  0.00  0.00     0.017 A 
ATOM      8  C8  DEN d   1      -0.283  -0.532  -0.897  0.00  0.00    -0.094 A 
ATOM      9  C9  DEN d   1       0.234  -1.483  -0.035  0.00  0.00    -0.072 A 
ENDROOT
TORSDOF 0
ENDMDL
