MODEL 1
REMARK minimizedAffinity -3.16309214
REMARK minimizedRMSD -1
REMARK  0 active torsions:
REMARK  status: ('A' for Active; 'I' for Inactive)
ROOT
ATOM      1  C1  DEN d   1       1.062  -0.205  -1.177  0.00  0.00     0.130 A 
ATOM      2  C2  DEN d   1       0.829  -1.606  -1.519  0.00  0.00    -0.031 A 
ATOM      3  C3  DEN d   1      -0.182  -2.141  -0.584  0.00  0.00     0.027 A 
ATOM      4  C4  DEN d   1      -1.405  -0.943   1.344  0.00  0.00     0.027 A 
ATOM      5  C5  DEN d   1      -1.530   0.248   2.026  0.00  0.00    -0.003 A 
ATOM      6  C6  DEN d   1      -0.782   1.351   1.712  0.00  0.00     0.001 A 
ATOM      7  C7  DEN d   1       0.093   1.301   0.660  0.00  0.00     0.017 A 
ATOM      8  C8  DEN d   1       0.231   0.102  -0.027  0.00  0.00    -0.094 A 
ATOM      9  C9  DEN d   1      -0.543  -0.999   0.297  0.00  0.00    -0.072 A 
ENDROOT
TORSDOF 0
ENDMDL
