MODEL 1
REMARK minimizedAffinity -4.83277893
REMARK minimizedRMSD -1
REMARK  0 active torsions:
REMARK  status: ('A' for Active; 'I' for Inactive)
ROOT
ATOM      1  C1  DEN d   1      -0.619   3.354   0.668  0.00  0.00     0.130 A 
ATOM      2  C2  DEN d   1       0.251   3.614  -0.475  0.00  0.00    -0.031 A 
ATOM      3  C3  DEN d   1       0.744   2.316  -0.979  0.00  0.00     0.027 A 
ATOM      4  C4  DEN d   1       0.243  -0.059  -0.106  0.00  0.00     0.027 A 
ATOM      5  C5  DEN d   1      -0.432  -0.784   0.852  0.00  0.00    -0.003 A 
ATOM      6  C6  DEN d   1      -1.183  -0.184   1.828  0.00  0.00     0.001 A 
ATOM      7  C7  DEN d   1      -1.313   1.180   1.841  0.00  0.00     0.017 A 
ATOM      8  C8  DEN d   1      -0.630   1.918   0.884  0.00  0.00    -0.094 A 
ATOM      9  C9  DEN d   1       0.114   1.292  -0.102  0.00  0.00    -0.072 A 
ENDROOT
TORSDOF 0
ENDMDL
