MODEL 1
REMARK minimizedAffinity -4.31705141
REMARK minimizedRMSD -1
REMARK  0 active torsions:
REMARK  status: ('A' for Active; 'I' for Inactive)
ROOT
ATOM      1  C1  DEN d   1       1.362  -0.261  -0.793  0.00  0.00     0.130 A 
ATOM      2  C2  DEN d   1       1.094   0.994  -1.491  0.00  0.00    -0.031 A 
ATOM      3  C3  DEN d   1       0.078   1.738  -0.720  0.00  0.00     0.027 A 
ATOM      4  C4  DEN d   1      -1.098   1.075   1.478  0.00  0.00     0.027 A 
ATOM      5  C5  DEN d   1      -1.208   0.096   2.441  0.00  0.00    -0.003 A 
ATOM      6  C6  DEN d   1      -0.500  -1.075   2.377  0.00  0.00     0.001 A 
ATOM      7  C7  DEN d   1       0.384  -1.278   1.350  0.00  0.00     0.017 A 
ATOM      8  C8  DEN d   1       0.495  -0.299   0.371  0.00  0.00    -0.094 A 
ATOM      9  C9  DEN d   1      -0.220   0.883   0.461  0.00  0.00    -0.072 A 
ENDROOT
TORSDOF 0
ENDMDL
