MODEL 1
REMARK minimizedAffinity -3.84792447
REMARK minimizedRMSD -1
REMARK  0 active torsions:
REMARK  status: ('A' for Active; 'I' for Inactive)
ROOT
ATOM      1  C1  DEN d   1       0.840   0.001  -0.898  0.00  0.00     0.130 A 
ATOM      2  C2  DEN d   1       0.747  -1.345  -0.338  0.00  0.00    -0.031 A 
ATOM      3  C3  DEN d   1      -0.160  -1.293   0.826  0.00  0.00     0.027 A 
ATOM      4  C4  DEN d   1      -1.427   0.729   1.807  0.00  0.00     0.027 A 
ATOM      5  C5  DEN d   1      -1.653   2.081   1.679  0.00  0.00    -0.003 A 
ATOM      6  C6  DEN d   1      -1.044   2.835   0.712  0.00  0.00     0.001 A 
ATOM      7  C7  DEN d   1      -0.211   2.233  -0.194  0.00  0.00     0.017 A 
ATOM      8  C8  DEN d   1       0.028   0.871  -0.067  0.00  0.00    -0.094 A 
ATOM      9  C9  DEN d   1      -0.607   0.124   0.910  0.00  0.00    -0.072 A 
ENDROOT
TORSDOF 0
ENDMDL
