MODEL 1
REMARK minimizedAffinity 8.94502544
REMARK minimizedRMSD -1
REMARK  0 active torsions:
REMARK  status: ('A' for Active; 'I' for Inactive)
ROOT
ATOM      1  N1  IND d   1      -4.002  -1.495   1.559  0.00  0.00    -0.196 N 
ATOM      2  C2  IND d   1      -3.030  -0.593   1.892  0.00  0.00     0.054 A 
ATOM      3  C3  IND d   1      -2.962   0.389   0.965  0.00  0.00    -0.031 A 
ATOM      4  C4  IND d   1      -4.417   0.769  -1.125  0.00  0.00     0.051 A 
ATOM      5  C5  IND d   1      -5.410   0.192  -1.865  0.00  0.00    -0.031 A 
ATOM      6  C6  IND d   1      -5.999  -0.999  -1.493  0.00  0.00     0.015 A 
ATOM      7  C7  IND d   1      -5.622  -1.655  -0.356  0.00  0.00    -0.016 A 
ATOM      8  C8  IND d   1      -4.609  -1.076   0.395  0.00  0.00    -0.047 A 
ATOM      9  C9  IND d   1      -3.978   0.111  -0.000  0.00  0.00    -0.096 A 
ATOM     10  HN1 IND d   1      -4.201  -2.205   2.002  0.00  0.00     0.298 HD
ENDROOT
TORSDOF 0
ENDMDL
