MODEL 1
REMARK minimizedAffinity 7.0525403
REMARK minimizedRMSD -1
REMARK  0 active torsions:
REMARK  status: ('A' for Active; 'I' for Inactive)
ROOT
ATOM      1  N1  IND d   1      -4.581  -1.396  -0.171  0.00  0.00    -0.196 N 
ATOM      2  C2  IND d   1      -5.398  -0.889  -1.142  0.00  0.00     0.054 A 
ATOM      3  C3  IND d   1      -4.679  -0.167  -2.032  0.00  0.00    -0.031 A 
ATOM      4  C4  IND d   1      -2.138   0.228  -2.145  0.00  0.00     0.051 A 
ATOM      5  C5  IND d   1      -0.980  -0.004  -1.456  0.00  0.00    -0.031 A 
ATOM      6  C6  IND d   1      -0.963  -0.729  -0.282  0.00  0.00     0.015 A 
ATOM      7  C7  IND d   1      -2.106  -1.261   0.244  0.00  0.00    -0.016 A 
ATOM      8  C8  IND d   1      -3.284  -1.021  -0.449  0.00  0.00    -0.047 A 
ATOM      9  C9  IND d   1      -3.315  -0.251  -1.618  0.00  0.00    -0.096 A 
ATOM     10  HN1 IND d   1      -4.834  -1.870   0.500  0.00  0.00     0.298 HD
ENDROOT
TORSDOF 0
ENDMDL
