MODEL 1
REMARK minimizedAffinity -0.0946838185
REMARK minimizedRMSD -1
REMARK  0 active torsions:
REMARK  status: ('A' for Active; 'I' for Inactive)
ROOT
ATOM      1  N1  IND d   1       2.776  -3.763   5.852  0.00  0.00    -0.196 N 
ATOM      2  C2  IND d   1       2.709  -5.127   5.901  0.00  0.00     0.054 A 
ATOM      3  C3  IND d   1       1.422  -5.531   5.999  0.00  0.00    -0.031 A 
ATOM      4  C4  IND d   1      -0.737  -4.129   5.990  0.00  0.00     0.051 A 
ATOM      5  C5  IND d   1      -1.183  -2.837   5.998  0.00  0.00    -0.031 A 
ATOM      6  C6  IND d   1      -0.314  -1.766   5.955  0.00  0.00     0.015 A 
ATOM      7  C7  IND d   1       1.038  -1.948   5.889  0.00  0.00    -0.016 A 
ATOM      8  C8  IND d   1       1.495  -3.259   5.888  0.00  0.00    -0.047 A 
ATOM      9  C9  IND d   1       0.620  -4.349   5.975  0.00  0.00    -0.096 A 
ATOM     10  HN1 IND d   1       3.498  -3.298   5.806  0.00  0.00     0.298 HD
ENDROOT
TORSDOF 0
ENDMDL
