MODEL 1
REMARK minimizedAffinity 1.87135696
REMARK minimizedRMSD -1
REMARK  0 active torsions:
REMARK  status: ('A' for Active; 'I' for Inactive)
ROOT
ATOM      1  N1  IND d   1      -1.542  -4.544   5.965  0.00  0.00    -0.196 N 
ATOM      2  C2  IND d   1      -1.101  -5.837   5.919  0.00  0.00     0.054 A 
ATOM      3  C3  IND d   1       0.250  -5.872   5.876  0.00  0.00    -0.031 A 
ATOM      4  C4  IND d   1       1.940  -3.933   5.974  0.00  0.00     0.051 A 
ATOM      5  C5  IND d   1       2.015  -2.568   5.984  0.00  0.00    -0.031 A 
ATOM      6  C6  IND d   1       0.885  -1.777   5.990  0.00  0.00     0.015 A 
ATOM      7  C7  IND d   1      -0.368  -2.323   5.999  0.00  0.00    -0.016 A 
ATOM      8  C8  IND d   1      -0.447  -3.708   5.983  0.00  0.00    -0.047 A 
ATOM      9  C9  IND d   1       0.696  -4.516   5.933  0.00  0.00    -0.096 A 
ATOM     10  HN1 IND d   1      -2.365  -4.295   5.981  0.00  0.00     0.298 HD
ENDROOT
TORSDOF 0
ENDMDL
