MODEL 1
REMARK minimizedAffinity 6.13557148
REMARK minimizedRMSD -1
REMARK  0 active torsions:
REMARK  status: ('A' for Active; 'I' for Inactive)
ROOT
ATOM      1  N1  IND d   1       0.008  -3.554   0.076  0.00  0.00    -0.196 N 
ATOM      2  C2  IND d   1      -0.510  -3.398  -1.179  0.00  0.00     0.054 A 
ATOM      3  C3  IND d   1       0.025  -2.310  -1.777  0.00  0.00    -0.031 A 
ATOM      4  C4  IND d   1       1.842  -0.700  -0.919  0.00  0.00     0.051 A 
ATOM      5  C5  IND d   1       2.594  -0.415   0.185  0.00  0.00    -0.031 A 
ATOM      6  C6  IND d   1       2.523  -1.178   1.333  0.00  0.00     0.015 A 
ATOM      7  C7  IND d   1       1.702  -2.267   1.414  0.00  0.00    -0.016 A 
ATOM      8  C8  IND d   1       0.932  -2.556   0.297  0.00  0.00    -0.047 A 
ATOM      9  C9  IND d   1       0.968  -1.759  -0.855  0.00  0.00    -0.096 A 
ATOM     10  HN1 IND d   1      -0.206  -4.171   0.635  0.00  0.00     0.298 HD
ENDROOT
TORSDOF 0
ENDMDL
