MODEL 1
REMARK minimizedAffinity 5.0705514
REMARK minimizedRMSD -1
REMARK  0 active torsions:
REMARK  status: ('A' for Active; 'I' for Inactive)
ROOT
ATOM      1  N1  IND d   1      -1.585  -3.495   5.990  0.00  0.00    -0.196 N 
ATOM      2  C2  IND d   1      -1.432  -4.854   5.961  0.00  0.00     0.054 A 
ATOM      3  C3  IND d   1      -0.121  -5.179   5.921  0.00  0.00    -0.031 A 
ATOM      4  C4  IND d   1       1.947  -3.647   5.996  0.00  0.00     0.051 A 
ATOM      5  C5  IND d   1       2.313  -2.331   5.988  0.00  0.00    -0.031 A 
ATOM      6  C6  IND d   1       1.380  -1.314   5.983  0.00  0.00     0.015 A 
ATOM      7  C7  IND d   1       0.039  -1.578   5.997  0.00  0.00    -0.016 A 
ATOM      8  C8  IND d   1      -0.336  -2.914   5.998  0.00  0.00    -0.047 A 
ATOM      9  C9  IND d   1       0.606  -3.950   5.960  0.00  0.00    -0.096 A 
ATOM     10  HN1 IND d   1      -2.335  -3.075   6.001  0.00  0.00     0.298 HD
ENDROOT
TORSDOF 0
ENDMDL
