MODEL 1
REMARK minimizedAffinity -1.07471383
REMARK minimizedRMSD -1
REMARK  0 active torsions:
REMARK  status: ('A' for Active; 'I' for Inactive)
ROOT
ATOM      1  C   UNL d   1       0.337   0.799   0.805  0.00  0.00     0.023 A 
ATOM      2  C1  UNL d   1       0.736   0.374  -0.463  0.00  0.00     0.003 A 
ATOM      3  C2  UNL d   1       0.278  -0.844  -0.969  0.00  0.00     0.048 A 
ATOM      4  C3  UNL d   1      -0.580  -1.632  -0.203  0.00  0.00     0.023 A 
ATOM      5  C4  UNL d   1      -0.983  -1.211   1.065  0.00  0.00     0.048 A 
ATOM      6  C5  UNL d   1      -0.522   0.007   1.568  0.00  0.00     0.003 A 
ATOM      7  I   UNL d   1      -1.264  -3.445  -0.954  0.00  0.00    -0.146 I 
ENDROOT
TORSDOF 0
ENDMDL
