MODEL 1
REMARK minimizedAffinity -2.23714328
REMARK minimizedRMSD -1
REMARK  0 active torsions:
REMARK  status: ('A' for Active; 'I' for Inactive)
ROOT
ATOM      1  C   UNL d   1       0.138   1.970   0.715  0.00  0.00     0.023 A 
ATOM      2  C1  UNL d   1       0.382   1.718  -0.636  0.00  0.00     0.003 A 
ATOM      3  C2  UNL d   1       0.376   0.407  -1.115  0.00  0.00     0.048 A 
ATOM      4  C3  UNL d   1       0.123  -0.648  -0.240  0.00  0.00     0.023 A 
ATOM      5  C4  UNL d   1      -0.123  -0.402   1.112  0.00  0.00     0.048 A 
ATOM      6  C5  UNL d   1      -0.115   0.911   1.587  0.00  0.00     0.003 A 
ATOM      7  I   UNL d   1       0.113  -2.601  -0.951  0.00  0.00    -0.146 I 
ENDROOT
TORSDOF 0
ENDMDL
