MODEL 1
REMARK minimizedAffinity -1.44298196
REMARK minimizedRMSD -1
REMARK  0 active torsions:
REMARK  status: ('A' for Active; 'I' for Inactive)
ROOT
ATOM      1  C   UNL d   1      -0.217   1.901   1.093  0.00  0.00     0.023 A 
ATOM      2  C1  UNL d   1      -0.233   0.788   1.935  0.00  0.00     0.003 A 
ATOM      3  C2  UNL d   1      -0.119  -0.496   1.398  0.00  0.00     0.048 A 
ATOM      4  C3  UNL d   1       0.011  -0.661   0.020  0.00  0.00     0.023 A 
ATOM      5  C4  UNL d   1       0.029   0.450  -0.826  0.00  0.00     0.048 A 
ATOM      6  C5  UNL d   1      -0.086   1.732  -0.285  0.00  0.00     0.003 A 
ATOM      7  I   UNL d   1       0.181  -2.571  -0.781  0.00  0.00    -0.146 I 
ENDROOT
TORSDOF 0
ENDMDL
