MODEL 1
REMARK minimizedAffinity -3.62033987
REMARK minimizedRMSD -1
REMARK  0 active torsions:
REMARK  status: ('A' for Active; 'I' for Inactive)
ROOT
ATOM      1  C   UNL d   1      -0.162  -0.382   1.489  0.00  0.00     0.023 A 
ATOM      2  C1  UNL d   1      -0.193  -0.393   0.094  0.00  0.00     0.003 A 
ATOM      3  C2  UNL d   1      -0.245   0.809  -0.615  0.00  0.00     0.048 A 
ATOM      4  C3  UNL d   1      -0.265   2.019   0.077  0.00  0.00     0.023 A 
ATOM      5  C4  UNL d   1      -0.233   2.036   1.473  0.00  0.00     0.048 A 
ATOM      6  C5  UNL d   1      -0.182   0.832   2.177  0.00  0.00     0.003 A 
ATOM      7  I   UNL d   1      -0.342   3.809  -0.975  0.00  0.00    -0.146 I 
ENDROOT
TORSDOF 0
ENDMDL
