MODEL 1
REMARK minimizedAffinity -3.32054162
REMARK minimizedRMSD -1
REMARK  0 active torsions:
REMARK  status: ('A' for Active; 'I' for Inactive)
ROOT
ATOM      1  C   UNL d   1      -0.334   1.793   1.757  0.00  0.00     0.023 A 
ATOM      2  C1  UNL d   1       0.148   0.625   2.349  0.00  0.00     0.003 A 
ATOM      3  C2  UNL d   1       0.233  -0.553   1.604  0.00  0.00     0.048 A 
ATOM      4  C3  UNL d   1      -0.164  -0.556   0.267  0.00  0.00     0.023 A 
ATOM      5  C4  UNL d   1      -0.645   0.610  -0.330  0.00  0.00     0.048 A 
ATOM      6  C5  UNL d   1      -0.730   1.785   0.419  0.00  0.00     0.003 A 
ATOM      7  I   UNL d   1      -0.038  -2.309  -0.843  0.00  0.00    -0.146 I 
ENDROOT
TORSDOF 0
ENDMDL
