MODEL 1
REMARK minimizedAffinity -3.51846933
REMARK minimizedRMSD -1
REMARK  0 active torsions:
REMARK  status: ('A' for Active; 'I' for Inactive)
ROOT
ATOM      1  C   UNL d   1      -0.173   0.632   1.537  0.00  0.00     0.023 A 
ATOM      2  C1  UNL d   1       0.714   0.533   0.465  0.00  0.00     0.003 A 
ATOM      3  C2  UNL d   1       0.807  -0.658  -0.259  0.00  0.00     0.048 A 
ATOM      4  C3  UNL d   1       0.010  -1.746   0.095  0.00  0.00     0.023 A 
ATOM      5  C4  UNL d   1      -0.880  -1.651   1.166  0.00  0.00     0.048 A 
ATOM      6  C5  UNL d   1      -0.969  -0.459   1.887  0.00  0.00     0.003 A 
ATOM      7  I   UNL d   1       0.147  -3.519  -0.980  0.00  0.00    -0.146 I 
ENDROOT
TORSDOF 0
ENDMDL
