MODEL 1
REMARK minimizedAffinity -0.769730806
REMARK minimizedRMSD -1
REMARK  0 active torsions:
REMARK  status: ('A' for Active; 'I' for Inactive)
ROOT
ATOM      1  C   UNL d   1      -0.714  -3.842  -1.881  0.00  0.00     0.023 A 
ATOM      2  C1  UNL d   1       0.440  -3.129  -2.209  0.00  0.00     0.003 A 
ATOM      3  C2  UNL d   1       0.820  -2.024  -1.445  0.00  0.00     0.048 A 
ATOM      4  C3  UNL d   1       0.042  -1.637  -0.355  0.00  0.00     0.023 A 
ATOM      5  C4  UNL d   1      -1.113  -2.347  -0.022  0.00  0.00     0.048 A 
ATOM      6  C5  UNL d   1      -1.489  -3.451  -0.789  0.00  0.00     0.003 A 
ATOM      7  I   UNL d   1       0.606   0.008   0.784  0.00  0.00    -0.146 I 
ENDROOT
TORSDOF 0
ENDMDL
