MODEL 1
REMARK minimizedAffinity 2.44489217
REMARK minimizedRMSD -1
REMARK  0 active torsions:
REMARK  status: ('A' for Active; 'I' for Inactive)
ROOT
ATOM      1  C   UNL d   1       1.285   4.462   1.667  0.00  0.00     0.023 A 
ATOM      2  C1  UNL d   1       1.345   3.459   2.635  0.00  0.00     0.003 A 
ATOM      3  C2  UNL d   1       0.970   2.153   2.313  0.00  0.00     0.048 A 
ATOM      4  C3  UNL d   1       0.537   1.857   1.021  0.00  0.00     0.023 A 
ATOM      5  C4  UNL d   1       0.477   2.857   0.049  0.00  0.00     0.048 A 
ATOM      6  C5  UNL d   1       0.852   4.161   0.376  0.00  0.00     0.003 A 
ATOM      7  I   UNL d   1      -0.021  -0.087   0.539  0.00  0.00    -0.146 I 
ENDROOT
TORSDOF 0
ENDMDL
