MODEL 1
REMARK minimizedAffinity -2.46504974
REMARK minimizedRMSD -1
REMARK  1 active torsions:
REMARK  status: ('A' for Active; 'I' for Inactive)
REMARK    1  A    between atoms: C3_4  and  O_7 
ROOT
ATOM      1  C   UNL d   1      -2.096  -0.965  -0.679  0.00  0.00    -0.033 A 
ATOM      2  C1  UNL d   1      -2.037   0.380  -0.309  0.00  0.00     0.039 A 
ATOM      3  C2  UNL d   1      -0.808   0.969  -0.005  0.00  0.00    -0.080 A 
ATOM      4  C3  UNL d   1       0.353   0.203  -0.074  0.00  0.00     0.150 A 
ATOM      5  C4  UNL d   1       0.301  -1.137  -0.445  0.00  0.00    -0.007 A 
ATOM      6  C5  UNL d   1      -0.927  -1.723  -0.748  0.00  0.00     0.039 A 
ENDROOT
BRANCH   4   7
ATOM      7  O   UNL d   1       1.574   0.732   0.218  0.00  0.00    -0.526 OA
ATOM      8  H5  UNL d   1       1.452   1.658   0.486  0.00  0.00     0.418 HD
ENDBRANCH   4   7
TORSDOF 1
ENDMDL
