MODEL 1
REMARK minimizedAffinity -0.872129798
REMARK minimizedRMSD -1
REMARK  1 active torsions:
REMARK  status: ('A' for Active; 'I' for Inactive)
REMARK    1  A    between atoms: C3_4  and  O_7 
ROOT
ATOM      1  C   UNL d   1       4.150   5.999   1.118  0.00  0.00    -0.033 A 
ATOM      2  C1  UNL d   1       4.556   5.802   2.439  0.00  0.00     0.039 A 
ATOM      3  C2  UNL d   1       4.568   4.517   2.983  0.00  0.00    -0.080 A 
ATOM      4  C3  UNL d   1       4.174   3.438   2.197  0.00  0.00     0.150 A 
ATOM      5  C4  UNL d   1       3.772   3.626   0.879  0.00  0.00    -0.007 A 
ATOM      6  C5  UNL d   1       3.759   4.911   0.337  0.00  0.00     0.039 A 
ENDROOT
BRANCH   4   7
ATOM      7  O   UNL d   1       4.164   2.165   2.686  0.00  0.00    -0.526 OA
ATOM      8  H5  UNL d   1       4.439   2.192   3.618  0.00  0.00     0.418 HD
ENDBRANCH   4   7
TORSDOF 1
ENDMDL
