MODEL 1
REMARK minimizedAffinity 0.986746967
REMARK minimizedRMSD -1
REMARK  1 active torsions:
REMARK  status: ('A' for Active; 'I' for Inactive)
REMARK    1  A    between atoms: C3_4  and  O_7 
ROOT
ATOM      1  C   UNL d   1       2.262   1.246   1.532  0.00  0.00    -0.033 A 
ATOM      2  C1  UNL d   1       3.117   1.253   2.636  0.00  0.00     0.039 A 
ATOM      3  C2  UNL d   1       3.174   0.145   3.483  0.00  0.00    -0.080 A 
ATOM      4  C3  UNL d   1       2.374  -0.962   3.216  0.00  0.00     0.150 A 
ATOM      5  C4  UNL d   1       1.523  -0.977   2.116  0.00  0.00    -0.007 A 
ATOM      6  C5  UNL d   1       1.466   0.131   1.271  0.00  0.00     0.039 A 
ENDROOT
BRANCH   4   7
ATOM      7  O   UNL d   1       2.392  -2.065   4.017  0.00  0.00    -0.526 OA
ATOM      8  H5  UNL d   1       3.005  -1.901   4.753  0.00  0.00     0.418 HD
ENDBRANCH   4   7
TORSDOF 1
ENDMDL
