MODEL 1
REMARK minimizedAffinity -0.5210976
REMARK minimizedRMSD -1
REMARK  1 active torsions:
REMARK  status: ('A' for Active; 'I' for Inactive)
REMARK    1  A    between atoms: C3_4  and  O_7 
ROOT
ATOM      1  C   UNL d   1      -2.263   0.114   3.477  0.00  0.00    -0.033 A 
ATOM      2  C1  UNL d   1      -2.324   0.848   2.290  0.00  0.00     0.039 A 
ATOM      3  C2  UNL d   1      -1.225   0.880   1.429  0.00  0.00    -0.080 A 
ATOM      4  C3  UNL d   1      -0.074   0.173   1.765  0.00  0.00     0.150 A 
ATOM      5  C4  UNL d   1      -0.007  -0.563   2.943  0.00  0.00    -0.007 A 
ATOM      6  C5  UNL d   1      -1.104  -0.593   3.802  0.00  0.00     0.039 A 
ENDROOT
BRANCH   4   7
ATOM      7  O   UNL d   1       1.026   0.178   0.959  0.00  0.00    -0.526 OA
ATOM      8  H5  UNL d   1       0.845   0.752   0.195  0.00  0.00     0.418 HD
ENDBRANCH   4   7
TORSDOF 1
ENDMDL
