MODEL 1
REMARK minimizedAffinity -0.169777781
REMARK minimizedRMSD -1
REMARK  1 active torsions:
REMARK  status: ('A' for Active; 'I' for Inactive)
REMARK    1  A    between atoms: C3_4  and  O_7 
ROOT
ATOM      1  C   UNL d   1       0.529   0.337   0.593  0.00  0.00    -0.033 A 
ATOM      2  C1  UNL d   1       1.258   0.026   1.742  0.00  0.00     0.039 A 
ATOM      3  C2  UNL d   1       0.594  -0.332   2.917  0.00  0.00    -0.080 A 
ATOM      4  C3  UNL d   1      -0.797  -0.377   2.929  0.00  0.00     0.150 A 
ATOM      5  C4  UNL d   1      -1.530  -0.072   1.787  0.00  0.00    -0.007 A 
ATOM      6  C5  UNL d   1      -0.865   0.286   0.615  0.00  0.00     0.039 A 
ENDROOT
BRANCH   4   7
ATOM      7  O   UNL d   1      -1.490  -0.716   4.053  0.00  0.00    -0.526 OA
ATOM      8  H5  UNL d   1      -0.854  -0.872   4.771  0.00  0.00     0.418 HD
ENDBRANCH   4   7
TORSDOF 1
ENDMDL
