MODEL 1
REMARK minimizedAffinity -0.227294788
REMARK minimizedRMSD -1
REMARK  1 active torsions:
REMARK  status: ('A' for Active; 'I' for Inactive)
REMARK    1  A    between atoms: C3_4  and  O_7 
ROOT
ATOM      1  C   UNL d   1       0.383  -4.744  -5.204  0.00  0.00    -0.033 A 
ATOM      2  C1  UNL d   1       0.039  -3.398  -5.068  0.00  0.00     0.039 A 
ATOM      3  C2  UNL d   1       0.078  -2.789  -3.812  0.00  0.00    -0.080 A 
ATOM      4  C3  UNL d   1       0.463  -3.536  -2.702  0.00  0.00     0.150 A 
ATOM      5  C4  UNL d   1       0.811  -4.876  -2.831  0.00  0.00    -0.007 A 
ATOM      6  C5  UNL d   1       0.770  -5.483  -4.086  0.00  0.00     0.039 A 
ENDROOT
BRANCH   4   7
ATOM      7  O   UNL d   1       0.511  -2.986  -1.456  0.00  0.00    -0.526 OA
ATOM      8  H5  UNL d   1       0.217  -2.062  -1.515  0.00  0.00     0.418 HD
ENDBRANCH   4   7
TORSDOF 1
ENDMDL
