MODEL 1
REMARK minimizedAffinity 4.58695459
REMARK minimizedRMSD -1
REMARK  1 active torsions:
REMARK  status: ('A' for Active; 'I' for Inactive)
REMARK    1  A    between atoms: C3_4  and  O_7 
ROOT
ATOM      1  C   UNL d   1       4.917   4.439   3.958  0.00  0.00    -0.033 A 
ATOM      2  C1  UNL d   1       4.387   5.313   3.007  0.00  0.00     0.039 A 
ATOM      3  C2  UNL d   1       3.583   4.823   1.977  0.00  0.00    -0.080 A 
ATOM      4  C3  UNL d   1       3.316   3.458   1.909  0.00  0.00     0.150 A 
ATOM      5  C4  UNL d   1       3.837   2.582   2.855  0.00  0.00    -0.007 A 
ATOM      6  C5  UNL d   1       4.640   3.073   3.883  0.00  0.00     0.039 A 
ENDROOT
BRANCH   4   7
ATOM      7  O   UNL d   1       2.540   2.932   0.918  0.00  0.00    -0.526 OA
ATOM      8  H5  UNL d   1       2.274   3.651   0.322  0.00  0.00     0.418 HD
ENDBRANCH   4   7
TORSDOF 1
ENDMDL
