MODEL 1
REMARK minimizedAffinity -4.11208963
REMARK minimizedRMSD -1
REMARK  0 active torsions:
REMARK  status: ('A' for Active; 'I' for Inactive)
ROOT
ATOM      1  C   UNL d   1       0.810   0.254  -0.768  0.00  0.00     0.078 C 
ATOM      2  C1  UNL d   1       0.568  -1.088  -1.391  0.00  0.00    -0.077 A 
ATOM      3  C2  UNL d   1       0.984  -2.264  -0.755  0.00  0.00    -0.001 A 
ATOM      4  C3  UNL d   1       0.761  -3.506  -1.351  0.00  0.00     0.003 A 
ATOM      5  C4  UNL d   1       0.121  -3.585  -2.586  0.00  0.00    -0.005 A 
ATOM      6  C5  UNL d   1      -0.295  -2.420  -3.227  0.00  0.00     0.003 A 
ATOM      7  C6  UNL d   1      -0.073  -1.177  -2.633  0.00  0.00    -0.001 A 
ENDROOT
TORSDOF 0
ENDMDL
