MODEL 1
REMARK minimizedAffinity -5.78807878
REMARK minimizedRMSD -1
REMARK  0 active torsions:
REMARK  status: ('A' for Active; 'I' for Inactive)
ROOT
ATOM      1  C   UNL d   1       0.695   0.053  -0.305  0.00  0.00     0.078 C 
ATOM      2  C1  UNL d   1      -0.181   1.229   0.011  0.00  0.00    -0.077 A 
ATOM      3  C2  UNL d   1      -0.014   2.451  -0.653  0.00  0.00    -0.001 A 
ATOM      4  C3  UNL d   1      -0.830   3.539  -0.342  0.00  0.00     0.003 A 
ATOM      5  C4  UNL d   1      -1.817   3.418   0.634  0.00  0.00    -0.005 A 
ATOM      6  C5  UNL d   1      -1.989   2.207   1.301  0.00  0.00     0.003 A 
ATOM      7  C6  UNL d   1      -1.174   1.117   0.991  0.00  0.00    -0.001 A 
ENDROOT
TORSDOF 0
ENDMDL
