MODEL 1
REMARK minimizedAffinity -5.19220972
REMARK minimizedRMSD -1
REMARK  0 active torsions:
REMARK  status: ('A' for Active; 'I' for Inactive)
ROOT
ATOM      1  C   UNL d   1      -2.249   2.008   1.524  0.00  0.00     0.078 C 
ATOM      2  C1  UNL d   1      -1.214   1.125   0.895  0.00  0.00    -0.077 A 
ATOM      3  C2  UNL d   1      -0.654   0.053   1.602  0.00  0.00    -0.001 A 
ATOM      4  C3  UNL d   1       0.316  -0.755   1.007  0.00  0.00     0.003 A 
ATOM      5  C4  UNL d   1       0.736  -0.500  -0.297  0.00  0.00    -0.005 A 
ATOM      6  C5  UNL d   1       0.186   0.565  -1.008  0.00  0.00     0.003 A 
ATOM      7  C6  UNL d   1      -0.784   1.374  -0.415  0.00  0.00    -0.001 A 
ENDROOT
TORSDOF 0
ENDMDL
