MODEL 1
REMARK minimizedAffinity -3.56347179
REMARK minimizedRMSD -1
REMARK  0 active torsions:
REMARK  status: ('A' for Active; 'I' for Inactive)
ROOT
ATOM      1  C   UNL d   1       0.434  -0.882  -0.479  0.00  0.00     0.078 C 
ATOM      2  C1  UNL d   1      -0.231   0.279   0.198  0.00  0.00    -0.077 A 
ATOM      3  C2  UNL d   1      -0.131   1.574  -0.326  0.00  0.00    -0.001 A 
ATOM      4  C3  UNL d   1      -0.746   2.647   0.321  0.00  0.00     0.003 A 
ATOM      5  C4  UNL d   1      -1.465   2.436   1.496  0.00  0.00    -0.005 A 
ATOM      6  C5  UNL d   1      -1.568   1.152   2.026  0.00  0.00     0.003 A 
ATOM      7  C6  UNL d   1      -0.954   0.078   1.381  0.00  0.00    -0.001 A 
ENDROOT
TORSDOF 0
ENDMDL
