MODEL 1
REMARK minimizedAffinity -5.16114187
REMARK minimizedRMSD -1
REMARK  0 active torsions:
REMARK  status: ('A' for Active; 'I' for Inactive)
ROOT
ATOM      1  C   UNL d   1       0.252  -0.175  -0.764  0.00  0.00     0.078 C 
ATOM      2  C1  UNL d   1      -0.470   1.105  -0.466  0.00  0.00    -0.077 A 
ATOM      3  C2  UNL d   1      -0.120   2.298  -1.111  0.00  0.00    -0.001 A 
ATOM      4  C3  UNL d   1      -0.794   3.484  -0.817  0.00  0.00     0.003 A 
ATOM      5  C4  UNL d   1      -1.822   3.490   0.124  0.00  0.00    -0.005 A 
ATOM      6  C5  UNL d   1      -2.177   2.308   0.772  0.00  0.00     0.003 A 
ATOM      7  C6  UNL d   1      -1.504   1.121   0.479  0.00  0.00    -0.001 A 
ENDROOT
TORSDOF 0
ENDMDL
