MODEL 1
REMARK minimizedAffinity -3.82334065
REMARK minimizedRMSD -1
REMARK  0 active torsions:
REMARK  status: ('A' for Active; 'I' for Inactive)
ROOT
ATOM      1  C   UNL d   1       0.362  -0.004   0.184  0.00  0.00     0.078 C 
ATOM      2  C1  UNL d   1       0.390  -1.099  -0.840  0.00  0.00    -0.077 A 
ATOM      3  C2  UNL d   1      -0.535  -1.127  -1.891  0.00  0.00    -0.001 A 
ATOM      4  C3  UNL d   1      -0.503  -2.158  -2.832  0.00  0.00     0.003 A 
ATOM      5  C4  UNL d   1       0.452  -3.168  -2.730  0.00  0.00    -0.005 A 
ATOM      6  C5  UNL d   1       1.375  -3.149  -1.687  0.00  0.00     0.003 A 
ATOM      7  C6  UNL d   1       1.344  -2.120  -0.745  0.00  0.00    -0.001 A 
ENDROOT
TORSDOF 0
ENDMDL
