MODEL 1
REMARK minimizedAffinity -4.7924881
REMARK minimizedRMSD -1
REMARK  0 active torsions:
REMARK  status: ('A' for Active; 'I' for Inactive)
ROOT
ATOM      1  C   UNL d   1       0.841  -0.428  -1.149  0.00  0.00     0.078 C 
ATOM      2  C1  UNL d   1      -0.035   0.188  -0.100  0.00  0.00    -0.077 A 
ATOM      3  C2  UNL d   1       0.061  -0.202   1.241  0.00  0.00    -0.001 A 
ATOM      4  C3  UNL d   1      -0.768   0.373   2.205  0.00  0.00     0.003 A 
ATOM      5  C4  UNL d   1      -1.701   1.341   1.838  0.00  0.00    -0.005 A 
ATOM      6  C5  UNL d   1      -1.805   1.735   0.506  0.00  0.00     0.003 A 
ATOM      7  C6  UNL d   1      -0.977   1.161  -0.460  0.00  0.00    -0.001 A 
ENDROOT
TORSDOF 0
ENDMDL
