MODEL 1
REMARK minimizedAffinity -3.40771198
REMARK minimizedRMSD -1
REMARK  0 active torsions:
REMARK  status: ('A' for Active; 'I' for Inactive)
ROOT
ATOM      1  C   UNL d   1      -2.186   1.889   1.843  0.00  0.00     0.078 C 
ATOM      2  C1  UNL d   1      -1.264   0.930   1.151  0.00  0.00    -0.077 A 
ATOM      3  C2  UNL d   1      -0.860  -0.258   1.772  0.00  0.00    -0.001 A 
ATOM      4  C3  UNL d   1       0.006  -1.137   1.119  0.00  0.00     0.003 A 
ATOM      5  C4  UNL d   1       0.477  -0.836  -0.157  0.00  0.00    -0.005 A 
ATOM      6  C5  UNL d   1       0.083   0.345  -0.782  0.00  0.00     0.003 A 
ATOM      7  C6  UNL d   1      -0.784   1.225  -0.131  0.00  0.00    -0.001 A 
ENDROOT
TORSDOF 0
ENDMDL
