MODEL 1
REMARK minimizedAffinity -4.95850658
REMARK minimizedRMSD -1
REMARK  0 active torsions:
REMARK  status: ('A' for Active; 'I' for Inactive)
ROOT
ATOM      1  C   UNL d   1       0.606   0.054  -0.774  0.00  0.00     0.078 C 
ATOM      2  C1  UNL d   1      -0.233   1.155  -0.197  0.00  0.00    -0.077 A 
ATOM      3  C2  UNL d   1      -0.100   2.474  -0.647  0.00  0.00    -0.001 A 
ATOM      4  C3  UNL d   1      -0.881   3.491  -0.094  0.00  0.00     0.003 A 
ATOM      5  C4  UNL d   1      -1.799   3.199   0.912  0.00  0.00    -0.005 A 
ATOM      6  C5  UNL d   1      -1.937   1.889   1.367  0.00  0.00     0.003 A 
ATOM      7  C6  UNL d   1      -1.157   0.871   0.816  0.00  0.00    -0.001 A 
ENDROOT
TORSDOF 0
ENDMDL
