MODEL 1
REMARK minimizedAffinity -5.88783741
REMARK minimizedRMSD -1
REMARK  0 active torsions:
REMARK  status: ('A' for Active; 'I' for Inactive)
ROOT
ATOM      1  C   UNL d   1       0.559  -0.225  -0.168  0.00  0.00     0.078 C 
ATOM      2  C1  UNL d   1      -0.280   0.920   0.314  0.00  0.00    -0.077 A 
ATOM      3  C2  UNL d   1      -0.348   2.118  -0.407  0.00  0.00    -0.001 A 
ATOM      4  C3  UNL d   1      -1.125   3.180   0.060  0.00  0.00     0.003 A 
ATOM      5  C4  UNL d   1      -1.839   3.054   1.250  0.00  0.00    -0.005 A 
ATOM      6  C5  UNL d   1      -1.776   1.866   1.975  0.00  0.00     0.003 A 
ATOM      7  C6  UNL d   1      -0.999   0.804   1.511  0.00  0.00    -0.001 A 
ENDROOT
TORSDOF 0
ENDMDL
