MODEL 1
REMARK minimizedAffinity -5.32582474
REMARK minimizedRMSD -1
REMARK  0 active torsions:
REMARK  status: ('A' for Active; 'I' for Inactive)
ROOT
ATOM      1  C   UNL d   1       0.604  -0.282   0.320  0.00  0.00     0.078 C 
ATOM      2  C1  UNL d   1      -0.252   0.943   0.449  0.00  0.00    -0.077 A 
ATOM      3  C2  UNL d   1      -1.376   0.952   1.284  0.00  0.00    -0.001 A 
ATOM      4  C3  UNL d   1      -2.169   2.096   1.388  0.00  0.00     0.003 A 
ATOM      5  C4  UNL d   1      -1.847   3.238   0.658  0.00  0.00    -0.005 A 
ATOM      6  C5  UNL d   1      -0.732   3.238  -0.177  0.00  0.00     0.003 A 
ATOM      7  C6  UNL d   1       0.062   2.095  -0.282  0.00  0.00    -0.001 A 
ENDROOT
TORSDOF 0
ENDMDL
