MODEL 1
REMARK minimizedAffinity -5.24742317
REMARK minimizedRMSD -1
REMARK  0 active torsions:
REMARK  status: ('A' for Active; 'I' for Inactive)
ROOT
ATOM      1  C   UNL d   1       1.073  -0.789  -0.753  0.00  0.00     0.078 C 
ATOM      2  C1  UNL d   1       0.046   0.022  -0.020  0.00  0.00    -0.077 A 
ATOM      3  C2  UNL d   1      -0.566   1.127  -0.625  0.00  0.00    -0.001 A 
ATOM      4  C3  UNL d   1      -1.513   1.879   0.072  0.00  0.00     0.003 A 
ATOM      5  C4  UNL d   1      -1.855   1.535   1.379  0.00  0.00    -0.005 A 
ATOM      6  C5  UNL d   1      -1.249   0.439   1.990  0.00  0.00     0.003 A 
ATOM      7  C6  UNL d   1      -0.302  -0.314   1.294  0.00  0.00    -0.001 A 
ENDROOT
TORSDOF 0
ENDMDL
