MODEL 1
REMARK minimizedAffinity -5.23128462
REMARK minimizedRMSD -1
REMARK  0 active torsions:
REMARK  status: ('A' for Active; 'I' for Inactive)
ROOT
ATOM      1  C   UNL d   1       0.321  -1.026  -0.181  0.00  0.00     0.078 C 
ATOM      2  C1  UNL d   1      -0.334   0.280   0.157  0.00  0.00    -0.077 A 
ATOM      3  C2  UNL d   1      -0.100   1.425  -0.614  0.00  0.00    -0.001 A 
ATOM      4  C3  UNL d   1      -0.709   2.636  -0.282  0.00  0.00     0.003 A 
ATOM      5  C4  UNL d   1      -1.555   2.715   0.822  0.00  0.00    -0.005 A 
ATOM      6  C5  UNL d   1      -1.792   1.581   1.597  0.00  0.00     0.003 A 
ATOM      7  C6  UNL d   1      -1.184   0.369   1.266  0.00  0.00    -0.001 A 
ENDROOT
TORSDOF 0
ENDMDL
