MODEL 1
REMARK minimizedAffinity -2.00767708
REMARK minimizedRMSD -1
REMARK  0 active torsions:
REMARK  status: ('A' for Active; 'I' for Inactive)
ROOT
ATOM      1  C1  DEN d   1      -1.387   0.385   0.569  0.00  0.00     0.130 A 
ATOM      2  C2  DEN d   1      -1.585  -0.193  -0.757  0.00  0.00    -0.031 A 
ATOM      3  C3  DEN d   1      -0.288  -0.723  -1.223  0.00  0.00     0.027 A 
ATOM      4  C4  DEN d   1       1.995  -0.708  -0.024  0.00  0.00     0.027 A 
ATOM      5  C5  DEN d   1       2.662  -0.317   1.116  0.00  0.00    -0.003 A 
ATOM      6  C6  DEN d   1       2.038   0.360   2.131  0.00  0.00     0.001 A 
ATOM      7  C7  DEN d   1       0.697   0.627   2.045  0.00  0.00     0.017 A 
ATOM      8  C8  DEN d   1       0.020   0.242   0.895  0.00  0.00    -0.094 A 
ATOM      9  C9  DEN d   1       0.666  -0.452  -0.114  0.00  0.00    -0.072 A 
ENDROOT
TORSDOF 0
ENDMDL
