MODEL 1
REMARK minimizedAffinity -1.64543247
REMARK minimizedRMSD -1
REMARK  0 active torsions:
REMARK  status: ('A' for Active; 'I' for Inactive)
ROOT
ATOM      1  C1  DEN d   1       1.175  -0.936   3.037  0.00  0.00     0.130 A 
ATOM      2  C2  DEN d   1       0.014  -1.064   3.914  0.00  0.00    -0.031 A 
ATOM      3  C3  DEN d   1      -1.171  -0.585   3.175  0.00  0.00     0.027 A 
ATOM      4  C4  DEN d   1      -1.321   0.334   0.769  0.00  0.00     0.027 A 
ATOM      5  C5  DEN d   1      -0.597   0.643  -0.361  0.00  0.00    -0.003 A 
ATOM      6  C6  DEN d   1       0.761   0.481  -0.426  0.00  0.00     0.001 A 
ATOM      7  C7  DEN d   1       1.434  -0.046   0.645  0.00  0.00     0.017 A 
ATOM      8  C8  DEN d   1       0.712  -0.354   1.791  0.00  0.00    -0.094 A 
ATOM      9  C9  DEN d   1      -0.662  -0.194   1.832  0.00  0.00    -0.072 A 
ENDROOT
TORSDOF 0
ENDMDL
