MODEL 1
REMARK minimizedAffinity 1.66569459
REMARK minimizedRMSD -1
REMARK  0 active torsions:
REMARK  status: ('A' for Active; 'I' for Inactive)
ROOT
ATOM      1  C1  DEN d   1       0.787  -0.469   1.597  0.00  0.00     0.130 A 
ATOM      2  C2  DEN d   1       1.336  -1.095   0.396  0.00  0.00    -0.031 A 
ATOM      3  C3  DEN d   1       0.246  -1.218  -0.593  0.00  0.00     0.027 A 
ATOM      4  C4  DEN d   1      -2.222  -0.500  -0.385  0.00  0.00     0.027 A 
ATOM      5  C5  DEN d   1      -3.161   0.065   0.450  0.00  0.00    -0.003 A 
ATOM      6  C6  DEN d   1      -2.859   0.457   1.727  0.00  0.00     0.001 A 
ATOM      7  C7  DEN d   1      -1.577   0.331   2.191  0.00  0.00     0.017 A 
ATOM      8  C8  DEN d   1      -0.627  -0.245   1.358  0.00  0.00    -0.094 A 
ATOM      9  C9  DEN d   1      -0.948  -0.623   0.065  0.00  0.00    -0.072 A 
ENDROOT
TORSDOF 0
ENDMDL
