MODEL 1
REMARK minimizedAffinity -1.77729845
REMARK minimizedRMSD -1
REMARK  0 active torsions:
REMARK  status: ('A' for Active; 'I' for Inactive)
ROOT
ATOM      1  C1  DEN d   1      -1.028  -0.723   4.236  0.00  0.00     0.130 A 
ATOM      2  C2  DEN d   1       0.311  -1.187   4.590  0.00  0.00    -0.031 A 
ATOM      3  C3  DEN d   1       1.139  -1.168   3.367  0.00  0.00     0.027 A 
ATOM      4  C4  DEN d   1       0.482  -0.466   0.973  0.00  0.00     0.027 A 
ATOM      5  C5  DEN d   1      -0.548  -0.011   0.180  0.00  0.00    -0.003 A 
ATOM      6  C6  DEN d   1      -1.808   0.204   0.671  0.00  0.00     0.001 A 
ATOM      7  C7  DEN d   1      -2.060   0.007   2.003  0.00  0.00     0.017 A 
ATOM      8  C8  DEN d   1      -1.029  -0.458   2.808  0.00  0.00    -0.094 A 
ATOM      9  C9  DEN d   1       0.241  -0.658   2.295  0.00  0.00    -0.072 A 
ENDROOT
TORSDOF 0
ENDMDL
