MODEL 1
REMARK minimizedAffinity -0.818821132
REMARK minimizedRMSD -1
REMARK  0 active torsions:
REMARK  status: ('A' for Active; 'I' for Inactive)
ROOT
ATOM      1  C1  DEN d   1      -1.357   0.090   4.063  0.00  0.00     0.130 A 
ATOM      2  C2  DEN d   1      -0.049  -0.363   4.530  0.00  0.00    -0.031 A 
ATOM      3  C3  DEN d   1       0.741  -0.770   3.352  0.00  0.00     0.027 A 
ATOM      4  C4  DEN d   1       0.073  -0.740   0.861  0.00  0.00     0.027 A 
ATOM      5  C5  DEN d   1      -0.940  -0.449  -0.026  0.00  0.00    -0.003 A 
ATOM      6  C6  DEN d   1      -2.164   0.005   0.387  0.00  0.00     0.001 A 
ATOM      7  C7  DEN d   1      -2.392   0.226   1.719  0.00  0.00     0.017 A 
ATOM      8  C8  DEN d   1      -1.378  -0.072   2.620  0.00  0.00    -0.094 A 
ATOM      9  C9  DEN d   1      -0.143  -0.519   2.182  0.00  0.00    -0.072 A 
ENDROOT
TORSDOF 0
ENDMDL
