MODEL 1
REMARK minimizedAffinity 0.789777219
REMARK minimizedRMSD -1
REMARK  0 active torsions:
REMARK  status: ('A' for Active; 'I' for Inactive)
ROOT
ATOM      1  C   UNL d   1       5.999  -5.995  -4.367  0.00  0.00     0.020 A 
ATOM      2  C1  UNL d   1       5.752  -5.821  -3.006  0.00  0.00     0.020 A 
ATOM      3  C2  UNL d   1       4.444  -5.648  -2.550  0.00  0.00     0.034 A 
ATOM      4  C3  UNL d   1       3.377  -5.649  -3.456  0.00  0.00     0.017 A 
ATOM      5  C4  UNL d   1       3.625  -5.824  -4.822  0.00  0.00     0.017 A 
ATOM      6  C5  UNL d   1       4.937  -5.997  -5.273  0.00  0.00     0.034 A 
ATOM      7 Cl   UNL d   1       2.360  -5.837  -5.999  0.00  0.00    -0.070 Cl
ATOM      8 Cl1  UNL d   1       1.785  -5.430  -2.821  0.00  0.00    -0.070 Cl
ENDROOT
TORSDOF 0
ENDMDL
