MODEL 1
REMARK minimizedAffinity 3.16949582
REMARK minimizedRMSD -1
REMARK  0 active torsions:
REMARK  status: ('A' for Active; 'I' for Inactive)
ROOT
ATOM      1  C   UNL d   1       0.837   3.383   2.140  0.00  0.00     0.020 A 
ATOM      2  C1  UNL d   1       0.530   2.531   1.080  0.00  0.00     0.020 A 
ATOM      3  C2  UNL d   1      -0.639   1.767   1.114  0.00  0.00     0.034 A 
ATOM      4  C3  UNL d   1      -1.505   1.854   2.210  0.00  0.00     0.017 A 
ATOM      5  C4  UNL d   1      -1.195   2.710   3.274  0.00  0.00     0.017 A 
ATOM      6  C5  UNL d   1      -0.024   3.472   3.234  0.00  0.00     0.034 A 
ATOM      7 Cl   UNL d   1      -2.214   2.871   4.660  0.00  0.00    -0.070 Cl
ATOM      8 Cl1  UNL d   1      -2.933   0.882   2.186  0.00  0.00    -0.070 Cl
ENDROOT
TORSDOF 0
ENDMDL
