MODEL 1
REMARK minimizedAffinity 5.84003639
REMARK minimizedRMSD -1
REMARK  0 active torsions:
REMARK  status: ('A' for Active; 'I' for Inactive)
ROOT
ATOM      1  C   UNL d   1       5.044  -5.948  -5.950  0.00  0.00     0.020 A 
ATOM      2  C1  UNL d   1       5.815  -4.787  -6.000  0.00  0.00     0.020 A 
ATOM      3  C2  UNL d   1       5.456  -3.677  -5.233  0.00  0.00     0.034 A 
ATOM      4  C3  UNL d   1       4.323  -3.725  -4.413  0.00  0.00     0.017 A 
ATOM      5  C4  UNL d   1       3.550  -4.890  -4.363  0.00  0.00     0.017 A 
ATOM      6  C5  UNL d   1       3.914  -5.999  -5.133  0.00  0.00     0.034 A 
ATOM      7 Cl   UNL d   1       2.138  -5.025  -3.375  0.00  0.00    -0.070 Cl
ATOM      8 Cl1  UNL d   1       3.938  -2.314  -3.492  0.00  0.00    -0.070 Cl
ENDROOT
TORSDOF 0
ENDMDL
