MODEL 1
REMARK minimizedAffinity 13.7068701
REMARK minimizedRMSD -1
REMARK  0 active torsions:
REMARK  status: ('A' for Active; 'I' for Inactive)
ROOT
ATOM      1  C   UNL d   1      -0.708   1.281   1.524  0.00  0.00     0.020 A 
ATOM      2  C1  UNL d   1      -1.976   1.038   2.051  0.00  0.00     0.020 A 
ATOM      3  C2  UNL d   1      -2.384   1.692   3.216  0.00  0.00     0.034 A 
ATOM      4  C3  UNL d   1      -1.525   2.592   3.857  0.00  0.00     0.017 A 
ATOM      5  C4  UNL d   1      -0.252   2.834   3.326  0.00  0.00     0.017 A 
ATOM      6  C5  UNL d   1       0.152   2.177   2.160  0.00  0.00     0.034 A 
ATOM      7 Cl   UNL d   1       0.864   3.931   4.061  0.00  0.00    -0.070 Cl
ATOM      8 Cl1  UNL d   1      -2.096   3.365   5.293  0.00  0.00    -0.070 Cl
ENDROOT
TORSDOF 0
ENDMDL
