MODEL 1
REMARK minimizedAffinity -3.50205517
REMARK minimizedRMSD -1
REMARK  0 active torsions:
REMARK  status: ('A' for Active; 'I' for Inactive)
ROOT
ATOM      1  C   UNL d   1      -5.684   0.428   3.027  0.00  0.00     0.020 A 
ATOM      2  C1  UNL d   1      -5.489  -0.671   3.863  0.00  0.00     0.020 A 
ATOM      3  C2  UNL d   1      -4.306  -1.409   3.782  0.00  0.00     0.034 A 
ATOM      4  C3  UNL d   1      -3.314  -1.050   2.863  0.00  0.00     0.017 A 
ATOM      5  C4  UNL d   1      -3.510   0.053   2.024  0.00  0.00     0.017 A 
ATOM      6  C5  UNL d   1      -4.696   0.789   2.110  0.00  0.00     0.034 A 
ATOM      7 Cl   UNL d   1      -2.331   0.558   0.865  0.00  0.00    -0.070 Cl
ATOM      8 Cl1  UNL d   1      -1.876  -2.007   2.818  0.00  0.00    -0.070 Cl
ENDROOT
TORSDOF 0
ENDMDL
