MODEL 1
REMARK minimizedAffinity 6.99912119
REMARK minimizedRMSD -1
REMARK  0 active torsions:
REMARK  status: ('A' for Active; 'I' for Inactive)
ROOT
ATOM      1  C   UNL d   1      -1.606   3.769   3.983  0.00  0.00     0.020 A 
ATOM      2  C1  UNL d   1      -1.628   2.394   3.755  0.00  0.00     0.020 A 
ATOM      3  C2  UNL d   1      -0.787   1.832   2.793  0.00  0.00     0.034 A 
ATOM      4  C3  UNL d   1       0.081   2.645   2.056  0.00  0.00     0.017 A 
ATOM      5  C4  UNL d   1       0.103   4.025   2.285  0.00  0.00     0.017 A 
ATOM      6  C5  UNL d   1      -0.741   4.583   3.250  0.00  0.00     0.034 A 
ATOM      7 Cl   UNL d   1       1.147   5.093   1.415  0.00  0.00    -0.070 Cl
ATOM      8 Cl1  UNL d   1       1.095   1.882   0.882  0.00  0.00    -0.070 Cl
ENDROOT
TORSDOF 0
ENDMDL
