MODEL 1
REMARK minimizedAffinity 7.66396475
REMARK minimizedRMSD -1
REMARK  0 active torsions:
REMARK  status: ('A' for Active; 'I' for Inactive)
ROOT
ATOM      1  C   UNL d   1      -2.438  -3.033  -1.485  0.00  0.00     0.020 A 
ATOM      2  C1  UNL d   1      -2.758  -3.925  -0.463  0.00  0.00     0.020 A 
ATOM      3  C2  UNL d   1      -2.278  -3.706   0.830  0.00  0.00     0.034 A 
ATOM      4  C3  UNL d   1      -1.476  -2.592   1.104  0.00  0.00     0.017 A 
ATOM      5  C4  UNL d   1      -1.155  -1.697   0.077  0.00  0.00     0.017 A 
ATOM      6  C5  UNL d   1      -1.638  -1.922  -1.216  0.00  0.00     0.034 A 
ATOM      7 Cl   UNL d   1      -0.171  -0.301   0.338  0.00  0.00    -0.070 Cl
ATOM      8 Cl1  UNL d   1      -0.918  -2.383   2.726  0.00  0.00    -0.070 Cl
ENDROOT
TORSDOF 0
ENDMDL
