MODEL 1
REMARK minimizedAffinity -2.0279882
REMARK minimizedRMSD -1
REMARK  0 active torsions:
REMARK  status: ('A' for Active; 'I' for Inactive)
ROOT
ATOM      1  C   UNL d   1       2.596   2.887   1.224  0.00  0.00     0.020 A 
ATOM      2  C1  UNL d   1       2.338   3.848   2.201  0.00  0.00     0.020 A 
ATOM      3  C2  UNL d   1       1.039   4.019   2.686  0.00  0.00     0.034 A 
ATOM      4  C3  UNL d   1      -0.006   3.229   2.194  0.00  0.00     0.017 A 
ATOM      5  C4  UNL d   1       0.255   2.265   1.214  0.00  0.00     0.017 A 
ATOM      6  C5  UNL d   1       1.556   2.097   0.732  0.00  0.00     0.034 A 
ATOM      7 Cl   UNL d   1      -0.983   1.252   0.558  0.00  0.00    -0.070 Cl
ATOM      8 Cl1  UNL d   1      -1.586   3.494   2.840  0.00  0.00    -0.070 Cl
ENDROOT
TORSDOF 0
ENDMDL
