MODEL 1
REMARK minimizedAffinity 0.313922167
REMARK minimizedRMSD -1
REMARK  0 active torsions:
REMARK  status: ('A' for Active; 'I' for Inactive)
ROOT
ATOM      1  C   UNL d   1       5.886   2.595  -4.865  0.00  0.00     0.020 A 
ATOM      2  C1  UNL d   1       5.268   3.117  -6.000  0.00  0.00     0.020 A 
ATOM      3  C2  UNL d   1       3.891   3.351  -6.000  0.00  0.00     0.034 A 
ATOM      4  C3  UNL d   1       3.128   3.062  -4.862  0.00  0.00     0.017 A 
ATOM      5  C4  UNL d   1       3.750   2.538  -3.723  0.00  0.00     0.017 A 
ATOM      6  C5  UNL d   1       5.129   2.306  -3.729  0.00  0.00     0.034 A 
ATOM      7 Cl   UNL d   1       2.875   2.157  -2.282  0.00  0.00    -0.070 Cl
ATOM      8 Cl1  UNL d   1       1.430   3.376  -4.932  0.00  0.00    -0.070 Cl
ENDROOT
TORSDOF 0
ENDMDL
