MODEL 1
REMARK minimizedAffinity 1.92331755
REMARK minimizedRMSD -1
REMARK  0 active torsions:
REMARK  status: ('A' for Active; 'I' for Inactive)
ROOT
ATOM      1  C   UNL d   1      -4.042  -0.048   4.125  0.00  0.00     0.020 A 
ATOM      2  C1  UNL d   1      -3.718  -1.140   4.930  0.00  0.00     0.020 A 
ATOM      3  C2  UNL d   1      -2.621  -1.943   4.609  0.00  0.00     0.034 A 
ATOM      4  C3  UNL d   1      -1.844  -1.655   3.481  0.00  0.00     0.017 A 
ATOM      5  C4  UNL d   1      -2.170  -0.559   2.674  0.00  0.00     0.017 A 
ATOM      6  C5  UNL d   1      -3.269   0.242   3.000  0.00  0.00     0.034 A 
ATOM      7 Cl   UNL d   1      -1.258  -0.141   1.266  0.00  0.00    -0.070 Cl
ATOM      8 Cl1  UNL d   1      -0.503  -2.691   3.145  0.00  0.00    -0.070 Cl
ENDROOT
TORSDOF 0
ENDMDL
