MODEL 1
REMARK minimizedAffinity 7.24435377
REMARK minimizedRMSD -1
REMARK  0 active torsions:
REMARK  status: ('A' for Active; 'I' for Inactive)
ROOT
ATOM      1  C   UNL d   1       5.988   1.889  -4.026  0.00  0.00     0.020 A 
ATOM      2  C1  UNL d   1       5.869   1.986  -5.412  0.00  0.00     0.020 A 
ATOM      3  C2  UNL d   1       4.606   2.092  -5.998  0.00  0.00     0.034 A 
ATOM      4  C3  UNL d   1       3.457   2.102  -5.199  0.00  0.00     0.017 A 
ATOM      5  C4  UNL d   1       3.578   2.004  -3.808  0.00  0.00     0.017 A 
ATOM      6  C5  UNL d   1       4.845   1.898  -3.226  0.00  0.00     0.034 A 
ATOM      7 Cl   UNL d   1       2.206   2.009  -2.756  0.00  0.00    -0.070 Cl
ATOM      8 Cl1  UNL d   1       1.928   2.236  -5.992  0.00  0.00    -0.070 Cl
ENDROOT
TORSDOF 0
ENDMDL
