MODEL 1
REMARK minimizedAffinity 2.34259486
REMARK minimizedRMSD -1
REMARK  0 active torsions:
REMARK  status: ('A' for Active; 'I' for Inactive)
ROOT
ATOM      1  C   UNL d   1      -1.561   2.966   0.835  0.00  0.00     0.020 A 
ATOM      2  C1  UNL d   1      -1.810   1.719   0.262  0.00  0.00     0.020 A 
ATOM      3  C2  UNL d   1      -0.830   0.725   0.300  0.00  0.00     0.034 A 
ATOM      4  C3  UNL d   1       0.404   0.976   0.913  0.00  0.00     0.017 A 
ATOM      5  C4  UNL d   1       0.652   2.227   1.488  0.00  0.00     0.017 A 
ATOM      6  C5  UNL d   1      -0.333   3.219   1.447  0.00  0.00     0.034 A 
ATOM      7 Cl   UNL d   1       2.149   2.611   2.262  0.00  0.00    -0.070 Cl
ATOM      8 Cl1  UNL d   1       1.569  -0.300   0.925  0.00  0.00    -0.070 Cl
ENDROOT
TORSDOF 0
ENDMDL
