MODEL 1
REMARK minimizedAffinity -3.21075511
REMARK minimizedRMSD -1
REMARK  0 active torsions:
REMARK  status: ('A' for Active; 'I' for Inactive)
ROOT
ATOM      1  C   UNL d   1       5.469   4.331  -5.923  0.00  0.00     0.020 A 
ATOM      2  C1  UNL d   1       5.990   3.488  -4.942  0.00  0.00     0.020 A 
ATOM      3  C2  UNL d   1       5.134   2.856  -4.037  0.00  0.00     0.034 A 
ATOM      4  C3  UNL d   1       3.752   3.066  -4.112  0.00  0.00     0.017 A 
ATOM      5  C4  UNL d   1       3.230   3.912  -5.097  0.00  0.00     0.017 A 
ATOM      6  C5  UNL d   1       4.092   4.542  -6.000  0.00  0.00     0.034 A 
ATOM      7 Cl   UNL d   1       1.537   4.221  -5.252  0.00  0.00    -0.070 Cl
ATOM      8 Cl1  UNL d   1       2.752   2.252  -2.961  0.00  0.00    -0.070 Cl
ENDROOT
TORSDOF 0
ENDMDL
