MODEL 1
REMARK minimizedAffinity 1.75462437
REMARK minimizedRMSD -1
REMARK  0 active torsions:
REMARK  status: ('A' for Active; 'I' for Inactive)
ROOT
ATOM      1  C   UNL d   1      -0.500   0.705  -0.096  0.00  0.00     0.020 A 
ATOM      2  C1  UNL d   1      -1.587   1.305   0.539  0.00  0.00     0.020 A 
ATOM      3  C2  UNL d   1      -1.374   2.226   1.567  0.00  0.00     0.034 A 
ATOM      4  C3  UNL d   1      -0.071   2.549   1.963  0.00  0.00     0.017 A 
ATOM      5  C4  UNL d   1       1.019   1.947   1.325  0.00  0.00     0.017 A 
ATOM      6  C5  UNL d   1       0.800   1.025   0.296  0.00  0.00     0.034 A 
ATOM      7 Cl   UNL d   1       2.656   2.296   1.759  0.00  0.00    -0.070 Cl
ATOM      8 Cl1  UNL d   1       0.118   3.697   3.241  0.00  0.00    -0.070 Cl
ENDROOT
TORSDOF 0
ENDMDL
