MODEL 1
REMARK minimizedAffinity -1.72319591
REMARK minimizedRMSD -1
REMARK  0 active torsions:
REMARK  status: ('A' for Active; 'I' for Inactive)
ROOT
ATOM      1  C   UNL d   1       5.999   2.909  -4.103  0.00  0.00     0.020 A 
ATOM      2  C1  UNL d   1       5.674   2.989  -5.456  0.00  0.00     0.020 A 
ATOM      3  C2  UNL d   1       4.336   2.983  -5.855  0.00  0.00     0.034 A 
ATOM      4  C3  UNL d   1       3.317   2.898  -4.899  0.00  0.00     0.017 A 
ATOM      5  C4  UNL d   1       3.644   2.819  -3.540  0.00  0.00     0.017 A 
ATOM      6  C5  UNL d   1       4.986   2.825  -3.147  0.00  0.00     0.034 A 
ATOM      7 Cl   UNL d   1       2.443   2.712  -2.303  0.00  0.00    -0.070 Cl
ATOM      8 Cl1  UNL d   1       1.684   2.897  -5.463  0.00  0.00    -0.070 Cl
ENDROOT
TORSDOF 0
ENDMDL
