MODEL 1
REMARK minimizedAffinity 1.64555442
REMARK minimizedRMSD -1
REMARK  0 active torsions:
REMARK  status: ('A' for Active; 'I' for Inactive)
ROOT
ATOM      1  C   UNL d   1      -1.881  -2.011   3.048  0.00  0.00     0.020 A 
ATOM      2  C1  UNL d   1      -3.051  -1.262   3.164  0.00  0.00     0.020 A 
ATOM      3  C2  UNL d   1      -3.189  -0.067   2.455  0.00  0.00     0.034 A 
ATOM      4  C3  UNL d   1      -2.155   0.383   1.626  0.00  0.00     0.017 A 
ATOM      5  C4  UNL d   1      -0.980  -0.370   1.509  0.00  0.00     0.017 A 
ATOM      6  C5  UNL d   1      -0.848  -1.566   2.222  0.00  0.00     0.034 A 
ATOM      7 Cl   UNL d   1       0.339   0.120   0.506  0.00  0.00    -0.070 Cl
ATOM      8 Cl1  UNL d   1      -2.393   1.869   0.778  0.00  0.00    -0.070 Cl
ENDROOT
TORSDOF 0
ENDMDL
