MODEL 1
REMARK minimizedAffinity 7.00669432
REMARK minimizedRMSD -1
REMARK  0 active torsions:
REMARK  status: ('A' for Active; 'I' for Inactive)
ROOT
ATOM      1  C   UNL d   1      -1.851  -4.024  -2.205  0.00  0.00     0.020 A 
ATOM      2  C1  UNL d   1      -0.756  -4.398  -2.982  0.00  0.00     0.020 A 
ATOM      3  C2  UNL d   1       0.519  -3.921  -2.670  0.00  0.00     0.034 A 
ATOM      4  C3  UNL d   1       0.701  -3.066  -1.576  0.00  0.00     0.017 A 
ATOM      5  C4  UNL d   1      -0.399  -2.691  -0.796  0.00  0.00     0.017 A 
ATOM      6  C5  UNL d   1      -1.672  -3.172  -1.114  0.00  0.00     0.034 A 
ATOM      7 Cl   UNL d   1      -0.252  -1.640   0.568  0.00  0.00    -0.070 Cl
ATOM      8 Cl1  UNL d   1       2.305  -2.514  -1.247  0.00  0.00    -0.070 Cl
ENDROOT
TORSDOF 0
ENDMDL
