MODEL 1
REMARK minimizedAffinity -2.41622281
REMARK minimizedRMSD -1
REMARK  0 active torsions:
REMARK  status: ('A' for Active; 'I' for Inactive)
ROOT
ATOM      1  C   UNL d   1      -3.407  -2.041   3.395  0.00  0.00     0.078 C 
ATOM      2  C1  UNL d   1      -1.955  -1.674   3.452  0.00  0.00    -0.077 A 
ATOM      3  C2  UNL d   1      -1.075  -2.345   4.310  0.00  0.00    -0.001 A 
ATOM      4  C3  UNL d   1       0.273  -1.986   4.360  0.00  0.00     0.003 A 
ATOM      5  C4  UNL d   1       0.753  -0.955   3.555  0.00  0.00    -0.005 A 
ATOM      6  C5  UNL d   1      -0.116  -0.280   2.700  0.00  0.00     0.003 A 
ATOM      7  C6  UNL d   1      -1.464  -0.638   2.648  0.00  0.00    -0.001 A 
ENDROOT
TORSDOF 0
ENDMDL
