MODEL 1
REMARK minimizedAffinity 8.13292408
REMARK minimizedRMSD -1
REMARK  0 active torsions:
REMARK  status: ('A' for Active; 'I' for Inactive)
ROOT
ATOM      1  C   UNL d   1      -1.124  -2.963  -5.996  0.00  0.00     0.078 C 
ATOM      2  C1  UNL d   1      -0.868  -1.531  -5.633  0.00  0.00    -0.077 A 
ATOM      3  C2  UNL d   1      -1.826  -0.779  -4.941  0.00  0.00    -0.001 A 
ATOM      4  C3  UNL d   1      -1.577   0.556  -4.618  0.00  0.00     0.003 A 
ATOM      5  C4  UNL d   1      -0.372   1.152  -4.984  0.00  0.00    -0.005 A 
ATOM      6  C5  UNL d   1       0.586   0.413  -5.675  0.00  0.00     0.003 A 
ATOM      7  C6  UNL d   1       0.339  -0.922  -5.999  0.00  0.00    -0.001 A 
ENDROOT
TORSDOF 0
ENDMDL
