MODEL 1
REMARK minimizedAffinity 10.9357367
REMARK minimizedRMSD -1
REMARK  0 active torsions:
REMARK  status: ('A' for Active; 'I' for Inactive)
ROOT
ATOM      1  C   UNL d   1       1.405   1.160  -5.997  0.00  0.00     0.078 C 
ATOM      2  C1  UNL d   1       0.276   0.199  -5.766  0.00  0.00    -0.077 A 
ATOM      3  C2  UNL d   1       0.521  -1.110  -5.334  0.00  0.00    -0.001 A 
ATOM      4  C3  UNL d   1      -0.539  -1.996  -5.132  0.00  0.00     0.003 A 
ATOM      5  C4  UNL d   1      -1.850  -1.583  -5.362  0.00  0.00    -0.005 A 
ATOM      6  C5  UNL d   1      -2.103  -0.283  -5.794  0.00  0.00     0.003 A 
ATOM      7  C6  UNL d   1      -1.044   0.604  -5.996  0.00  0.00    -0.001 A 
ENDROOT
TORSDOF 0
ENDMDL
