MODEL 1
REMARK minimizedAffinity -2.37281537
REMARK minimizedRMSD -1
REMARK  0 active torsions:
REMARK  status: ('A' for Active; 'I' for Inactive)
ROOT
ATOM      1  C   UNL d   1       5.426  -1.500  -1.512  0.00  0.00     0.078 C 
ATOM      2  C1  UNL d   1       5.441  -1.713  -2.996  0.00  0.00    -0.077 A 
ATOM      3  C2  UNL d   1       6.000  -0.759  -3.856  0.00  0.00    -0.001 A 
ATOM      4  C3  UNL d   1       5.998  -0.966  -5.236  0.00  0.00     0.003 A 
ATOM      5  C4  UNL d   1       5.436  -2.124  -5.769  0.00  0.00    -0.005 A 
ATOM      6  C5  UNL d   1       4.876  -3.078  -4.922  0.00  0.00     0.003 A 
ATOM      7  C6  UNL d   1       4.877  -2.873  -3.541  0.00  0.00    -0.001 A 
ENDROOT
TORSDOF 0
ENDMDL
