MODEL 1
REMARK minimizedAffinity -3.79936957
REMARK minimizedRMSD -1
REMARK  0 active torsions:
REMARK  status: ('A' for Active; 'I' for Inactive)
ROOT
ATOM      1  C   UNL d   1       2.256  -2.542  -1.789  0.00  0.00     0.078 C 
ATOM      2  C1  UNL d   1       1.113  -1.759  -2.364  0.00  0.00    -0.077 A 
ATOM      3  C2  UNL d   1      -0.195  -1.949  -1.903  0.00  0.00    -0.001 A 
ATOM      4  C3  UNL d   1      -1.250  -1.220  -2.455  0.00  0.00     0.003 A 
ATOM      5  C4  UNL d   1      -1.008  -0.297  -3.470  0.00  0.00    -0.005 A 
ATOM      6  C5  UNL d   1       0.291  -0.103  -3.937  0.00  0.00     0.003 A 
ATOM      7  C6  UNL d   1       1.347  -0.831  -3.387  0.00  0.00    -0.001 A 
ENDROOT
TORSDOF 0
ENDMDL
