MODEL 1
REMARK minimizedAffinity -5.30142212
REMARK minimizedRMSD -1
REMARK  0 active torsions:
REMARK  status: ('A' for Active; 'I' for Inactive)
ROOT
ATOM      1  C   UNL d   1      -0.233  -1.871  -4.467  0.00  0.00     0.078 C 
ATOM      2  C1  UNL d   1      -0.034  -3.246  -3.902  0.00  0.00    -0.077 A 
ATOM      3  C2  UNL d   1       0.233  -4.338  -4.738  0.00  0.00    -0.001 A 
ATOM      4  C3  UNL d   1       0.406  -5.613  -4.199  0.00  0.00     0.003 A 
ATOM      5  C4  UNL d   1       0.313  -5.810  -2.822  0.00  0.00    -0.005 A 
ATOM      6  C5  UNL d   1       0.046  -4.730  -1.983  0.00  0.00     0.003 A 
ATOM      7  C6  UNL d   1      -0.128  -3.454  -2.520  0.00  0.00    -0.001 A 
ENDROOT
TORSDOF 0
ENDMDL
