MODEL 1
REMARK minimizedAffinity 5.35883093
REMARK minimizedRMSD -1
REMARK  0 active torsions:
REMARK  status: ('A' for Active; 'I' for Inactive)
ROOT
ATOM      1  C   UNL d   1       1.783   3.686   0.944  0.00  0.00     0.078 C 
ATOM      2  C1  UNL d   1       1.597   2.272   1.407  0.00  0.00    -0.077 A 
ATOM      3  C2  UNL d   1       0.378   1.844   1.948  0.00  0.00    -0.001 A 
ATOM      4  C3  UNL d   1       0.222   0.528   2.383  0.00  0.00     0.003 A 
ATOM      5  C4  UNL d   1       1.281  -0.373   2.284  0.00  0.00    -0.005 A 
ATOM      6  C5  UNL d   1       2.498   0.044   1.749  0.00  0.00     0.003 A 
ATOM      7  C6  UNL d   1       2.656   1.360   1.313  0.00  0.00    -0.001 A 
ENDROOT
TORSDOF 0
ENDMDL
