MODEL 1
REMARK minimizedAffinity -0.0507057495
REMARK minimizedRMSD -1
REMARK  0 active torsions:
REMARK  status: ('A' for Active; 'I' for Inactive)
ROOT
ATOM      1  C   UNL d   1       2.169  -2.200  -1.546  0.00  0.00     0.078 C 
ATOM      2  C1  UNL d   1       1.327  -3.342  -2.031  0.00  0.00    -0.077 A 
ATOM      3  C2  UNL d   1      -0.068  -3.311  -1.915  0.00  0.00    -0.001 A 
ATOM      4  C3  UNL d   1      -0.837  -4.386  -2.363  0.00  0.00     0.003 A 
ATOM      5  C4  UNL d   1      -0.221  -5.501  -2.927  0.00  0.00    -0.005 A 
ATOM      6  C5  UNL d   1       1.167  -5.542  -3.045  0.00  0.00     0.003 A 
ATOM      7  C6  UNL d   1       1.938  -4.468  -2.598  0.00  0.00    -0.001 A 
ENDROOT
TORSDOF 0
ENDMDL
