MODEL 1
REMARK minimizedAffinity 3.46770597
REMARK minimizedRMSD -1
REMARK  0 active torsions:
REMARK  status: ('A' for Active; 'I' for Inactive)
ROOT
ATOM      1  C   UNL d   1       1.980  -1.573  -1.937  0.00  0.00     0.023 A 
ATOM      2  C1  UNL d   1       2.020  -0.958  -0.685  0.00  0.00     0.003 A 
ATOM      3  C2  UNL d   1       2.783   0.196  -0.496  0.00  0.00     0.048 A 
ATOM      4  C3  UNL d   1       3.503   0.731  -1.564  0.00  0.00     0.023 A 
ATOM      5  C4  UNL d   1       3.466   0.120  -2.818  0.00  0.00     0.048 A 
ATOM      6  C5  UNL d   1       2.703  -1.035  -3.002  0.00  0.00     0.003 A 
ATOM      7  I   UNL d   1       4.639   2.449  -1.285  0.00  0.00    -0.146 I 
ENDROOT
TORSDOF 0
ENDMDL
