MODEL 1
REMARK minimizedAffinity 5.17743397
REMARK minimizedRMSD -1
REMARK  0 active torsions:
REMARK  status: ('A' for Active; 'I' for Inactive)
ROOT
ATOM      1  C   UNL d   1       6.000   3.000  -1.102  0.00  0.00     0.023 A 
ATOM      2  C1  UNL d   1       5.292   2.626  -2.244  0.00  0.00     0.003 A 
ATOM      3  C2  UNL d   1       4.145   1.838  -2.130  0.00  0.00     0.048 A 
ATOM      4  C3  UNL d   1       3.711   1.427  -0.870  0.00  0.00     0.023 A 
ATOM      5  C4  UNL d   1       4.416   1.799   0.276  0.00  0.00     0.048 A 
ATOM      6  C5  UNL d   1       5.562   2.587   0.157  0.00  0.00     0.003 A 
ATOM      7  I   UNL d   1       2.004   0.254  -0.697  0.00  0.00    -0.146 I 
ENDROOT
TORSDOF 0
ENDMDL
