MODEL 1
REMARK minimizedAffinity -1.03080344
REMARK minimizedRMSD -1
REMARK  0 active torsions:
REMARK  status: ('A' for Active; 'I' for Inactive)
ROOT
ATOM      1  C   UNL d   1       1.390  -0.282   0.048  0.00  0.00     0.023 A 
ATOM      2  C1  UNL d   1       1.432   1.098   0.248  0.00  0.00     0.003 A 
ATOM      3  C2  UNL d   1       2.542   1.833  -0.175  0.00  0.00     0.048 A 
ATOM      4  C3  UNL d   1       3.605   1.181  -0.799  0.00  0.00     0.023 A 
ATOM      5  C4  UNL d   1       3.567  -0.200  -1.002  0.00  0.00     0.048 A 
ATOM      6  C5  UNL d   1       2.456  -0.930  -0.576  0.00  0.00     0.003 A 
ATOM      7  I   UNL d   1       5.258   2.272  -1.430  0.00  0.00    -0.146 I 
ENDROOT
TORSDOF 0
ENDMDL
