MODEL 1
REMARK minimizedAffinity 3.53788948
REMARK minimizedRMSD -1
REMARK  0 active torsions:
REMARK  status: ('A' for Active; 'I' for Inactive)
ROOT
ATOM      1  C   UNL d   1       3.075   0.223  -2.009  0.00  0.00     0.023 A 
ATOM      2  C1  UNL d   1       2.087  -0.567  -1.422  0.00  0.00     0.003 A 
ATOM      3  C2  UNL d   1       1.757  -0.390  -0.077  0.00  0.00     0.048 A 
ATOM      4  C3  UNL d   1       2.419   0.580   0.675  0.00  0.00     0.023 A 
ATOM      5  C4  UNL d   1       3.408   1.374   0.092  0.00  0.00     0.048 A 
ATOM      6  C5  UNL d   1       3.734   1.193  -1.253  0.00  0.00     0.003 A 
ATOM      7  I   UNL d   1       1.930   0.845   2.678  0.00  0.00    -0.146 I 
ENDROOT
TORSDOF 0
ENDMDL
