MODEL 1
REMARK minimizedAffinity -0.339486331
REMARK minimizedRMSD -1
REMARK  0 active torsions:
REMARK  status: ('A' for Active; 'I' for Inactive)
ROOT
ATOM      1  C   UNL d   1       1.618   0.103  -0.347  0.00  0.00     0.023 A 
ATOM      2  C1  UNL d   1       1.707   1.493  -0.276  0.00  0.00     0.003 A 
ATOM      3  C2  UNL d   1       2.957   2.115  -0.290  0.00  0.00     0.048 A 
ATOM      4  C3  UNL d   1       4.114   1.341  -0.375  0.00  0.00     0.023 A 
ATOM      5  C4  UNL d   1       4.030  -0.050  -0.447  0.00  0.00     0.048 A 
ATOM      6  C5  UNL d   1       2.778  -0.668  -0.432  0.00  0.00     0.003 A 
ATOM      7  I   UNL d   1       5.976   2.265  -0.396  0.00  0.00    -0.146 I 
ENDROOT
TORSDOF 0
ENDMDL
