MODEL 1
REMARK minimizedAffinity 6.45483351
REMARK minimizedRMSD -1
REMARK  0 active torsions:
REMARK  status: ('A' for Active; 'I' for Inactive)
ROOT
ATOM      1  C   UNL d   1      -0.118  -1.502  -1.679  0.00  0.00     0.023 A 
ATOM      2  C1  UNL d   1       1.037  -1.119  -0.998  0.00  0.00     0.003 A 
ATOM      3  C2  UNL d   1       1.103  -1.241   0.392  0.00  0.00     0.048 A 
ATOM      4  C3  UNL d   1       0.009  -1.748   1.094  0.00  0.00     0.023 A 
ATOM      5  C4  UNL d   1      -1.149  -2.133   0.416  0.00  0.00     0.048 A 
ATOM      6  C5  UNL d   1      -1.210  -2.008  -0.973  0.00  0.00     0.003 A 
ATOM      7  I   UNL d   1       0.105  -1.930   3.162  0.00  0.00    -0.146 I 
ENDROOT
TORSDOF 0
ENDMDL
