MODEL 1
REMARK minimizedAffinity 1.75575376
REMARK minimizedRMSD -1
REMARK  0 active torsions:
REMARK  status: ('A' for Active; 'I' for Inactive)
ROOT
ATOM      1  C   UNL d   1       1.423  -2.563  -0.410  0.00  0.00     0.023 A 
ATOM      2  C1  UNL d   1       1.752  -2.113  -1.689  0.00  0.00     0.003 A 
ATOM      3  C2  UNL d   1       2.329  -0.853  -1.861  0.00  0.00     0.048 A 
ATOM      4  C3  UNL d   1       2.576  -0.049  -0.749  0.00  0.00     0.023 A 
ATOM      5  C4  UNL d   1       2.250  -0.495   0.533  0.00  0.00     0.048 A 
ATOM      6  C5  UNL d   1       1.672  -1.755   0.699  0.00  0.00     0.003 A 
ATOM      7  I   UNL d   1       3.436   1.826  -1.002  0.00  0.00    -0.146 I 
ENDROOT
TORSDOF 0
ENDMDL
