MODEL 1
REMARK minimizedAffinity 4.55963755
REMARK minimizedRMSD -1
REMARK  0 active torsions:
REMARK  status: ('A' for Active; 'I' for Inactive)
ROOT
ATOM      1  C   UNL d   1       3.036  -0.731  -2.028  0.00  0.00     0.023 A 
ATOM      2  C1  UNL d   1       2.238  -1.428  -1.121  0.00  0.00     0.003 A 
ATOM      3  C2  UNL d   1       1.700  -0.770  -0.013  0.00  0.00     0.048 A 
ATOM      4  C3  UNL d   1       1.963   0.585   0.182  0.00  0.00     0.023 A 
ATOM      5  C4  UNL d   1       2.761   1.287  -0.723  0.00  0.00     0.048 A 
ATOM      6  C5  UNL d   1       3.297   0.625  -1.829  0.00  0.00     0.003 A 
ATOM      7  I   UNL d   1       1.163   1.566   1.830  0.00  0.00    -0.146 I 
ENDROOT
TORSDOF 0
ENDMDL
