MODEL 1
REMARK minimizedAffinity 4.48322964
REMARK minimizedRMSD -1
REMARK  0 active torsions:
REMARK  status: ('A' for Active; 'I' for Inactive)
ROOT
ATOM      1  C   UNL d   1       3.997   2.503  -1.427  0.00  0.00     0.023 A 
ATOM      2  C1  UNL d   1       4.376   1.312  -2.046  0.00  0.00     0.003 A 
ATOM      3  C2  UNL d   1       3.687   0.130  -1.770  0.00  0.00     0.048 A 
ATOM      4  C3  UNL d   1       2.618   0.145  -0.875  0.00  0.00     0.023 A 
ATOM      5  C4  UNL d   1       2.235   1.335  -0.253  0.00  0.00     0.048 A 
ATOM      6  C5  UNL d   1       2.928   2.514  -0.531  0.00  0.00     0.003 A 
ATOM      7  I   UNL d   1       1.590  -1.613  -0.462  0.00  0.00    -0.146 I 
ENDROOT
TORSDOF 0
ENDMDL
