MODEL 1
REMARK minimizedAffinity 0.791446209
REMARK minimizedRMSD -1
REMARK  0 active torsions:
REMARK  status: ('A' for Active; 'I' for Inactive)
ROOT
ATOM      1  C   UNL d   1       1.218  -0.538  -0.226  0.00  0.00     0.023 A 
ATOM      2  C1  UNL d   1       1.447   0.837  -0.176  0.00  0.00     0.003 A 
ATOM      3  C2  UNL d   1       2.653   1.363  -0.643  0.00  0.00     0.048 A 
ATOM      4  C3  UNL d   1       3.625   0.508  -1.161  0.00  0.00     0.023 A 
ATOM      5  C4  UNL d   1       3.400  -0.868  -1.215  0.00  0.00     0.048 A 
ATOM      6  C5  UNL d   1       2.193  -1.390  -0.745  0.00  0.00     0.003 A 
ATOM      7  I   UNL d   1       5.421   1.289  -1.858  0.00  0.00    -0.146 I 
ENDROOT
TORSDOF 0
ENDMDL
