MODEL 1
REMARK minimizedAffinity 5.54632711
REMARK minimizedRMSD -1
REMARK  0 active torsions:
REMARK  status: ('A' for Active; 'I' for Inactive)
ROOT
ATOM      1  C   UNL d   1       5.999   3.383  -1.291  0.00  0.00     0.023 A 
ATOM      2  C1  UNL d   1       5.092   3.043  -2.294  0.00  0.00     0.003 A 
ATOM      3  C2  UNL d   1       4.039   2.167  -2.019  0.00  0.00     0.048 A 
ATOM      4  C3  UNL d   1       3.900   1.636  -0.737  0.00  0.00     0.023 A 
ATOM      5  C4  UNL d   1       4.804   1.974   0.271  0.00  0.00     0.048 A 
ATOM      6  C5  UNL d   1       5.855   2.849  -0.010  0.00  0.00     0.003 A 
ATOM      7  I   UNL d   1       2.334   0.332  -0.324  0.00  0.00    -0.146 I 
ENDROOT
TORSDOF 0
ENDMDL
