MODEL 1
REMARK minimizedAffinity 2.39132428
REMARK minimizedRMSD -1
REMARK  0 active torsions:
REMARK  status: ('A' for Active; 'I' for Inactive)
ROOT
ATOM      1  C1  BNZ d   1       0.142  -3.764  -0.160  0.00  0.00     0.000 A 
ATOM      2  C2  BNZ d   1       1.231  -3.377   0.574  0.00  0.00     0.000 A 
ATOM      3  C3  BNZ d   1       2.101  -2.438   0.095  0.00  0.00     0.000 A 
ATOM      4  C4  BNZ d   1       1.903  -1.917  -1.133  0.00  0.00     0.000 A 
ATOM      5  C5  BNZ d   1       0.815  -2.303  -1.890  0.00  0.00     0.000 A 
ATOM      6  C6  BNZ d   1      -0.080  -3.220  -1.388  0.00  0.00     0.000 A 
ENDROOT
TORSDOF 0
ENDMDL
