MODEL 1
REMARK minimizedAffinity 4.07686853
REMARK minimizedRMSD -1
REMARK  0 active torsions:
REMARK  status: ('A' for Active; 'I' for Inactive)
ROOT
ATOM      1  C1  BNZ d   1      -0.591   1.117   2.607  0.00  0.00     0.000 A 
ATOM      2  C2  BNZ d   1      -1.650   1.500   1.828  0.00  0.00     0.000 A 
ATOM      3  C3  BNZ d   1      -1.539   1.540   0.466  0.00  0.00     0.000 A 
ATOM      4  C4  BNZ d   1      -0.359   1.235  -0.112  0.00  0.00     0.000 A 
ATOM      5  C5  BNZ d   1       0.720   0.855   0.661  0.00  0.00     0.000 A 
ATOM      6  C6  BNZ d   1       0.593   0.779   2.029  0.00  0.00     0.000 A 
ENDROOT
TORSDOF 0
ENDMDL
