MODEL 1
REMARK minimizedAffinity 6.95155954
REMARK minimizedRMSD -1
REMARK  0 active torsions:
REMARK  status: ('A' for Active; 'I' for Inactive)
ROOT
ATOM      1  C1  BNZ d   1      -1.459   2.378  -0.333  0.00  0.00     0.000 A 
ATOM      2  C2  BNZ d   1      -2.164   3.552  -0.338  0.00  0.00     0.000 A 
ATOM      3  C3  BNZ d   1      -2.218   4.341   0.777  0.00  0.00     0.000 A 
ATOM      4  C4  BNZ d   1      -1.601   3.936   1.906  0.00  0.00     0.000 A 
ATOM      5  C5  BNZ d   1      -0.893   2.751   1.929  0.00  0.00     0.000 A 
ATOM      6  C6  BNZ d   1      -0.809   1.978   0.794  0.00  0.00     0.000 A 
ENDROOT
TORSDOF 0
ENDMDL
