MODEL 1
REMARK minimizedAffinity 5.91363335
REMARK minimizedRMSD -1
REMARK  0 active torsions:
REMARK  status: ('A' for Active; 'I' for Inactive)
ROOT
ATOM      1  C1  BNZ d   1       0.940   0.836   1.603  0.00  0.00     0.000 A 
ATOM      2  C2  BNZ d   1       0.615   1.051   0.290  0.00  0.00     0.000 A 
ATOM      3  C3  BNZ d   1      -0.686   1.226  -0.089  0.00  0.00     0.000 A 
ATOM      4  C4  BNZ d   1      -1.663   1.146   0.837  0.00  0.00     0.000 A 
ATOM      5  C5  BNZ d   1      -1.352   0.921   2.163  0.00  0.00     0.000 A 
ATOM      6  C6  BNZ d   1      -0.038   0.784   2.547  0.00  0.00     0.000 A 
ENDROOT
TORSDOF 0
ENDMDL
