MODEL 1
REMARK minimizedAffinity 5.73482895
REMARK minimizedRMSD -1
REMARK  0 active torsions:
REMARK  status: ('A' for Active; 'I' for Inactive)
ROOT
ATOM      1  C1  BNZ d   1       1.850  -2.272   1.002  0.00  0.00     0.000 A 
ATOM      2  C2  BNZ d   1       2.524  -1.113   0.723  0.00  0.00     0.000 A 
ATOM      3  C3  BNZ d   1       2.798  -0.756  -0.567  0.00  0.00     0.000 A 
ATOM      4  C4  BNZ d   1       2.433  -1.576  -1.574  0.00  0.00     0.000 A 
ATOM      5  C5  BNZ d   1       1.761  -2.753  -1.308  0.00  0.00     0.000 A 
ATOM      6  C6  BNZ d   1       1.453  -3.090  -0.011  0.00  0.00     0.000 A 
ENDROOT
TORSDOF 0
ENDMDL
