MODEL 1
REMARK minimizedAffinity 4.23647165
REMARK minimizedRMSD -1
REMARK  0 active torsions:
REMARK  status: ('A' for Active; 'I' for Inactive)
ROOT
ATOM      1  C1  BNZ d   1       0.618   1.557   2.172  0.00  0.00     0.000 A 
ATOM      2  C2  BNZ d   1       1.649   1.117   2.958  0.00  0.00     0.000 A 
ATOM      3  C3  BNZ d   1       1.422   0.246   3.987  0.00  0.00     0.000 A 
ATOM      4  C4  BNZ d   1       0.161  -0.151   4.254  0.00  0.00     0.000 A 
ATOM      5  C5  BNZ d   1      -0.890   0.292   3.476  0.00  0.00     0.000 A 
ATOM      6  C6  BNZ d   1      -0.653   1.137   2.417  0.00  0.00     0.000 A 
ENDROOT
TORSDOF 0
ENDMDL
