MODEL 1
REMARK minimizedAffinity 0.815117121
REMARK minimizedRMSD -1
REMARK  0 active torsions:
REMARK  status: ('A' for Active; 'I' for Inactive)
ROOT
ATOM      1  C1  BNZ d   1       0.112  -2.104   3.845  0.00  0.00     0.000 A 
ATOM      2  C2  BNZ d   1      -0.835  -1.213   3.416  0.00  0.00     0.000 A 
ATOM      3  C3  BNZ d   1      -0.771   0.104   3.776  0.00  0.00     0.000 A 
ATOM      4  C4  BNZ d   1       0.216   0.520   4.595  0.00  0.00     0.000 A 
ATOM      5  C5  BNZ d   1       1.174  -0.367   5.043  0.00  0.00     0.000 A 
ATOM      6  C6  BNZ d   1       1.128  -1.685   4.647  0.00  0.00     0.000 A 
ENDROOT
TORSDOF 0
ENDMDL
