MODEL 1
REMARK minimizedAffinity 0.276325524
REMARK minimizedRMSD -1
REMARK  0 active torsions:
REMARK  status: ('A' for Active; 'I' for Inactive)
ROOT
ATOM      1  C1  BNZ d   1       0.041   0.710   2.787  0.00  0.00     0.000 A 
ATOM      2  C2  BNZ d   1      -1.128   1.230   2.298  0.00  0.00     0.000 A 
ATOM      3  C3  BNZ d   1      -1.284   1.466   0.961  0.00  0.00     0.000 A 
ATOM      4  C4  BNZ d   1      -0.259   1.219   0.120  0.00  0.00     0.000 A 
ATOM      5  C5  BNZ d   1       0.929   0.704   0.598  0.00  0.00     0.000 A 
ATOM      6  C6  BNZ d   1       1.069   0.431   1.940  0.00  0.00     0.000 A 
ENDROOT
TORSDOF 0
ENDMDL
