MODEL 1
REMARK minimizedAffinity 0.851042688
REMARK minimizedRMSD -1
REMARK  0 active torsions:
REMARK  status: ('A' for Active; 'I' for Inactive)
ROOT
ATOM      1  C1  BNZ d   1       0.276   0.241   2.598  0.00  0.00     0.000 A 
ATOM      2  C2  BNZ d   1      -1.002   0.652   2.329  0.00  0.00     0.000 A 
ATOM      3  C3  BNZ d   1      -1.370   1.011   1.063  0.00  0.00     0.000 A 
ATOM      4  C4  BNZ d   1      -0.451   0.997   0.076  0.00  0.00     0.000 A 
ATOM      5  C5  BNZ d   1       0.844   0.594   0.333  0.00  0.00     0.000 A 
ATOM      6  C6  BNZ d   1       1.201   0.196   1.601  0.00  0.00     0.000 A 
ENDROOT
TORSDOF 0
ENDMDL
