MODEL 1
REMARK minimizedAffinity -2.85217381
REMARK minimizedRMSD -1
REMARK  0 active torsions:
REMARK  status: ('A' for Active; 'I' for Inactive)
ROOT
ATOM      1  C   UNL d   1      -0.184  -0.276   0.753  0.00  0.00     0.172 C 
ATOM      2  N   UNL d   1      -0.281  -1.597   0.179  0.00  0.00    -0.070 N 
ATOM      3  C1  UNL d   1      -0.070  -1.913  -1.137  0.00  0.00    -0.004 A 
ATOM      4  C2  UNL d   1      -0.258  -3.271  -1.280  0.00  0.00    -0.047 A 
ATOM      5  C3  UNL d   1      -0.595  -3.789  -0.007  0.00  0.00    -0.047 A 
ATOM      6  C4  UNL d   1      -0.602  -2.731   0.878  0.00  0.00    -0.004 A 
ENDROOT
TORSDOF 0
ENDMDL
