MODEL 1
REMARK minimizedAffinity -1.95362115
REMARK minimizedRMSD -1
REMARK  0 active torsions:
REMARK  status: ('A' for Active; 'I' for Inactive)
ROOT
ATOM      1  C   UNL d   1       0.244   1.890  -0.756  0.00  0.00     0.172 C 
ATOM      2  N   UNL d   1       0.020   0.622  -0.103  0.00  0.00    -0.070 N 
ATOM      3  C1  UNL d   1       0.583  -0.573  -0.465  0.00  0.00    -0.004 A 
ATOM      4  C2  UNL d   1       0.120  -1.538   0.403  0.00  0.00    -0.047 A 
ATOM      5  C3  UNL d   1      -0.752  -0.902   1.318  0.00  0.00    -0.047 A 
ATOM      6  C4  UNL d   1      -0.795   0.435   0.982  0.00  0.00    -0.004 A 
ENDROOT
TORSDOF 0
ENDMDL
