MODEL 1
REMARK minimizedAffinity -4.15505075
REMARK minimizedRMSD -1
REMARK  0 active torsions:
REMARK  status: ('A' for Active; 'I' for Inactive)
ROOT
ATOM      1  C   UNL d   1       0.066   0.426  -0.237  0.00  0.00     0.172 C 
ATOM      2  N   UNL d   1       0.076  -1.017  -0.171  0.00  0.00    -0.070 N 
ATOM      3  C1  UNL d   1       0.323  -1.862  -1.220  0.00  0.00    -0.004 A 
ATOM      4  C2  UNL d   1       0.242  -3.154  -0.748  0.00  0.00    -0.047 A 
ATOM      5  C3  UNL d   1      -0.065  -3.083   0.631  0.00  0.00    -0.047 A 
ATOM      6  C4  UNL d   1      -0.162  -1.748   0.962  0.00  0.00    -0.004 A 
ENDROOT
TORSDOF 0
ENDMDL
