MODEL 1
REMARK minimizedAffinity -2.83229852
REMARK minimizedRMSD -1
REMARK  0 active torsions:
REMARK  status: ('A' for Active; 'I' for Inactive)
ROOT
ATOM      1  C   UNL d   1       0.365   0.448  -0.731  0.00  0.00     0.172 C 
ATOM      2  N   UNL d   1       0.267  -0.986  -0.597  0.00  0.00    -0.070 N 
ATOM      3  C1  UNL d   1      -0.366  -1.651   0.419  0.00  0.00    -0.004 A 
ATOM      4  C2  UNL d   1      -0.236  -3.003   0.184  0.00  0.00    -0.047 A 
ATOM      5  C3  UNL d   1       0.501  -3.155  -1.014  0.00  0.00    -0.047 A 
ATOM      6  C4  UNL d   1       0.800  -1.891  -1.476  0.00  0.00    -0.004 A 
ENDROOT
TORSDOF 0
ENDMDL
