MODEL 1
REMARK minimizedAffinity -3.86709285
REMARK minimizedRMSD -1
REMARK  0 active torsions:
REMARK  status: ('A' for Active; 'I' for Inactive)
ROOT
ATOM      1  C   UNL d   1       0.238   0.091  -0.065  0.00  0.00     0.172 C 
ATOM      2  N   UNL d   1       0.029  -1.313  -0.334  0.00  0.00    -0.070 N 
ATOM      3  C1  UNL d   1       0.112  -1.911  -1.563  0.00  0.00    -0.004 A 
ATOM      4  C2  UNL d   1      -0.154  -3.253  -1.398  0.00  0.00    -0.047 A 
ATOM      5  C3  UNL d   1      -0.405  -3.469  -0.022  0.00  0.00    -0.047 A 
ATOM      6  C4  UNL d   1      -0.286  -2.251   0.613  0.00  0.00    -0.004 A 
ENDROOT
TORSDOF 0
ENDMDL
