MODEL 1
REMARK minimizedAffinity -2.89523482
REMARK minimizedRMSD -1
REMARK  0 active torsions:
REMARK  status: ('A' for Active; 'I' for Inactive)
ROOT
ATOM      1  C   UNL d   1       0.460   0.271  -0.050  0.00  0.00     0.172 C 
ATOM      2  N   UNL d   1       0.249  -1.042  -0.613  0.00  0.00    -0.070 N 
ATOM      3  C1  UNL d   1       0.519  -1.410  -1.904  0.00  0.00    -0.004 A 
ATOM      4  C2  UNL d   1       0.181  -2.739  -2.044  0.00  0.00    -0.047 A 
ATOM      5  C3  UNL d   1      -0.311  -3.184  -0.794  0.00  0.00    -0.047 A 
ATOM      6  C4  UNL d   1      -0.258  -2.114   0.074  0.00  0.00    -0.004 A 
ENDROOT
TORSDOF 0
ENDMDL
