MODEL 1
REMARK minimizedAffinity -4.43979692
REMARK minimizedRMSD -1
REMARK  0 active torsions:
REMARK  status: ('A' for Active; 'I' for Inactive)
ROOT
ATOM      1  C   UNL d   1       0.312   0.539  -0.687  0.00  0.00     0.172 C 
ATOM      2  N   UNL d   1       0.269  -0.902  -0.609  0.00  0.00    -0.070 N 
ATOM      3  C1  UNL d   1       0.422  -1.764  -1.663  0.00  0.00    -0.004 A 
ATOM      4  C2  UNL d   1       0.317  -3.049  -1.176  0.00  0.00    -0.047 A 
ATOM      5  C3  UNL d   1       0.092  -2.957   0.218  0.00  0.00    -0.047 A 
ATOM      6  C4  UNL d   1       0.067  -1.617   0.542  0.00  0.00    -0.004 A 
ENDROOT
TORSDOF 0
ENDMDL
