MODEL 1
REMARK minimizedAffinity -3.89865422
REMARK minimizedRMSD -1
REMARK  0 active torsions:
REMARK  status: ('A' for Active; 'I' for Inactive)
ROOT
ATOM      1  C   UNL d   1      -0.031   0.583  -0.085  0.00  0.00     0.172 C 
ATOM      2  N   UNL d   1       0.035  -0.857  -0.174  0.00  0.00    -0.070 N 
ATOM      3  C1  UNL d   1      -0.463  -1.737   0.750  0.00  0.00    -0.004 A 
ATOM      4  C2  UNL d   1      -0.202  -3.013   0.301  0.00  0.00    -0.047 A 
ATOM      5  C3  UNL d   1       0.477  -2.896  -0.936  0.00  0.00    -0.047 A 
ATOM      6  C4  UNL d   1       0.610  -1.551  -1.205  0.00  0.00    -0.004 A 
ENDROOT
TORSDOF 0
ENDMDL
