MODEL 1
REMARK minimizedAffinity -1.77564657
REMARK minimizedRMSD -1
REMARK  0 active torsions:
REMARK  status: ('A' for Active; 'I' for Inactive)
ROOT
ATOM      1  C   UNL d   1      -0.757  -2.859   0.748  0.00  0.00     0.172 C 
ATOM      2  N   UNL d   1      -0.446  -1.453   0.641  0.00  0.00    -0.070 N 
ATOM      3  C1  UNL d   1      -0.879  -0.473   1.494  0.00  0.00    -0.004 A 
ATOM      4  C2  UNL d   1      -0.367   0.727   1.051  0.00  0.00    -0.047 A 
ATOM      5  C3  UNL d   1       0.400   0.459  -0.108  0.00  0.00    -0.047 A 
ATOM      6  C4  UNL d   1       0.333  -0.898  -0.339  0.00  0.00    -0.004 A 
ENDROOT
TORSDOF 0
ENDMDL
