MODEL 1
REMARK minimizedAffinity -4.11902332
REMARK minimizedRMSD -1
REMARK  0 active torsions:
REMARK  status: ('A' for Active; 'I' for Inactive)
ROOT
ATOM      1  C   UNL d   1       0.277   0.283   0.429  0.00  0.00     0.172 C 
ATOM      2  N   UNL d   1       0.227  -1.142   0.199  0.00  0.00    -0.070 N 
ATOM      3  C1  UNL d   1       0.134  -2.104   1.169  0.00  0.00    -0.004 A 
ATOM      4  C2  UNL d   1       0.113  -3.332   0.544  0.00  0.00    -0.047 A 
ATOM      5  C3  UNL d   1       0.197  -3.100  -0.850  0.00  0.00    -0.047 A 
ATOM      6  C4  UNL d   1       0.266  -1.735  -1.035  0.00  0.00    -0.004 A 
ENDROOT
TORSDOF 0
ENDMDL
