MODEL 1
REMARK minimizedAffinity -2.86473656
REMARK minimizedRMSD -1
REMARK  0 active torsions:
REMARK  status: ('A' for Active; 'I' for Inactive)
ROOT
ATOM      1  C   UNL d   1       2.707   2.458   1.461  0.00  0.00     0.172 C 
ATOM      2  N   UNL d   1       1.516   1.975   0.803  0.00  0.00    -0.070 N 
ATOM      3  C1  UNL d   1       0.680   2.723   0.017  0.00  0.00    -0.004 A 
ATOM      4  C2  UNL d   1      -0.334   1.899  -0.422  0.00  0.00    -0.047 A 
ATOM      5  C3  UNL d   1      -0.099   0.613   0.119  0.00  0.00    -0.047 A 
ATOM      6  C4  UNL d   1       1.053   0.688   0.872  0.00  0.00    -0.004 A 
ENDROOT
TORSDOF 0
ENDMDL
