MODEL 1
REMARK minimizedAffinity -3.44491839
REMARK minimizedRMSD -1
REMARK  0 active torsions:
REMARK  status: ('A' for Active; 'I' for Inactive)
ROOT
ATOM      1  C   UNL d   1       0.362   1.247   0.406  0.00  0.00     0.172 C 
ATOM      2  N   UNL d   1       0.028  -0.148   0.569  0.00  0.00    -0.070 N 
ATOM      3  C1  UNL d   1      -0.657  -0.686   1.625  0.00  0.00    -0.004 A 
ATOM      4  C2  UNL d   1      -0.771  -2.042   1.407  0.00  0.00    -0.047 A 
ATOM      5  C3  UNL d   1      -0.131  -2.329   0.178  0.00  0.00    -0.047 A 
ATOM      6  C4  UNL d   1       0.355  -1.138  -0.320  0.00  0.00    -0.004 A 
ENDROOT
TORSDOF 0
ENDMDL
