MODEL 1
REMARK minimizedAffinity -3.33461928
REMARK minimizedRMSD -1
REMARK  0 active torsions:
REMARK  status: ('A' for Active; 'I' for Inactive)
ROOT
ATOM      1  C   UNL d   1       0.138   0.959  -0.310  0.00  0.00     0.172 C 
ATOM      2  N   UNL d   1      -0.001  -0.437   0.034  0.00  0.00    -0.070 N 
ATOM      3  C1  UNL d   1      -0.822  -0.942   1.007  0.00  0.00    -0.004 A 
ATOM      4  C2  UNL d   1      -0.667  -2.311   1.022  0.00  0.00    -0.047 A 
ATOM      5  C3  UNL d   1       0.280  -2.641   0.023  0.00  0.00    -0.047 A 
ATOM      6  C4  UNL d   1       0.676  -1.462  -0.573  0.00  0.00    -0.004 A 
ENDROOT
TORSDOF 0
ENDMDL
