MODEL 1
REMARK minimizedAffinity -4.24964714
REMARK minimizedRMSD -1
REMARK  0 active torsions:
REMARK  status: ('A' for Active; 'I' for Inactive)
ROOT
ATOM      1  C   UNL d   1      -0.888  -0.386   0.810  0.00  0.00     0.172 C 
ATOM      2  N   UNL d   1      -0.390  -1.454  -0.026  0.00  0.00    -0.070 N 
ATOM      3  C1  UNL d   1      -0.528  -2.793   0.223  0.00  0.00    -0.004 A 
ATOM      4  C2  UNL d   1       0.081  -3.478  -0.806  0.00  0.00    -0.047 A 
ATOM      5  C3  UNL d   1       0.604  -2.517  -1.704  0.00  0.00    -0.047 A 
ATOM      6  C4  UNL d   1       0.298  -1.272  -1.196  0.00  0.00    -0.004 A 
ENDROOT
TORSDOF 0
ENDMDL
