MODEL 1
REMARK minimizedAffinity -3.96562552
REMARK minimizedRMSD -1
REMARK  0 active torsions:
REMARK  status: ('A' for Active; 'I' for Inactive)
ROOT
ATOM      1  C   UNL d   1       0.297  -2.401  -2.606  0.00  0.00     0.172 C 
ATOM      2  N   UNL d   1       0.137  -2.271  -1.176  0.00  0.00    -0.070 N 
ATOM      3  C1  UNL d   1      -0.070  -1.099  -0.499  0.00  0.00    -0.004 A 
ATOM      4  C2  UNL d   1      -0.170  -1.399   0.842  0.00  0.00    -0.047 A 
ATOM      5  C3  UNL d   1      -0.017  -2.799   0.976  0.00  0.00    -0.047 A 
ATOM      6  C4  UNL d   1       0.172  -3.314  -0.289  0.00  0.00    -0.004 A 
ENDROOT
TORSDOF 0
ENDMDL
