MODEL 1
REMARK minimizedAffinity -3.63104486
REMARK minimizedRMSD -1
REMARK  0 active torsions:
REMARK  status: ('A' for Active; 'I' for Inactive)
ROOT
ATOM      1  C   UNL d   1      -0.100  -2.224  -2.374  0.00  0.00     0.172 C 
ATOM      2  N   UNL d   1      -0.195  -1.829  -0.989  0.00  0.00    -0.070 N 
ATOM      3  C1  UNL d   1      -0.134  -0.544  -0.518  0.00  0.00    -0.004 A 
ATOM      4  C2  UNL d   1      -0.263  -0.590   0.853  0.00  0.00    -0.047 A 
ATOM      5  C3  UNL d   1      -0.406  -1.950   1.220  0.00  0.00    -0.047 A 
ATOM      6  C4  UNL d   1      -0.360  -2.695   0.060  0.00  0.00    -0.004 A 
ENDROOT
TORSDOF 0
ENDMDL
