MODEL 1
REMARK minimizedAffinity -1.32105505
REMARK minimizedRMSD -1
REMARK  1 active torsions:
REMARK  status: ('A' for Active; 'I' for Inactive)
REMARK    1  A    between atoms: C1_2  and  C2_3 
ROOT
ATOM      1  C2  UNL d   1      -0.661  -0.480   0.251  0.00  0.00    -0.081 A 
ATOM      2  C3  UNL d   1      -1.463   0.591   0.667  0.00  0.00     0.006 A 
ATOM      3  C4  UNL d   1      -1.113   1.904   0.345  0.00  0.00     0.002 A 
ATOM      4  C5  UNL d   1       0.038   2.169  -0.405  0.00  0.00    -0.080 A 
ATOM      5  C6  UNL d   1       0.408   3.572  -0.783  0.00  0.00     0.076 C 
ATOM      6  C7  UNL d   1       0.848   1.101  -0.806  0.00  0.00     0.002 A 
ATOM      7  C8  UNL d   1       0.499  -0.212  -0.483  0.00  0.00     0.006 A 
ENDROOT
BRANCH   1   8
ATOM      8  C1  UNL d   1      -1.070  -1.901   0.541  0.00  0.00     0.054 C 
ATOM      9  C   UNL d   1      -1.389  -2.658  -0.741  0.00  0.00     0.018 C 
ENDBRANCH   1   8
TORSDOF 1
ENDMDL
