MODEL 1
REMARK minimizedAffinity -4.02703094
REMARK minimizedRMSD -1
REMARK  1 active torsions:
REMARK  status: ('A' for Active; 'I' for Inactive)
REMARK    1  A    between atoms: C1_2  and  C2_3 
ROOT
ATOM      1  C2  UNL d   1      -0.306  -0.999   0.082  0.00  0.00    -0.081 A 
ATOM      2  C3  UNL d   1      -1.327  -0.182   0.582  0.00  0.00     0.006 A 
ATOM      3  C4  UNL d   1      -1.255   1.206   0.444  0.00  0.00     0.002 A 
ATOM      4  C5  UNL d   1      -0.166   1.800  -0.203  0.00  0.00    -0.080 A 
ATOM      5  C6  UNL d   1      -0.091   3.287  -0.385  0.00  0.00     0.076 C 
ATOM      6  C7  UNL d   1       0.863   0.985  -0.687  0.00  0.00     0.002 A 
ATOM      7  C8  UNL d   1       0.792  -0.403  -0.549  0.00  0.00     0.006 A 
ENDROOT
BRANCH   1   8
ATOM      8  C1  UNL d   1      -0.412  -2.500   0.173  0.00  0.00     0.054 C 
ATOM      9  C   UNL d   1      -0.775  -3.111  -1.173  0.00  0.00     0.018 C 
ENDBRANCH   1   8
TORSDOF 1
ENDMDL
