MODEL 1
REMARK minimizedAffinity -5.06718922
REMARK minimizedRMSD -1
REMARK  1 active torsions:
REMARK  status: ('A' for Active; 'I' for Inactive)
REMARK    1  A    between atoms: C1_2  and  C2_3 
ROOT
ATOM      1  C2  UNL d   1       0.045  -0.698   0.237  0.00  0.00    -0.081 A 
ATOM      2  C3  UNL d   1      -1.123   0.017   0.525  0.00  0.00     0.006 A 
ATOM      3  C4  UNL d   1      -1.152   1.408   0.398  0.00  0.00     0.002 A 
ATOM      4  C5  UNL d   1      -0.016   2.105  -0.027  0.00  0.00    -0.080 A 
ATOM      5  C6  UNL d   1      -0.042   3.595  -0.197  0.00  0.00     0.076 C 
ATOM      6  C7  UNL d   1       1.157   1.392  -0.298  0.00  0.00     0.002 A 
ATOM      7  C8  UNL d   1       1.186   0.002  -0.170  0.00  0.00     0.006 A 
ENDROOT
BRANCH   1   8
ATOM      8  C1  UNL d   1       0.060  -2.204   0.311  0.00  0.00     0.054 C 
ATOM      9  C   UNL d   1      -0.735  -2.822  -0.830  0.00  0.00     0.018 C 
ENDBRANCH   1   8
TORSDOF 1
ENDMDL
