MODEL 1
REMARK minimizedAffinity -3.21542525
REMARK minimizedRMSD -1
REMARK  1 active torsions:
REMARK  status: ('A' for Active; 'I' for Inactive)
REMARK    1  A    between atoms: C1_2  and  C2_3 
ROOT
ATOM      1  C2  UNL d   1      -0.351  -0.823   0.238  0.00  0.00    -0.081 A 
ATOM      2  C3  UNL d   1      -1.384   0.100   0.446  0.00  0.00     0.006 A 
ATOM      3  C4  UNL d   1      -1.165   1.465   0.245  0.00  0.00     0.002 A 
ATOM      4  C5  UNL d   1       0.087   1.928  -0.175  0.00  0.00    -0.080 A 
ATOM      5  C6  UNL d   1       0.327   3.388  -0.424  0.00  0.00     0.076 C 
ATOM      6  C7  UNL d   1       1.123   1.008  -0.366  0.00  0.00     0.002 A 
ATOM      7  C8  UNL d   1       0.905  -0.357  -0.164  0.00  0.00     0.006 A 
ENDROOT
BRANCH   1   8
ATOM      8  C1  UNL d   1      -0.603  -2.302   0.392  0.00  0.00     0.054 C 
ATOM      9  C   UNL d   1      -1.006  -2.935  -0.932  0.00  0.00     0.018 C 
ENDBRANCH   1   8
TORSDOF 1
ENDMDL
