MODEL 1
REMARK minimizedAffinity -2.83717155
REMARK minimizedRMSD -1
REMARK  1 active torsions:
REMARK  status: ('A' for Active; 'I' for Inactive)
REMARK    1  A    between atoms: C1_2  and  C2_3 
ROOT
ATOM      1  C2  UNL d   1      -0.427  -0.410   0.268  0.00  0.00    -0.081 A 
ATOM      2  C3  UNL d   1      -0.937   0.892   0.204  0.00  0.00     0.006 A 
ATOM      3  C4  UNL d   1      -0.122   1.988   0.498  0.00  0.00     0.002 A 
ATOM      4  C5  UNL d   1       1.218   1.801   0.852  0.00  0.00    -0.080 A 
ATOM      5  C6  UNL d   1       2.112   2.970   1.140  0.00  0.00     0.076 C 
ATOM      6  C7  UNL d   1       1.724   0.499   0.933  0.00  0.00     0.002 A 
ATOM      7  C8  UNL d   1       0.909  -0.597   0.640  0.00  0.00     0.006 A 
ENDROOT
BRANCH   1   8
ATOM      8  C1  UNL d   1      -1.285  -1.589  -0.111  0.00  0.00     0.054 C 
ATOM      9  C   UNL d   1      -0.638  -2.413  -1.215  0.00  0.00     0.018 C 
ENDBRANCH   1   8
TORSDOF 1
ENDMDL
