MODEL 1
REMARK minimizedAffinity -0.95243758
REMARK minimizedRMSD -1
REMARK  1 active torsions:
REMARK  status: ('A' for Active; 'I' for Inactive)
REMARK    1  A    between atoms: C1_2  and  C2_3 
ROOT
ATOM      1  C2  UNL d   1      -0.313   2.346   1.258  0.00  0.00    -0.081 A 
ATOM      2  C3  UNL d   1       0.174   1.048   1.456  0.00  0.00     0.006 A 
ATOM      3  C4  UNL d   1       1.284   0.591   0.741  0.00  0.00     0.002 A 
ATOM      4  C5  UNL d   1       1.930   1.426  -0.176  0.00  0.00    -0.080 A 
ATOM      5  C6  UNL d   1       3.141   0.958  -0.927  0.00  0.00     0.076 C 
ATOM      6  C7  UNL d   1       1.434   2.717  -0.387  0.00  0.00     0.002 A 
ATOM      7  C8  UNL d   1       0.323   3.174   0.327  0.00  0.00     0.006 A 
ENDROOT
BRANCH   1   8
ATOM      8  C1  UNL d   1      -1.470   2.863   2.074  0.00  0.00     0.054 C 
ATOM      9  C   UNL d   1      -1.030   3.237   3.482  0.00  0.00     0.018 C 
ENDBRANCH   1   8
TORSDOF 1
ENDMDL
