MODEL 1
REMARK minimizedAffinity 0.759979188
REMARK minimizedRMSD -1
REMARK  1 active torsions:
REMARK  status: ('A' for Active; 'I' for Inactive)
REMARK    1  A    between atoms: C1_2  and  C2_3 
ROOT
ATOM      1  C2  UNL d   1      -0.655  -1.160  -1.219  0.00  0.00    -0.081 A 
ATOM      2  C3  UNL d   1       0.113  -1.159  -0.048  0.00  0.00     0.006 A 
ATOM      3  C4  UNL d   1       0.140  -0.035   0.781  0.00  0.00     0.002 A 
ATOM      4  C5  UNL d   1      -0.605   1.104   0.457  0.00  0.00    -0.080 A 
ATOM      5  C6  UNL d   1      -0.608   2.307   1.353  0.00  0.00     0.076 C 
ATOM      6  C7  UNL d   1      -1.358   1.110  -0.723  0.00  0.00     0.002 A 
ATOM      7  C8  UNL d   1      -1.385  -0.013  -1.552  0.00  0.00     0.006 A 
ENDROOT
BRANCH   1   8
ATOM      8  C1  UNL d   1      -0.737  -2.394  -2.081  0.00  0.00     0.054 C 
ATOM      9  C   UNL d   1      -1.825  -3.339  -1.591  0.00  0.00     0.018 C 
ENDBRANCH   1   8
TORSDOF 1
ENDMDL
