MODEL 1
REMARK minimizedAffinity -3.89701319
REMARK minimizedRMSD -1
REMARK  1 active torsions:
REMARK  status: ('A' for Active; 'I' for Inactive)
REMARK    1  A    between atoms: C1_2  and  C2_3 
ROOT
ATOM      1  C2  UNL d   1      -3.223  -4.003  -0.934  0.00  0.00    -0.081 A 
ATOM      2  C3  UNL d   1      -3.129  -3.811  -2.318  0.00  0.00     0.006 A 
ATOM      3  C4  UNL d   1      -1.909  -3.465  -2.904  0.00  0.00     0.002 A 
ATOM      4  C5  UNL d   1      -0.762  -3.314  -2.117  0.00  0.00    -0.080 A 
ATOM      5  C6  UNL d   1       0.561  -2.974  -2.737  0.00  0.00     0.076 C 
ATOM      6  C7  UNL d   1      -0.859  -3.489  -0.733  0.00  0.00     0.002 A 
ATOM      7  C8  UNL d   1      -2.079  -3.834  -0.147  0.00  0.00     0.006 A 
ENDROOT
BRANCH   1   8
ATOM      8  C1  UNL d   1      -4.523  -4.439  -0.308  0.00  0.00     0.054 C 
ATOM      9  C   UNL d   1      -4.407  -5.831   0.296  0.00  0.00     0.018 C 
ENDBRANCH   1   8
TORSDOF 1
ENDMDL
