MODEL 1
REMARK minimizedAffinity -3.54169536
REMARK minimizedRMSD -1
REMARK  1 active torsions:
REMARK  status: ('A' for Active; 'I' for Inactive)
REMARK    1  A    between atoms: C1_2  and  C2_3 
ROOT
ATOM      1  C2  UNL d   1       0.077  -0.467   0.290  0.00  0.00    -0.081 A 
ATOM      2  C3  UNL d   1      -0.885   0.419   0.791  0.00  0.00     0.006 A 
ATOM      3  C4  UNL d   1      -0.778   1.791   0.551  0.00  0.00     0.002 A 
ATOM      4  C5  UNL d   1       0.287   2.299  -0.200  0.00  0.00    -0.080 A 
ATOM      5  C6  UNL d   1       0.396   3.766  -0.491  0.00  0.00     0.076 C 
ATOM      6  C7  UNL d   1       1.257   1.417  -0.686  0.00  0.00     0.002 A 
ATOM      7  C8  UNL d   1       1.152   0.045  -0.446  0.00  0.00     0.006 A 
ENDROOT
BRANCH   1   8
ATOM      8  C1  UNL d   1      -0.069  -1.953   0.492  0.00  0.00     0.054 C 
ATOM      9  C   UNL d   1      -0.805  -2.600  -0.673  0.00  0.00     0.018 C 
ENDBRANCH   1   8
TORSDOF 1
ENDMDL
