MODEL 1
REMARK minimizedAffinity -0.383100063
REMARK minimizedRMSD -1
REMARK  1 active torsions:
REMARK  status: ('A' for Active; 'I' for Inactive)
REMARK    1  A    between atoms: C1_2  and  C2_3 
ROOT
ATOM      1  C2  UNL d   1      -0.557   0.664   0.552  0.00  0.00    -0.081 A 
ATOM      2  C3  UNL d   1       0.245  -0.317  -0.044  0.00  0.00     0.006 A 
ATOM      3  C4  UNL d   1       1.637  -0.237   0.034  0.00  0.00     0.002 A 
ATOM      4  C5  UNL d   1       2.250   0.820   0.715  0.00  0.00    -0.080 A 
ATOM      5  C6  UNL d   1       3.743   0.901   0.832  0.00  0.00     0.076 C 
ATOM      6  C7  UNL d   1       1.449   1.809   1.296  0.00  0.00     0.002 A 
ATOM      7  C8  UNL d   1       0.057   1.730   1.218  0.00  0.00     0.006 A 
ENDROOT
BRANCH   1   8
ATOM      8  C1  UNL d   1      -2.060   0.546   0.525  0.00  0.00     0.054 C 
ATOM      9  C   UNL d   1      -2.564  -0.355   1.644  0.00  0.00     0.018 C 
ENDBRANCH   1   8
TORSDOF 1
ENDMDL
