MODEL 1
REMARK minimizedAffinity -4.70373869
REMARK minimizedRMSD -1
REMARK  1 active torsions:
REMARK  status: ('A' for Active; 'I' for Inactive)
REMARK    1  A    between atoms: C1_2  and  C2_3 
ROOT
ATOM      1  C2  UNL d   1      -0.314  -0.844  -0.399  0.00  0.00    -0.081 A 
ATOM      2  C3  UNL d   1      -1.298   0.067   0.005  0.00  0.00     0.006 A 
ATOM      3  C4  UNL d   1      -1.040   1.439  -0.006  0.00  0.00     0.002 A 
ATOM      4  C5  UNL d   1       0.203   1.924  -0.428  0.00  0.00    -0.080 A 
ATOM      5  C6  UNL d   1       0.483   3.397  -0.474  0.00  0.00     0.076 C 
ATOM      6  C7  UNL d   1       1.192   1.014  -0.815  0.00  0.00     0.002 A 
ATOM      7  C8  UNL d   1       0.934  -0.359  -0.803  0.00  0.00     0.006 A 
ENDROOT
BRANCH   1   8
ATOM      8  C1  UNL d   1      -0.611  -2.321  -0.450  0.00  0.00     0.054 C 
ATOM      9  C   UNL d   1      -0.784  -2.802  -1.883  0.00  0.00     0.018 C 
ENDBRANCH   1   8
TORSDOF 1
ENDMDL
