MODEL 1
REMARK minimizedAffinity 11.871335
REMARK minimizedRMSD -1
REMARK  0 active torsions:
REMARK  status: ('A' for Active; 'I' for Inactive)
ROOT
ATOM      1  C   UNL d   1       3.434  -5.426  -0.081  0.00  0.00     0.020 A 
ATOM      2  C1  UNL d   1       3.615  -4.043  -0.091  0.00  0.00     0.020 A 
ATOM      3  C2  UNL d   1       2.516  -3.194   0.055  0.00  0.00     0.034 A 
ATOM      4  C3  UNL d   1       1.231  -3.727   0.212  0.00  0.00     0.017 A 
ATOM      5  C4  UNL d   1       1.051  -5.115   0.222  0.00  0.00     0.017 A 
ATOM      6  C5  UNL d   1       2.155  -5.960   0.075  0.00  0.00     0.034 A 
ATOM      7 Cl   UNL d   1      -0.504  -5.846   0.412  0.00  0.00    -0.070 Cl
ATOM      8 Cl1  UNL d   1      -0.082  -2.618   0.389  0.00  0.00    -0.070 Cl
ENDROOT
TORSDOF 0
ENDMDL
