MODEL 1
REMARK minimizedAffinity 14.2049246
REMARK minimizedRMSD -1
REMARK  0 active torsions:
REMARK  status: ('A' for Active; 'I' for Inactive)
ROOT
ATOM      1  C   UNL d   1       2.869  -2.278   0.595  0.00  0.00     0.020 A 
ATOM      2  C1  UNL d   1       1.959  -3.273   0.238  0.00  0.00     0.020 A 
ATOM      3  C2  UNL d   1       0.680  -3.283   0.798  0.00  0.00     0.034 A 
ATOM      4  C3  UNL d   1       0.307  -2.297   1.719  0.00  0.00     0.017 A 
ATOM      5  C4  UNL d   1       1.221  -1.300   2.077  0.00  0.00     0.017 A 
ATOM      6  C5  UNL d   1       2.500  -1.294   1.513  0.00  0.00     0.034 A 
ATOM      7 Cl   UNL d   1       0.834  -0.050   3.206  0.00  0.00    -0.070 Cl
ATOM      8 Cl1  UNL d   1      -1.291  -2.371   2.372  0.00  0.00    -0.070 Cl
ENDROOT
TORSDOF 0
ENDMDL
