MODEL 1
REMARK minimizedAffinity -0.517592311
REMARK minimizedRMSD -1
REMARK  0 active torsions:
REMARK  status: ('A' for Active; 'I' for Inactive)
ROOT
ATOM      1  C   UNL d   1      -2.353   2.107   5.981  0.00  0.00     0.020 A 
ATOM      2  C1  UNL d   1      -3.747   2.110   5.993  0.00  0.00     0.020 A 
ATOM      3  C2  UNL d   1      -4.442   3.322   5.999  0.00  0.00     0.034 A 
ATOM      4  C3  UNL d   1      -3.743   4.534   5.992  0.00  0.00     0.017 A 
ATOM      5  C4  UNL d   1      -2.343   4.529   5.980  0.00  0.00     0.017 A 
ATOM      6  C5  UNL d   1      -1.652   3.313   5.975  0.00  0.00     0.034 A 
ATOM      7 Cl   UNL d   1      -1.411   5.985   5.972  0.00  0.00    -0.070 Cl
ATOM      8 Cl1  UNL d   1      -4.666   5.994   5.999  0.00  0.00    -0.070 Cl
ENDROOT
TORSDOF 0
ENDMDL
