MODEL 1
REMARK minimizedAffinity 6.17980146
REMARK minimizedRMSD -1
REMARK  0 active torsions:
REMARK  status: ('A' for Active; 'I' for Inactive)
ROOT
ATOM      1  C   UNL d   1       3.050  -3.939   0.508  0.00  0.00     0.020 A 
ATOM      2  C1  UNL d   1       1.894  -3.295   0.071  0.00  0.00     0.020 A 
ATOM      3  C2  UNL d   1       1.357  -2.243   0.815  0.00  0.00     0.034 A 
ATOM      4  C3  UNL d   1       1.976  -1.832   2.001  0.00  0.00     0.017 A 
ATOM      5  C4  UNL d   1       3.137  -2.479   2.439  0.00  0.00     0.017 A 
ATOM      6  C5  UNL d   1       3.671  -3.532   1.690  0.00  0.00     0.034 A 
ATOM      7 Cl   UNL d   1       3.958  -2.028   3.892  0.00  0.00    -0.070 Cl
ATOM      8 Cl1  UNL d   1       1.258  -0.523   2.871  0.00  0.00    -0.070 Cl
ENDROOT
TORSDOF 0
ENDMDL
