MODEL 1
REMARK minimizedAffinity 4.73070765
REMARK minimizedRMSD -1
REMARK  0 active torsions:
REMARK  status: ('A' for Active; 'I' for Inactive)
ROOT
ATOM      1  C   UNL d   1       0.369   4.959  -4.917  0.00  0.00     0.020 A 
ATOM      2  C1  UNL d   1      -0.362   5.918  -5.618  0.00  0.00     0.020 A 
ATOM      3  C2  UNL d   1      -1.746   6.000  -5.451  0.00  0.00     0.034 A 
ATOM      4  C3  UNL d   1      -2.404   5.122  -4.581  0.00  0.00     0.017 A 
ATOM      5  C4  UNL d   1      -1.669   4.161  -3.878  0.00  0.00     0.017 A 
ATOM      6  C5  UNL d   1      -0.283   4.083  -4.049  0.00  0.00     0.034 A 
ATOM      7 Cl   UNL d   1      -2.410   3.044  -2.786  0.00  0.00    -0.070 Cl
ATOM      8 Cl1  UNL d   1      -4.117   5.281  -4.422  0.00  0.00    -0.070 Cl
ENDROOT
TORSDOF 0
ENDMDL
