MODEL 1
REMARK minimizedAffinity 5.86212969
REMARK minimizedRMSD -1
REMARK  0 active torsions:
REMARK  status: ('A' for Active; 'I' for Inactive)
ROOT
ATOM      1  C   UNL d   1       0.684  -2.619   0.614  0.00  0.00     0.020 A 
ATOM      2  C1  UNL d   1       1.651  -1.688   0.989  0.00  0.00     0.020 A 
ATOM      3  C2  UNL d   1       2.995  -2.062   1.047  0.00  0.00     0.034 A 
ATOM      4  C3  UNL d   1       3.376  -3.370   0.729  0.00  0.00     0.017 A 
ATOM      5  C4  UNL d   1       2.404  -4.305   0.353  0.00  0.00     0.017 A 
ATOM      6  C5  UNL d   1       1.060  -3.925   0.297  0.00  0.00     0.034 A 
ATOM      7 Cl   UNL d   1       2.797  -5.938  -0.054  0.00  0.00    -0.070 Cl
ATOM      8 Cl1  UNL d   1       5.056  -3.763   0.821  0.00  0.00    -0.070 Cl
ENDROOT
TORSDOF 0
ENDMDL
