MODEL 1
REMARK minimizedAffinity 6.2077055
REMARK minimizedRMSD -1
REMARK  0 active torsions:
REMARK  status: ('A' for Active; 'I' for Inactive)
ROOT
ATOM      1  C   UNL d   1       1.875  -0.725   3.579  0.00  0.00     0.020 A 
ATOM      2  C1  UNL d   1       1.726  -1.152   2.260  0.00  0.00     0.020 A 
ATOM      3  C2  UNL d   1       2.746  -1.879   1.642  0.00  0.00     0.034 A 
ATOM      4  C3  UNL d   1       3.919  -2.181   2.343  0.00  0.00     0.017 A 
ATOM      5  C4  UNL d   1       4.068  -1.752   3.667  0.00  0.00     0.017 A 
ATOM      6  C5  UNL d   1       3.044  -1.024   4.280  0.00  0.00     0.034 A 
ATOM      7 Cl   UNL d   1       5.486  -2.086   4.596  0.00  0.00    -0.070 Cl
ATOM      8 Cl1  UNL d   1       5.138  -3.085   1.517  0.00  0.00    -0.070 Cl
ENDROOT
TORSDOF 0
ENDMDL
