MODEL 1
REMARK minimizedAffinity 7.60153627
REMARK minimizedRMSD -1
REMARK  0 active torsions:
REMARK  status: ('A' for Active; 'I' for Inactive)
ROOT
ATOM      1  C   UNL d   1      -1.698   1.621  -4.160  0.00  0.00     0.020 A 
ATOM      2  C1  UNL d   1      -2.361   2.781  -3.761  0.00  0.00     0.020 A 
ATOM      3  C2  UNL d   1      -3.199   2.757  -2.645  0.00  0.00     0.034 A 
ATOM      4  C3  UNL d   1      -3.377   1.570  -1.923  0.00  0.00     0.017 A 
ATOM      5  C4  UNL d   1      -2.711   0.407  -2.324  0.00  0.00     0.017 A 
ATOM      6  C5  UNL d   1      -1.872   0.437  -3.443  0.00  0.00     0.034 A 
ATOM      7 Cl   UNL d   1      -2.879  -1.094  -1.484  0.00  0.00    -0.070 Cl
ATOM      8 Cl1  UNL d   1      -4.428   1.613  -0.553  0.00  0.00    -0.070 Cl
ENDROOT
TORSDOF 0
ENDMDL
