MODEL 1
REMARK minimizedAffinity 14.3993044
REMARK minimizedRMSD -1
REMARK  0 active torsions:
REMARK  status: ('A' for Active; 'I' for Inactive)
ROOT
ATOM      1  C   UNL d   1       1.650  -2.038   0.073  0.00  0.00     0.020 A 
ATOM      2  C1  UNL d   1       2.049  -2.735   1.213  0.00  0.00     0.020 A 
ATOM      3  C2  UNL d   1       3.386  -2.709   1.614  0.00  0.00     0.034 A 
ATOM      4  C3  UNL d   1       4.329  -1.985   0.875  0.00  0.00     0.017 A 
ATOM      5  C4  UNL d   1       3.927  -1.286  -0.269  0.00  0.00     0.017 A 
ATOM      6  C5  UNL d   1       2.587  -1.315  -0.666  0.00  0.00     0.034 A 
ATOM      7 Cl   UNL d   1       5.033  -0.370  -1.231  0.00  0.00    -0.070 Cl
ATOM      8 Cl1  UNL d   1       5.965  -1.997   1.430  0.00  0.00    -0.070 Cl
ENDROOT
TORSDOF 0
ENDMDL
