MODEL 1
REMARK minimizedAffinity 9.57457066
REMARK minimizedRMSD -1
REMARK  0 active torsions:
REMARK  status: ('A' for Active; 'I' for Inactive)
ROOT
ATOM      1  C   UNL d   1      -5.079   2.212   4.879  0.00  0.00     0.020 A 
ATOM      2  C1  UNL d   1      -6.000   2.176   3.833  0.00  0.00     0.020 A 
ATOM      3  C2  UNL d   1      -5.657   1.574   2.620  0.00  0.00     0.034 A 
ATOM      4  C3  UNL d   1      -4.389   1.005   2.451  0.00  0.00     0.017 A 
ATOM      5  C4  UNL d   1      -3.465   1.041   3.502  0.00  0.00     0.017 A 
ATOM      6  C5  UNL d   1      -3.814   1.645   4.714  0.00  0.00     0.034 A 
ATOM      7 Cl   UNL d   1      -1.882   0.360   3.369  0.00  0.00    -0.070 Cl
ATOM      8 Cl1  UNL d   1      -4.033   0.276   0.926  0.00  0.00    -0.070 Cl
ENDROOT
TORSDOF 0
ENDMDL
