MODEL 1
REMARK minimizedAffinity 7.71213531
REMARK minimizedRMSD -1
REMARK  0 active torsions:
REMARK  status: ('A' for Active; 'I' for Inactive)
ROOT
ATOM      1  C   UNL d   1       2.035  -4.434  -0.044  0.00  0.00     0.020 A 
ATOM      2  C1  UNL d   1       2.733  -3.241   0.142  0.00  0.00     0.020 A 
ATOM      3  C2  UNL d   1       2.172  -2.216   0.907  0.00  0.00     0.034 A 
ATOM      4  C3  UNL d   1       0.910  -2.382   1.489  0.00  0.00     0.017 A 
ATOM      5  C4  UNL d   1       0.211  -3.580   1.302  0.00  0.00     0.017 A 
ATOM      6  C5  UNL d   1       0.777  -4.603   0.535  0.00  0.00     0.034 A 
ATOM      7 Cl   UNL d   1      -1.351  -3.858   1.989  0.00  0.00    -0.070 Cl
ATOM      8 Cl1  UNL d   1       0.278  -1.073   2.423  0.00  0.00    -0.070 Cl
ENDROOT
TORSDOF 0
ENDMDL
