MODEL 1
REMARK minimizedAffinity 15.7443895
REMARK minimizedRMSD -1
REMARK  0 active torsions:
REMARK  status: ('A' for Active; 'I' for Inactive)
ROOT
ATOM      1  C   UNL d   1      -4.542   1.945   5.660  0.00  0.00     0.020 A 
ATOM      2  C1  UNL d   1      -3.484   1.522   4.857  0.00  0.00     0.020 A 
ATOM      3  C2  UNL d   1      -2.546   2.447   4.393  0.00  0.00     0.034 A 
ATOM      4  C3  UNL d   1      -2.664   3.799   4.732  0.00  0.00     0.017 A 
ATOM      5  C4  UNL d   1      -3.727   4.223   5.538  0.00  0.00     0.017 A 
ATOM      6  C5  UNL d   1      -4.663   3.293   6.000  0.00  0.00     0.034 A 
ATOM      7 Cl   UNL d   1      -3.939   5.876   5.999  0.00  0.00    -0.070 Cl
ATOM      8 Cl1  UNL d   1      -1.468   4.888   4.124  0.00  0.00    -0.070 Cl
ENDROOT
TORSDOF 0
ENDMDL
