MODEL 1
REMARK minimizedAffinity 7.21197844
REMARK minimizedRMSD -1
REMARK  0 active torsions:
REMARK  status: ('A' for Active; 'I' for Inactive)
ROOT
ATOM      1  C   UNL d   1       2.874  -2.271   1.170  0.00  0.00     0.020 A 
ATOM      2  C1  UNL d   1       2.200  -2.764   0.054  0.00  0.00     0.020 A 
ATOM      3  C2  UNL d   1       0.817  -2.604  -0.054  0.00  0.00     0.034 A 
ATOM      4  C3  UNL d   1       0.104  -1.949   0.956  0.00  0.00     0.017 A 
ATOM      5  C4  UNL d   1       0.781  -1.455   2.077  0.00  0.00     0.017 A 
ATOM      6  C5  UNL d   1       2.166  -1.618   2.179  0.00  0.00     0.034 A 
ATOM      7 Cl   UNL d   1      -0.031  -0.635   3.364  0.00  0.00    -0.070 Cl
ATOM      8 Cl1  UNL d   1      -1.605  -1.787   0.757  0.00  0.00    -0.070 Cl
ENDROOT
TORSDOF 0
ENDMDL
