MODEL 1
REMARK minimizedAffinity 16.3963394
REMARK minimizedRMSD -1
REMARK  0 active torsions:
REMARK  status: ('A' for Active; 'I' for Inactive)
ROOT
ATOM      1  C   UNL d   1      -1.526  -1.574   1.988  0.00  0.00     0.020 A 
ATOM      2  C1  UNL d   1      -1.993  -2.766   1.436  0.00  0.00     0.020 A 
ATOM      3  C2  UNL d   1      -1.134  -3.571   0.685  0.00  0.00     0.034 A 
ATOM      4  C3  UNL d   1       0.196  -3.186   0.484  0.00  0.00     0.017 A 
ATOM      5  C4  UNL d   1       0.664  -1.990   1.040  0.00  0.00     0.017 A 
ATOM      6  C5  UNL d   1      -0.200  -1.187   1.790  0.00  0.00     0.034 A 
ATOM      7 Cl   UNL d   1       2.293  -1.448   0.836  0.00  0.00    -0.070 Cl
ATOM      8 Cl1  UNL d   1       1.202  -4.231  -0.454  0.00  0.00    -0.070 Cl
ENDROOT
TORSDOF 0
ENDMDL
