MODEL 1
REMARK minimizedAffinity 11.7940855
REMARK minimizedRMSD -1
REMARK  0 active torsions:
REMARK  status: ('A' for Active; 'I' for Inactive)
ROOT
ATOM      1  C   UNL d   1      -6.000   1.753   2.332  0.00  0.00     0.020 A 
ATOM      2  C1  UNL d   1      -5.066   1.282   1.410  0.00  0.00     0.020 A 
ATOM      3  C2  UNL d   1      -3.793   0.900   1.838  0.00  0.00     0.034 A 
ATOM      4  C3  UNL d   1      -3.450   0.987   3.193  0.00  0.00     0.017 A 
ATOM      5  C4  UNL d   1      -4.388   1.460   4.118  0.00  0.00     0.017 A 
ATOM      6  C5  UNL d   1      -5.662   1.841   3.683  0.00  0.00     0.034 A 
ATOM      7 Cl   UNL d   1      -4.039   1.596   5.805  0.00  0.00    -0.070 Cl
ATOM      8 Cl1  UNL d   1      -1.858   0.497   3.652  0.00  0.00    -0.070 Cl
ENDROOT
TORSDOF 0
ENDMDL
