MODEL 1
REMARK minimizedAffinity -3.97318912
REMARK minimizedRMSD -1
REMARK  2 active torsions:
REMARK  status: ('A' for Active; 'I' for Inactive)
REMARK    1  A    between atoms: C1_2  and  C2_3 
REMARK    2  A    between atoms: C2_3  and  C3_4 
ROOT
ATOM      1  C3  UNL d   1      -0.280  -0.204  -0.756  0.00  0.00    -0.075 A 
ATOM      2  C4  UNL d   1       0.814  -0.203   0.122  0.00  0.00     0.002 A 
ATOM      3  C5  UNL d   1       0.657   0.201   1.448  0.00  0.00     0.002 A 
ATOM      4  C6  UNL d   1      -0.589   0.618   1.910  0.00  0.00    -0.004 A 
ATOM      5  C7  UNL d   1      -1.679   0.637   1.042  0.00  0.00     0.002 A 
ATOM      6  C8  UNL d   1      -1.526   0.229  -0.284  0.00  0.00     0.002 A 
ENDROOT
BRANCH   1   7
ATOM      7  C2  UNL d   1      -0.123  -0.668  -2.185  0.00  0.00     0.056 C 
BRANCH   7   8
ATOM      8  C1  UNL d   1       0.908   0.129  -2.990  0.00  0.00     0.007 C 
ATOM      9  C   UNL d   1       0.704   0.026  -4.495  0.00  0.00     0.009 C 
ENDBRANCH   7   8
ENDBRANCH   1   7
TORSDOF 2
ENDMDL
