MODEL 1
REMARK minimizedAffinity -3.36488891
REMARK minimizedRMSD -1
REMARK  2 active torsions:
REMARK  status: ('A' for Active; 'I' for Inactive)
REMARK    1  A    between atoms: C1_2  and  C2_3 
REMARK    2  A    between atoms: C2_3  and  C3_4 
ROOT
ATOM      1  C3  UNL d   1       0.032  -0.097  -4.277  0.00  0.00    -0.075 A 
ATOM      2  C4  UNL d   1      -0.006  -0.779  -3.052  0.00  0.00     0.002 A 
ATOM      3  C5  UNL d   1       1.057  -0.680  -2.153  0.00  0.00     0.002 A 
ATOM      4  C6  UNL d   1       2.172   0.092  -2.471  0.00  0.00    -0.004 A 
ATOM      5  C7  UNL d   1       2.227   0.761  -3.692  0.00  0.00     0.002 A 
ATOM      6  C8  UNL d   1       1.164   0.667  -4.591  0.00  0.00     0.002 A 
ENDROOT
BRANCH   1   7
ATOM      7  C2  UNL d   1      -1.128  -0.177  -5.241  0.00  0.00     0.056 C 
BRANCH   7   8
ATOM      8  C1  UNL d   1      -1.220  -1.507  -5.997  0.00  0.00     0.007 C 
ATOM      9  C   UNL d   1      -2.622  -2.100  -6.000  0.00  0.00     0.009 C 
ENDBRANCH   7   8
ENDBRANCH   1   7
TORSDOF 2
ENDMDL
