MODEL 1
REMARK minimizedAffinity -3.48818469
REMARK minimizedRMSD -1
REMARK  2 active torsions:
REMARK  status: ('A' for Active; 'I' for Inactive)
REMARK    1  A    between atoms: C1_2  and  C2_3 
REMARK    2  A    between atoms: C2_3  and  C3_4 
ROOT
ATOM      1  C3  UNL d   1      -0.124  -0.181   0.775  0.00  0.00    -0.075 A 
ATOM      2  C4  UNL d   1       1.127  -0.555   1.288  0.00  0.00     0.002 A 
ATOM      3  C5  UNL d   1       1.372  -0.506   2.661  0.00  0.00     0.002 A 
ATOM      4  C6  UNL d   1       0.377  -0.075   3.535  0.00  0.00    -0.004 A 
ATOM      5  C7  UNL d   1      -0.864   0.314   3.034  0.00  0.00     0.002 A 
ATOM      6  C8  UNL d   1      -1.114   0.262   1.662  0.00  0.00     0.002 A 
ENDROOT
BRANCH   1   7
ATOM      7  C2  UNL d   1      -0.405  -0.259  -0.707  0.00  0.00     0.056 C 
BRANCH   7   8
ATOM      8  C1  UNL d   1       0.693  -0.960  -1.514  0.00  0.00     0.007 C 
ATOM      9  C   UNL d   1       0.653  -0.624  -2.999  0.00  0.00     0.009 C 
ENDBRANCH   7   8
ENDBRANCH   1   7
TORSDOF 2
ENDMDL
