MODEL 1
REMARK minimizedAffinity -5.75215673
REMARK minimizedRMSD -1
REMARK  2 active torsions:
REMARK  status: ('A' for Active; 'I' for Inactive)
REMARK    1  A    between atoms: C1_2  and  C2_3 
REMARK    2  A    between atoms: C2_3  and  C3_4 
ROOT
ATOM      1  C3  UNL d   1       0.062  -0.625  -0.136  0.00  0.00    -0.075 A 
ATOM      2  C4  UNL d   1      -1.271  -0.352  -0.475  0.00  0.00     0.002 A 
ATOM      3  C5  UNL d   1      -2.132   0.234   0.454  0.00  0.00     0.002 A 
ATOM      4  C6  UNL d   1      -1.675   0.545   1.732  0.00  0.00    -0.004 A 
ATOM      5  C7  UNL d   1      -0.357   0.263   2.085  0.00  0.00     0.002 A 
ATOM      6  C8  UNL d   1       0.508  -0.320   1.156  0.00  0.00     0.002 A 
ENDROOT
BRANCH   1   7
ATOM      7  C2  UNL d   1       1.007  -1.232  -1.146  0.00  0.00     0.056 C 
BRANCH   7   8
ATOM      8  C1  UNL d   1       0.672  -0.886  -2.601  0.00  0.00     0.007 C 
ATOM      9  C   UNL d   1       1.741  -0.039  -3.278  0.00  0.00     0.009 C 
ENDBRANCH   7   8
ENDBRANCH   1   7
TORSDOF 2
ENDMDL
