MODEL 1
REMARK minimizedAffinity -3.13426018
REMARK minimizedRMSD -1
REMARK  2 active torsions:
REMARK  status: ('A' for Active; 'I' for Inactive)
REMARK    1  A    between atoms: C1_2  and  C2_3 
REMARK    2  A    between atoms: C2_3  and  C3_4 
ROOT
ATOM      1  C3  UNL d   1       0.645  -0.258  -1.940  0.00  0.00    -0.075 A 
ATOM      2  C4  UNL d   1       0.221  -0.679  -3.209  0.00  0.00     0.002 A 
ATOM      3  C5  UNL d   1       0.716  -0.068  -4.361  0.00  0.00     0.002 A 
ATOM      4  C6  UNL d   1       1.632   0.977  -4.259  0.00  0.00    -0.004 A 
ATOM      5  C7  UNL d   1       2.048   1.415  -3.004  0.00  0.00     0.002 A 
ATOM      6  C8  UNL d   1       1.557   0.802  -1.850  0.00  0.00     0.002 A 
ENDROOT
BRANCH   1   7
ATOM      7  C2  UNL d   1       0.136  -0.935  -0.690  0.00  0.00     0.056 C 
BRANCH   7   8
ATOM      8  C1  UNL d   1       0.489  -0.199   0.606  0.00  0.00     0.007 C 
ATOM      9  C   UNL d   1       1.715  -0.770   1.306  0.00  0.00     0.009 C 
ENDBRANCH   7   8
ENDBRANCH   1   7
TORSDOF 2
ENDMDL
