MODEL 1
REMARK minimizedAffinity -2.18100977
REMARK minimizedRMSD -1
REMARK  2 active torsions:
REMARK  status: ('A' for Active; 'I' for Inactive)
REMARK    1  A    between atoms: C1_2  and  C2_3 
REMARK    2  A    between atoms: C2_3  and  C3_4 
ROOT
ATOM      1  C3  UNL d   1      -0.131  -0.710  -0.349  0.00  0.00    -0.075 A 
ATOM      2  C4  UNL d   1       0.485  -0.248   0.822  0.00  0.00     0.002 A 
ATOM      3  C5  UNL d   1      -0.266   0.374   1.820  0.00  0.00     0.002 A 
ATOM      4  C6  UNL d   1      -1.638   0.550   1.655  0.00  0.00    -0.004 A 
ATOM      5  C7  UNL d   1      -2.258   0.109   0.488  0.00  0.00     0.002 A 
ATOM      6  C8  UNL d   1      -1.509  -0.518  -0.510  0.00  0.00     0.002 A 
ENDROOT
BRANCH   1   7
ATOM      7  C2  UNL d   1       0.672  -1.410  -1.420  0.00  0.00     0.056 C 
BRANCH   7   8
ATOM      8  C1  UNL d   1       1.189  -0.479  -2.521  0.00  0.00     0.007 C 
ATOM      9  C   UNL d   1       0.709  -0.870  -3.912  0.00  0.00     0.009 C 
ENDBRANCH   7   8
ENDBRANCH   1   7
TORSDOF 2
ENDMDL
