MODEL 1
REMARK minimizedAffinity -4.34069061
REMARK minimizedRMSD -1
REMARK  2 active torsions:
REMARK  status: ('A' for Active; 'I' for Inactive)
REMARK    1  A    between atoms: C1_2  and  C2_3 
REMARK    2  A    between atoms: C2_3  and  C3_4 
ROOT
ATOM      1  C3  UNL d   1       0.696  -0.003  -1.666  0.00  0.00    -0.075 A 
ATOM      2  C4  UNL d   1      -0.105  -0.414  -2.742  0.00  0.00     0.002 A 
ATOM      3  C5  UNL d   1       0.327  -0.234  -4.056  0.00  0.00     0.002 A 
ATOM      4  C6  UNL d   1       1.558   0.368  -4.312  0.00  0.00    -0.004 A 
ATOM      5  C7  UNL d   1       2.354   0.795  -3.251  0.00  0.00     0.002 A 
ATOM      6  C8  UNL d   1       1.926   0.612  -1.935  0.00  0.00     0.002 A 
ENDROOT
BRANCH   1   7
ATOM      7  C2  UNL d   1       0.247  -0.222  -0.241  0.00  0.00     0.056 C 
BRANCH   7   8
ATOM      8  C1  UNL d   1      -1.269  -0.121  -0.042  0.00  0.00     0.007 C 
ATOM      9  C   UNL d   1      -1.659   0.537   1.275  0.00  0.00     0.009 C 
ENDBRANCH   7   8
ENDBRANCH   1   7
TORSDOF 2
ENDMDL
