MODEL 1
REMARK minimizedAffinity -1.60653579
REMARK minimizedRMSD -1
REMARK  2 active torsions:
REMARK  status: ('A' for Active; 'I' for Inactive)
REMARK    1  A    between atoms: C1_2  and  C2_3 
REMARK    2  A    between atoms: C2_3  and  C3_4 
ROOT
ATOM      1  C3  UNL d   1       0.178  -0.115   1.370  0.00  0.00    -0.075 A 
ATOM      2  C4  UNL d   1      -0.103   0.273   0.053  0.00  0.00     0.002 A 
ATOM      3  C5  UNL d   1      -1.304   0.913  -0.257  0.00  0.00     0.002 A 
ATOM      4  C6  UNL d   1      -2.241   1.163   0.744  0.00  0.00    -0.004 A 
ATOM      5  C7  UNL d   1      -1.979   0.767   2.053  0.00  0.00     0.002 A 
ATOM      6  C8  UNL d   1      -0.777   0.131   2.366  0.00  0.00     0.002 A 
ENDROOT
BRANCH   1   7
ATOM      7  C2  UNL d   1       1.488  -0.781   1.717  0.00  0.00     0.056 C 
BRANCH   7   8
ATOM      8  C1  UNL d   1       1.828  -0.751   3.211  0.00  0.00     0.007 C 
ATOM      9  C   UNL d   1       3.325  -0.788   3.487  0.00  0.00     0.009 C 
ENDBRANCH   7   8
ENDBRANCH   1   7
TORSDOF 2
ENDMDL
