MODEL 1
REMARK minimizedAffinity 1.94239581
REMARK minimizedRMSD -1
REMARK  0 active torsions:
REMARK  status: ('A' for Active; 'I' for Inactive)
ROOT
ATOM      1  C1  DEN d   1      -2.909   2.116  -5.654  0.00  0.00     0.130 A 
ATOM      2  C2  DEN d   1      -3.452   0.775  -5.454  0.00  0.00    -0.031 A 
ATOM      3  C3  DEN d   1      -3.492   0.510  -4.002  0.00  0.00     0.027 A 
ATOM      4  C4  DEN d   1      -2.773   2.040  -2.054  0.00  0.00     0.027 A 
ATOM      5  C5  DEN d   1      -2.239   3.268  -1.728  0.00  0.00    -0.003 A 
ATOM      6  C6  DEN d   1      -1.863   4.176  -2.682  0.00  0.00     0.001 A 
ATOM      7  C7  DEN d   1      -2.058   3.889  -4.007  0.00  0.00     0.017 A 
ATOM      8  C8  DEN d   1      -2.588   2.651  -4.343  0.00  0.00    -0.094 A 
ATOM      9  C9  DEN d   1      -2.973   1.751  -3.364  0.00  0.00    -0.072 A 
ENDROOT
TORSDOF 0
ENDMDL
