MODEL 1
REMARK minimizedAffinity 6.35441446
REMARK minimizedRMSD -1
REMARK  0 active torsions:
REMARK  status: ('A' for Active; 'I' for Inactive)
ROOT
ATOM      1  C1  DEN d   1      -5.179  -1.645   0.736  0.00  0.00     0.130 A 
ATOM      2  C2  DEN d   1      -5.999  -1.078   1.804  0.00  0.00    -0.031 A 
ATOM      3  C3  DEN d   1      -5.112  -0.316   2.705  0.00  0.00     0.027 A 
ATOM      4  C4  DEN d   1      -2.563   0.046   2.549  0.00  0.00     0.027 A 
ATOM      5  C5  DEN d   1      -1.430  -0.249   1.823  0.00  0.00    -0.003 A 
ATOM      6  C6  DEN d   1      -1.462  -1.050   0.713  0.00  0.00     0.001 A 
ATOM      7  C7  DEN d   1      -2.658  -1.549   0.270  0.00  0.00     0.017 A 
ATOM      8  C8  DEN d   1      -3.804  -1.263   1.000  0.00  0.00    -0.094 A 
ATOM      9  C9  DEN d   1      -3.753  -0.440   2.113  0.00  0.00    -0.072 A 
ENDROOT
TORSDOF 0
ENDMDL
