MODEL 1
REMARK minimizedAffinity 1.04869652
REMARK minimizedRMSD -1
REMARK  0 active torsions:
REMARK  status: ('A' for Active; 'I' for Inactive)
ROOT
ATOM      1  C1  DEN d   1      -3.627  -1.577   1.537  0.00  0.00     0.130 A 
ATOM      2  C2  DEN d   1      -3.954  -0.870   0.302  0.00  0.00    -0.031 A 
ATOM      3  C3  DEN d   1      -2.689  -0.423  -0.317  0.00  0.00     0.027 A 
ATOM      4  C4  DEN d   1      -0.270  -0.760   0.512  0.00  0.00     0.027 A 
ATOM      5  C5  DEN d   1       0.509  -1.289   1.517  0.00  0.00    -0.003 A 
ATOM      6  C6  DEN d   1      -0.033  -1.916   2.607  0.00  0.00     0.001 A 
ATOM      7  C7  DEN d   1      -1.392  -2.070   2.696  0.00  0.00     0.017 A 
ATOM      8  C8  DEN d   1      -2.184  -1.533   1.690  0.00  0.00    -0.094 A 
ATOM      9  C9  DEN d   1      -1.616  -0.913   0.590  0.00  0.00    -0.072 A 
ENDROOT
TORSDOF 0
ENDMDL
