MODEL 1
REMARK minimizedAffinity -0.735036433
REMARK minimizedRMSD -1
REMARK  0 active torsions:
REMARK  status: ('A' for Active; 'I' for Inactive)
ROOT
ATOM      1  C1  DEN d   1       1.283  -1.115  -0.939  0.00  0.00     0.130 A 
ATOM      2  C2  DEN d   1       0.689  -0.024  -1.706  0.00  0.00    -0.031 A 
ATOM      3  C3  DEN d   1      -0.486   0.472  -0.960  0.00  0.00     0.027 A 
ATOM      4  C4  DEN d   1      -1.433  -0.337   1.298  0.00  0.00     0.027 A 
ATOM      5  C5  DEN d   1      -1.275  -1.245   2.322  0.00  0.00    -0.003 A 
ATOM      6  C6  DEN d   1      -0.282  -2.188   2.313  0.00  0.00     0.001 A 
ATOM      7  C7  DEN d   1       0.620  -2.215   1.283  0.00  0.00     0.017 A 
ATOM      8  C8  DEN d   1       0.462  -1.308   0.244  0.00  0.00    -0.094 A 
ATOM      9  C9  DEN d   1      -0.541  -0.354   0.276  0.00  0.00    -0.072 A 
ENDROOT
TORSDOF 0
ENDMDL
