MODEL 1
REMARK minimizedAffinity 2.54059243
REMARK minimizedRMSD -1
REMARK  0 active torsions:
REMARK  status: ('A' for Active; 'I' for Inactive)
ROOT
ATOM      1  C1  DEN d   1       0.763  -0.862   0.557  0.00  0.00     0.130 A 
ATOM      2  C2  DEN d   1       0.403  -0.304  -0.744  0.00  0.00    -0.031 A 
ATOM      3  C3  DEN d   1      -0.987   0.187  -0.661  0.00  0.00     0.027 A 
ATOM      4  C4  DEN d   1      -2.608   0.141   1.345  0.00  0.00     0.027 A 
ATOM      5  C5  DEN d   1      -2.757  -0.244   2.659  0.00  0.00    -0.003 A 
ATOM      6  C6  DEN d   1      -1.764  -0.888   3.348  0.00  0.00     0.001 A 
ATOM      7  C7  DEN d   1      -0.559  -1.125   2.740  0.00  0.00     0.017 A 
ATOM      8  C8  DEN d   1      -0.404  -0.746   1.413  0.00  0.00    -0.094 A 
ATOM      9  C9  DEN d   1      -1.416  -0.086   0.737  0.00  0.00    -0.072 A 
ENDROOT
TORSDOF 0
ENDMDL
