MODEL 1
REMARK minimizedAffinity 5.73071432
REMARK minimizedRMSD -1
REMARK  0 active torsions:
REMARK  status: ('A' for Active; 'I' for Inactive)
ROOT
ATOM      1  C1  DEN d   1       0.690  -0.389   0.422  0.00  0.00     0.130 A 
ATOM      2  C2  DEN d   1       0.428  -0.780  -0.960  0.00  0.00    -0.031 A 
ATOM      3  C3  DEN d   1      -1.020  -1.035  -1.095  0.00  0.00     0.027 A 
ATOM      4  C4  DEN d   1      -2.873  -0.856   0.690  0.00  0.00     0.027 A 
ATOM      5  C5  DEN d   1      -3.134  -0.571   2.012  0.00  0.00    -0.003 A 
ATOM      6  C6  DEN d   1      -2.143  -0.240   2.897  0.00  0.00     0.001 A 
ATOM      7  C7  DEN d   1      -0.848  -0.143   2.461  0.00  0.00     0.017 A 
ATOM      8  C8  DEN d   1      -0.576  -0.437   1.131  0.00  0.00    -0.094 A 
ATOM      9  C9  DEN d   1      -1.594  -0.757   0.249  0.00  0.00    -0.072 A 
ENDROOT
TORSDOF 0
ENDMDL
