MODEL 1
REMARK minimizedAffinity -3.18444753
REMARK minimizedRMSD -1
REMARK  0 active torsions:
REMARK  status: ('A' for Active; 'I' for Inactive)
ROOT
ATOM      1  C1  DEN d   1       2.635   0.134  -0.297  0.00  0.00     0.130 A 
ATOM      2  C2  DEN d   1       3.157  -0.307  -1.587  0.00  0.00    -0.031 A 
ATOM      3  C3  DEN d   1       2.028  -0.834  -2.381  0.00  0.00     0.027 A 
ATOM      4  C4  DEN d   1      -0.465  -1.003  -1.741  0.00  0.00     0.027 A 
ATOM      5  C5  DEN d   1      -1.387  -0.766  -0.746  0.00  0.00    -0.003 A 
ATOM      6  C6  DEN d   1      -1.031  -0.248   0.471  0.00  0.00     0.001 A 
ATOM      7  C7  DEN d   1       0.274   0.092   0.708  0.00  0.00     0.017 A 
ATOM      8  C8  DEN d   1       1.211  -0.151  -0.288  0.00  0.00    -0.094 A 
ATOM      9  C9  DEN d   1       0.830  -0.664  -1.516  0.00  0.00    -0.072 A 
ENDROOT
TORSDOF 0
ENDMDL
