MODEL 1
REMARK minimizedAffinity 26.3257828
REMARK minimizedRMSD -1
REMARK  0 active torsions:
REMARK  status: ('A' for Active; 'I' for Inactive)
ROOT
ATOM      1  C   UNL d   1       4.129   4.893   3.257  0.00  0.00     0.124 A 
ATOM      2  C1  UNL d   1       4.582   3.743   3.890  0.00  0.00     0.062 A 
ATOM      3  C2  UNL d   1       4.834   2.591   3.152  0.00  0.00     0.162 A 
ATOM      4  C3  UNL d   1       4.633   2.581   1.771  0.00  0.00    -0.034 A 
ATOM      5  C4  UNL d   1       4.176   3.741   1.142  0.00  0.00     0.162 A 
ATOM      6  C5  UNL d   1       3.926   4.890   1.885  0.00  0.00     0.062 A 
ATOM      7  F   UNL d   1       3.488   5.999   1.272  0.00  0.00    -0.097 F 
ATOM      8  F1  UNL d   1       3.973   3.767  -0.183  0.00  0.00    -0.096 F 
ATOM      9  I   UNL d   1       5.009   0.860   0.663  0.00  0.00    -0.060 I 
ATOM     10  F2  UNL d   1       5.272   1.495   3.789  0.00  0.00    -0.096 F 
ATOM     11  F3  UNL d   1       4.778   3.743   5.216  0.00  0.00    -0.097 F 
ATOM     12  F4  UNL d   1       3.887   6.000   3.971  0.00  0.00    -0.092 F 
ENDROOT
TORSDOF 0
ENDMDL
