MODEL 1
REMARK minimizedAffinity 23.0453014
REMARK minimizedRMSD -1
REMARK  0 active torsions:
REMARK  status: ('A' for Active; 'I' for Inactive)
ROOT
ATOM      1  C   UNL d   1      -0.540   0.880   3.331  0.00  0.00     0.124 A 
ATOM      2  C1  UNL d   1       0.205  -0.059   2.631  0.00  0.00     0.062 A 
ATOM      3  C2  UNL d   1       1.525  -0.315   2.991  0.00  0.00     0.162 A 
ATOM      4  C3  UNL d   1       2.109   0.369   4.057  0.00  0.00    -0.034 A 
ATOM      5  C4  UNL d   1       1.354   1.313   4.756  0.00  0.00     0.162 A 
ATOM      6  C5  UNL d   1       0.035   1.565   4.392  0.00  0.00     0.062 A 
ATOM      7  F   UNL d   1      -0.683   2.472   5.070  0.00  0.00    -0.097 F 
ATOM      8  F1  UNL d   1       1.885   1.988   5.786  0.00  0.00    -0.096 F 
ATOM      9  I   UNL d   1       4.083  -0.011   4.598  0.00  0.00    -0.060 I 
ATOM     10  F2  UNL d   1       2.221  -1.228   2.297  0.00  0.00    -0.096 F 
ATOM     11  F3  UNL d   1      -0.348  -0.721   1.604  0.00  0.00    -0.097 F 
ATOM     12  F4  UNL d   1      -1.809   1.125   2.982  0.00  0.00    -0.092 F 
ENDROOT
TORSDOF 0
ENDMDL
