MODEL 1
REMARK minimizedAffinity 30.4430218
REMARK minimizedRMSD -1
REMARK  0 active torsions:
REMARK  status: ('A' for Active; 'I' for Inactive)
ROOT
ATOM      1  C   UNL d   1      -0.171  -0.337   2.341  0.00  0.00     0.124 A 
ATOM      2  C1  UNL d   1       0.947  -0.489   3.149  0.00  0.00     0.062 A 
ATOM      3  C2  UNL d   1       1.183   0.401   4.193  0.00  0.00     0.162 A 
ATOM      4  C3  UNL d   1       0.296   1.450   4.437  0.00  0.00    -0.034 A 
ATOM      5  C4  UNL d   1      -0.826   1.596   3.620  0.00  0.00     0.162 A 
ATOM      6  C5  UNL d   1      -1.057   0.705   2.578  0.00  0.00     0.062 A 
ATOM      7  F   UNL d   1      -2.138   0.853   1.798  0.00  0.00    -0.097 F 
ATOM      8  F1  UNL d   1      -1.699   2.594   3.827  0.00  0.00    -0.096 F 
ATOM      9  I   UNL d   1       0.644   2.782   5.998  0.00  0.00    -0.060 I 
ATOM     10  F2  UNL d   1       2.272   0.230   4.958  0.00  0.00    -0.096 F 
ATOM     11  F3  UNL d   1       1.805  -1.494   2.922  0.00  0.00    -0.097 F 
ATOM     12  F4  UNL d   1      -0.394  -1.194   1.336  0.00  0.00    -0.092 F 
ENDROOT
TORSDOF 0
ENDMDL
