MODEL 1
REMARK minimizedAffinity 18.0525627
REMARK minimizedRMSD -1
REMARK  0 active torsions:
REMARK  status: ('A' for Active; 'I' for Inactive)
ROOT
ATOM      1  C   UNL d   1       2.026   0.648   4.365  0.00  0.00     0.124 A 
ATOM      2  C1  UNL d   1       1.075   1.588   4.736  0.00  0.00     0.062 A 
ATOM      3  C2  UNL d   1      -0.222   1.504   4.240  0.00  0.00     0.162 A 
ATOM      4  C3  UNL d   1      -0.578   0.475   3.369  0.00  0.00    -0.034 A 
ATOM      5  C4  UNL d   1       0.384  -0.467   3.000  0.00  0.00     0.162 A 
ATOM      6  C5  UNL d   1       1.680  -0.379   3.498  0.00  0.00     0.062 A 
ATOM      7  F   UNL d   1       2.598  -1.289   3.139  0.00  0.00    -0.097 F 
ATOM      8  F1  UNL d   1       0.077  -1.470   2.164  0.00  0.00    -0.096 F 
ATOM      9  I   UNL d   1      -2.517   0.345   2.625  0.00  0.00    -0.060 I 
ATOM     10  F2  UNL d   1      -1.121   2.427   4.615  0.00  0.00    -0.096 F 
ATOM     11  F3  UNL d   1       1.408   2.582   5.573  0.00  0.00    -0.097 F 
ATOM     12  F4  UNL d   1       3.275   0.732   4.843  0.00  0.00    -0.092 F 
ENDROOT
TORSDOF 0
ENDMDL
