MODEL 1
REMARK minimizedAffinity 26.5489864
REMARK minimizedRMSD -1
REMARK  0 active torsions:
REMARK  status: ('A' for Active; 'I' for Inactive)
ROOT
ATOM      1  C   UNL d   1       1.255  -0.600   3.291  0.00  0.00     0.124 A 
ATOM      2  C1  UNL d   1       0.816  -1.821   3.783  0.00  0.00     0.062 A 
ATOM      3  C2  UNL d   1      -0.518  -2.193   3.644  0.00  0.00     0.162 A 
ATOM      4  C3  UNL d   1      -1.423  -1.343   3.009  0.00  0.00    -0.034 A 
ATOM      5  C4  UNL d   1      -0.974  -0.115   2.517  0.00  0.00     0.162 A 
ATOM      6  C5  UNL d   1       0.360   0.252   2.659  0.00  0.00     0.062 A 
ATOM      7  F   UNL d   1       0.783   1.432   2.182  0.00  0.00    -0.097 F 
ATOM      8  F1  UNL d   1      -1.818   0.726   1.901  0.00  0.00    -0.096 F 
ATOM      9  I   UNL d   1      -3.419  -1.895   2.799  0.00  0.00    -0.060 I 
ATOM     10  F2  UNL d   1      -0.914  -3.379   4.129  0.00  0.00    -0.096 F 
ATOM     11  F3  UNL d   1       1.679  -2.645   4.395  0.00  0.00    -0.097 F 
ATOM     12  F4  UNL d   1       2.539  -0.244   3.426  0.00  0.00    -0.092 F 
ENDROOT
TORSDOF 0
ENDMDL
