MODEL 1
REMARK minimizedAffinity 15.3534622
REMARK minimizedRMSD -1
REMARK  0 active torsions:
REMARK  status: ('A' for Active; 'I' for Inactive)
ROOT
ATOM      1  C   UNL d   1       1.601  -1.979   4.286  0.00  0.00     0.124 A 
ATOM      2  C1  UNL d   1       2.310  -0.786   4.263  0.00  0.00     0.062 A 
ATOM      3  C2  UNL d   1       1.771   0.336   3.642  0.00  0.00     0.162 A 
ATOM      4  C3  UNL d   1       0.514   0.272   3.040  0.00  0.00    -0.034 A 
ATOM      5  C4  UNL d   1      -0.193  -0.932   3.067  0.00  0.00     0.162 A 
ATOM      6  C5  UNL d   1       0.351  -2.051   3.689  0.00  0.00     0.062 A 
ATOM      7  F   UNL d   1      -0.336  -3.203   3.710  0.00  0.00    -0.097 F 
ATOM      8  F1  UNL d   1      -1.403  -1.029   2.498  0.00  0.00    -0.096 F 
ATOM      9  I   UNL d   1      -0.296   1.948   2.110  0.00  0.00    -0.060 I 
ATOM     10  F2  UNL d   1       2.478   1.476   3.634  0.00  0.00    -0.096 F 
ATOM     11  F3  UNL d   1       3.519  -0.715   4.839  0.00  0.00    -0.097 F 
ATOM     12  F4  UNL d   1       2.123  -3.058   4.884  0.00  0.00    -0.092 F 
ENDROOT
TORSDOF 0
ENDMDL
