MODEL 1
REMARK minimizedAffinity 24.3487873
REMARK minimizedRMSD -1
REMARK  0 active torsions:
REMARK  status: ('A' for Active; 'I' for Inactive)
ROOT
ATOM      1  C   UNL d   1       2.423  -1.427  -4.403  0.00  0.00     0.124 A 
ATOM      2  C1  UNL d   1       1.180  -0.808  -4.398  0.00  0.00     0.062 A 
ATOM      3  C2  UNL d   1       0.055  -1.493  -4.848  0.00  0.00     0.162 A 
ATOM      4  C3  UNL d   1       0.167  -2.807  -5.305  0.00  0.00    -0.034 A 
ATOM      5  C4  UNL d   1       1.420  -3.422  -5.308  0.00  0.00     0.162 A 
ATOM      6  C5  UNL d   1       2.542  -2.733  -4.858  0.00  0.00     0.062 A 
ATOM      7  F   UNL d   1       3.741  -3.332  -4.863  0.00  0.00    -0.097 F 
ATOM      8  F1  UNL d   1       1.563  -4.683  -5.741  0.00  0.00    -0.096 F 
ATOM      9  I   UNL d   1      -1.513  -3.834  -5.978  0.00  0.00    -0.060 I 
ATOM     10  F2  UNL d   1      -1.133  -0.871  -4.832  0.00  0.00    -0.096 F 
ATOM     11  F3  UNL d   1       1.063   0.454  -3.960  0.00  0.00    -0.097 F 
ATOM     12  F4  UNL d   1       3.504  -0.765  -3.971  0.00  0.00    -0.092 F 
ENDROOT
TORSDOF 0
ENDMDL
