MODEL 1
REMARK minimizedAffinity 31.83601
REMARK minimizedRMSD -1
REMARK  0 active torsions:
REMARK  status: ('A' for Active; 'I' for Inactive)
ROOT
ATOM      1  C   UNL d   1       0.478  -0.950  -3.517  0.00  0.00     0.124 A 
ATOM      2  C1  UNL d   1      -0.795  -1.502  -3.474  0.00  0.00     0.062 A 
ATOM      3  C2  UNL d   1      -1.052  -2.718  -4.100  0.00  0.00     0.162 A 
ATOM      4  C3  UNL d   1      -0.033  -3.392  -4.773  0.00  0.00    -0.034 A 
ATOM      5  C4  UNL d   1       1.244  -2.830  -4.813  0.00  0.00     0.162 A 
ATOM      6  C5  UNL d   1       1.496  -1.615  -4.186  0.00  0.00     0.062 A 
ATOM      7  F   UNL d   1       2.726  -1.083  -4.228  0.00  0.00    -0.097 F 
ATOM      8  F1  UNL d   1       2.247  -3.452  -5.451  0.00  0.00    -0.096 F 
ATOM      9  I   UNL d   1      -0.413  -5.211  -5.711  0.00  0.00    -0.060 I 
ATOM     10  F2  UNL d   1      -2.291  -3.228  -4.043  0.00  0.00    -0.096 F 
ATOM     11  F3  UNL d   1      -1.781  -0.861  -2.829  0.00  0.00    -0.097 F 
ATOM     12  F4  UNL d   1       0.722   0.221  -2.914  0.00  0.00    -0.092 F 
ENDROOT
TORSDOF 0
ENDMDL
