MODEL 1
REMARK minimizedAffinity 7.58857059
REMARK minimizedRMSD -1
REMARK  2 active torsions:
REMARK  status: ('A' for Active; 'I' for Inactive)
REMARK    1  A    between atoms: C2'_3  and  C1'_4 
REMARK    2  A    between atoms: C1'_4  and  C1_5 
ROOT
ATOM      1  C1  I4B d   1      -3.757  -0.917   1.419  0.00  0.00    -0.075 A 
ATOM      2  C2  I4B d   1      -2.878  -1.851   0.930  0.00  0.00     0.003 A 
ATOM      3  C3  I4B d   1      -3.284  -2.748  -0.087  0.00  0.00     0.002 A 
ATOM      4  C4  I4B d   1      -4.584  -2.710  -0.548  0.00  0.00    -0.004 A 
ATOM      5  C5  I4B d   1      -5.467  -1.747  -0.067  0.00  0.00     0.002 A 
ATOM      6  C6  I4B d   1      -5.048  -0.837   0.914  0.00  0.00     0.003 A 
ENDROOT
BRANCH   1   7
ATOM      7  C1' I4B d   1      -3.304  -0.007   2.517  0.00  0.00     0.060 C 
BRANCH   7   8
ATOM      8  C2' I4B d   1      -3.012   1.349   1.908  0.00  0.00    -0.013 C 
ATOM      9  C4' I4B d   1      -2.717   2.373   2.973  0.00  0.00     0.013 C 
ATOM     10  C3' I4B d   1      -1.854   1.195   0.969  0.00  0.00     0.013 C 
ENDBRANCH   7   8
ENDBRANCH   1   7
TORSDOF 2
ENDMDL
