MODEL 1
REMARK minimizedAffinity 13.1113377
REMARK minimizedRMSD -1
REMARK  2 active torsions:
REMARK  status: ('A' for Active; 'I' for Inactive)
REMARK    1  A    between atoms: C2'_3  and  C1'_4 
REMARK    2  A    between atoms: C1'_4  and  C1_5 
ROOT
ATOM      1  C1  I4B d   1      -3.175  -3.634  -4.512  0.00  0.00    -0.075 A 
ATOM      2  C2  I4B d   1      -2.640  -4.780  -5.045  0.00  0.00     0.003 A 
ATOM      3  C3  I4B d   1      -3.445  -5.647  -5.823  0.00  0.00     0.002 A 
ATOM      4  C4  I4B d   1      -4.783  -5.357  -5.999  0.00  0.00    -0.004 A 
ATOM      5  C5  I4B d   1      -5.317  -4.183  -5.477  0.00  0.00     0.002 A 
ATOM      6  C6  I4B d   1      -4.506  -3.309  -4.739  0.00  0.00     0.003 A 
ENDROOT
BRANCH   1   7
ATOM      7  C1' I4B d   1      -2.304  -2.757  -3.668  0.00  0.00     0.060 C 
BRANCH   7   8
ATOM      8  C2' I4B d   1      -1.278  -3.638  -2.985  0.00  0.00    -0.013 C 
ATOM      9  C4' I4B d   1       0.123  -3.246  -3.374  0.00  0.00     0.013 C 
ATOM     10  C3' I4B d   1      -1.482  -3.521  -1.503  0.00  0.00     0.013 C 
ENDBRANCH   7   8
ENDBRANCH   1   7
TORSDOF 2
ENDMDL
