MODEL 1
REMARK minimizedAffinity 3.96992874
REMARK minimizedRMSD -1
REMARK  2 active torsions:
REMARK  status: ('A' for Active; 'I' for Inactive)
REMARK    1  A    between atoms: C2'_3  and  C1'_4 
REMARK    2  A    between atoms: C1'_4  and  C1_5 
ROOT
ATOM      1  C1  I4B d   1      -4.182  -0.486   1.188  0.00  0.00    -0.075 A 
ATOM      2  C2  I4B d   1      -5.136  -0.935   0.308  0.00  0.00     0.003 A 
ATOM      3  C3  I4B d   1      -4.958  -2.165  -0.369  0.00  0.00     0.002 A 
ATOM      4  C4  I4B d   1      -3.797  -2.885  -0.177  0.00  0.00    -0.004 A 
ATOM      5  C5  I4B d   1      -2.842  -2.440   0.732  0.00  0.00     0.002 A 
ATOM      6  C6  I4B d   1      -3.041  -1.239   1.428  0.00  0.00     0.003 A 
ENDROOT
BRANCH   1   7
ATOM      7  C1' I4B d   1      -4.387   0.834   1.861  0.00  0.00     0.060 C 
BRANCH   7   8
ATOM      8  C2' I4B d   1      -3.030   1.359   2.283  0.00  0.00    -0.013 C 
ATOM      9  C4' I4B d   1      -2.275   1.925   1.109  0.00  0.00     0.013 C 
ATOM     10  C3' I4B d   1      -3.244   2.399   3.342  0.00  0.00     0.013 C 
ENDBRANCH   7   8
ENDBRANCH   1   7
TORSDOF 2
ENDMDL
