MODEL 1
REMARK minimizedAffinity -0.421285123
REMARK minimizedRMSD -1
REMARK  2 active torsions:
REMARK  status: ('A' for Active; 'I' for Inactive)
REMARK    1  A    between atoms: C2'_3  and  C1'_4 
REMARK    2  A    between atoms: C1'_4  and  C1_5 
ROOT
ATOM      1  C1  I4B d   1      -3.344   1.415  -5.292  0.00  0.00    -0.075 A 
ATOM      2  C2  I4B d   1      -2.349   0.480  -5.427  0.00  0.00     0.003 A 
ATOM      3  C3  I4B d   1      -2.664  -0.846  -5.810  0.00  0.00     0.002 A 
ATOM      4  C4  I4B d   1      -3.983  -1.204  -5.997  0.00  0.00    -0.004 A 
ATOM      5  C5  I4B d   1      -4.989  -0.249  -5.882  0.00  0.00     0.002 A 
ATOM      6  C6  I4B d   1      -4.667   1.072  -5.539  0.00  0.00     0.003 A 
ENDROOT
BRANCH   1   7
ATOM      7  C1' I4B d   1      -2.979   2.798  -4.854  0.00  0.00     0.060 C 
BRANCH   7   8
ATOM      8  C2' I4B d   1      -3.280   3.745  -5.999  0.00  0.00    -0.013 C 
ATOM      9  C4' I4B d   1      -4.728   4.157  -6.000  0.00  0.00     0.013 C 
ATOM     10  C3' I4B d   1      -2.378   4.935  -5.864  0.00  0.00     0.013 C 
ENDBRANCH   7   8
ENDBRANCH   1   7
TORSDOF 2
ENDMDL
