MODEL 1
REMARK minimizedAffinity -2.67961073
REMARK minimizedRMSD -1
REMARK  2 active torsions:
REMARK  status: ('A' for Active; 'I' for Inactive)
REMARK    1  A    between atoms: C2'_3  and  C1'_4 
REMARK    2  A    between atoms: C1'_4  and  C1_5 
ROOT
ATOM      1  C1  I4B d   1      -4.947   0.359  -5.704  0.00  0.00    -0.075 A 
ATOM      2  C2  I4B d   1      -3.731   0.927  -5.996  0.00  0.00     0.003 A 
ATOM      3  C3  I4B d   1      -3.545   2.323  -5.855  0.00  0.00     0.002 A 
ATOM      4  C4  I4B d   1      -4.607   3.116  -5.469  0.00  0.00    -0.004 A 
ATOM      5  C5  I4B d   1      -5.832   2.536  -5.152  0.00  0.00     0.002 A 
ATOM      6  C6  I4B d   1      -6.000   1.147  -5.258  0.00  0.00     0.003 A 
ENDROOT
BRANCH   1   7
ATOM      7  C1' I4B d   1      -5.118  -1.114  -5.896  0.00  0.00     0.060 C 
BRANCH   7   8
ATOM      8  C2' I4B d   1      -3.793  -1.782  -5.593  0.00  0.00    -0.013 C 
ATOM      9  C4' I4B d   1      -3.438  -1.653  -4.135  0.00  0.00     0.013 C 
ATOM     10  C3' I4B d   1      -3.896  -3.222  -6.000  0.00  0.00     0.013 C 
ENDBRANCH   7   8
ENDBRANCH   1   7
TORSDOF 2
ENDMDL
