MODEL 1
REMARK minimizedAffinity -2.22810626
REMARK minimizedRMSD -1
REMARK  2 active torsions:
REMARK  status: ('A' for Active; 'I' for Inactive)
REMARK    1  A    between atoms: C2'_3  and  C1'_4 
REMARK    2  A    between atoms: C1'_4  and  C1_5 
ROOT
ATOM      1  C1  I4B d   1      -2.961  -3.297  -5.714  0.00  0.00    -0.075 A 
ATOM      2  C2  I4B d   1      -4.281  -2.939  -5.831  0.00  0.00     0.003 A 
ATOM      3  C3  I4B d   1      -4.638  -1.579  -6.000  0.00  0.00     0.002 A 
ATOM      4  C4  I4B d   1      -3.653  -0.612  -5.997  0.00  0.00    -0.004 A 
ATOM      5  C5  I4B d   1      -2.314  -0.979  -5.901  0.00  0.00     0.002 A 
ATOM      6  C6  I4B d   1      -1.964  -2.331  -5.771  0.00  0.00     0.003 A 
ENDROOT
BRANCH   1   7
ATOM      7  C1' I4B d   1      -2.621  -4.738  -5.503  0.00  0.00     0.060 C 
BRANCH   7   8
ATOM      8  C2' I4B d   1      -1.186  -4.815  -5.025  0.00  0.00    -0.013 C 
ATOM      9  C4' I4B d   1      -1.105  -5.383  -3.633  0.00  0.00     0.013 C 
ATOM     10  C3' I4B d   1      -0.417  -5.656  -5.999  0.00  0.00     0.013 C 
ENDBRANCH   7   8
ENDBRANCH   1   7
TORSDOF 2
ENDMDL
