MODEL 1
REMARK minimizedAffinity 7.20672274
REMARK minimizedRMSD -1
REMARK  2 active torsions:
REMARK  status: ('A' for Active; 'I' for Inactive)
REMARK    1  A    between atoms: C2'_3  and  C1'_4 
REMARK    2  A    between atoms: C1'_4  and  C1_5 
ROOT
ATOM      1  C1  I4B d   1      -3.655   1.669   2.129  0.00  0.00    -0.075 A 
ATOM      2  C2  I4B d   1      -2.484   2.369   1.979  0.00  0.00     0.003 A 
ATOM      3  C3  I4B d   1      -1.961   3.123   3.058  0.00  0.00     0.002 A 
ATOM      4  C4  I4B d   1      -2.664   3.190   4.244  0.00  0.00    -0.004 A 
ATOM      5  C5  I4B d   1      -3.839   2.461   4.401  0.00  0.00     0.002 A 
ATOM      6  C6  I4B d   1      -4.332   1.686   3.341  0.00  0.00     0.003 A 
ENDROOT
BRANCH   1   7
ATOM      7  C1' I4B d   1      -4.195   0.909   0.959  0.00  0.00     0.060 C 
BRANCH   7   8
ATOM      8  C2' I4B d   1      -4.684  -0.434   1.460  0.00  0.00    -0.013 C 
ATOM      9  C4' I4B d   1      -5.998  -0.301   2.185  0.00  0.00     0.013 C 
ATOM     10  C3' I4B d   1      -4.808  -1.351   0.280  0.00  0.00     0.013 C 
ENDBRANCH   7   8
ENDBRANCH   1   7
TORSDOF 2
ENDMDL
