MODEL 1
REMARK minimizedAffinity -2.94184852
REMARK minimizedRMSD -1
REMARK  2 active torsions:
REMARK  status: ('A' for Active; 'I' for Inactive)
REMARK    1  A    between atoms: C2'_3  and  C1'_4 
REMARK    2  A    between atoms: C1'_4  and  C1_5 
ROOT
ATOM      1  C1  I4B d   1      -3.689   1.170  -5.862  0.00  0.00    -0.075 A 
ATOM      2  C2  I4B d   1      -4.820   1.935  -5.999  0.00  0.00     0.003 A 
ATOM      3  C3  I4B d   1      -4.750   3.343  -5.865  0.00  0.00     0.002 A 
ATOM      4  C4  I4B d   1      -3.545   3.936  -5.546  0.00  0.00    -0.004 A 
ATOM      5  C5  I4B d   1      -2.394   3.161  -5.431  0.00  0.00     0.002 A 
ATOM      6  C6  I4B d   1      -2.464   1.771  -5.602  0.00  0.00     0.003 A 
ENDROOT
BRANCH   1   7
ATOM      7  C1' I4B d   1      -3.805  -0.317  -5.977  0.00  0.00     0.060 C 
BRANCH   7   8
ATOM      8  C2' I4B d   1      -5.277  -0.675  -5.920  0.00  0.00    -0.013 C 
ATOM      9  C4' I4B d   1      -5.478  -2.166  -5.997  0.00  0.00     0.013 C 
ATOM     10  C3' I4B d   1      -5.840  -0.117  -4.647  0.00  0.00     0.013 C 
ENDBRANCH   7   8
ENDBRANCH   1   7
TORSDOF 2
ENDMDL
