MODEL 1
REMARK minimizedAffinity -3.00108194
REMARK minimizedRMSD -1
REMARK  2 active torsions:
REMARK  status: ('A' for Active; 'I' for Inactive)
REMARK    1  A    between atoms: C2'_3  and  C1'_4 
REMARK    2  A    between atoms: C1'_4  and  C1_5 
ROOT
ATOM      1  C1  I4B d   1      -3.178   0.731  -5.706  0.00  0.00    -0.075 A 
ATOM      2  C2  I4B d   1      -2.318   1.665  -5.185  0.00  0.00     0.003 A 
ATOM      3  C3  I4B d   1      -2.768   2.982  -4.925  0.00  0.00     0.002 A 
ATOM      4  C4  I4B d   1      -4.063   3.333  -5.246  0.00  0.00    -0.004 A 
ATOM      5  C5  I4B d   1      -4.941   2.379  -5.753  0.00  0.00     0.002 A 
ATOM      6  C6  I4B d   1      -4.499   1.066  -5.973  0.00  0.00     0.003 A 
ENDROOT
BRANCH   1   7
ATOM      7  C1' I4B d   1      -2.660  -0.641  -5.999  0.00  0.00     0.060 C 
BRANCH   7   8
ATOM      8  C2' I4B d   1      -3.651  -1.643  -5.441  0.00  0.00    -0.013 C 
ATOM      9  C4' I4B d   1      -5.031  -1.413  -5.999  0.00  0.00     0.013 C 
ATOM     10  C3' I4B d   1      -3.155  -3.019  -5.773  0.00  0.00     0.013 C 
ENDBRANCH   7   8
ENDBRANCH   1   7
TORSDOF 2
ENDMDL
