MODEL 1
REMARK minimizedAffinity -2.0500977
REMARK minimizedRMSD -1
REMARK  2 active torsions:
REMARK  status: ('A' for Active; 'I' for Inactive)
REMARK    1  A    between atoms: C2'_3  and  C1'_4 
REMARK    2  A    between atoms: C1'_4  and  C1_5 
ROOT
ATOM      1  C1  I4B d   1      -3.950   1.143  -5.547  0.00  0.00    -0.075 A 
ATOM      2  C2  I4B d   1      -2.974   2.058  -5.241  0.00  0.00     0.003 A 
ATOM      3  C3  I4B d   1      -3.254   3.445  -5.297  0.00  0.00     0.002 A 
ATOM      4  C4  I4B d   1      -4.500   3.871  -5.710  0.00  0.00    -0.004 A 
ATOM      5  C5  I4B d   1      -5.495   2.942  -5.999  0.00  0.00     0.002 A 
ATOM      6  C6  I4B d   1      -5.223   1.569  -5.905  0.00  0.00     0.003 A 
ENDROOT
BRANCH   1   7
ATOM      7  C1' I4B d   1      -3.611  -0.313  -5.510  0.00  0.00     0.060 C 
BRANCH   7   8
ATOM      8  C2' I4B d   1      -4.831  -1.089  -5.963  0.00  0.00    -0.013 C 
ATOM      9  C4' I4B d   1      -4.554  -2.569  -5.998  0.00  0.00     0.013 C 
ATOM     10  C3' I4B d   1      -5.957  -0.770  -5.026  0.00  0.00     0.013 C 
ENDBRANCH   7   8
ENDBRANCH   1   7
TORSDOF 2
ENDMDL
