MODEL 1
REMARK minimizedAffinity 0.554965973
REMARK minimizedRMSD -1
REMARK  2 active torsions:
REMARK  status: ('A' for Active; 'I' for Inactive)
REMARK    1  A    between atoms: C2'_3  and  C1'_4 
REMARK    2  A    between atoms: C1'_4  and  C1_5 
ROOT
ATOM      1  C1  I4B d   1      -4.791   1.290  -5.694  0.00  0.00    -0.075 A 
ATOM      2  C2  I4B d   1      -5.805   0.365  -5.678  0.00  0.00     0.003 A 
ATOM      3  C3  I4B d   1      -5.514  -1.014  -5.805  0.00  0.00     0.002 A 
ATOM      4  C4  I4B d   1      -4.208  -1.418  -5.997  0.00  0.00    -0.004 A 
ATOM      5  C5  I4B d   1      -3.179  -0.481  -5.990  0.00  0.00     0.002 A 
ATOM      6  C6  I4B d   1      -3.471   0.881  -5.826  0.00  0.00     0.003 A 
ENDROOT
BRANCH   1   7
ATOM      7  C1' I4B d   1      -5.138   2.742  -5.590  0.00  0.00     0.060 C 
BRANCH   7   8
ATOM      8  C2' I4B d   1      -3.900   3.543  -5.936  0.00  0.00    -0.013 C 
ATOM      9  C4' I4B d   1      -4.204   5.017  -5.998  0.00  0.00     0.013 C 
ATOM     10  C3' I4B d   1      -2.854   3.250  -4.902  0.00  0.00     0.013 C 
ENDBRANCH   7   8
ENDBRANCH   1   7
TORSDOF 2
ENDMDL
