MODEL 1
REMARK minimizedAffinity 0.0424848385
REMARK minimizedRMSD -1
REMARK  2 active torsions:
REMARK  status: ('A' for Active; 'I' for Inactive)
REMARK    1  A    between atoms: C2'_3  and  C1'_4 
REMARK    2  A    between atoms: C1'_4  and  C1_5 
ROOT
ATOM      1  C1  I4B d   1      -4.863   1.238  -5.818  0.00  0.00    -0.075 A 
ATOM      2  C2  I4B d   1      -3.615   0.672  -5.880  0.00  0.00     0.003 A 
ATOM      3  C3  I4B d   1      -3.474  -0.732  -5.998  0.00  0.00     0.002 A 
ATOM      4  C4  I4B d   1      -4.600  -1.530  -6.000  0.00  0.00    -0.004 A 
ATOM      5  C5  I4B d   1      -5.865  -0.953  -5.960  0.00  0.00     0.002 A 
ATOM      6  C6  I4B d   1      -5.999   0.441  -5.882  0.00  0.00     0.003 A 
ENDROOT
BRANCH   1   7
ATOM      7  C1' I4B d   1      -4.975   2.722  -5.661  0.00  0.00     0.060 C 
BRANCH   7   8
ATOM      8  C2' I4B d   1      -3.629   3.330  -5.998  0.00  0.00    -0.013 C 
ATOM      9  C4' I4B d   1      -3.676   4.833  -5.927  0.00  0.00     0.013 C 
ATOM     10  C3' I4B d   1      -2.617   2.774  -5.040  0.00  0.00     0.013 C 
ENDBRANCH   7   8
ENDBRANCH   1   7
TORSDOF 2
ENDMDL
