MODEL 1
REMARK minimizedAffinity 3.80205655
REMARK minimizedRMSD -1
REMARK  2 active torsions:
REMARK  status: ('A' for Active; 'I' for Inactive)
REMARK    1  A    between atoms: C2'_3  and  C1'_4 
REMARK    2  A    between atoms: C1'_4  and  C1_5 
ROOT
ATOM      1  C1  I4B d   1      -3.271   1.443  -5.992  0.00  0.00    -0.075 A 
ATOM      2  C2  I4B d   1      -4.602   1.777  -5.999  0.00  0.00     0.003 A 
ATOM      3  C3  I4B d   1      -4.996   3.137  -5.964  0.00  0.00     0.002 A 
ATOM      4  C4  I4B d   1      -4.033   4.121  -5.873  0.00  0.00    -0.004 A 
ATOM      5  C5  I4B d   1      -2.684   3.781  -5.890  0.00  0.00     0.002 A 
ATOM      6  C6  I4B d   1      -2.299   2.434  -5.962  0.00  0.00     0.003 A 
ENDROOT
BRANCH   1   7
ATOM      7  C1' I4B d   1      -2.891  -0.004  -5.997  0.00  0.00     0.060 C 
BRANCH   7   8
ATOM      8  C2' I4B d   1      -3.868  -0.746  -5.107  0.00  0.00    -0.013 C 
ATOM      9  C4' I4B d   1      -4.566   0.195  -4.161  0.00  0.00     0.013 C 
ATOM     10  C3' I4B d   1      -4.851  -1.455  -5.989  0.00  0.00     0.013 C 
ENDBRANCH   7   8
ENDBRANCH   1   7
TORSDOF 2
ENDMDL
