MODEL 1
REMARK minimizedAffinity -6.20956135
REMARK minimizedRMSD -1
REMARK  1 active torsions:
REMARK  status: ('A' for Active; 'I' for Inactive)
REMARK    1  A    between atoms: C1_2  and  C2_3 
ROOT
ATOM      1  C2  UNL d   1       0.968  -0.269  -1.081  0.00  0.00    -0.081 A 
ATOM      2  C3  UNL d   1       1.104   0.387   0.148  0.00  0.00     0.006 A 
ATOM      3  C4  UNL d   1       1.337   1.764   0.194  0.00  0.00     0.002 A 
ATOM      4  C5  UNL d   1       1.429   2.508  -0.987  0.00  0.00    -0.080 A 
ATOM      5  C6  UNL d   1       1.648   3.991  -0.952  0.00  0.00     0.076 C 
ATOM      6  C7  UNL d   1       1.310   1.849  -2.216  0.00  0.00     0.002 A 
ATOM      7  C8  UNL d   1       1.078   0.473  -2.262  0.00  0.00     0.006 A 
ENDROOT
BRANCH   1   8
ATOM      8  C1  UNL d   1       0.652  -1.742  -1.133  0.00  0.00     0.054 C 
ATOM      9  C   UNL d   1       1.398  -2.506  -0.048  0.00  0.00     0.018 C 
ENDBRANCH   1   8
TORSDOF 1
ENDMDL
