MODEL 1
REMARK minimizedAffinity 0.567709744
REMARK minimizedRMSD -1
REMARK  1 active torsions:
REMARK  status: ('A' for Active; 'I' for Inactive)
REMARK    1  A    between atoms: C1_2  and  C2_3 
ROOT
ATOM      1  C2  UNL d   1       1.864   3.412  -1.067  0.00  0.00    -0.081 A 
ATOM      2  C3  UNL d   1       1.544   3.167   0.274  0.00  0.00     0.006 A 
ATOM      3  C4  UNL d   1       1.229   1.875   0.702  0.00  0.00     0.002 A 
ATOM      4  C5  UNL d   1       1.235   0.807  -0.201  0.00  0.00    -0.080 A 
ATOM      5  C6  UNL d   1       0.928  -0.590   0.252  0.00  0.00     0.076 C 
ATOM      6  C7  UNL d   1       1.538   1.054  -1.544  0.00  0.00     0.002 A 
ATOM      7  C8  UNL d   1       1.852   2.346  -1.973  0.00  0.00     0.006 A 
ENDROOT
BRANCH   1   8
ATOM      8  C1  UNL d   1       2.267   4.792  -1.519  0.00  0.00     0.054 C 
ATOM      9  C   UNL d   1       2.878   5.592  -0.376  0.00  0.00     0.018 C 
ENDBRANCH   1   8
TORSDOF 1
ENDMDL
