MODEL 1
REMARK minimizedAffinity -2.85167193
REMARK minimizedRMSD -1
REMARK  1 active torsions:
REMARK  status: ('A' for Active; 'I' for Inactive)
REMARK    1  A    between atoms: C1_2  and  C2_3 
ROOT
ATOM      1  C2  UNL d   1       1.361   3.218  -1.204  0.00  0.00    -0.081 A 
ATOM      2  C3  UNL d   1       0.929   2.902   0.090  0.00  0.00     0.006 A 
ATOM      3  C4  UNL d   1       0.748   1.570   0.471  0.00  0.00     0.002 A 
ATOM      4  C5  UNL d   1       1.002   0.533  -0.432  0.00  0.00    -0.080 A 
ATOM      5  C6  UNL d   1       0.840  -0.902  -0.027  0.00  0.00     0.076 C 
ATOM      6  C7  UNL d   1       1.417   0.849  -1.731  0.00  0.00     0.002 A 
ATOM      7  C8  UNL d   1       1.598   2.180  -2.112  0.00  0.00     0.006 A 
ENDROOT
BRANCH   1   8
ATOM      8  C1  UNL d   1       1.620   4.649  -1.598  0.00  0.00     0.054 C 
ATOM      9  C   UNL d   1       1.685   5.556  -0.377  0.00  0.00     0.018 C 
ENDBRANCH   1   8
TORSDOF 1
ENDMDL
