MODEL 1
REMARK minimizedAffinity 3.31960821
REMARK minimizedRMSD -1
REMARK  1 active torsions:
REMARK  status: ('A' for Active; 'I' for Inactive)
REMARK    1  A    between atoms: C1_2  and  C2_3 
ROOT
ATOM      1  C2  UNL d   1       1.460  -0.164  -3.118  0.00  0.00    -0.081 A 
ATOM      2  C3  UNL d   1       1.487   1.213  -2.870  0.00  0.00     0.006 A 
ATOM      3  C4  UNL d   1       1.347   1.702  -1.569  0.00  0.00     0.002 A 
ATOM      4  C5  UNL d   1       1.184   0.821  -0.494  0.00  0.00    -0.080 A 
ATOM      5  C6  UNL d   1       1.062   1.331   0.911  0.00  0.00     0.076 C 
ATOM      6  C7  UNL d   1       1.139  -0.555  -0.744  0.00  0.00     0.002 A 
ATOM      7  C8  UNL d   1       1.279  -1.043  -2.044  0.00  0.00     0.006 A 
ENDROOT
BRANCH   1   8
ATOM      8  C1  UNL d   1       1.676  -0.697  -4.512  0.00  0.00     0.054 C 
ATOM      9  C   UNL d   1       2.376  -2.048  -4.485  0.00  0.00     0.018 C 
ENDBRANCH   1   8
TORSDOF 1
ENDMDL
