MODEL 1
REMARK minimizedAffinity -2.84608531
REMARK minimizedRMSD -1
REMARK  1 active torsions:
REMARK  status: ('A' for Active; 'I' for Inactive)
REMARK    1  A    between atoms: C1_2  and  C2_3 
ROOT
ATOM      1  C2  UNL d   1       1.219   0.507  -0.496  0.00  0.00    -0.081 A 
ATOM      2  C3  UNL d   1       1.381   1.010  -1.793  0.00  0.00     0.006 A 
ATOM      3  C4  UNL d   1       1.511   2.384  -2.009  0.00  0.00     0.002 A 
ATOM      4  C5  UNL d   1       1.488   3.276  -0.932  0.00  0.00    -0.080 A 
ATOM      5  C6  UNL d   1       1.657   4.751  -1.146  0.00  0.00     0.076 C 
ATOM      6  C7  UNL d   1       1.309   2.775   0.362  0.00  0.00     0.002 A 
ATOM      7  C8  UNL d   1       1.179   1.402   0.578  0.00  0.00     0.006 A 
ENDROOT
BRANCH   1   8
ATOM      8  C1  UNL d   1       1.144  -0.979  -0.255  0.00  0.00     0.054 C 
ATOM      9  C   UNL d   1       1.113  -1.752  -1.565  0.00  0.00     0.018 C 
ENDBRANCH   1   8
TORSDOF 1
ENDMDL
