MODEL 1
REMARK minimizedAffinity -1.70724797
REMARK minimizedRMSD -1
REMARK  1 active torsions:
REMARK  status: ('A' for Active; 'I' for Inactive)
REMARK    1  A    between atoms: C1_2  and  C2_3 
ROOT
ATOM      1  C2  UNL d   1       1.118   3.540  -0.440  0.00  0.00    -0.081 A 
ATOM      2  C3  UNL d   1       0.671   2.584   0.479  0.00  0.00     0.006 A 
ATOM      3  C4  UNL d   1       0.614   1.234   0.126  0.00  0.00     0.002 A 
ATOM      4  C5  UNL d   1       1.010   0.817  -1.150  0.00  0.00    -0.080 A 
ATOM      5  C6  UNL d   1       0.982  -0.633  -1.532  0.00  0.00     0.076 C 
ATOM      6  C7  UNL d   1       1.440   1.774  -2.074  0.00  0.00     0.002 A 
ATOM      7  C8  UNL d   1       1.497   3.124  -1.721  0.00  0.00     0.006 A 
ENDROOT
BRANCH   1   8
ATOM      8  C1  UNL d   1       1.242   4.989  -0.041  0.00  0.00     0.054 C 
ATOM      9  C   UNL d   1       1.882   5.815  -1.147  0.00  0.00     0.018 C 
ENDBRANCH   1   8
TORSDOF 1
ENDMDL
