MODEL 1
REMARK minimizedAffinity -2.63850212
REMARK minimizedRMSD -1
REMARK  1 active torsions:
REMARK  status: ('A' for Active; 'I' for Inactive)
REMARK    1  A    between atoms: C1_2  and  C2_3 
ROOT
ATOM      1  C2  UNL d   1       1.164   0.851  -0.578  0.00  0.00    -0.081 A 
ATOM      2  C3  UNL d   1       1.334   1.366  -1.869  0.00  0.00     0.006 A 
ATOM      3  C4  UNL d   1       1.471   2.741  -2.071  0.00  0.00     0.002 A 
ATOM      4  C5  UNL d   1       1.448   3.624  -0.986  0.00  0.00    -0.080 A 
ATOM      5  C6  UNL d   1       1.625   5.100  -1.186  0.00  0.00     0.076 C 
ATOM      6  C7  UNL d   1       1.261   3.112   0.302  0.00  0.00     0.002 A 
ATOM      7  C8  UNL d   1       1.123   1.737   0.505  0.00  0.00     0.006 A 
ENDROOT
BRANCH   1   8
ATOM      8  C1  UNL d   1       1.081  -0.636  -0.351  0.00  0.00     0.054 C 
ATOM      9  C   UNL d   1       0.732  -1.374  -1.636  0.00  0.00     0.018 C 
ENDBRANCH   1   8
TORSDOF 1
ENDMDL
