MODEL 1
REMARK minimizedAffinity 1.28236198
REMARK minimizedRMSD -1
REMARK  1 active torsions:
REMARK  status: ('A' for Active; 'I' for Inactive)
REMARK    1  A    between atoms: C1_2  and  C2_3 
ROOT
ATOM      1  C2  UNL d   1      -1.634  -4.129  -1.340  0.00  0.00    -0.081 A 
ATOM      2  C3  UNL d   1      -0.987  -5.021  -2.205  0.00  0.00     0.006 A 
ATOM      3  C4  UNL d   1      -1.156  -4.914  -3.587  0.00  0.00     0.002 A 
ATOM      4  C5  UNL d   1      -1.967  -3.910  -4.128  0.00  0.00    -0.080 A 
ATOM      5  C6  UNL d   1      -2.132  -3.766  -5.612  0.00  0.00     0.076 C 
ATOM      6  C7  UNL d   1      -2.626  -3.030  -3.263  0.00  0.00     0.002 A 
ATOM      7  C8  UNL d   1      -2.459  -3.137  -1.881  0.00  0.00     0.006 A 
ENDROOT
BRANCH   1   8
ATOM      8  C1  UNL d   1      -1.403  -4.201   0.148  0.00  0.00     0.054 C 
ATOM      9  C   UNL d   1       0.049  -3.906   0.497  0.00  0.00     0.018 C 
ENDBRANCH   1   8
TORSDOF 1
ENDMDL
