MODEL 1
REMARK minimizedAffinity 4.78718758
REMARK minimizedRMSD -1
REMARK  1 active torsions:
REMARK  status: ('A' for Active; 'I' for Inactive)
REMARK    1  A    between atoms: C1_2  and  C2_3 
ROOT
ATOM      1  C2  UNL d   1      -3.349   3.039   1.787  0.00  0.00    -0.081 A 
ATOM      2  C3  UNL d   1      -2.511   3.907   2.497  0.00  0.00     0.006 A 
ATOM      3  C4  UNL d   1      -2.200   3.654   3.836  0.00  0.00     0.002 A 
ATOM      4  C5  UNL d   1      -2.716   2.527   4.483  0.00  0.00    -0.080 A 
ATOM      5  C6  UNL d   1      -2.366   2.228   5.911  0.00  0.00     0.076 C 
ATOM      6  C7  UNL d   1      -3.568   1.669   3.779  0.00  0.00     0.002 A 
ATOM      7  C8  UNL d   1      -3.879   1.921   2.441  0.00  0.00     0.006 A 
ENDROOT
BRANCH   1   8
ATOM      8  C1  UNL d   1      -3.634   3.274   0.325  0.00  0.00     0.054 C 
ATOM      9  C   UNL d   1      -2.553   2.662  -0.554  0.00  0.00     0.018 C 
ENDBRANCH   1   8
TORSDOF 1
ENDMDL
