MODEL 1
REMARK minimizedAffinity 2.17797256
REMARK minimizedRMSD -1
REMARK  1 active torsions:
REMARK  status: ('A' for Active; 'I' for Inactive)
REMARK    1  A    between atoms: C1_2  and  C2_3 
ROOT
ATOM      1  C2  UNL d   1       1.482   1.684  -1.126  0.00  0.00    -0.081 A 
ATOM      2  C3  UNL d   1       1.727   2.366  -2.325  0.00  0.00     0.006 A 
ATOM      3  C4  UNL d   1       1.724   3.762  -2.359  0.00  0.00     0.002 A 
ATOM      4  C5  UNL d   1       1.485   4.500  -1.194  0.00  0.00    -0.080 A 
ATOM      5  C6  UNL d   1       1.509   6.000  -1.211  0.00  0.00     0.076 C 
ATOM      6  C7  UNL d   1       1.223   3.820  -0.001  0.00  0.00     0.002 A 
ATOM      7  C8  UNL d   1       1.225   2.423   0.034  0.00  0.00     0.006 A 
ENDROOT
BRANCH   1   8
ATOM      8  C1  UNL d   1       1.548   0.179  -1.073  0.00  0.00     0.054 C 
ATOM      9  C   UNL d   1       2.617  -0.293  -0.097  0.00  0.00     0.018 C 
ENDBRANCH   1   8
TORSDOF 1
ENDMDL
