MODEL 1
REMARK minimizedAffinity -2.84028506
REMARK minimizedRMSD -1
REMARK  1 active torsions:
REMARK  status: ('A' for Active; 'I' for Inactive)
REMARK    1  A    between atoms: C1_2  and  C2_3 
ROOT
ATOM      1  C2  UNL d   1       1.147  -1.163  -0.562  0.00  0.00    -0.081 A 
ATOM      2  C3  UNL d   1       1.783  -0.321   0.359  0.00  0.00     0.006 A 
ATOM      3  C4  UNL d   1       1.902   1.047   0.102  0.00  0.00     0.002 A 
ATOM      4  C5  UNL d   1       1.382   1.596  -1.074  0.00  0.00    -0.080 A 
ATOM      5  C6  UNL d   1       1.477   3.068  -1.348  0.00  0.00     0.076 C 
ATOM      6  C7  UNL d   1       0.762   0.752  -2.002  0.00  0.00     0.002 A 
ATOM      7  C8  UNL d   1       0.643  -0.615  -1.747  0.00  0.00     0.006 A 
ENDROOT
BRANCH   1   8
ATOM      8  C1  UNL d   1       0.960  -2.628  -0.259  0.00  0.00     0.054 C 
ATOM      9  C   UNL d   1      -0.193  -3.216  -1.060  0.00  0.00     0.018 C 
ENDBRANCH   1   8
TORSDOF 1
ENDMDL
