MODEL 1
REMARK minimizedAffinity -5.79918051
REMARK minimizedRMSD -1
REMARK  1 active torsions:
REMARK  status: ('A' for Active; 'I' for Inactive)
REMARK    1  A    between atoms: C1_2  and  C2_3 
ROOT
ATOM      1  C2  UNL d   1       1.416   4.114  -0.448  0.00  0.00    -0.081 A 
ATOM      2  C3  UNL d   1       1.036   3.417   0.705  0.00  0.00     0.006 A 
ATOM      3  C4  UNL d   1       0.804   2.041   0.657  0.00  0.00     0.002 A 
ATOM      4  C5  UNL d   1       0.956   1.337  -0.542  0.00  0.00    -0.080 A 
ATOM      5  C6  UNL d   1       0.739  -0.146  -0.601  0.00  0.00     0.076 C 
ATOM      6  C7  UNL d   1       1.319   2.036  -1.699  0.00  0.00     0.002 A 
ATOM      7  C8  UNL d   1       1.550   3.412  -1.651  0.00  0.00     0.006 A 
ENDROOT
BRANCH   1   8
ATOM      8  C1  UNL d   1       1.730   5.587  -0.385  0.00  0.00     0.054 C 
ATOM      9  C   UNL d   1       2.673   6.000  -1.506  0.00  0.00     0.018 C 
ENDBRANCH   1   8
TORSDOF 1
ENDMDL
