MODEL 1
REMARK minimizedAffinity 2.36224818
REMARK minimizedRMSD -1
REMARK  0 active torsions:
REMARK  status: ('A' for Active; 'I' for Inactive)
ROOT
ATOM      1  C4' PXY d   1      -5.992  -1.020  -3.411  0.00  0.00     0.077 C 
ATOM      2  C1' PXY d   1      -3.796  -5.700  -5.999  0.00  0.00     0.077 C 
ATOM      3  C1  PXY d   1      -4.361  -4.466  -5.322  0.00  0.00    -0.082 A 
ATOM      4  C2  PXY d   1      -5.386  -4.586  -4.495  0.00  0.00     0.003 A 
ATOM      5  C3  PXY d   1      -5.930  -3.477  -3.899  0.00  0.00     0.003 A 
ATOM      6  C4  PXY d   1      -5.384  -2.239  -4.110  0.00  0.00    -0.082 A 
ATOM      7  C5  PXY d   1      -4.330  -2.111  -4.944  0.00  0.00     0.003 A 
ATOM      8  C6  PXY d   1      -3.819  -3.243  -5.571  0.00  0.00     0.003 A 
ENDROOT
TORSDOF 0
ENDMDL
