MODEL 1
REMARK minimizedAffinity 14.5310268
REMARK minimizedRMSD -1
REMARK  0 active torsions:
REMARK  status: ('A' for Active; 'I' for Inactive)
ROOT
ATOM      1  C4' PXY d   1       3.373   1.773   0.341  0.00  0.00     0.077 C 
ATOM      2  C1' PXY d   1       5.990  -1.496   4.326  0.00  0.00     0.077 C 
ATOM      3  C1  PXY d   1       5.292  -0.645   3.283  0.00  0.00    -0.082 A 
ATOM      4  C2  PXY d   1       6.000  -0.087   2.314  0.00  0.00     0.003 A 
ATOM      5  C3  PXY d   1       5.390   0.712   1.382  0.00  0.00     0.003 A 
ATOM      6  C4  PXY d   1       4.033   0.898   1.410  0.00  0.00    -0.082 A 
ATOM      7  C5  PXY d   1       3.303   0.323   2.389  0.00  0.00     0.003 A 
ATOM      8  C6  PXY d   1       3.947  -0.450   3.350  0.00  0.00     0.003 A 
ENDROOT
TORSDOF 0
ENDMDL
