MODEL 1
REMARK minimizedAffinity 0.308422267
REMARK minimizedRMSD -1
REMARK  0 active torsions:
REMARK  status: ('A' for Active; 'I' for Inactive)
ROOT
ATOM      1  C4' PXY d   1       5.250  -0.592   3.185  0.00  0.00     0.077 C 
ATOM      2  C1' PXY d   1       6.000  -5.585   5.999  0.00  0.00     0.077 C 
ATOM      3  C1  PXY d   1       5.801  -4.270   5.272  0.00  0.00    -0.082 A 
ATOM      4  C2  PXY d   1       5.443  -4.274   3.999  0.00  0.00     0.003 A 
ATOM      5  C3  PXY d   1       5.290  -3.094   3.318  0.00  0.00     0.003 A 
ATOM      6  C4  PXY d   1       5.453  -1.896   3.961  0.00  0.00    -0.082 A 
ATOM      7  C5  PXY d   1       5.808  -1.884   5.264  0.00  0.00     0.003 A 
ATOM      8  C6  PXY d   1       5.998  -3.093   5.926  0.00  0.00     0.003 A 
ENDROOT
TORSDOF 0
ENDMDL
