MODEL 1
REMARK minimizedAffinity -1.54526675
REMARK minimizedRMSD -1
REMARK  0 active torsions:
REMARK  status: ('A' for Active; 'I' for Inactive)
ROOT
ATOM      1  C4' PXY d   1       4.884   0.391   1.888  0.00  0.00     0.077 C 
ATOM      2  C1' PXY d   1      -0.789  -0.053   2.902  0.00  0.00     0.077 C 
ATOM      3  C1  PXY d   1       0.696   0.071   2.626  0.00  0.00    -0.082 A 
ATOM      4  C2  PXY d   1       1.529  -0.840   3.104  0.00  0.00     0.003 A 
ATOM      5  C3  PXY d   1       2.878  -0.726   2.891  0.00  0.00     0.003 A 
ATOM      6  C4  PXY d   1       3.376   0.301   2.135  0.00  0.00    -0.082 A 
ATOM      7  C5  PXY d   1       2.532   1.228   1.634  0.00  0.00     0.003 A 
ATOM      8  C6  PXY d   1       1.170   1.117   1.897  0.00  0.00     0.003 A 
ENDROOT
TORSDOF 0
ENDMDL
