MODEL 1
REMARK minimizedAffinity 0.170311853
REMARK minimizedRMSD -1
REMARK  0 active torsions:
REMARK  status: ('A' for Active; 'I' for Inactive)
ROOT
ATOM      1  C4' PXY d   1      -5.663  -5.989   1.548  0.00  0.00     0.077 C 
ATOM      2  C1' PXY d   1      -5.995  -1.253  -1.750  0.00  0.00     0.077 C 
ATOM      3  C1  PXY d   1      -5.912  -2.502  -0.896  0.00  0.00    -0.082 A 
ATOM      4  C2  PXY d   1      -5.994  -2.401   0.421  0.00  0.00     0.003 A 
ATOM      5  C3  PXY d   1      -5.889  -3.516   1.211  0.00  0.00     0.003 A 
ATOM      6  C4  PXY d   1      -5.751  -4.755   0.645  0.00  0.00    -0.082 A 
ATOM      7  C5  PXY d   1      -5.677  -4.869  -0.698  0.00  0.00     0.003 A 
ATOM      8  C6  PXY d   1      -5.744  -3.719  -1.480  0.00  0.00     0.003 A 
ENDROOT
TORSDOF 0
ENDMDL
