MODEL 1
REMARK minimizedAffinity 9.22141933
REMARK minimizedRMSD -1
REMARK  0 active torsions:
REMARK  status: ('A' for Active; 'I' for Inactive)
ROOT
ATOM      1  C4' PXY d   1      -6.000  -0.467  -3.225  0.00  0.00     0.077 C 
ATOM      2  C1' PXY d   1      -5.960  -6.000  -1.551  0.00  0.00     0.077 C 
ATOM      3  C1  PXY d   1      -5.965  -4.552  -2.002  0.00  0.00    -0.082 A 
ATOM      4  C2  PXY d   1      -5.955  -3.586  -1.098  0.00  0.00     0.003 A 
ATOM      5  C3  PXY d   1      -5.992  -2.271  -1.487  0.00  0.00     0.003 A 
ATOM      6  C4  PXY d   1      -5.986  -1.942  -2.816  0.00  0.00    -0.082 A 
ATOM      7  C5  PXY d   1      -5.985  -2.922  -3.744  0.00  0.00     0.003 A 
ATOM      8  C6  PXY d   1      -5.989  -4.251  -3.328  0.00  0.00     0.003 A 
ENDROOT
TORSDOF 0
ENDMDL
