MODEL 1
REMARK minimizedAffinity 12.887805
REMARK minimizedRMSD -1
REMARK  0 active torsions:
REMARK  status: ('A' for Active; 'I' for Inactive)
ROOT
ATOM      1  C4' PXY d   1      -4.042  -6.000  -6.000  0.00  0.00     0.077 C 
ATOM      2  C1' PXY d   1      -5.998  -1.661  -2.719  0.00  0.00     0.077 C 
ATOM      3  C1  PXY d   1      -5.488  -2.807  -3.569  0.00  0.00    -0.082 A 
ATOM      4  C2  PXY d   1      -4.635  -2.564  -4.552  0.00  0.00     0.003 A 
ATOM      5  C3  PXY d   1      -4.188  -3.584  -5.351  0.00  0.00     0.003 A 
ATOM      6  C4  PXY d   1      -4.577  -4.875  -5.109  0.00  0.00    -0.082 A 
ATOM      7  C5  PXY d   1      -5.438  -5.133  -4.102  0.00  0.00     0.003 A 
ATOM      8  C6  PXY d   1      -5.912  -4.078  -3.328  0.00  0.00     0.003 A 
ENDROOT
TORSDOF 0
ENDMDL
