MODEL 1
REMARK minimizedAffinity 2.24058485
REMARK minimizedRMSD -1
REMARK  0 active torsions:
REMARK  status: ('A' for Active; 'I' for Inactive)
ROOT
ATOM      1  C4' PXY d   1       0.371   4.717  -5.391  0.00  0.00     0.077 C 
ATOM      2  C1' PXY d   1       5.999   3.418  -5.142  0.00  0.00     0.077 C 
ATOM      3  C1  PXY d   1       4.522   3.752  -5.218  0.00  0.00    -0.082 A 
ATOM      4  C2  PXY d   1       4.062   4.830  -4.604  0.00  0.00     0.003 A 
ATOM      5  C3  PXY d   1       2.724   5.129  -4.636  0.00  0.00     0.003 A 
ATOM      6  C4  PXY d   1       1.856   4.346  -5.348  0.00  0.00    -0.082 A 
ATOM      7  C5  PXY d   1       2.319   3.251  -5.987  0.00  0.00     0.003 A 
ATOM      8  C6  PXY d   1       3.674   2.941  -5.908  0.00  0.00     0.003 A 
ENDROOT
TORSDOF 0
ENDMDL
