MODEL 1
REMARK minimizedAffinity 12.0278969
REMARK minimizedRMSD -1
REMARK  0 active torsions:
REMARK  status: ('A' for Active; 'I' for Inactive)
ROOT
ATOM      1  C4' PXY d   1      -1.857  -2.754  -5.994  0.00  0.00     0.077 C 
ATOM      2  C1' PXY d   1       1.572   0.175  -2.378  0.00  0.00     0.077 C 
ATOM      3  C1  PXY d   1       0.667  -0.582  -3.329  0.00  0.00    -0.082 A 
ATOM      4  C2  PXY d   1       0.509  -1.888  -3.182  0.00  0.00     0.003 A 
ATOM      5  C3  PXY d   1      -0.281  -2.593  -4.052  0.00  0.00     0.003 A 
ATOM      6  C4  PXY d   1      -0.959  -1.947  -5.051  0.00  0.00    -0.082 A 
ATOM      7  C5  PXY d   1      -0.812  -0.614  -5.201  0.00  0.00     0.003 A 
ATOM      8  C6  PXY d   1       0.027   0.077  -4.333  0.00  0.00     0.003 A 
ENDROOT
TORSDOF 0
ENDMDL
