MODEL 1
REMARK minimizedAffinity 13.5452356
REMARK minimizedRMSD -1
REMARK  0 active torsions:
REMARK  status: ('A' for Active; 'I' for Inactive)
ROOT
ATOM      1  C4' PXY d   1      -1.816   0.956   1.644  0.00  0.00     0.077 C 
ATOM      2  C1' PXY d   1      -3.000  -4.697   1.403  0.00  0.00     0.077 C 
ATOM      3  C1  PXY d   1      -2.676  -3.217   1.465  0.00  0.00    -0.082 A 
ATOM      4  C2  PXY d   1      -3.540  -2.381   2.019  0.00  0.00     0.003 A 
ATOM      5  C3  PXY d   1      -3.278  -1.036   2.055  0.00  0.00     0.003 A 
ATOM      6  C4  PXY d   1      -2.096  -0.547   1.567  0.00  0.00    -0.082 A 
ATOM      7  C5  PXY d   1      -1.205  -1.394   1.010  0.00  0.00     0.003 A 
ATOM      8  C6  PXY d   1      -1.508  -2.751   0.946  0.00  0.00     0.003 A 
ENDROOT
TORSDOF 0
ENDMDL
