MODEL 1
REMARK minimizedAffinity 12.8070898
REMARK minimizedRMSD -1
REMARK  0 active torsions:
REMARK  status: ('A' for Active; 'I' for Inactive)
ROOT
ATOM      1  C4' PXY d   1      -5.521  -3.223  -1.940  0.00  0.00     0.077 C 
ATOM      2  C1' PXY d   1      -3.133  -6.000   2.533  0.00  0.00     0.077 C 
ATOM      3  C1  PXY d   1      -3.754  -5.280   1.351  0.00  0.00    -0.082 A 
ATOM      4  C2  PXY d   1      -4.121  -4.015   1.476  0.00  0.00     0.003 A 
ATOM      5  C3  PXY d   1      -4.713  -3.359   0.428  0.00  0.00     0.003 A 
ATOM      6  C4  PXY d   1      -4.882  -3.987  -0.777  0.00  0.00    -0.082 A 
ATOM      7  C5  PXY d   1      -4.500  -5.274  -0.915  0.00  0.00     0.003 A 
ATOM      8  C6  PXY d   1      -3.939  -5.936   0.174  0.00  0.00     0.003 A 
ENDROOT
TORSDOF 0
ENDMDL
