MODEL 1
REMARK minimizedAffinity 8.74511051
REMARK minimizedRMSD -1
REMARK  0 active torsions:
REMARK  status: ('A' for Active; 'I' for Inactive)
ROOT
ATOM      1  C4' PXY d   1       1.591  -0.720  -3.736  0.00  0.00     0.077 C 
ATOM      2  C1' PXY d   1       2.741   2.811   0.694  0.00  0.00     0.077 C 
ATOM      3  C1  PXY d   1       2.450   1.889  -0.474  0.00  0.00    -0.082 A 
ATOM      4  C2  PXY d   1       1.208   1.498  -0.704  0.00  0.00     0.003 A 
ATOM      5  C3  PXY d   1       0.931   0.639  -1.737  0.00  0.00     0.003 A 
ATOM      6  C4  PXY d   1       1.929   0.218  -2.574  0.00  0.00    -0.082 A 
ATOM      7  C5  PXY d   1       3.198   0.622  -2.352  0.00  0.00     0.003 A 
ATOM      8  C6  PXY d   1       3.464   1.461  -1.274  0.00  0.00     0.003 A 
ENDROOT
TORSDOF 0
ENDMDL
