MODEL 1
REMARK minimizedAffinity 7.15444088
REMARK minimizedRMSD -1
REMARK  0 active torsions:
REMARK  status: ('A' for Active; 'I' for Inactive)
ROOT
ATOM      1  C4' PXY d   1      -2.441  -0.975   4.856  0.00  0.00     0.077 C 
ATOM      2  C1' PXY d   1       2.897   0.227   2.992  0.00  0.00     0.077 C 
ATOM      3  C1  PXY d   1       1.494  -0.076   3.481  0.00  0.00    -0.082 A 
ATOM      4  C2  PXY d   1       1.238  -1.242   4.051  0.00  0.00     0.003 A 
ATOM      5  C3  PXY d   1      -0.032  -1.545   4.471  0.00  0.00     0.003 A 
ATOM      6  C4  PXY d   1      -1.038  -0.623   4.355  0.00  0.00    -0.082 A 
ATOM      7  C5  PXY d   1      -0.782   0.573   3.784  0.00  0.00     0.003 A 
ATOM      8  C6  PXY d   1       0.505   0.845   3.327  0.00  0.00     0.003 A 
ENDROOT
TORSDOF 0
ENDMDL
