MODEL 1
REMARK minimizedAffinity 11.4240818
REMARK minimizedRMSD -1
REMARK  0 active torsions:
REMARK  status: ('A' for Active; 'I' for Inactive)
ROOT
ATOM      1  C4' PXY d   1      -0.889   0.485   1.083  0.00  0.00     0.077 C 
ATOM      2  C1' PXY d   1       1.604  -1.017  -3.911  0.00  0.00     0.077 C 
ATOM      3  C1  PXY d   1       0.957  -0.612  -2.601  0.00  0.00    -0.082 A 
ATOM      4  C2  PXY d   1       0.463  -1.542  -1.801  0.00  0.00     0.003 A 
ATOM      5  C3  PXY d   1      -0.154  -1.192  -0.628  0.00  0.00     0.003 A 
ATOM      6  C4  PXY d   1      -0.219   0.121  -0.245  0.00  0.00    -0.082 A 
ATOM      7  C5  PXY d   1       0.293   1.076  -1.051  0.00  0.00     0.003 A 
ATOM      8  C6  PXY d   1       0.878   0.702  -2.257  0.00  0.00     0.003 A 
ENDROOT
TORSDOF 0
ENDMDL
