MODEL 1
REMARK minimizedAffinity 4.92990065
REMARK minimizedRMSD -1
REMARK  0 active torsions:
REMARK  status: ('A' for Active; 'I' for Inactive)
ROOT
ATOM      1  C4' PXY d   1      -0.717  -1.197  -4.870  0.00  0.00     0.077 C 
ATOM      2  C1' PXY d   1       1.679   2.011  -0.701  0.00  0.00     0.077 C 
ATOM      3  C1  PXY d   1       1.062   1.163  -1.796  0.00  0.00    -0.082 A 
ATOM      4  C2  PXY d   1       0.023   1.624  -2.473  0.00  0.00     0.003 A 
ATOM      5  C3  PXY d   1      -0.567   0.858  -3.445  0.00  0.00     0.003 A 
ATOM      6  C4  PXY d   1      -0.056  -0.372  -3.763  0.00  0.00    -0.082 A 
ATOM      7  C5  PXY d   1       1.010  -0.845  -3.084  0.00  0.00     0.003 A 
ATOM      8  C6  PXY d   1       1.569  -0.069  -2.073  0.00  0.00     0.003 A 
ENDROOT
TORSDOF 0
ENDMDL
