MODEL 1
REMARK minimizedAffinity 12.949441
REMARK minimizedRMSD -1
REMARK  0 active torsions:
REMARK  status: ('A' for Active; 'I' for Inactive)
ROOT
ATOM      1  C4' PXY d   1      -5.086  -0.285  -2.776  0.00  0.00     0.077 C 
ATOM      2  C1' PXY d   1      -5.961  -5.999  -2.790  0.00  0.00     0.077 C 
ATOM      3  C1  PXY d   1      -5.732  -4.500  -2.774  0.00  0.00    -0.082 A 
ATOM      4  C2  PXY d   1      -5.997  -3.786  -3.856  0.00  0.00     0.003 A 
ATOM      5  C3  PXY d   1      -5.767  -2.434  -3.868  0.00  0.00     0.003 A 
ATOM      6  C4  PXY d   1      -5.310  -1.799  -2.745  0.00  0.00    -0.082 A 
ATOM      7  C5  PXY d   1      -5.048  -2.519  -1.633  0.00  0.00     0.003 A 
ATOM      8  C6  PXY d   1      -5.249  -3.896  -1.654  0.00  0.00     0.003 A 
ENDROOT
TORSDOF 0
ENDMDL
