MODEL 1
REMARK minimizedAffinity 17.2528095
REMARK minimizedRMSD -1
REMARK  0 active torsions:
REMARK  status: ('A' for Active; 'I' for Inactive)
ROOT
ATOM      1  C4' PXY d   1      -1.156  -4.688  -5.973  0.00  0.00     0.077 C 
ATOM      2  C1' PXY d   1      -2.667   0.892  -5.999  0.00  0.00     0.077 C 
ATOM      3  C1  PXY d   1      -2.259  -0.568  -5.997  0.00  0.00    -0.082 A 
ATOM      4  C2  PXY d   1      -3.191  -1.508  -5.999  0.00  0.00     0.003 A 
ATOM      5  C3  PXY d   1      -2.840  -2.833  -5.966  0.00  0.00     0.003 A 
ATOM      6  C4  PXY d   1      -1.521  -3.201  -5.984  0.00  0.00    -0.082 A 
ATOM      7  C5  PXY d   1      -0.565  -2.249  -5.993  0.00  0.00     0.003 A 
ATOM      8  C6  PXY d   1      -0.942  -0.909  -5.985  0.00  0.00     0.003 A 
ENDROOT
TORSDOF 0
ENDMDL
