MODEL 1
REMARK minimizedAffinity 8.62897778
REMARK minimizedRMSD -1
REMARK  0 active torsions:
REMARK  status: ('A' for Active; 'I' for Inactive)
ROOT
ATOM      1  C4' PXY d   1       1.114  -1.776  -3.146  0.00  0.00     0.077 C 
ATOM      2  C1' PXY d   1       2.202   3.339  -0.683  0.00  0.00     0.077 C 
ATOM      3  C1  PXY d   1       1.923   2.002  -1.339  0.00  0.00    -0.082 A 
ATOM      4  C2  PXY d   1       0.891   1.278  -0.937  0.00  0.00     0.003 A 
ATOM      5  C3  PXY d   1       0.643   0.052  -1.498  0.00  0.00     0.003 A 
ATOM      6  C4  PXY d   1       1.428  -0.415  -2.518  0.00  0.00    -0.082 A 
ATOM      7  C5  PXY d   1       2.477   0.322  -2.941  0.00  0.00     0.003 A 
ATOM      8  C6  PXY d   1       2.736   1.545  -2.330  0.00  0.00     0.003 A 
ENDROOT
TORSDOF 0
ENDMDL
