MODEL 1
REMARK minimizedAffinity 8.440835
REMARK minimizedRMSD -1
REMARK  0 active torsions:
REMARK  status: ('A' for Active; 'I' for Inactive)
ROOT
ATOM      1  C4' PXY d   1       2.201   3.278  -0.663  0.00  0.00     0.077 C 
ATOM      2  C1' PXY d   1       1.114  -1.561  -3.634  0.00  0.00     0.077 C 
ATOM      3  C1  PXY d   1       1.412  -0.295  -2.855  0.00  0.00    -0.082 A 
ATOM      4  C2  PXY d   1       0.459   0.265  -2.127  0.00  0.00     0.003 A 
ATOM      5  C3  PXY d   1       0.702   1.427  -1.442  0.00  0.00     0.003 A 
ATOM      6  C4  PXY d   1       1.948   1.994  -1.459  0.00  0.00    -0.082 A 
ATOM      7  C5  PXY d   1       2.928   1.423  -2.190  0.00  0.00     0.003 A 
ATOM      8  C6  PXY d   1       2.650   0.266  -2.912  0.00  0.00     0.003 A 
ENDROOT
TORSDOF 0
ENDMDL
