MODEL 1
REMARK minimizedAffinity 11.7967176
REMARK minimizedRMSD -1
REMARK  0 active torsions:
REMARK  status: ('A' for Active; 'I' for Inactive)
ROOT
ATOM      1  C4' PXY d   1      -5.007  -0.456   1.504  0.00  0.00     0.077 C 
ATOM      2  C1' PXY d   1       0.336   1.340   2.787  0.00  0.00     0.077 C 
ATOM      3  C1  PXY d   1      -1.063   0.858   2.457  0.00  0.00    -0.082 A 
ATOM      4  C2  PXY d   1      -1.705   1.373   1.421  0.00  0.00     0.003 A 
ATOM      5  C3  PXY d   1      -2.983   0.972   1.127  0.00  0.00     0.003 A 
ATOM      6  C4  PXY d   1      -3.590  -0.006   1.869  0.00  0.00    -0.082 A 
ATOM      7  C5  PXY d   1      -2.937  -0.544   2.921  0.00  0.00     0.003 A 
ATOM      8  C6  PXY d   1      -1.657  -0.093   3.228  0.00  0.00     0.003 A 
ENDROOT
TORSDOF 0
ENDMDL
