MODEL 1
REMARK minimizedAffinity 3.80475998
REMARK minimizedRMSD -1
REMARK  0 active torsions:
REMARK  status: ('A' for Active; 'I' for Inactive)
ROOT
ATOM      1  O1  BZF d   1       1.020  -2.327   3.266  0.00  0.00    -0.204 OA
ATOM      2  C2  BZF d   1       1.404  -1.228   2.522  0.00  0.00     0.174 A 
ATOM      3  C3  BZF d   1       2.710  -0.952   2.714  0.00  0.00    -0.012 A 
ATOM      4  C3A BZF d   1       3.194  -1.995   3.565  0.00  0.00    -0.107 A 
ATOM      5  C4  BZF d   1       4.418  -2.281   4.097  0.00  0.00     0.055 A 
ATOM      6  C5  BZF d   1       4.540  -3.333   4.947  0.00  0.00    -0.016 A 
ATOM      7  C6  BZF d   1       3.459  -4.118   5.291  0.00  0.00     0.022 A 
ATOM      8  C7  BZF d   1       2.225  -3.877   4.785  0.00  0.00     0.029 A 
ATOM      9  C7A BZF d   1       2.105  -2.834   3.899  0.00  0.00     0.058 A 
ENDROOT
TORSDOF 0
ENDMDL
