MODEL 1
REMARK minimizedAffinity 16.056139
REMARK minimizedRMSD -1
REMARK  0 active torsions:
REMARK  status: ('A' for Active; 'I' for Inactive)
ROOT
ATOM      1  O1  BZF d   1       2.750  -1.412   3.101  0.00  0.00    -0.204 OA
ATOM      2  C2  BZF d   1       1.491  -1.461   2.533  0.00  0.00     0.174 A 
ATOM      3  C3  BZF d   1       0.876  -2.624   2.833  0.00  0.00    -0.012 A 
ATOM      4  C3A BZF d   1       1.773  -3.307   3.715  0.00  0.00    -0.107 A 
ATOM      5  C4  BZF d   1       1.717  -4.506   4.367  0.00  0.00     0.055 A 
ATOM      6  C5  BZF d   1       2.790  -4.913   5.093  0.00  0.00    -0.016 A 
ATOM      7  C6  BZF d   1       3.936  -4.150   5.186  0.00  0.00     0.022 A 
ATOM      8  C7  BZF d   1       4.037  -2.952   4.561  0.00  0.00     0.029 A 
ATOM      9  C7A BZF d   1       2.941  -2.523   3.852  0.00  0.00     0.058 A 
ENDROOT
TORSDOF 0
ENDMDL
