MODEL 1
REMARK minimizedAffinity 6.1281147
REMARK minimizedRMSD -1
REMARK  0 active torsions:
REMARK  status: ('A' for Active; 'I' for Inactive)
ROOT
ATOM      1  O1  BZF d   1       3.584  -0.544   2.560  0.00  0.00    -0.204 OA
ATOM      2  C2  BZF d   1       2.552  -0.010   1.813  0.00  0.00     0.174 A 
ATOM      3  C3  BZF d   1       1.476  -0.823   1.834  0.00  0.00    -0.012 A 
ATOM      4  C3A BZF d   1       1.828  -1.890   2.720  0.00  0.00    -0.107 A 
ATOM      5  C4  BZF d   1       1.167  -3.001   3.161  0.00  0.00     0.055 A 
ATOM      6  C5  BZF d   1       1.819  -3.882   3.964  0.00  0.00    -0.016 A 
ATOM      7  C6  BZF d   1       3.132  -3.687   4.341  0.00  0.00     0.022 A 
ATOM      8  C7  BZF d   1       3.827  -2.597   3.933  0.00  0.00     0.029 A 
ATOM      9  C7A BZF d   1       3.160  -1.688   3.148  0.00  0.00     0.058 A 
ENDROOT
TORSDOF 0
ENDMDL
