MODEL 1
REMARK minimizedAffinity 6.96628809
REMARK minimizedRMSD -1
REMARK  0 active torsions:
REMARK  status: ('A' for Active; 'I' for Inactive)
ROOT
ATOM      1  O1  BZF d   1      -1.117   0.189  -1.052  0.00  0.00    -0.204 OA
ATOM      2  C2  BZF d   1      -0.952   0.977   0.071  0.00  0.00     0.174 A 
ATOM      3  C3  BZF d   1      -0.685   0.219   1.153  0.00  0.00    -0.012 A 
ATOM      4  C3A BZF d   1      -0.592  -1.121   0.660  0.00  0.00    -0.107 A 
ATOM      5  C4  BZF d   1      -0.330  -2.324   1.253  0.00  0.00     0.055 A 
ATOM      6  C5  BZF d   1      -0.385  -3.455   0.502  0.00  0.00    -0.016 A 
ATOM      7  C6  BZF d   1      -0.702  -3.422  -0.840  0.00  0.00     0.022 A 
ATOM      8  C7  BZF d   1      -0.964  -2.253  -1.472  0.00  0.00     0.029 A 
ATOM      9  C7A BZF d   1      -0.878  -1.104  -0.724  0.00  0.00     0.058 A 
ENDROOT
TORSDOF 0
ENDMDL
