MODEL 1
REMARK minimizedAffinity -1.45534337
REMARK minimizedRMSD -1
REMARK  0 active torsions:
REMARK  status: ('A' for Active; 'I' for Inactive)
ROOT
ATOM      1  O1  BZF d   1       0.293   0.445   0.074  0.00  0.00    -0.204 OA
ATOM      2  C2  BZF d   1       0.922   1.638  -0.224  0.00  0.00     0.174 A 
ATOM      3  C3  BZF d   1       1.864   1.926   0.697  0.00  0.00    -0.012 A 
ATOM      4  C3A BZF d   1       1.885   0.800   1.579  0.00  0.00    -0.107 A 
ATOM      5  C4  BZF d   1       2.623   0.486   2.684  0.00  0.00     0.055 A 
ATOM      6  C5  BZF d   1       2.347  -0.660   3.359  0.00  0.00    -0.016 A 
ATOM      7  C6  BZF d   1       1.338  -1.512   2.961  0.00  0.00     0.022 A 
ATOM      8  C7  BZF d   1       0.582  -1.246   1.868  0.00  0.00     0.029 A 
ATOM      9  C7A BZF d   1       0.880  -0.105   1.164  0.00  0.00     0.058 A 
ENDROOT
TORSDOF 0
ENDMDL
