MODEL 1
REMARK minimizedAffinity -0.993170381
REMARK minimizedRMSD -1
REMARK  0 active torsions:
REMARK  status: ('A' for Active; 'I' for Inactive)
ROOT
ATOM      1  O1  BZF d   1       0.698  -1.846   2.520  0.00  0.00    -0.204 OA
ATOM      2  C2  BZF d   1       1.456  -1.940   3.671  0.00  0.00     0.174 A 
ATOM      3  C3  BZF d   1       2.361  -0.942   3.731  0.00  0.00    -0.012 A 
ATOM      4  C3A BZF d   1       2.093  -0.122   2.589  0.00  0.00    -0.107 A 
ATOM      5  C4  BZF d   1       2.647   1.030   2.109  0.00  0.00     0.055 A 
ATOM      6  C5  BZF d   1       2.203   1.535   0.929  0.00  0.00    -0.016 A 
ATOM      7  C6  BZF d   1       1.211   0.912   0.200  0.00  0.00     0.022 A 
ATOM      8  C7  BZF d   1       0.627  -0.230   0.638  0.00  0.00     0.029 A 
ATOM      9  C7A BZF d   1       1.051  -0.725   1.847  0.00  0.00     0.058 A 
ENDROOT
TORSDOF 0
ENDMDL
