MODEL 1
REMARK minimizedAffinity -0.680965006
REMARK minimizedRMSD -1
REMARK  0 active torsions:
REMARK  status: ('A' for Active; 'I' for Inactive)
ROOT
ATOM      1  O1  BZF d   1       2.807   0.051   5.787  0.00  0.00    -0.204 OA
ATOM      2  C2  BZF d   1       2.921  -1.319   5.650  0.00  0.00     0.174 A 
ATOM      3  C3  BZF d   1       2.943  -1.670   4.348  0.00  0.00    -0.012 A 
ATOM      4  C3A BZF d   1       2.929  -0.436   3.625  0.00  0.00    -0.107 A 
ATOM      5  C4  BZF d   1       2.954  -0.126   2.296  0.00  0.00     0.055 A 
ATOM      6  C5  BZF d   1       2.856   1.176   1.919  0.00  0.00    -0.016 A 
ATOM      7  C6  BZF d   1       2.726   2.192   2.843  0.00  0.00     0.022 A 
ATOM      8  C7  BZF d   1       2.701   1.934   4.173  0.00  0.00     0.029 A 
ATOM      9  C7A BZF d   1       2.834   0.622   4.559  0.00  0.00     0.058 A 
ENDROOT
TORSDOF 0
ENDMDL
