MODEL 1
REMARK minimizedAffinity 5.98470831
REMARK minimizedRMSD -1
REMARK  0 active torsions:
REMARK  status: ('A' for Active; 'I' for Inactive)
ROOT
ATOM      1  O1  BZF d   1       0.398  -0.774   0.997  0.00  0.00    -0.204 OA
ATOM      2  C2  BZF d   1      -0.425   0.229   0.522  0.00  0.00     0.174 A 
ATOM      3  C3  BZF d   1      -1.084  -0.176  -0.583  0.00  0.00    -0.012 A 
ATOM      4  C3A BZF d   1      -0.716  -1.547  -0.759  0.00  0.00    -0.107 A 
ATOM      5  C4  BZF d   1      -1.059  -2.501  -1.675  0.00  0.00     0.055 A 
ATOM      6  C5  BZF d   1      -0.466  -3.722  -1.610  0.00  0.00    -0.016 A 
ATOM      7  C6  BZF d   1       0.475  -4.022  -0.647  0.00  0.00     0.022 A 
ATOM      8  C7  BZF d   1       0.843  -3.110   0.286  0.00  0.00     0.029 A 
ATOM      9  C7A BZF d   1       0.222  -1.886   0.243  0.00  0.00     0.058 A 
ENDROOT
TORSDOF 0
ENDMDL
