MODEL 1
REMARK minimizedAffinity 1.50057876
REMARK minimizedRMSD -1
REMARK  0 active torsions:
REMARK  status: ('A' for Active; 'I' for Inactive)
ROOT
ATOM      1  O1  BZF d   1       0.553  -2.498   2.998  0.00  0.00    -0.204 OA
ATOM      2  C2  BZF d   1       1.321  -2.450   4.145  0.00  0.00     0.174 A 
ATOM      3  C3  BZF d   1       2.210  -1.437   4.084  0.00  0.00    -0.012 A 
ATOM      4  C3A BZF d   1       1.920  -0.756   2.860  0.00  0.00    -0.107 A 
ATOM      5  C4  BZF d   1       2.452   0.343   2.248  0.00  0.00     0.055 A 
ATOM      6  C5  BZF d   1       1.990   0.705   1.022  0.00  0.00    -0.016 A 
ATOM      7  C6  BZF d   1       1.003  -0.011   0.378  0.00  0.00     0.022 A 
ATOM      8  C7  BZF d   1       0.441  -1.105   0.947  0.00  0.00     0.029 A 
ATOM      9  C7A BZF d   1       0.882  -1.454   2.200  0.00  0.00     0.058 A 
ENDROOT
TORSDOF 0
ENDMDL
