MODEL 1
REMARK minimizedAffinity 13.6881657
REMARK minimizedRMSD -1
REMARK  3 active torsions:
REMARK  status: ('A' for Active; 'I' for Inactive)
REMARK    1  A    between atoms: C3'_2  and  C2'_3 
REMARK    2  A    between atoms: C2'_3  and  C1'_4 
REMARK    3  A    between atoms: C1'_4  and  C1_5 
ROOT
ATOM      1  C1  N4B d   1       3.111   1.407  -1.623  0.00  0.00    -0.075 A 
ATOM      2  C2  N4B d   1       4.125   1.629  -2.581  0.00  0.00     0.002 A 
ATOM      3  C3  N4B d   1       4.570   0.592  -3.363  0.00  0.00     0.002 A 
ATOM      4  C4  N4B d   1       4.031  -0.675  -3.193  0.00  0.00    -0.004 A 
ATOM      5  C5  N4B d   1       3.035  -0.876  -2.283  0.00  0.00     0.002 A 
ATOM      6  C6  N4B d   1       2.575   0.158  -1.493  0.00  0.00     0.002 A 
ENDROOT
BRANCH   1   7
ATOM      7  C1' N4B d   1       2.653   2.490  -0.686  0.00  0.00     0.057 C 
BRANCH   7   8
ATOM      8  C2' N4B d   1       3.698   2.680   0.410  0.00  0.00     0.009 C 
BRANCH   8   9
ATOM      9  C3' N4B d   1       4.882   3.501  -0.069  0.00  0.00     0.004 C 
ATOM     10  C4' N4B d   1       4.764   4.953   0.286  0.00  0.00     0.003 C 
ENDBRANCH   8   9
ENDBRANCH   7   8
ENDBRANCH   1   7
TORSDOF 3
ENDMDL
