MODEL 1
REMARK minimizedAffinity 7.19722509
REMARK minimizedRMSD -1
REMARK  3 active torsions:
REMARK  status: ('A' for Active; 'I' for Inactive)
REMARK    1  A    between atoms: C3'_2  and  C2'_3 
REMARK    2  A    between atoms: C2'_3  and  C1'_4 
REMARK    3  A    between atoms: C1'_4  and  C1_5 
ROOT
ATOM      1  C1  N4B d   1       3.865   2.150   2.034  0.00  0.00    -0.075 A 
ATOM      2  C2  N4B d   1       4.595   3.167   1.381  0.00  0.00     0.002 A 
ATOM      3  C3  N4B d   1       4.287   3.511   0.088  0.00  0.00     0.002 A 
ATOM      4  C4  N4B d   1       3.270   2.843  -0.576  0.00  0.00    -0.004 A 
ATOM      5  C5  N4B d   1       2.552   1.879   0.070  0.00  0.00     0.002 A 
ATOM      6  C6  N4B d   1       2.848   1.525   1.371  0.00  0.00     0.002 A 
ENDROOT
BRANCH   1   7
ATOM      7  C1' N4B d   1       4.221   1.679   3.418  0.00  0.00     0.057 C 
BRANCH   7   8
ATOM      8  C2' N4B d   1       3.768   2.723   4.434  0.00  0.00     0.009 C 
BRANCH   8   9
ATOM      9  C3' N4B d   1       4.944   3.407   5.109  0.00  0.00     0.004 C 
ATOM     10  C4' N4B d   1       4.536   4.604   5.915  0.00  0.00     0.003 C 
ENDBRANCH   8   9
ENDBRANCH   7   8
ENDBRANCH   1   7
TORSDOF 3
ENDMDL
