MODEL 1
REMARK minimizedAffinity 10.1887817
REMARK minimizedRMSD -1
REMARK  3 active torsions:
REMARK  status: ('A' for Active; 'I' for Inactive)
REMARK    1  A    between atoms: C3'_2  and  C2'_3 
REMARK    2  A    between atoms: C2'_3  and  C1'_4 
REMARK    3  A    between atoms: C1'_4  and  C1_5 
ROOT
ATOM      1  C1  N4B d   1       3.548   0.013  -2.501  0.00  0.00    -0.075 A 
ATOM      2  C2  N4B d   1       4.367  -1.137  -2.468  0.00  0.00     0.002 A 
ATOM      3  C3  N4B d   1       5.588  -1.128  -3.097  0.00  0.00     0.002 A 
ATOM      4  C4  N4B d   1       6.000   0.007  -3.779  0.00  0.00    -0.004 A 
ATOM      5  C5  N4B d   1       5.214   1.122  -3.784  0.00  0.00     0.002 A 
ATOM      6  C6  N4B d   1       3.986   1.129  -3.152  0.00  0.00     0.002 A 
ENDROOT
BRANCH   1   7
ATOM      7  C1' N4B d   1       2.169   0.022  -1.900  0.00  0.00     0.057 C 
BRANCH   7   8
ATOM      8  C2' N4B d   1       2.267   0.406  -0.426  0.00  0.00     0.009 C 
BRANCH   8   9
ATOM      9  C3' N4B d   1       2.223   1.911  -0.227  0.00  0.00     0.004 C 
ATOM     10  C4' N4B d   1       2.871   2.346   1.054  0.00  0.00     0.003 C 
ENDBRANCH   8   9
ENDBRANCH   7   8
ENDBRANCH   1   7
TORSDOF 3
ENDMDL
