MODEL 1
REMARK minimizedAffinity 6.38730764
REMARK minimizedRMSD -1
REMARK  3 active torsions:
REMARK  status: ('A' for Active; 'I' for Inactive)
REMARK    1  A    between atoms: C3'_2  and  C2'_3 
REMARK    2  A    between atoms: C2'_3  and  C1'_4 
REMARK    3  A    between atoms: C1'_4  and  C1_5 
ROOT
ATOM      1  C1  N4B d   1      -4.284   3.705   0.468  0.00  0.00    -0.075 A 
ATOM      2  C2  N4B d   1      -4.083   4.739  -0.472  0.00  0.00     0.002 A 
ATOM      3  C3  N4B d   1      -4.845   5.880  -0.411  0.00  0.00     0.002 A 
ATOM      4  C4  N4B d   1      -5.823   6.000   0.564  0.00  0.00    -0.004 A 
ATOM      5  C5  N4B d   1      -5.994   5.007   1.484  0.00  0.00     0.002 A 
ATOM      6  C6  N4B d   1      -5.232   3.857   1.438  0.00  0.00     0.002 A 
ENDROOT
BRANCH   1   7
ATOM      7  C1' N4B d   1      -3.534   2.403   0.389  0.00  0.00     0.057 C 
BRANCH   7   8
ATOM      8  C2' N4B d   1      -4.125   1.551  -0.730  0.00  0.00     0.009 C 
BRANCH   8   9
ATOM      9  C3' N4B d   1      -3.365   0.249  -0.915  0.00  0.00     0.004 C 
ATOM     10  C4' N4B d   1      -3.039  -0.034  -2.351  0.00  0.00     0.003 C 
ENDBRANCH   8   9
ENDBRANCH   7   8
ENDBRANCH   1   7
TORSDOF 3
ENDMDL
