MODEL 1
REMARK minimizedAffinity 12.7276211
REMARK minimizedRMSD -1
REMARK  3 active torsions:
REMARK  status: ('A' for Active; 'I' for Inactive)
REMARK    1  A    between atoms: C3'_2  and  C2'_3 
REMARK    2  A    between atoms: C2'_3  and  C1'_4 
REMARK    3  A    between atoms: C1'_4  and  C1_5 
ROOT
ATOM      1  C1  N4B d   1      -2.105  -2.512   1.853  0.00  0.00    -0.075 A 
ATOM      2  C2  N4B d   1      -2.490  -1.390   1.086  0.00  0.00     0.002 A 
ATOM      3  C3  N4B d   1      -1.927  -1.176  -0.148  0.00  0.00     0.002 A 
ATOM      4  C4  N4B d   1      -0.967  -2.055  -0.626  0.00  0.00    -0.004 A 
ATOM      5  C5  N4B d   1      -0.619  -3.150   0.110  0.00  0.00     0.002 A 
ATOM      6  C6  N4B d   1      -1.180  -3.380   1.350  0.00  0.00     0.002 A 
ENDROOT
BRANCH   1   7
ATOM      7  C1' N4B d   1      -2.629  -2.741   3.244  0.00  0.00     0.057 C 
BRANCH   7   8
ATOM      8  C2' N4B d   1      -1.835  -1.885   4.226  0.00  0.00     0.009 C 
BRANCH   8   9
ATOM      9  C3' N4B d   1      -0.688  -2.657   4.855  0.00  0.00     0.004 C 
ATOM     10  C4' N4B d   1       0.030  -1.873   5.912  0.00  0.00     0.003 C 
ENDBRANCH   8   9
ENDBRANCH   7   8
ENDBRANCH   1   7
TORSDOF 3
ENDMDL
