MODEL 1
REMARK minimizedAffinity 10.1558495
REMARK minimizedRMSD -1
REMARK  3 active torsions:
REMARK  status: ('A' for Active; 'I' for Inactive)
REMARK    1  A    between atoms: C3'_2  and  C2'_3 
REMARK    2  A    between atoms: C2'_3  and  C1'_4 
REMARK    3  A    between atoms: C1'_4  and  C1_5 
ROOT
ATOM      1  C1  N4B d   1      -0.319  -0.382  -1.489  0.00  0.00    -0.075 A 
ATOM      2  C2  N4B d   1       0.768   0.317  -0.918  0.00  0.00     0.002 A 
ATOM      3  C3  N4B d   1       1.911   0.524  -1.651  0.00  0.00     0.002 A 
ATOM      4  C4  N4B d   1       1.997   0.027  -2.943  0.00  0.00    -0.004 A 
ATOM      5  C5  N4B d   1       0.934  -0.624  -3.495  0.00  0.00     0.002 A 
ATOM      6  C6  N4B d   1      -0.223  -0.836  -2.773  0.00  0.00     0.002 A 
ENDROOT
BRANCH   1   7
ATOM      7  C1' N4B d   1      -1.557  -0.707  -0.698  0.00  0.00     0.057 C 
BRANCH   7   8
ATOM      8  C2' N4B d   1      -1.902  -2.181  -0.892  0.00  0.00     0.009 C 
BRANCH   8   9
ATOM      9  C3' N4B d   1      -0.768  -3.092  -0.452  0.00  0.00     0.004 C 
ATOM     10  C4' N4B d   1      -0.658  -4.329  -1.293  0.00  0.00     0.003 C 
ENDBRANCH   8   9
ENDBRANCH   7   8
ENDBRANCH   1   7
TORSDOF 3
ENDMDL
