MODEL 1
REMARK minimizedAffinity 16.5499363
REMARK minimizedRMSD -1
REMARK  3 active torsions:
REMARK  status: ('A' for Active; 'I' for Inactive)
REMARK    1  A    between atoms: C3'_2  and  C2'_3 
REMARK    2  A    between atoms: C2'_3  and  C1'_4 
REMARK    3  A    between atoms: C1'_4  and  C1_5 
ROOT
ATOM      1  C1  N4B d   1      -4.045   3.891  -4.898  0.00  0.00    -0.075 A 
ATOM      2  C2  N4B d   1      -5.115   3.890  -5.821  0.00  0.00     0.002 A 
ATOM      3  C3  N4B d   1      -5.996   4.942  -5.852  0.00  0.00     0.002 A 
ATOM      4  C4  N4B d   1      -5.841   5.994  -4.961  0.00  0.00    -0.004 A 
ATOM      5  C5  N4B d   1      -4.791   6.000  -4.090  0.00  0.00     0.002 A 
ATOM      6  C6  N4B d   1      -3.894   4.951  -4.050  0.00  0.00     0.002 A 
ENDROOT
BRANCH   1   7
ATOM      7  C1' N4B d   1      -3.107   2.723  -4.768  0.00  0.00     0.057 C 
BRANCH   7   8
ATOM      8  C2' N4B d   1      -1.811   3.193  -4.114  0.00  0.00     0.009 C 
BRANCH   8   9
ATOM      9  C3' N4B d   1      -0.650   2.262  -4.420  0.00  0.00     0.004 C 
ATOM     10  C4' N4B d   1       0.684   2.878  -4.118  0.00  0.00     0.003 C 
ENDBRANCH   8   9
ENDBRANCH   7   8
ENDBRANCH   1   7
TORSDOF 3
ENDMDL
