MODEL 1
REMARK minimizedAffinity 22.0784512
REMARK minimizedRMSD -1
REMARK  3 active torsions:
REMARK  status: ('A' for Active; 'I' for Inactive)
REMARK    1  A    between atoms: C3'_2  and  C2'_3 
REMARK    2  A    between atoms: C2'_3  and  C1'_4 
REMARK    3  A    between atoms: C1'_4  and  C1_5 
ROOT
ATOM      1  C1  N4B d   1       3.844   3.102   0.323  0.00  0.00    -0.075 A 
ATOM      2  C2  N4B d   1       4.381   3.865  -0.737  0.00  0.00     0.002 A 
ATOM      3  C3  N4B d   1       4.954   5.086  -0.482  0.00  0.00     0.002 A 
ATOM      4  C4  N4B d   1       4.984   5.573   0.816  0.00  0.00    -0.004 A 
ATOM      5  C5  N4B d   1       4.486   4.819   1.838  0.00  0.00     0.002 A 
ATOM      6  C6  N4B d   1       3.911   3.587   1.597  0.00  0.00     0.002 A 
ENDROOT
BRANCH   1   7
ATOM      7  C1' N4B d   1       3.131   1.800   0.082  0.00  0.00     0.057 C 
BRANCH   7   8
ATOM      8  C2' N4B d   1       2.808   1.672  -1.403  0.00  0.00     0.009 C 
BRANCH   8   9
ATOM      9  C3' N4B d   1       2.343   0.272  -1.766  0.00  0.00     0.004 C 
ATOM     10  C4' N4B d   1       3.175  -0.356  -2.844  0.00  0.00     0.003 C 
ENDBRANCH   8   9
ENDBRANCH   7   8
ENDBRANCH   1   7
TORSDOF 3
ENDMDL
