MODEL 1
REMARK minimizedAffinity 6.65152359
REMARK minimizedRMSD -1
REMARK  3 active torsions:
REMARK  status: ('A' for Active; 'I' for Inactive)
REMARK    1  A    between atoms: C3'_2  and  C2'_3 
REMARK    2  A    between atoms: C2'_3  and  C1'_4 
REMARK    3  A    between atoms: C1'_4  and  C1_5 
ROOT
ATOM      1  C1  N4B d   1      -0.938  -1.170  -1.795  0.00  0.00    -0.075 A 
ATOM      2  C2  N4B d   1      -0.514  -2.411  -1.269  0.00  0.00     0.002 A 
ATOM      3  C3  N4B d   1      -1.223  -3.004  -0.254  0.00  0.00     0.002 A 
ATOM      4  C4  N4B d   1      -2.343  -2.369   0.263  0.00  0.00    -0.004 A 
ATOM      5  C5  N4B d   1      -2.760  -1.183  -0.267  0.00  0.00     0.002 A 
ATOM      6  C6  N4B d   1      -2.059  -0.578  -1.291  0.00  0.00     0.002 A 
ENDROOT
BRANCH   1   7
ATOM      7  C1' N4B d   1      -0.146  -0.442  -2.847  0.00  0.00     0.057 C 
BRANCH   7   8
ATOM      8  C2' N4B d   1       1.296  -0.940  -2.823  0.00  0.00     0.009 C 
BRANCH   8   9
ATOM      9  C3' N4B d   1       2.160  -0.131  -1.871  0.00  0.00     0.004 C 
ATOM     10  C4' N4B d   1       1.816   1.329  -1.872  0.00  0.00     0.003 C 
ENDBRANCH   8   9
ENDBRANCH   7   8
ENDBRANCH   1   7
TORSDOF 3
ENDMDL
