MODEL 1
REMARK minimizedAffinity 19.8370132
REMARK minimizedRMSD -1
REMARK  3 active torsions:
REMARK  status: ('A' for Active; 'I' for Inactive)
REMARK    1  A    between atoms: C3'_2  and  C2'_3 
REMARK    2  A    between atoms: C2'_3  and  C1'_4 
REMARK    3  A    between atoms: C1'_4  and  C1_5 
ROOT
ATOM      1  C1  N4B d   1       3.179   2.226   3.254  0.00  0.00    -0.075 A 
ATOM      2  C2  N4B d   1       3.541   1.019   3.892  0.00  0.00     0.002 A 
ATOM      3  C3  N4B d   1       3.692   0.982   5.256  0.00  0.00     0.002 A 
ATOM      4  C4  N4B d   1       3.505   2.139   5.999  0.00  0.00    -0.004 A 
ATOM      5  C5  N4B d   1       3.131   3.294   5.378  0.00  0.00     0.002 A 
ATOM      6  C6  N4B d   1       2.972   3.345   4.007  0.00  0.00     0.002 A 
ENDROOT
BRANCH   1   7
ATOM      7  C1' N4B d   1       3.087   2.336   1.757  0.00  0.00     0.057 C 
BRANCH   7   8
ATOM      8  C2' N4B d   1       4.298   3.102   1.235  0.00  0.00     0.009 C 
BRANCH   8   9
ATOM      9  C3' N4B d   1       4.096   3.583  -0.192  0.00  0.00     0.004 C 
ATOM     10  C4' N4B d   1       4.928   4.786  -0.523  0.00  0.00     0.003 C 
ENDBRANCH   8   9
ENDBRANCH   7   8
ENDBRANCH   1   7
TORSDOF 3
ENDMDL
