MODEL 1
REMARK minimizedAffinity 3.12719917
REMARK minimizedRMSD -1
REMARK  1 active torsions:
REMARK  status: ('A' for Active; 'I' for Inactive)
REMARK    1  A    between atoms: C1_2  and  C2_3 
ROOT
ATOM      1  C2  UNL d   1      -0.163   1.332  -0.728  0.00  0.00    -0.076 A 
ATOM      2  C3  UNL d   1       0.792   2.284  -0.330  0.00  0.00     0.004 A 
ATOM      3  C4  UNL d   1       0.563   3.647  -0.509  0.00  0.00    -0.003 A 
ATOM      4  C5  UNL d   1      -0.624   4.081  -1.088  0.00  0.00     0.000 A 
ATOM      5  C6  UNL d   1      -1.590   3.151  -1.472  0.00  0.00     0.000 A 
ATOM      6  C7  UNL d   1      -1.382   1.774  -1.284  0.00  0.00    -0.073 A 
ATOM      7  C8  UNL d   1      -2.455   0.815  -1.723  0.00  0.00     0.078 C 
ENDROOT
BRANCH   1   8
ATOM      8  C1  UNL d   1       0.152  -0.134  -0.534  0.00  0.00     0.053 C 
ATOM      9  C   UNL d   1       1.611  -0.374  -0.175  0.00  0.00     0.018 C 
ENDBRANCH   1   8
TORSDOF 1
ENDMDL
