MODEL 1
REMARK minimizedAffinity 1.75212884
REMARK minimizedRMSD -1
REMARK  1 active torsions:
REMARK  status: ('A' for Active; 'I' for Inactive)
REMARK    1  A    between atoms: C1_2  and  C2_3 
ROOT
ATOM      1  C2  UNL d   1       1.962  -4.598  -1.460  0.00  0.00    -0.076 A 
ATOM      2  C3  UNL d   1       2.133  -3.712  -0.382  0.00  0.00     0.004 A 
ATOM      3  C4  UNL d   1       3.404  -3.300   0.014  0.00  0.00    -0.003 A 
ATOM      4  C5  UNL d   1       4.526  -3.767  -0.662  0.00  0.00     0.000 A 
ATOM      5  C6  UNL d   1       4.374  -4.633  -1.745  0.00  0.00     0.000 A 
ATOM      6  C7  UNL d   1       3.099  -5.045  -2.167  0.00  0.00    -0.073 A 
ATOM      7  C8  UNL d   1       2.994  -5.985  -3.337  0.00  0.00     0.078 C 
ENDROOT
BRANCH   1   8
ATOM      8  C1  UNL d   1       0.561  -5.031  -1.827  0.00  0.00     0.053 C 
ATOM      9  C   UNL d   1      -0.484  -3.983  -1.476  0.00  0.00     0.018 C 
ENDBRANCH   1   8
TORSDOF 1
ENDMDL
