MODEL 1
REMARK minimizedAffinity 9.55174065
REMARK minimizedRMSD -1
REMARK  1 active torsions:
REMARK  status: ('A' for Active; 'I' for Inactive)
REMARK    1  A    between atoms: C1_2  and  C2_3 
ROOT
ATOM      1  C2  UNL d   1       4.659  -3.648   0.348  0.00  0.00    -0.076 A 
ATOM      2  C3  UNL d   1       3.675  -3.725   1.349  0.00  0.00     0.004 A 
ATOM      3  C4  UNL d   1       3.025  -2.580   1.807  0.00  0.00    -0.003 A 
ATOM      4  C5  UNL d   1       3.349  -1.339   1.271  0.00  0.00     0.000 A 
ATOM      5  C6  UNL d   1       4.310  -1.245   0.265  0.00  0.00     0.000 A 
ATOM      6  C7  UNL d   1       4.963  -2.392  -0.219  0.00  0.00    -0.073 A 
ATOM      7  C8  UNL d   1       5.995  -2.232  -1.301  0.00  0.00     0.078 C 
ENDROOT
BRANCH   1   8
ATOM      8  C1  UNL d   1       5.349  -4.920  -0.089  0.00  0.00     0.053 C 
ATOM      9  C   UNL d   1       5.750  -5.799   1.085  0.00  0.00     0.018 C 
ENDBRANCH   1   8
TORSDOF 1
ENDMDL
