MODEL 1
REMARK minimizedAffinity 10.6842308
REMARK minimizedRMSD -1
REMARK  1 active torsions:
REMARK  status: ('A' for Active; 'I' for Inactive)
REMARK    1  A    between atoms: C1_2  and  C2_3 
ROOT
ATOM      1  C2  UNL d   1       0.485   0.488   4.050  0.00  0.00    -0.076 A 
ATOM      2  C3  UNL d   1      -0.774   1.089   4.225  0.00  0.00     0.004 A 
ATOM      3  C4  UNL d   1      -1.133   2.224   3.500  0.00  0.00    -0.003 A 
ATOM      4  C5  UNL d   1      -0.240   2.776   2.589  0.00  0.00     0.000 A 
ATOM      5  C6  UNL d   1       1.006   2.183   2.390  0.00  0.00     0.000 A 
ATOM      6  C7  UNL d   1       1.378   1.028   3.101  0.00  0.00    -0.073 A 
ATOM      7  C8  UNL d   1       2.737   0.434   2.851  0.00  0.00     0.078 C 
ENDROOT
BRANCH   1   8
ATOM      8  C1  UNL d   1       0.830  -0.726   4.884  0.00  0.00     0.053 C 
ATOM      9  C   UNL d   1      -0.365  -1.257   5.661  0.00  0.00     0.018 C 
ENDBRANCH   1   8
TORSDOF 1
ENDMDL
