MODEL 1
REMARK minimizedAffinity 6.55494833
REMARK minimizedRMSD -1
REMARK  1 active torsions:
REMARK  status: ('A' for Active; 'I' for Inactive)
REMARK    1  A    between atoms: C1_2  and  C2_3 
ROOT
ATOM      1  C2  UNL d   1       0.373   3.828   0.340  0.00  0.00    -0.076 A 
ATOM      2  C3  UNL d   1       1.155   4.993   0.258  0.00  0.00     0.004 A 
ATOM      3  C4  UNL d   1       0.850   6.000  -0.656  0.00  0.00    -0.003 A 
ATOM      4  C5  UNL d   1      -0.242   5.858  -1.505  0.00  0.00     0.000 A 
ATOM      5  C6  UNL d   1      -1.040   4.717  -1.425  0.00  0.00     0.000 A 
ATOM      6  C7  UNL d   1      -0.756   3.700  -0.498  0.00  0.00    -0.073 A 
ATOM      7  C8  UNL d   1      -1.647   2.488  -0.460  0.00  0.00     0.078 C 
ENDROOT
BRANCH   1   8
ATOM      8  C1  UNL d   1       0.767   2.759   1.333  0.00  0.00     0.053 C 
ATOM      9  C   UNL d   1      -0.090   2.784   2.588  0.00  0.00     0.018 C 
ENDBRANCH   1   8
TORSDOF 1
ENDMDL
