MODEL 1
REMARK minimizedAffinity -4.11004448
REMARK minimizedRMSD -1
REMARK  1 active torsions:
REMARK  status: ('A' for Active; 'I' for Inactive)
REMARK    1  A    between atoms: C1_2  and  C2_3 
ROOT
ATOM      1  C2  UNL d   1      -0.489  -1.586   0.623  0.00  0.00    -0.081 A 
ATOM      2  C3  UNL d   1       0.188  -1.184  -0.535  0.00  0.00     0.006 A 
ATOM      3  C4  UNL d   1       0.514   0.160  -0.734  0.00  0.00     0.002 A 
ATOM      4  C5  UNL d   1       0.174   1.122   0.223  0.00  0.00    -0.080 A 
ATOM      5  C6  UNL d   1       0.544   2.563   0.035  0.00  0.00     0.076 C 
ATOM      6  C7  UNL d   1      -0.519   0.723   1.371  0.00  0.00     0.002 A 
ATOM      7  C8  UNL d   1      -0.845  -0.621   1.571  0.00  0.00     0.006 A 
ENDROOT
BRANCH   1   8
ATOM      8  C1  UNL d   1      -0.784  -3.044   0.871  0.00  0.00     0.054 C 
ATOM      9  C   UNL d   1      -0.680  -3.856  -0.412  0.00  0.00     0.018 C 
ENDBRANCH   1   8
TORSDOF 1
ENDMDL
