MODEL 1
REMARK minimizedAffinity -3.9532373
REMARK minimizedRMSD -1
REMARK  1 active torsions:
REMARK  status: ('A' for Active; 'I' for Inactive)
REMARK    1  A    between atoms: C1_2  and  C2_3 
ROOT
ATOM      1  C2  UNL d   1      -0.196  -1.968   0.203  0.00  0.00    -0.081 A 
ATOM      2  C3  UNL d   1      -0.682  -1.061   1.153  0.00  0.00     0.006 A 
ATOM      3  C4  UNL d   1      -0.535   0.314   0.958  0.00  0.00     0.002 A 
ATOM      4  C5  UNL d   1       0.092   0.806  -0.192  0.00  0.00    -0.080 A 
ATOM      5  C6  UNL d   1       0.228   2.280  -0.427  0.00  0.00     0.076 C 
ATOM      6  C7  UNL d   1       0.593  -0.101  -1.132  0.00  0.00     0.002 A 
ATOM      7  C8  UNL d   1       0.448  -1.476  -0.938  0.00  0.00     0.006 A 
ENDROOT
BRANCH   1   8
ATOM      8  C1  UNL d   1      -0.409  -3.450   0.379  0.00  0.00     0.054 C 
ATOM      9  C   UNL d   1      -1.787  -3.873  -0.112  0.00  0.00     0.018 C 
ENDBRANCH   1   8
TORSDOF 1
ENDMDL
