MODEL 1
REMARK minimizedAffinity -4.81457996
REMARK minimizedRMSD -1
REMARK  1 active torsions:
REMARK  status: ('A' for Active; 'I' for Inactive)
REMARK    1  A    between atoms: C1_2  and  C2_3 
ROOT
ATOM      1  C2  UNL d   1      -0.029  -0.008  -0.078  0.00  0.00    -0.081 A 
ATOM      2  C3  UNL d   1      -0.387  -0.734   1.064  0.00  0.00     0.006 A 
ATOM      3  C4  UNL d   1      -0.302  -2.128   1.072  0.00  0.00     0.002 A 
ATOM      4  C5  UNL d   1       0.149  -2.818  -0.058  0.00  0.00    -0.080 A 
ATOM      5  C6  UNL d   1       0.273  -4.313  -0.053  0.00  0.00     0.076 C 
ATOM      6  C7  UNL d   1       0.490  -2.094  -1.206  0.00  0.00     0.002 A 
ATOM      7  C8  UNL d   1       0.405  -0.700  -1.214  0.00  0.00     0.006 A 
ENDROOT
BRANCH   1   8
ATOM      8  C1  UNL d   1      -0.058   1.499  -0.068  0.00  0.00     0.054 C 
ATOM      9  C   UNL d   1       1.347   2.079   0.022  0.00  0.00     0.018 C 
ENDBRANCH   1   8
TORSDOF 1
ENDMDL
