MODEL 1
REMARK minimizedAffinity -1.85326028
REMARK minimizedRMSD -1
REMARK  1 active torsions:
REMARK  status: ('A' for Active; 'I' for Inactive)
REMARK    1  A    between atoms: C1_2  and  C2_3 
ROOT
ATOM      1  C2  UNL d   1       0.233   0.012  -0.704  0.00  0.00    -0.081 A 
ATOM      2  C3  UNL d   1      -0.412  -0.483   0.437  0.00  0.00     0.006 A 
ATOM      3  C4  UNL d   1      -0.446  -1.856   0.692  0.00  0.00     0.002 A 
ATOM      4  C5  UNL d   1       0.170  -2.756  -0.184  0.00  0.00    -0.080 A 
ATOM      5  C6  UNL d   1       0.167  -4.229   0.094  0.00  0.00     0.076 C 
ATOM      6  C7  UNL d   1       0.799  -2.263  -1.333  0.00  0.00     0.002 A 
ATOM      7  C8  UNL d   1       0.833  -0.891  -1.588  0.00  0.00     0.006 A 
ENDROOT
BRANCH   1   8
ATOM      8  C1  UNL d   1       0.327   1.496  -0.948  0.00  0.00     0.054 C 
ATOM      9  C   UNL d   1       0.949   2.214   0.241  0.00  0.00     0.018 C 
ENDBRANCH   1   8
TORSDOF 1
ENDMDL
