MODEL 1
REMARK minimizedAffinity -4.68649387
REMARK minimizedRMSD -1
REMARK  1 active torsions:
REMARK  status: ('A' for Active; 'I' for Inactive)
REMARK    1  A    between atoms: C1_2  and  C2_3 
ROOT
ATOM      1  C2  UNL d   1       0.368   0.240  -0.733  0.00  0.00    -0.081 A 
ATOM      2  C3  UNL d   1       0.557  -0.541  -1.880  0.00  0.00     0.006 A 
ATOM      3  C4  UNL d   1       0.289  -1.912  -1.854  0.00  0.00     0.002 A 
ATOM      4  C5  UNL d   1      -0.178  -2.522  -0.685  0.00  0.00    -0.080 A 
ATOM      5  C6  UNL d   1      -0.498  -3.987  -0.653  0.00  0.00     0.076 C 
ATOM      6  C7  UNL d   1      -0.350  -1.745   0.465  0.00  0.00     0.002 A 
ATOM      7  C8  UNL d   1      -0.082  -0.374   0.440  0.00  0.00     0.006 A 
ENDROOT
BRANCH   1   8
ATOM      8  C1  UNL d   1       0.594   1.730  -0.775  0.00  0.00     0.054 C 
ATOM      9  C   UNL d   1       1.819   2.127   0.036  0.00  0.00     0.018 C 
ENDBRANCH   1   8
TORSDOF 1
ENDMDL
