MODEL 1
REMARK minimizedAffinity -5.11130428
REMARK minimizedRMSD -1
REMARK  1 active torsions:
REMARK  status: ('A' for Active; 'I' for Inactive)
REMARK    1  A    between atoms: C1_2  and  C2_3 
ROOT
ATOM      1  C2  UNL d   1       0.230   0.150  -0.661  0.00  0.00    -0.081 A 
ATOM      2  C3  UNL d   1      -0.117  -0.503   0.528  0.00  0.00     0.006 A 
ATOM      3  C4  UNL d   1      -0.152  -1.898   0.586  0.00  0.00     0.002 A 
ATOM      4  C5  UNL d   1       0.166  -2.664  -0.541  0.00  0.00    -0.080 A 
ATOM      5  C6  UNL d   1       0.161  -4.162  -0.484  0.00  0.00     0.076 C 
ATOM      6  C7  UNL d   1       0.495  -2.012  -1.734  0.00  0.00     0.002 A 
ATOM      7  C8  UNL d   1       0.530  -0.617  -1.793  0.00  0.00     0.006 A 
ENDROOT
BRANCH   1   8
ATOM      8  C1  UNL d   1       0.331   1.653  -0.709  0.00  0.00     0.054 C 
ATOM      9  C   UNL d   1       1.300   2.175   0.342  0.00  0.00     0.018 C 
ENDBRANCH   1   8
TORSDOF 1
ENDMDL
