MODEL 1
REMARK minimizedAffinity -4.18846893
REMARK minimizedRMSD -1
REMARK  1 active torsions:
REMARK  status: ('A' for Active; 'I' for Inactive)
REMARK    1  A    between atoms: C1_2  and  C2_3 
ROOT
ATOM      1  C2  UNL d   1      -0.167   0.750  -0.132  0.00  0.00    -0.081 A 
ATOM      2  C3  UNL d   1      -0.807   0.010   0.869  0.00  0.00     0.006 A 
ATOM      3  C4  UNL d   1      -0.905  -1.380   0.769  0.00  0.00     0.002 A 
ATOM      4  C5  UNL d   1      -0.358  -2.053  -0.329  0.00  0.00    -0.080 A 
ATOM      5  C6  UNL d   1      -0.429  -3.548  -0.433  0.00  0.00     0.076 C 
ATOM      6  C7  UNL d   1       0.266  -1.312  -1.338  0.00  0.00     0.002 A 
ATOM      7  C8  UNL d   1       0.364   0.078  -1.239  0.00  0.00     0.006 A 
ENDROOT
BRANCH   1   8
ATOM      8  C1  UNL d   1      -0.003   2.242   0.004  0.00  0.00     0.054 C 
ATOM      9  C   UNL d   1       1.420   2.609   0.401  0.00  0.00     0.018 C 
ENDBRANCH   1   8
TORSDOF 1
ENDMDL
