MODEL 1
REMARK minimizedAffinity -6.14957905
REMARK minimizedRMSD -1
REMARK  1 active torsions:
REMARK  status: ('A' for Active; 'I' for Inactive)
REMARK    1  A    between atoms: C1_2  and  C2_3 
ROOT
ATOM      1  C2  UNL d   1      -0.008   0.572   0.010  0.00  0.00    -0.081 A 
ATOM      2  C3  UNL d   1      -0.117  -0.036   1.267  0.00  0.00     0.006 A 
ATOM      3  C4  UNL d   1      -0.073  -1.426   1.388  0.00  0.00     0.002 A 
ATOM      4  C5  UNL d   1       0.088  -2.233   0.256  0.00  0.00    -0.080 A 
ATOM      5  C6  UNL d   1       0.167  -3.726   0.375  0.00  0.00     0.076 C 
ATOM      6  C7  UNL d   1       0.180  -1.627  -1.002  0.00  0.00     0.002 A 
ATOM      7  C8  UNL d   1       0.135  -0.236  -1.124  0.00  0.00     0.006 A 
ENDROOT
BRANCH   1   8
ATOM      8  C1  UNL d   1       0.010   2.073  -0.117  0.00  0.00     0.054 C 
ATOM      9  C   UNL d   1       1.311   2.658   0.414  0.00  0.00     0.018 C 
ENDBRANCH   1   8
TORSDOF 1
ENDMDL
