MODEL 1
REMARK minimizedAffinity -3.98590231
REMARK minimizedRMSD -1
REMARK  1 active torsions:
REMARK  status: ('A' for Active; 'I' for Inactive)
REMARK    1  A    between atoms: C1_2  and  C2_3 
ROOT
ATOM      1  C2  UNL d   1      -0.325  -0.775   0.980  0.00  0.00    -0.081 A 
ATOM      2  C3  UNL d   1      -1.250   0.069   0.354  0.00  0.00     0.006 A 
ATOM      3  C4  UNL d   1      -0.874   1.350  -0.058  0.00  0.00     0.002 A 
ATOM      4  C5  UNL d   1       0.434   1.804   0.141  0.00  0.00    -0.080 A 
ATOM      5  C6  UNL d   1       0.858   3.165  -0.324  0.00  0.00     0.076 C 
ATOM      6  C7  UNL d   1       1.353   0.967   0.783  0.00  0.00     0.002 A 
ATOM      7  C8  UNL d   1       0.978  -0.313   1.196  0.00  0.00     0.006 A 
ENDROOT
BRANCH   1   8
ATOM      8  C1  UNL d   1      -0.709  -2.181   1.367  0.00  0.00     0.054 C 
ATOM      9  C   UNL d   1      -0.975  -3.040   0.140  0.00  0.00     0.018 C 
ENDBRANCH   1   8
TORSDOF 1
ENDMDL
