MODEL 1
REMARK minimizedAffinity -3.12098885
REMARK minimizedRMSD -1
REMARK  1 active torsions:
REMARK  status: ('A' for Active; 'I' for Inactive)
REMARK    1  A    between atoms: C1_2  and  C2_3 
ROOT
ATOM      1  C2  UNL d   1       0.094   0.871   0.751  0.00  0.00    -0.081 A 
ATOM      2  C3  UNL d   1      -0.658   0.059   1.608  0.00  0.00     0.006 A 
ATOM      3  C4  UNL d   1      -0.679  -1.327   1.432  0.00  0.00     0.002 A 
ATOM      4  C5  UNL d   1       0.056  -1.923   0.403  0.00  0.00    -0.080 A 
ATOM      5  C6  UNL d   1       0.066  -3.412   0.222  0.00  0.00     0.076 C 
ATOM      6  C7  UNL d   1       0.794  -1.110  -0.465  0.00  0.00     0.002 A 
ATOM      7  C8  UNL d   1       0.815   0.275  -0.290  0.00  0.00     0.006 A 
ENDROOT
BRANCH   1   8
ATOM      8  C1  UNL d   1       0.171   2.360   0.977  0.00  0.00     0.054 C 
ATOM      9  C   UNL d   1       1.490   2.929   0.474  0.00  0.00     0.018 C 
ENDBRANCH   1   8
TORSDOF 1
ENDMDL
