MODEL 1
REMARK minimizedAffinity -4.98485994
REMARK minimizedRMSD -1
REMARK  1 active torsions:
REMARK  status: ('A' for Active; 'I' for Inactive)
REMARK    1  A    between atoms: C1_2  and  C2_3 
ROOT
ATOM      1  C2  UNL d   1      -0.009  -2.186  -0.794  0.00  0.00    -0.081 A 
ATOM      2  C3  UNL d   1      -0.697  -2.841   0.234  0.00  0.00     0.006 A 
ATOM      3  C4  UNL d   1      -1.324  -2.108   1.245  0.00  0.00     0.002 A 
ATOM      4  C5  UNL d   1      -1.281  -0.710   1.239  0.00  0.00    -0.080 A 
ATOM      5  C6  UNL d   1      -1.976   0.089   2.302  0.00  0.00     0.076 C 
ATOM      6  C7  UNL d   1      -0.579  -0.056   0.221  0.00  0.00     0.002 A 
ATOM      7  C8  UNL d   1       0.049  -0.788  -0.789  0.00  0.00     0.006 A 
ENDROOT
BRANCH   1   8
ATOM      8  C1  UNL d   1       0.614  -2.971  -1.921  0.00  0.00     0.054 C 
ATOM      9  C   UNL d   1       0.416  -2.271  -3.258  0.00  0.00     0.018 C 
ENDBRANCH   1   8
TORSDOF 1
ENDMDL
