MODEL 1
REMARK minimizedAffinity 3.52751541
REMARK minimizedRMSD -1
REMARK  2 active torsions:
REMARK  status: ('A' for Active; 'I' for Inactive)
REMARK    1  A    between atoms: C1_2  and  C2_3 
REMARK    2  A    between atoms: C2_3  and  C3_4 
ROOT
ATOM      1  C3  UNL d   1       0.920   2.267  -0.863  0.00  0.00    -0.075 A 
ATOM      2  C4  UNL d   1       1.256   1.946   0.460  0.00  0.00     0.002 A 
ATOM      3  C5  UNL d   1       1.678   0.658   0.790  0.00  0.00     0.002 A 
ATOM      4  C6  UNL d   1       1.761  -0.325  -0.193  0.00  0.00    -0.004 A 
ATOM      5  C7  UNL d   1       1.413  -0.022  -1.508  0.00  0.00     0.002 A 
ATOM      6  C8  UNL d   1       0.994   1.267  -1.842  0.00  0.00     0.002 A 
ENDROOT
BRANCH   1   7
ATOM      7  C2  UNL d   1       0.490   3.667  -1.233  0.00  0.00     0.056 C 
BRANCH   7   8
ATOM      8  C1  UNL d   1       1.100   4.760  -0.350  0.00  0.00     0.007 C 
ATOM      9  C   UNL d   1       1.518   5.999  -1.131  0.00  0.00     0.009 C 
ENDBRANCH   7   8
ENDBRANCH   1   7
TORSDOF 2
ENDMDL
