MODEL 1
REMARK minimizedAffinity 4.60250854
REMARK minimizedRMSD -1
REMARK  2 active torsions:
REMARK  status: ('A' for Active; 'I' for Inactive)
REMARK    1  A    between atoms: C1_2  and  C2_3 
REMARK    2  A    between atoms: C2_3  and  C3_4 
ROOT
ATOM      1  C3  UNL d   1      -2.718   3.364   2.462  0.00  0.00    -0.075 A 
ATOM      2  C4  UNL d   1      -3.103   2.402   3.408  0.00  0.00     0.002 A 
ATOM      3  C5  UNL d   1      -4.105   1.477   3.110  0.00  0.00     0.002 A 
ATOM      4  C6  UNL d   1      -4.740   1.509   1.870  0.00  0.00    -0.004 A 
ATOM      5  C7  UNL d   1      -4.376   2.470   0.930  0.00  0.00     0.002 A 
ATOM      6  C8  UNL d   1      -3.372   3.394   1.223  0.00  0.00     0.002 A 
ENDROOT
BRANCH   1   7
ATOM      7  C2  UNL d   1      -1.615   4.348   2.768  0.00  0.00     0.056 C 
BRANCH   7   8
ATOM      8  C1  UNL d   1      -2.106   5.670   3.368  0.00  0.00     0.007 C 
ATOM      9  C   UNL d   1      -3.545   6.000   2.996  0.00  0.00     0.009 C 
ENDBRANCH   7   8
ENDBRANCH   1   7
TORSDOF 2
ENDMDL
