MODEL 1
REMARK minimizedAffinity -4.31880474
REMARK minimizedRMSD -1
REMARK  2 active torsions:
REMARK  status: ('A' for Active; 'I' for Inactive)
REMARK    1  A    between atoms: C1_2  and  C2_3 
REMARK    2  A    between atoms: C2_3  and  C3_4 
ROOT
ATOM      1  C3  UNL d   1       0.745   2.912  -1.037  0.00  0.00    -0.075 A 
ATOM      2  C4  UNL d   1       0.635   2.632   0.333  0.00  0.00     0.002 A 
ATOM      3  C5  UNL d   1       1.112   1.428   0.851  0.00  0.00     0.002 A 
ATOM      4  C6  UNL d   1       1.695   0.485   0.006  0.00  0.00    -0.004 A 
ATOM      5  C7  UNL d   1       1.794   0.746  -1.359  0.00  0.00     0.002 A 
ATOM      6  C8  UNL d   1       1.321   1.952  -1.879  0.00  0.00     0.002 A 
ENDROOT
BRANCH   1   7
ATOM      7  C2  UNL d   1       0.257   4.226  -1.598  0.00  0.00     0.056 C 
BRANCH   7   8
ATOM      8  C1  UNL d   1      -0.810   4.080  -2.688  0.00  0.00     0.007 C 
ATOM      9  C   UNL d   1      -2.093   3.429  -2.190  0.00  0.00     0.009 C 
ENDBRANCH   7   8
ENDBRANCH   1   7
TORSDOF 2
ENDMDL
