MODEL 1
REMARK minimizedAffinity 0.0754502714
REMARK minimizedRMSD -1
REMARK  2 active torsions:
REMARK  status: ('A' for Active; 'I' for Inactive)
REMARK    1  A    between atoms: C1_2  and  C2_3 
REMARK    2  A    between atoms: C2_3  and  C3_4 
ROOT
ATOM      1  C3  UNL d   1       1.059  -0.840  -0.657  0.00  0.00    -0.075 A 
ATOM      2  C4  UNL d   1       1.477  -0.227   0.534  0.00  0.00     0.002 A 
ATOM      3  C5  UNL d   1       1.426   1.160   0.672  0.00  0.00     0.002 A 
ATOM      4  C6  UNL d   1       0.968   1.952  -0.378  0.00  0.00    -0.004 A 
ATOM      5  C7  UNL d   1       0.567   1.355  -1.572  0.00  0.00     0.002 A 
ATOM      6  C8  UNL d   1       0.612  -0.033  -1.712  0.00  0.00     0.002 A 
ENDROOT
BRANCH   1   7
ATOM      7  C2  UNL d   1       1.084  -2.342  -0.803  0.00  0.00     0.056 C 
BRANCH   7   8
ATOM      8  C1  UNL d   1      -0.068  -2.907  -1.642  0.00  0.00     0.007 C 
ATOM      9  C   UNL d   1      -0.665  -4.181  -1.061  0.00  0.00     0.009 C 
ENDBRANCH   7   8
ENDBRANCH   1   7
TORSDOF 2
ENDMDL
