MODEL 1
REMARK minimizedAffinity -1.13394153
REMARK minimizedRMSD -1
REMARK  2 active torsions:
REMARK  status: ('A' for Active; 'I' for Inactive)
REMARK    1  A    between atoms: C1_2  and  C2_3 
REMARK    2  A    between atoms: C2_3  and  C3_4 
ROOT
ATOM      1  C3  UNL d   1       1.757   0.144  -0.427  0.00  0.00    -0.075 A 
ATOM      2  C4  UNL d   1       2.895   0.288   0.379  0.00  0.00     0.002 A 
ATOM      3  C5  UNL d   1       2.893   1.176   1.455  0.00  0.00     0.002 A 
ATOM      4  C6  UNL d   1       1.760   1.937   1.732  0.00  0.00    -0.004 A 
ATOM      5  C7  UNL d   1       0.629   1.815   0.927  0.00  0.00     0.002 A 
ATOM      6  C8  UNL d   1       0.627   0.924  -0.147  0.00  0.00     0.002 A 
ENDROOT
BRANCH   1   7
ATOM      7  C2  UNL d   1       1.742  -0.837  -1.575  0.00  0.00     0.056 C 
BRANCH   7   8
ATOM      8  C1  UNL d   1       0.845  -2.057  -1.342  0.00  0.00     0.007 C 
ATOM      9  C   UNL d   1       1.138  -2.775  -0.031  0.00  0.00     0.009 C 
ENDBRANCH   7   8
ENDBRANCH   1   7
TORSDOF 2
ENDMDL
