MODEL 1
REMARK minimizedAffinity -3.18937182
REMARK minimizedRMSD -1
REMARK  2 active torsions:
REMARK  status: ('A' for Active; 'I' for Inactive)
REMARK    1  A    between atoms: C1_2  and  C2_3 
REMARK    2  A    between atoms: C2_3  and  C3_4 
ROOT
ATOM      1  C3  UNL d   1       1.083  -0.064  -0.733  0.00  0.00    -0.075 A 
ATOM      2  C4  UNL d   1       1.104   0.881  -1.768  0.00  0.00     0.002 A 
ATOM      3  C5  UNL d   1       1.194   2.243  -1.482  0.00  0.00     0.002 A 
ATOM      4  C6  UNL d   1       1.253   2.678  -0.160  0.00  0.00    -0.004 A 
ATOM      5  C7  UNL d   1       1.215   1.749   0.877  0.00  0.00     0.002 A 
ATOM      6  C8  UNL d   1       1.130   0.385   0.594  0.00  0.00     0.002 A 
ENDROOT
BRANCH   1   7
ATOM      7  C2  UNL d   1       1.015  -1.542  -1.036  0.00  0.00     0.056 C 
BRANCH   7   8
ATOM      8  C1  UNL d   1      -0.001  -1.910  -2.123  0.00  0.00     0.007 C 
ATOM      9  C   UNL d   1      -0.827  -3.142  -1.779  0.00  0.00     0.009 C 
ENDBRANCH   7   8
ENDBRANCH   1   7
TORSDOF 2
ENDMDL
