MODEL 1
REMARK minimizedAffinity -3.73080301
REMARK minimizedRMSD -1
REMARK  2 active torsions:
REMARK  status: ('A' for Active; 'I' for Inactive)
REMARK    1  A    between atoms: C1_2  and  C2_3 
REMARK    2  A    between atoms: C2_3  and  C3_4 
ROOT
ATOM      1  C3  UNL d   1       1.102   0.990  -1.029  0.00  0.00    -0.075 A 
ATOM      2  C4  UNL d   1       0.942   2.032  -1.953  0.00  0.00     0.002 A 
ATOM      3  C5  UNL d   1       0.850   3.355  -1.520  0.00  0.00     0.002 A 
ATOM      4  C6  UNL d   1       0.905   3.651  -0.159  0.00  0.00    -0.004 A 
ATOM      5  C7  UNL d   1       1.047   2.622   0.769  0.00  0.00     0.002 A 
ATOM      6  C8  UNL d   1       1.144   1.298   0.338  0.00  0.00     0.002 A 
ENDROOT
BRANCH   1   7
ATOM      7  C2  UNL d   1       1.232  -0.441  -1.493  0.00  0.00     0.056 C 
BRANCH   7   8
ATOM      8  C1  UNL d   1       1.155  -1.473  -0.363  0.00  0.00     0.007 C 
ATOM      9  C   UNL d   1       0.283  -2.674  -0.705  0.00  0.00     0.009 C 
ENDBRANCH   7   8
ENDBRANCH   1   7
TORSDOF 2
ENDMDL
