MODEL 1
REMARK minimizedAffinity -0.625950694
REMARK minimizedRMSD -1
REMARK  2 active torsions:
REMARK  status: ('A' for Active; 'I' for Inactive)
REMARK    1  A    between atoms: C1_2  and  C2_3 
REMARK    2  A    between atoms: C2_3  and  C3_4 
ROOT
ATOM      1  C3  UNL d   1       1.092   0.460  -0.931  0.00  0.00    -0.075 A 
ATOM      2  C4  UNL d   1       1.425   0.504   0.430  0.00  0.00     0.002 A 
ATOM      3  C5  UNL d   1       1.493   1.723   1.105  0.00  0.00     0.002 A 
ATOM      4  C6  UNL d   1       1.241   2.913   0.425  0.00  0.00    -0.004 A 
ATOM      5  C7  UNL d   1       0.926   2.883  -0.931  0.00  0.00     0.002 A 
ATOM      6  C8  UNL d   1       0.852   1.664  -1.607  0.00  0.00     0.002 A 
ENDROOT
BRANCH   1   7
ATOM      7  C2  UNL d   1       0.988  -0.858  -1.660  0.00  0.00     0.056 C 
BRANCH   7   8
ATOM      8  C1  UNL d   1       0.980  -2.082  -0.737  0.00  0.00     0.007 C 
ATOM      9  C   UNL d   1      -0.055  -3.126  -1.133  0.00  0.00     0.009 C 
ENDBRANCH   7   8
ENDBRANCH   1   7
TORSDOF 2
ENDMDL
