MODEL 1
REMARK minimizedAffinity 6.28010321
REMARK minimizedRMSD -1
REMARK  2 active torsions:
REMARK  status: ('A' for Active; 'I' for Inactive)
REMARK    1  A    between atoms: C1_2  and  C2_3 
REMARK    2  A    between atoms: C2_3  and  C3_4 
ROOT
ATOM      1  C3  UNL d   1       1.490   2.028   0.082  0.00  0.00    -0.075 A 
ATOM      2  C4  UNL d   1       1.042   2.619  -1.108  0.00  0.00     0.002 A 
ATOM      3  C5  UNL d   1       1.046   1.898  -2.302  0.00  0.00     0.002 A 
ATOM      4  C6  UNL d   1       1.506   0.583  -2.324  0.00  0.00    -0.004 A 
ATOM      5  C7  UNL d   1       1.969  -0.009  -1.151  0.00  0.00     0.002 A 
ATOM      6  C8  UNL d   1       1.962   0.709   0.046  0.00  0.00     0.002 A 
ENDROOT
BRANCH   1   7
ATOM      7  C2  UNL d   1       1.462   2.793   1.384  0.00  0.00     0.056 C 
BRANCH   7   8
ATOM      8  C1  UNL d   1       2.545   2.370   2.381  0.00  0.00     0.007 C 
ATOM      9  C   UNL d   1       3.251   3.549   3.037  0.00  0.00     0.009 C 
ENDBRANCH   7   8
ENDBRANCH   1   7
TORSDOF 2
ENDMDL
