MODEL 1
REMARK minimizedAffinity 4.06520939
REMARK minimizedRMSD -1
REMARK  2 active torsions:
REMARK  status: ('A' for Active; 'I' for Inactive)
REMARK    1  A    between atoms: C1_2  and  C2_3 
REMARK    2  A    between atoms: C2_3  and  C3_4 
ROOT
ATOM      1  C3  UNL d   1       0.936   0.634  -0.729  0.00  0.00    -0.075 A 
ATOM      2  C4  UNL d   1       1.523   0.837  -1.986  0.00  0.00     0.002 A 
ATOM      3  C5  UNL d   1       1.464   2.088  -2.602  0.00  0.00     0.002 A 
ATOM      4  C6  UNL d   1       0.809   3.146  -1.976  0.00  0.00    -0.004 A 
ATOM      5  C7  UNL d   1       0.207   2.951  -0.734  0.00  0.00     0.002 A 
ATOM      6  C8  UNL d   1       0.269   1.702  -0.114  0.00  0.00     0.002 A 
ENDROOT
BRANCH   1   7
ATOM      7  C2  UNL d   1       1.022  -0.708  -0.043  0.00  0.00     0.056 C 
BRANCH   7   8
ATOM      8  C1  UNL d   1       1.946  -0.727   1.179  0.00  0.00     0.007 C 
ATOM      9  C   UNL d   1       3.417  -0.883   0.817  0.00  0.00     0.009 C 
ENDBRANCH   7   8
ENDBRANCH   1   7
TORSDOF 2
ENDMDL
