MODEL 1
REMARK minimizedAffinity -3.08018064
REMARK minimizedRMSD -1
REMARK  2 active torsions:
REMARK  status: ('A' for Active; 'I' for Inactive)
REMARK    1  A    between atoms: C1_2  and  C2_3 
REMARK    2  A    between atoms: C2_3  and  C3_4 
ROOT
ATOM      1  C3  UNL d   1       0.927   1.282   0.806  0.00  0.00    -0.075 A 
ATOM      2  C4  UNL d   1       0.918   2.442   0.017  0.00  0.00     0.002 A 
ATOM      3  C5  UNL d   1       0.836   2.353  -1.372  0.00  0.00     0.002 A 
ATOM      4  C6  UNL d   1       0.772   1.106  -1.991  0.00  0.00    -0.004 A 
ATOM      5  C7  UNL d   1       0.797  -0.053  -1.219  0.00  0.00     0.002 A 
ATOM      6  C8  UNL d   1       0.874   0.033   0.172  0.00  0.00     0.002 A 
ENDROOT
BRANCH   1   7
ATOM      7  C2  UNL d   1       0.985   1.372   2.312  0.00  0.00     0.056 C 
BRANCH   7   8
ATOM      8  C1  UNL d   1       2.290   1.968   2.851  0.00  0.00     0.007 C 
ATOM      9  C   UNL d   1       2.298   3.490   2.856  0.00  0.00     0.009 C 
ENDBRANCH   7   8
ENDBRANCH   1   7
TORSDOF 2
ENDMDL
