MODEL 1
REMARK minimizedAffinity 1.31404948
REMARK minimizedRMSD -1
REMARK  2 active torsions:
REMARK  status: ('A' for Active; 'I' for Inactive)
REMARK    1  A    between atoms: C1_2  and  C2_3 
REMARK    2  A    between atoms: C2_3  and  C3_4 
ROOT
ATOM      1  C3  UNL d   1      -0.625  -3.849   0.392  0.00  0.00    -0.075 A 
ATOM      2  C4  UNL d   1       0.611  -3.480   0.942  0.00  0.00     0.002 A 
ATOM      3  C5  UNL d   1       1.540  -2.766   0.184  0.00  0.00     0.002 A 
ATOM      4  C6  UNL d   1       1.250  -2.421  -1.134  0.00  0.00    -0.004 A 
ATOM      5  C7  UNL d   1       0.032  -2.797  -1.697  0.00  0.00     0.002 A 
ATOM      6  C8  UNL d   1      -0.901  -3.508  -0.939  0.00  0.00     0.002 A 
ENDROOT
BRANCH   1   7
ATOM      7  C2  UNL d   1      -1.646  -4.596   1.216  0.00  0.00     0.056 C 
BRANCH   7   8
ATOM      8  C1  UNL d   1      -1.485  -4.407   2.728  0.00  0.00     0.007 C 
ATOM      9  C   UNL d   1      -2.814  -4.360   3.472  0.00  0.00     0.009 C 
ENDBRANCH   7   8
ENDBRANCH   1   7
TORSDOF 2
ENDMDL
