MODEL 1
REMARK minimizedAffinity -3.64496231
REMARK minimizedRMSD -1
REMARK  2 active torsions:
REMARK  status: ('A' for Active; 'I' for Inactive)
REMARK    1  A    between atoms: C1_2  and  C2_3 
REMARK    2  A    between atoms: C2_3  and  C3_4 
ROOT
ATOM      1  C3  UNL d   1       1.135   2.312  -0.795  0.00  0.00    -0.075 A 
ATOM      2  C4  UNL d   1       1.130   2.164   0.599  0.00  0.00     0.002 A 
ATOM      3  C5  UNL d   1       0.813   0.936   1.180  0.00  0.00     0.002 A 
ATOM      4  C6  UNL d   1       0.488  -0.155   0.377  0.00  0.00    -0.004 A 
ATOM      5  C7  UNL d   1       0.474  -0.015  -1.009  0.00  0.00     0.002 A 
ATOM      6  C8  UNL d   1       0.794   1.212  -1.593  0.00  0.00     0.002 A 
ENDROOT
BRANCH   1   7
ATOM      7  C2  UNL d   1       1.505   3.631  -1.431  0.00  0.00     0.056 C 
BRANCH   7   8
ATOM      8  C1  UNL d   1       1.515   4.813  -0.455  0.00  0.00     0.007 C 
ATOM      9  C   UNL d   1       2.325   6.000  -0.959  0.00  0.00     0.009 C 
ENDBRANCH   7   8
ENDBRANCH   1   7
TORSDOF 2
ENDMDL
