MODEL 1
REMARK minimizedAffinity -2.11999679
REMARK minimizedRMSD -1
REMARK  2 active torsions:
REMARK  status: ('A' for Active; 'I' for Inactive)
REMARK    1  A    between atoms: C1_2  and  C2_3 
REMARK    2  A    between atoms: C2_3  and  C3_4 
ROOT
ATOM      1  C3  UNL d   1       0.898   0.696  -1.149  0.00  0.00    -0.075 A 
ATOM      2  C4  UNL d   1       0.531   1.778  -1.961  0.00  0.00     0.002 A 
ATOM      3  C5  UNL d   1       0.503   3.074  -1.444  0.00  0.00     0.002 A 
ATOM      4  C6  UNL d   1       0.832   3.302  -0.110  0.00  0.00    -0.004 A 
ATOM      5  C7  UNL d   1       1.182   2.232   0.711  0.00  0.00     0.002 A 
ATOM      6  C8  UNL d   1       1.215   0.935   0.195  0.00  0.00     0.002 A 
ENDROOT
BRANCH   1   7
ATOM      7  C2  UNL d   1       0.959  -0.705  -1.709  0.00  0.00     0.056 C 
BRANCH   7   8
ATOM      8  C1  UNL d   1       0.836  -1.807  -0.651  0.00  0.00     0.007 C 
ATOM      9  C   UNL d   1      -0.160  -2.894  -1.029  0.00  0.00     0.009 C 
ENDBRANCH   7   8
ENDBRANCH   1   7
TORSDOF 2
ENDMDL
