MODEL 1
REMARK minimizedAffinity 2.60976052
REMARK minimizedRMSD -1
REMARK  2 active torsions:
REMARK  status: ('A' for Active; 'I' for Inactive)
REMARK    1  A    between atoms: C1_2  and  C2_3 
REMARK    2  A    between atoms: C2_3  and  C3_4 
ROOT
ATOM      1  C3  UNL d   1       1.675   1.079   1.141  0.00  0.00    -0.075 A 
ATOM      2  C4  UNL d   1       1.074   2.078   0.361  0.00  0.00     0.002 A 
ATOM      3  C5  UNL d   1       0.551   1.776  -0.896  0.00  0.00     0.002 A 
ATOM      4  C6  UNL d   1       0.630   0.477  -1.393  0.00  0.00    -0.004 A 
ATOM      5  C7  UNL d   1       1.239  -0.520  -0.634  0.00  0.00     0.002 A 
ATOM      6  C8  UNL d   1       1.760  -0.221   0.627  0.00  0.00     0.002 A 
ENDROOT
BRANCH   1   7
ATOM      7  C2  UNL d   1       2.216   1.393   2.515  0.00  0.00     0.056 C 
BRANCH   7   8
ATOM      8  C1  UNL d   1       3.299   2.478   2.526  0.00  0.00     0.007 C 
ATOM      9  C   UNL d   1       2.783   3.836   2.983  0.00  0.00     0.009 C 
ENDBRANCH   7   8
ENDBRANCH   1   7
TORSDOF 2
ENDMDL
