MODEL 1
REMARK minimizedAffinity 0.109884389
REMARK minimizedRMSD -1
REMARK  1 active torsions:
REMARK  status: ('A' for Active; 'I' for Inactive)
REMARK    1  A    between atoms: C3_4  and  O_7 
ROOT
ATOM      1  C   UNL d   1      -1.383   3.014  -4.838  0.00  0.00    -0.033 A 
ATOM      2  C1  UNL d   1      -1.879   4.072  -5.602  0.00  0.00     0.039 A 
ATOM      3  C2  UNL d   1      -3.217   4.082  -6.000  0.00  0.00    -0.080 A 
ATOM      4  C3  UNL d   1      -4.049   3.029  -5.627  0.00  0.00     0.150 A 
ATOM      5  C4  UNL d   1      -3.562   1.973  -4.862  0.00  0.00    -0.007 A 
ATOM      6  C5  UNL d   1      -2.225   1.965  -4.467  0.00  0.00     0.039 A 
ENDROOT
BRANCH   4   7
ATOM      7  O   UNL d   1      -5.361   2.992  -5.995  0.00  0.00    -0.526 OA
ATOM      8  H5  UNL d   1      -5.548   3.771  -6.544  0.00  0.00     0.418 HD
ENDBRANCH   4   7
TORSDOF 1
ENDMDL
