MODEL 1
REMARK minimizedAffinity 2.6181252
REMARK minimizedRMSD -1
REMARK  1 active torsions:
REMARK  status: ('A' for Active; 'I' for Inactive)
REMARK    1  A    between atoms: C3_4  and  O_7 
ROOT
ATOM      1  C   UNL d   1       4.151  -5.008  -6.000  0.00  0.00    -0.033 A 
ATOM      2  C1  UNL d   1       4.883  -4.520  -4.915  0.00  0.00     0.039 A 
ATOM      3  C2  UNL d   1       4.451  -4.769  -3.611  0.00  0.00    -0.080 A 
ATOM      4  C3  UNL d   1       3.289  -5.507  -3.405  0.00  0.00     0.150 A 
ATOM      5  C4  UNL d   1       2.557  -6.000  -4.481  0.00  0.00    -0.007 A 
ATOM      6  C5  UNL d   1       2.989  -5.749  -5.783  0.00  0.00     0.039 A 
ENDROOT
BRANCH   4   7
ATOM      7  O   UNL d   1       2.826  -5.772  -2.151  0.00  0.00    -0.526 OA
ATOM      8  H5  UNL d   1       3.417  -5.345  -1.508  0.00  0.00     0.418 HD
ENDBRANCH   4   7
TORSDOF 1
ENDMDL
