MODEL 1
REMARK minimizedAffinity 1.51254523
REMARK minimizedRMSD -1
REMARK  1 active torsions:
REMARK  status: ('A' for Active; 'I' for Inactive)
REMARK    1  A    between atoms: C3_4  and  O_7 
ROOT
ATOM      1  C   UNL d   1       1.981   1.754   1.021  0.00  0.00    -0.033 A 
ATOM      2  C1  UNL d   1       3.256   2.076   1.491  0.00  0.00     0.039 A 
ATOM      3  C2  UNL d   1       3.717   3.392   1.417  0.00  0.00    -0.080 A 
ATOM      4  C3  UNL d   1       2.894   4.375   0.873  0.00  0.00     0.150 A 
ATOM      5  C4  UNL d   1       1.622   4.062   0.407  0.00  0.00    -0.007 A 
ATOM      6  C5  UNL d   1       1.163   2.747   0.481  0.00  0.00     0.039 A 
ENDROOT
BRANCH   4   7
ATOM      7  O   UNL d   1       3.302   5.672   0.776  0.00  0.00    -0.526 OA
ATOM      8  H5  UNL d   1       4.213   5.734   1.111  0.00  0.00     0.418 HD
ENDBRANCH   4   7
TORSDOF 1
ENDMDL
