MODEL 1
REMARK minimizedAffinity -2.26027513
REMARK minimizedRMSD -1
REMARK  1 active torsions:
REMARK  status: ('A' for Active; 'I' for Inactive)
REMARK    1  A    between atoms: C3_4  and  O_7 
ROOT
ATOM      1  C   UNL d   1       5.158  -5.335  -6.000  0.00  0.00    -0.033 A 
ATOM      2  C1  UNL d   1       5.849  -4.867  -4.881  0.00  0.00     0.039 A 
ATOM      3  C2  UNL d   1       5.274  -4.962  -3.612  0.00  0.00    -0.080 A 
ATOM      4  C3  UNL d   1       4.009  -5.527  -3.477  0.00  0.00     0.150 A 
ATOM      5  C4  UNL d   1       3.316  -5.999  -4.587  0.00  0.00    -0.007 A 
ATOM      6  C5  UNL d   1       3.892  -5.903  -5.853  0.00  0.00     0.039 A 
ENDROOT
BRANCH   4   7
ATOM      7  O   UNL d   1       3.404  -5.637  -2.260  0.00  0.00    -0.526 OA
ATOM      8  H5  UNL d   1       3.987  -5.244  -1.590  0.00  0.00     0.418 HD
ENDBRANCH   4   7
TORSDOF 1
ENDMDL
