MODEL 1
REMARK minimizedAffinity -0.686219096
REMARK minimizedRMSD -1
REMARK  1 active torsions:
REMARK  status: ('A' for Active; 'I' for Inactive)
REMARK    1  A    between atoms: C3_4  and  O_7 
ROOT
ATOM      1  C   UNL d   1       3.287  -5.808  -5.999  0.00  0.00    -0.033 A 
ATOM      2  C1  UNL d   1       2.452  -5.999  -4.897  0.00  0.00     0.039 A 
ATOM      3  C2  UNL d   1       2.986  -6.000  -3.606  0.00  0.00    -0.080 A 
ATOM      4  C3  UNL d   1       4.353  -5.807  -3.432  0.00  0.00     0.150 A 
ATOM      5  C4  UNL d   1       5.190  -5.612  -4.526  0.00  0.00    -0.007 A 
ATOM      6  C5  UNL d   1       4.656  -5.613  -5.814  0.00  0.00     0.039 A 
ENDROOT
BRANCH   4   7
ATOM      7  O   UNL d   1       4.920  -5.804  -2.193  0.00  0.00    -0.526 OA
ATOM      8  H5  UNL d   1       4.226  -5.979  -1.536  0.00  0.00     0.418 HD
ENDBRANCH   4   7
TORSDOF 1
ENDMDL
