MODEL 1
REMARK minimizedAffinity -2.98474932
REMARK minimizedRMSD -1
REMARK  1 active torsions:
REMARK  status: ('A' for Active; 'I' for Inactive)
REMARK    1  A    between atoms: C3_4  and  O_7 
ROOT
ATOM      1  C   UNL d   1       6.000  -5.218  -4.017  0.00  0.00    -0.033 A 
ATOM      2  C1  UNL d   1       5.905  -5.347  -5.404  0.00  0.00     0.039 A 
ATOM      3  C2  UNL d   1       4.669  -5.608  -6.000  0.00  0.00    -0.080 A 
ATOM      4  C3  UNL d   1       3.538  -5.737  -5.199  0.00  0.00     0.150 A 
ATOM      5  C4  UNL d   1       3.625  -5.606  -3.817  0.00  0.00    -0.007 A 
ATOM      6  C5  UNL d   1       4.859  -5.346  -3.224  0.00  0.00     0.039 A 
ENDROOT
BRANCH   4   7
ATOM      7  O   UNL d   1       2.312  -5.997  -5.735  0.00  0.00    -0.526 OA
ATOM      8  H5  UNL d   1       2.410  -6.090  -6.697  0.00  0.00     0.418 HD
ENDBRANCH   4   7
TORSDOF 1
ENDMDL
