MODEL 1
REMARK minimizedAffinity 6.88096285
REMARK minimizedRMSD -1
REMARK  1 active torsions:
REMARK  status: ('A' for Active; 'I' for Inactive)
REMARK    1  A    between atoms: C3_4  and  O_7 
ROOT
ATOM      1  C   UNL d   1       2.097   1.273   1.129  0.00  0.00    -0.033 A 
ATOM      2  C1  UNL d   1       1.466   2.345   0.495  0.00  0.00     0.039 A 
ATOM      3  C2  UNL d   1       2.112   3.579   0.399  0.00  0.00    -0.080 A 
ATOM      4  C3  UNL d   1       3.387   3.727   0.939  0.00  0.00     0.150 A 
ATOM      5  C4  UNL d   1       4.022   2.662   1.569  0.00  0.00    -0.007 A 
ATOM      6  C5  UNL d   1       3.376   1.431   1.664  0.00  0.00     0.039 A 
ENDROOT
BRANCH   4   7
ATOM      7  O   UNL d   1       4.055   4.914   0.874  0.00  0.00    -0.526 OA
ATOM      8  H5  UNL d   1       3.482   5.566   0.438  0.00  0.00     0.418 HD
ENDBRANCH   4   7
TORSDOF 1
ENDMDL
