MODEL 1
REMARK minimizedAffinity -2.56769609
REMARK minimizedRMSD -1
REMARK  1 active torsions:
REMARK  status: ('A' for Active; 'I' for Inactive)
REMARK    1  A    between atoms: C3_4  and  O_7 
ROOT
ATOM      1  C   UNL d   1       3.423  -5.999  -5.756  0.00  0.00    -0.033 A 
ATOM      2  C1  UNL d   1       4.793  -5.885  -6.000  0.00  0.00     0.039 A 
ATOM      3  C2  UNL d   1       5.676  -5.651  -4.943  0.00  0.00    -0.080 A 
ATOM      4  C3  UNL d   1       5.176  -5.535  -3.649  0.00  0.00     0.150 A 
ATOM      5  C4  UNL d   1       3.813  -5.651  -3.398  0.00  0.00    -0.007 A 
ATOM      6  C5  UNL d   1       2.934  -5.884  -4.454  0.00  0.00     0.039 A 
ENDROOT
BRANCH   4   7
ATOM      7  O   UNL d   1       5.998  -5.302  -2.587  0.00  0.00    -0.526 OA
ATOM      8  H5  UNL d   1       6.909  -5.216  -2.915  0.00  0.00     0.418 HD
ENDBRANCH   4   7
TORSDOF 1
ENDMDL
