MODEL 1
REMARK minimizedAffinity -4.02297258
REMARK minimizedRMSD -1
REMARK  1 active torsions:
REMARK  status: ('A' for Active; 'I' for Inactive)
REMARK    1  A    between atoms: C3_4  and  O_7 
ROOT
ATOM      1  C   UNL d   1       5.988  -5.641  -3.917  0.00  0.00    -0.033 A 
ATOM      2  C1  UNL d   1       5.999  -5.947  -5.280  0.00  0.00     0.039 A 
ATOM      3  C2  UNL d   1       4.802  -5.995  -5.996  0.00  0.00    -0.080 A 
ATOM      4  C3  UNL d   1       3.602  -5.735  -5.340  0.00  0.00     0.150 A 
ATOM      5  C4  UNL d   1       3.584  -5.425  -3.984  0.00  0.00    -0.007 A 
ATOM      6  C5  UNL d   1       4.780  -5.379  -3.270  0.00  0.00     0.039 A 
ENDROOT
BRANCH   4   7
ATOM      7  O   UNL d   1       2.408  -5.774  -5.996  0.00  0.00    -0.526 OA
ATOM      8  H5  UNL d   1       2.572  -6.029  -6.920  0.00  0.00     0.418 HD
ENDBRANCH   4   7
TORSDOF 1
ENDMDL
