MODEL 1
REMARK minimizedAffinity -1.24717164
REMARK minimizedRMSD -1
REMARK  1 active torsions:
REMARK  status: ('A' for Active; 'I' for Inactive)
REMARK    1  A    between atoms: C3_4  and  O_7 
ROOT
ATOM      1  C   UNL d   1       2.231  -5.991  -4.814  0.00  0.00    -0.033 A 
ATOM      2  C1  UNL d   1       2.646  -5.346  -5.981  0.00  0.00     0.039 A 
ATOM      3  C2  UNL d   1       3.850  -4.640  -6.000  0.00  0.00    -0.080 A 
ATOM      4  C3  UNL d   1       4.629  -4.586  -4.847  0.00  0.00     0.150 A 
ATOM      5  C4  UNL d   1       4.224  -5.229  -3.682  0.00  0.00    -0.007 A 
ATOM      6  C5  UNL d   1       3.021  -5.933  -3.665  0.00  0.00     0.039 A 
ENDROOT
BRANCH   4   7
ATOM      7  O   UNL d   1       5.810  -3.904  -4.816  0.00  0.00    -0.526 OA
ATOM      8  H5  UNL d   1       5.947  -3.487  -5.682  0.00  0.00     0.418 HD
ENDBRANCH   4   7
TORSDOF 1
ENDMDL
