MODEL 1
REMARK minimizedAffinity -4.04973459
REMARK minimizedRMSD -1
REMARK  1 active torsions:
REMARK  status: ('A' for Active; 'I' for Inactive)
REMARK    1  A    between atoms: C3_4  and  O_7 
ROOT
ATOM      1  C   UNL d   1       5.396  -5.176  -3.939  0.00  0.00    -0.033 A 
ATOM      2  C1  UNL d   1       4.298  -5.687  -3.245  0.00  0.00     0.039 A 
ATOM      3  C2  UNL d   1       3.111  -5.971  -3.924  0.00  0.00    -0.080 A 
ATOM      4  C3  UNL d   1       3.037  -5.740  -5.295  0.00  0.00     0.150 A 
ATOM      5  C4  UNL d   1       4.128  -5.234  -5.993  0.00  0.00    -0.007 A 
ATOM      6  C5  UNL d   1       5.312  -4.951  -5.313  0.00  0.00     0.039 A 
ENDROOT
BRANCH   4   7
ATOM      7  O   UNL d   1       1.898  -5.997  -6.000  0.00  0.00    -0.526 OA
ATOM      8  H5  UNL d   1       1.219  -6.315  -5.382  0.00  0.00     0.418 HD
ENDBRANCH   4   7
TORSDOF 1
ENDMDL
