MODEL 1
REMARK minimizedAffinity -1.01026058
REMARK minimizedRMSD -1
REMARK  1 active torsions:
REMARK  status: ('A' for Active; 'I' for Inactive)
REMARK    1  A    between atoms: C3_4  and  O_7 
ROOT
ATOM      1  C   UNL d   1       4.087  -5.536  -6.000  0.00  0.00    -0.033 A 
ATOM      2  C1  UNL d   1       5.191  -4.996  -5.338  0.00  0.00     0.039 A 
ATOM      3  C2  UNL d   1       5.201  -4.913  -3.944  0.00  0.00    -0.080 A 
ATOM      4  C3  UNL d   1       4.102  -5.376  -3.225  0.00  0.00     0.150 A 
ATOM      5  C4  UNL d   1       3.000  -5.919  -3.878  0.00  0.00    -0.007 A 
ATOM      6  C5  UNL d   1       2.992  -5.999  -5.269  0.00  0.00     0.039 A 
ENDROOT
BRANCH   4   7
ATOM      7  O   UNL d   1       4.063  -5.312  -1.864  0.00  0.00    -0.526 OA
ATOM      8  H5  UNL d   1       4.880  -4.887  -1.552  0.00  0.00     0.418 HD
ENDBRANCH   4   7
TORSDOF 1
ENDMDL
