MODEL 1
REMARK minimizedAffinity -3.73876286
REMARK minimizedRMSD -1
REMARK  1 active torsions:
REMARK  status: ('A' for Active; 'I' for Inactive)
REMARK    1  A    between atoms: C3_4  and  O_7 
ROOT
ATOM      1  C   UNL d   1       5.836  -5.185  -3.588  0.00  0.00    -0.033 A 
ATOM      2  C1  UNL d   1       4.554  -5.055  -3.050  0.00  0.00     0.039 A 
ATOM      3  C2  UNL d   1       3.433  -5.314  -3.841  0.00  0.00    -0.080 A 
ATOM      4  C3  UNL d   1       3.608  -5.704  -5.166  0.00  0.00     0.150 A 
ATOM      5  C4  UNL d   1       4.882  -5.840  -5.707  0.00  0.00    -0.007 A 
ATOM      6  C5  UNL d   1       6.000  -5.579  -4.916  0.00  0.00     0.039 A 
ENDROOT
BRANCH   4   7
ATOM      7  O   UNL d   1       2.544  -5.963  -5.978  0.00  0.00    -0.526 OA
ATOM      8  H5  UNL d   1       1.727  -5.800  -5.477  0.00  0.00     0.418 HD
ENDBRANCH   4   7
TORSDOF 1
ENDMDL
