MODEL 1
REMARK minimizedAffinity -1.68695903
REMARK minimizedRMSD -1
REMARK  1 active torsions:
REMARK  status: ('A' for Active; 'I' for Inactive)
REMARK    1  A    between atoms: C3_4  and  O_7 
ROOT
ATOM      1  C   UNL d   1       3.072  -6.000  -6.000  0.00  0.00    -0.033 A 
ATOM      2  C1  UNL d   1       4.365  -5.667  -5.594  0.00  0.00     0.039 A 
ATOM      3  C2  UNL d   1       4.613  -5.316  -4.265  0.00  0.00    -0.080 A 
ATOM      4  C3  UNL d   1       3.560  -5.301  -3.355  0.00  0.00     0.150 A 
ATOM      5  C4  UNL d   1       2.270  -5.635  -3.752  0.00  0.00    -0.007 A 
ATOM      6  C5  UNL d   1       2.024  -5.985  -5.079  0.00  0.00     0.039 A 
ENDROOT
BRANCH   4   7
ATOM      7  O   UNL d   1       3.752  -4.960  -2.049  0.00  0.00    -0.526 OA
ATOM      8  H5  UNL d   1       4.688  -4.726  -1.926  0.00  0.00     0.418 HD
ENDBRANCH   4   7
TORSDOF 1
ENDMDL
