MODEL 1
REMARK minimizedAffinity -3.32405567
REMARK minimizedRMSD -1
REMARK  1 active torsions:
REMARK  status: ('A' for Active; 'I' for Inactive)
REMARK    1  A    between atoms: C3_4  and  O_7 
ROOT
ATOM      1  C   UNL d   1      -0.091   3.126  -6.000  0.00  0.00    -0.033 A 
ATOM      2  C1  UNL d   1      -1.428   2.723  -6.000  0.00  0.00     0.039 A 
ATOM      3  C2  UNL d   1      -2.446   3.678  -5.996  0.00  0.00    -0.080 A 
ATOM      4  C3  UNL d   1      -2.115   5.030  -5.993  0.00  0.00     0.150 A 
ATOM      5  C4  UNL d   1      -0.785   5.439  -5.996  0.00  0.00    -0.007 A 
ATOM      6  C5  UNL d   1       0.231   4.483  -5.999  0.00  0.00     0.039 A 
ENDROOT
BRANCH   4   7
ATOM      7  O   UNL d   1      -3.074   5.999  -5.984  0.00  0.00    -0.526 OA
ATOM      8  H5  UNL d   1      -3.945   5.569  -5.954  0.00  0.00     0.418 HD
ENDBRANCH   4   7
TORSDOF 1
ENDMDL
