MODEL 1
REMARK minimizedAffinity -3.19507766
REMARK minimizedRMSD -1
REMARK  1 active torsions:
REMARK  status: ('A' for Active; 'I' for Inactive)
REMARK    1  A    between atoms: C3_4  and  O_7 
ROOT
ATOM      1  C   UNL d   1       0.733   4.374  -5.998  0.00  0.00    -0.033 A 
ATOM      2  C1  UNL d   1      -0.262   5.353  -5.997  0.00  0.00     0.039 A 
ATOM      3  C2  UNL d   1      -1.608   4.982  -5.997  0.00  0.00    -0.080 A 
ATOM      4  C3  UNL d   1      -1.945   3.632  -5.996  0.00  0.00     0.150 A 
ATOM      5  C4  UNL d   1      -0.958   2.651  -5.992  0.00  0.00    -0.007 A 
ATOM      6  C5  UNL d   1       0.385   3.023  -5.993  0.00  0.00     0.039 A 
ENDROOT
BRANCH   4   7
ATOM      7  O   UNL d   1      -3.245   3.221  -6.000  0.00  0.00    -0.526 OA
ATOM      8  H5  UNL d   1      -3.816   4.007  -6.031  0.00  0.00     0.418 HD
ENDBRANCH   4   7
TORSDOF 1
ENDMDL
