MODEL 1
REMARK minimizedAffinity -0.745311201
REMARK minimizedRMSD -1
REMARK  1 active torsions:
REMARK  status: ('A' for Active; 'I' for Inactive)
REMARK    1  A    between atoms: C3_4  and  O_7 
ROOT
ATOM      1  C   UNL d   1      -0.106   4.969  -5.997  0.00  0.00    -0.033 A 
ATOM      2  C1  UNL d   1      -0.123   3.573  -6.000  0.00  0.00     0.039 A 
ATOM      3  C2  UNL d   1      -1.340   2.888  -6.000  0.00  0.00    -0.080 A 
ATOM      4  C3  UNL d   1      -2.531   3.610  -5.999  0.00  0.00     0.150 A 
ATOM      5  C4  UNL d   1      -2.521   5.001  -6.000  0.00  0.00    -0.007 A 
ATOM      6  C5  UNL d   1      -1.305   5.683  -5.999  0.00  0.00     0.039 A 
ENDROOT
BRANCH   4   7
ATOM      7  O   UNL d   1      -3.743   2.986  -5.994  0.00  0.00    -0.526 OA
ATOM      8  H5  UNL d   1      -3.594   2.026  -5.964  0.00  0.00     0.418 HD
ENDBRANCH   4   7
TORSDOF 1
ENDMDL
