MODEL 1
REMARK minimizedAffinity -3.39634871
REMARK minimizedRMSD -1
REMARK  1 active torsions:
REMARK  status: ('A' for Active; 'I' for Inactive)
REMARK    1  A    between atoms: C3_4  and  O_7 
ROOT
ATOM      1  C   UNL d   1       0.565   4.352  -5.999  0.00  0.00    -0.033 A 
ATOM      2  C1  UNL d   1      -0.483   5.270  -5.919  0.00  0.00     0.039 A 
ATOM      3  C2  UNL d   1      -1.803   4.821  -5.842  0.00  0.00    -0.080 A 
ATOM      4  C3  UNL d   1      -2.060   3.453  -5.845  0.00  0.00     0.150 A 
ATOM      5  C4  UNL d   1      -1.020   2.532  -5.921  0.00  0.00    -0.007 A 
ATOM      6  C5  UNL d   1       0.297   2.983  -5.999  0.00  0.00     0.039 A 
ENDROOT
BRANCH   4   7
ATOM      7  O   UNL d   1      -3.332   2.967  -5.777  0.00  0.00    -0.526 OA
ATOM      8  H5  UNL d   1      -3.948   3.719  -5.758  0.00  0.00     0.418 HD
ENDBRANCH   4   7
TORSDOF 1
ENDMDL
