MODEL 1
REMARK minimizedAffinity -2.62521505
REMARK minimizedRMSD -1
REMARK  1 active torsions:
REMARK  status: ('A' for Active; 'I' for Inactive)
REMARK    1  A    between atoms: C3_4  and  O_7 
ROOT
ATOM      1  C   UNL d   1      -3.025   4.091  -6.000  0.00  0.00    -0.033 A 
ATOM      2  C1  UNL d   1      -1.934   3.220  -5.996  0.00  0.00     0.039 A 
ATOM      3  C2  UNL d   1      -0.633   3.727  -5.989  0.00  0.00    -0.080 A 
ATOM      4  C3  UNL d   1      -0.437   5.105  -5.985  0.00  0.00     0.150 A 
ATOM      5  C4  UNL d   1      -1.519   5.979  -5.984  0.00  0.00    -0.007 A 
ATOM      6  C5  UNL d   1      -2.818   5.471  -5.992  0.00  0.00     0.039 A 
ENDROOT
BRANCH   4   7
ATOM      7  O   UNL d   1       0.814   5.647  -5.982  0.00  0.00    -0.526 OA
ATOM      8  H5  UNL d   1       1.462   4.924  -6.012  0.00  0.00     0.418 HD
ENDBRANCH   4   7
TORSDOF 1
ENDMDL
