MODEL 1
REMARK minimizedAffinity -2.93558049
REMARK minimizedRMSD -1
REMARK  1 active torsions:
REMARK  status: ('A' for Active; 'I' for Inactive)
REMARK    1  A    between atoms: C3_4  and  O_7 
ROOT
ATOM      1  C   UNL d   1       0.198   3.177  -5.993  0.00  0.00    -0.033 A 
ATOM      2  C1  UNL d   1      -1.103   2.671  -5.997  0.00  0.00     0.039 A 
ATOM      3  C2  UNL d   1      -2.193   3.543  -5.998  0.00  0.00    -0.080 A 
ATOM      4  C3  UNL d   1      -1.969   4.917  -5.996  0.00  0.00     0.150 A 
ATOM      5  C4  UNL d   1      -0.676   5.428  -5.996  0.00  0.00    -0.007 A 
ATOM      6  C5  UNL d   1       0.412   4.555  -5.994  0.00  0.00     0.039 A 
ENDROOT
BRANCH   4   7
ATOM      7  O   UNL d   1      -3.002   5.807  -5.992  0.00  0.00    -0.526 OA
ATOM      8  H5  UNL d   1      -3.836   5.311  -5.963  0.00  0.00     0.418 HD
ENDBRANCH   4   7
TORSDOF 1
ENDMDL
