MODEL 1
REMARK minimizedAffinity -1.60831809
REMARK minimizedRMSD -1
REMARK  1 active torsions:
REMARK  status: ('A' for Active; 'I' for Inactive)
REMARK    1  A    between atoms: C3_4  and  O_7 
ROOT
ATOM      1  C   UNL d   1      -2.982   4.793  -5.999  0.00  0.00    -0.033 A 
ATOM      2  C1  UNL d   1      -2.279   6.000  -6.000  0.00  0.00     0.039 A 
ATOM      3  C2  UNL d   1      -0.883   5.996  -5.998  0.00  0.00    -0.080 A 
ATOM      4  C3  UNL d   1      -0.203   4.782  -5.996  0.00  0.00     0.150 A 
ATOM      5  C4  UNL d   1      -0.896   3.576  -5.999  0.00  0.00    -0.007 A 
ATOM      6  C5  UNL d   1      -2.291   3.581  -6.000  0.00  0.00     0.039 A 
ENDROOT
BRANCH   4   7
ATOM      7  O   UNL d   1       1.160   4.728  -5.990  0.00  0.00    -0.526 OA
ATOM      8  H5  UNL d   1       1.503   5.636  -5.959  0.00  0.00     0.418 HD
ENDBRANCH   4   7
TORSDOF 1
ENDMDL
