MODEL 1
REMARK minimizedAffinity -2.36161613
REMARK minimizedRMSD -1
REMARK  1 active torsions:
REMARK  status: ('A' for Active; 'I' for Inactive)
REMARK    1  A    between atoms: C3_4  and  O_7 
ROOT
ATOM      1  C   UNL d   1       0.822   3.494  -5.754  0.00  0.00    -0.033 A 
ATOM      2  C1  UNL d   1      -0.412   2.863  -5.922  0.00  0.00     0.039 A 
ATOM      3  C2  UNL d   1      -1.581   3.621  -5.999  0.00  0.00    -0.080 A 
ATOM      4  C3  UNL d   1      -1.504   5.008  -5.907  0.00  0.00     0.150 A 
ATOM      5  C4  UNL d   1      -0.277   5.644  -5.743  0.00  0.00    -0.007 A 
ATOM      6  C5  UNL d   1       0.890   4.885  -5.666  0.00  0.00     0.039 A 
ENDROOT
BRANCH   4   7
ATOM      7  O   UNL d   1      -2.618   5.790  -5.972  0.00  0.00    -0.526 OA
ATOM      8  H5  UNL d   1      -3.395   5.212  -6.057  0.00  0.00     0.418 HD
ENDBRANCH   4   7
TORSDOF 1
ENDMDL
