MODEL 1
REMARK minimizedAffinity -2.69851875
REMARK minimizedRMSD -1
REMARK  1 active torsions:
REMARK  status: ('A' for Active; 'I' for Inactive)
REMARK    1  A    between atoms: C3_4  and  O_7 
ROOT
ATOM      1  C   UNL d   1       0.138   4.584  -5.999  0.00  0.00    -0.033 A 
ATOM      2  C1  UNL d   1      -0.028   3.198  -6.000  0.00  0.00     0.039 A 
ATOM      3  C2  UNL d   1      -1.311   2.647  -5.998  0.00  0.00    -0.080 A 
ATOM      4  C3  UNL d   1      -2.417   3.491  -5.996  0.00  0.00     0.150 A 
ATOM      5  C4  UNL d   1      -2.259   4.873  -5.999  0.00  0.00    -0.007 A 
ATOM      6  C5  UNL d   1      -0.978   5.422  -6.000  0.00  0.00     0.039 A 
ENDROOT
BRANCH   4   7
ATOM      7  O   UNL d   1      -3.689   2.999  -5.990  0.00  0.00    -0.526 OA
ATOM      8  H5  UNL d   1      -3.643   2.029  -5.959  0.00  0.00     0.418 HD
ENDBRANCH   4   7
TORSDOF 1
ENDMDL
