MODEL 1
REMARK minimizedAffinity -1.03716433
REMARK minimizedRMSD -1
REMARK  1 active torsions:
REMARK  status: ('A' for Active; 'I' for Inactive)
REMARK    1  A    between atoms: C3_4  and  O_7 
ROOT
ATOM      1  C   UNL d   1       1.022   3.880  -5.981  0.00  0.00    -0.033 A 
ATOM      2  C1  UNL d   1      -0.014   2.944  -5.986  0.00  0.00     0.039 A 
ATOM      3  C2  UNL d   1      -1.343   3.371  -5.994  0.00  0.00    -0.080 A 
ATOM      4  C3  UNL d   1      -1.622   4.735  -5.996  0.00  0.00     0.150 A 
ATOM      5  C4  UNL d   1      -0.595   5.673  -5.995  0.00  0.00    -0.007 A 
ATOM      6  C5  UNL d   1       0.731   5.245  -5.987  0.00  0.00     0.039 A 
ENDROOT
BRANCH   4   7
ATOM      7  O   UNL d   1      -2.904   5.199  -5.999  0.00  0.00    -0.526 OA
ATOM      8  H5  UNL d   1      -3.508   4.438  -5.970  0.00  0.00     0.418 HD
ENDBRANCH   4   7
TORSDOF 1
ENDMDL
