MODEL 1
REMARK minimizedAffinity -1.90590239
REMARK minimizedRMSD -1
REMARK  1 active torsions:
REMARK  status: ('A' for Active; 'I' for Inactive)
REMARK    1  A    between atoms: C3_4  and  O_7 
ROOT
ATOM      1  C   UNL d   1      -3.152   3.774  -5.995  0.00  0.00    -0.033 A 
ATOM      2  C1  UNL d   1      -2.939   5.154  -5.998  0.00  0.00     0.039 A 
ATOM      3  C2  UNL d   1      -1.638   5.661  -5.999  0.00  0.00    -0.080 A 
ATOM      4  C3  UNL d   1      -0.561   4.780  -5.997  0.00  0.00     0.150 A 
ATOM      5  C4  UNL d   1      -0.766   3.404  -5.998  0.00  0.00    -0.007 A 
ATOM      6  C5  UNL d   1      -2.065   2.899  -5.997  0.00  0.00     0.039 A 
ENDROOT
BRANCH   4   7
ATOM      7  O   UNL d   1       0.727   5.228  -5.993  0.00  0.00    -0.526 OA
ATOM      8  H5  UNL d   1       0.715   6.199  -5.963  0.00  0.00     0.418 HD
ENDBRANCH   4   7
TORSDOF 1
ENDMDL
