MODEL 1
REMARK minimizedAffinity -3.23395586
REMARK minimizedRMSD -1
REMARK  1 active torsions:
REMARK  status: ('A' for Active; 'I' for Inactive)
REMARK    1  A    between atoms: C3_4  and  O_7 
ROOT
ATOM      1  C   UNL d   1      -0.080   4.475  -5.974  0.00  0.00    -0.033 A 
ATOM      2  C1  UNL d   1      -1.043   5.486  -5.999  0.00  0.00     0.039 A 
ATOM      3  C2  UNL d   1      -2.401   5.160  -6.000  0.00  0.00    -0.080 A 
ATOM      4  C3  UNL d   1      -2.782   3.821  -5.974  0.00  0.00     0.150 A 
ATOM      5  C4  UNL d   1      -1.829   2.809  -5.944  0.00  0.00    -0.007 A 
ATOM      6  C5  UNL d   1      -0.473   3.136  -5.945  0.00  0.00     0.039 A 
ENDROOT
BRANCH   4   7
ATOM      7  O   UNL d   1      -4.095   3.454  -5.978  0.00  0.00    -0.526 OA
ATOM      8  H5  UNL d   1      -4.639   4.258  -6.029  0.00  0.00     0.418 HD
ENDBRANCH   4   7
TORSDOF 1
ENDMDL
