MODEL 1
REMARK minimizedAffinity -2.82612658
REMARK minimizedRMSD -1
REMARK  1 active torsions:
REMARK  status: ('A' for Active; 'I' for Inactive)
REMARK    1  A    between atoms: C3_4  and  O_7 
ROOT
ATOM      1  C   UNL d   1       0.500   4.388  -5.999  0.00  0.00    -0.033 A 
ATOM      2  C1  UNL d   1      -0.509   5.353  -5.995  0.00  0.00     0.039 A 
ATOM      3  C2  UNL d   1      -1.850   4.964  -5.994  0.00  0.00    -0.080 A 
ATOM      4  C3  UNL d   1      -2.168   3.609  -5.996  0.00  0.00     0.150 A 
ATOM      5  C4  UNL d   1      -1.168   2.642  -5.996  0.00  0.00    -0.007 A 
ATOM      6  C5  UNL d   1       0.170   3.032  -5.998  0.00  0.00     0.039 A 
ENDROOT
BRANCH   4   7
ATOM      7  O   UNL d   1      -3.462   3.181  -6.000  0.00  0.00    -0.526 OA
ATOM      8  H5  UNL d   1      -4.044   3.959  -6.029  0.00  0.00     0.418 HD
ENDBRANCH   4   7
TORSDOF 1
ENDMDL
