MODEL 1
REMARK minimizedAffinity 0.882799864
REMARK minimizedRMSD -1
REMARK  1 active torsions:
REMARK  status: ('A' for Active; 'I' for Inactive)
REMARK    1  A    between atoms: C3_4  and  O_7 
ROOT
ATOM      1  C   UNL d   1      -0.576   2.162  -5.979  0.00  0.00    -0.033 A 
ATOM      2  C1  UNL d   1      -0.951   3.506  -5.979  0.00  0.00     0.039 A 
ATOM      3  C2  UNL d   1       0.024   4.505  -5.987  0.00  0.00    -0.080 A 
ATOM      4  C3  UNL d   1       1.369   4.147  -5.996  0.00  0.00     0.150 A 
ATOM      5  C4  UNL d   1       1.750   2.809  -6.000  0.00  0.00    -0.007 A 
ATOM      6  C5  UNL d   1       0.775   1.813  -5.991  0.00  0.00     0.039 A 
ENDROOT
BRANCH   4   7
ATOM      7  O   UNL d   1       2.357   5.086  -5.999  0.00  0.00    -0.526 OA
ATOM      8  H5  UNL d   1       1.945   5.966  -5.967  0.00  0.00     0.418 HD
ENDBRANCH   4   7
TORSDOF 1
ENDMDL
