MODEL 1
REMARK minimizedAffinity 1.0376935
REMARK minimizedRMSD -1
REMARK  0 active torsions:
REMARK  status: ('A' for Active; 'I' for Inactive)
ROOT
ATOM      1  C1  BNZ d   1       2.392   2.698  -2.074  0.00  0.00     0.000 A 
ATOM      2  C2  BNZ d   1       2.139   1.583  -1.320  0.00  0.00     0.000 A 
ATOM      3  C3  BNZ d   1       1.483   0.510  -1.856  0.00  0.00     0.000 A 
ATOM      4  C4  BNZ d   1       1.047   0.568  -3.130  0.00  0.00     0.000 A 
ATOM      5  C5  BNZ d   1       1.286   1.689  -3.900  0.00  0.00     0.000 A 
ATOM      6  C6  BNZ d   1       1.981   2.752  -3.370  0.00  0.00     0.000 A 
ENDROOT
TORSDOF 0
ENDMDL
