MODEL 1
REMARK minimizedAffinity 0.0214069281
REMARK minimizedRMSD -1
REMARK  0 active torsions:
REMARK  status: ('A' for Active; 'I' for Inactive)
ROOT
ATOM      1  C1  BNZ d   1       1.040   1.187  -4.447  0.00  0.00     0.000 A 
ATOM      2  C2  BNZ d   1       0.228   0.384  -3.691  0.00  0.00     0.000 A 
ATOM      3  C3  BNZ d   1       0.692  -0.203  -2.548  0.00  0.00     0.000 A 
ATOM      4  C4  BNZ d   1       1.978  -0.019  -2.183  0.00  0.00     0.000 A 
ATOM      5  C5  BNZ d   1       2.812   0.780  -2.939  0.00  0.00     0.000 A 
ATOM      6  C6  BNZ d   1       2.330   1.401  -4.069  0.00  0.00     0.000 A 
ENDROOT
TORSDOF 0
ENDMDL
