MODEL 1
REMARK minimizedAffinity 9.12779903
REMARK minimizedRMSD -1
REMARK  0 active torsions:
REMARK  status: ('A' for Active; 'I' for Inactive)
ROOT
ATOM      1  C1  BNZ d   1      -2.993  -0.073   2.853  0.00  0.00     0.000 A 
ATOM      2  C2  BNZ d   1      -2.372   1.120   2.594  0.00  0.00     0.000 A 
ATOM      3  C3  BNZ d   1      -3.040   2.303   2.742  0.00  0.00     0.000 A 
ATOM      4  C4  BNZ d   1      -4.338   2.291   3.110  0.00  0.00     0.000 A 
ATOM      5  C5  BNZ d   1      -4.980   1.096   3.366  0.00  0.00     0.000 A 
ATOM      6  C6  BNZ d   1      -4.294  -0.091   3.253  0.00  0.00     0.000 A 
ENDROOT
TORSDOF 0
ENDMDL
