MODEL 1
REMARK minimizedAffinity 5.340868
REMARK minimizedRMSD -1
REMARK  0 active torsions:
REMARK  status: ('A' for Active; 'I' for Inactive)
ROOT
ATOM      1  C1  BNZ d   1       0.335   0.251  -3.121  0.00  0.00     0.000 A 
ATOM      2  C2  BNZ d   1       1.630   0.492  -3.495  0.00  0.00     0.000 A 
ATOM      3  C3  BNZ d   1       2.529   1.014  -2.608  0.00  0.00     0.000 A 
ATOM      4  C4  BNZ d   1       2.123   1.332  -1.362  0.00  0.00     0.000 A 
ATOM      5  C5  BNZ d   1       0.818   1.103  -0.973  0.00  0.00     0.000 A 
ATOM      6  C6  BNZ d   1      -0.074   0.541  -1.857  0.00  0.00     0.000 A 
ENDROOT
TORSDOF 0
ENDMDL
