MODEL 1
REMARK minimizedAffinity 5.97446585
REMARK minimizedRMSD -1
REMARK  0 active torsions:
REMARK  status: ('A' for Active; 'I' for Inactive)
ROOT
ATOM      1  C1  BNZ d   1      -0.097   0.309  -2.534  0.00  0.00     0.000 A 
ATOM      2  C2  BNZ d   1       0.669  -0.393  -1.642  0.00  0.00     0.000 A 
ATOM      3  C3  BNZ d   1       1.970  -0.043  -1.409  0.00  0.00     0.000 A 
ATOM      4  C4  BNZ d   1       2.514   0.981  -2.097  0.00  0.00     0.000 A 
ATOM      5  C5  BNZ d   1       1.757   1.693  -3.007  0.00  0.00     0.000 A 
ATOM      6  C6  BNZ d   1       0.437   1.363  -3.210  0.00  0.00     0.000 A 
ENDROOT
TORSDOF 0
ENDMDL
