MODEL 1
REMARK minimizedAffinity 5.00998926
REMARK minimizedRMSD -1
REMARK  0 active torsions:
REMARK  status: ('A' for Active; 'I' for Inactive)
ROOT
ATOM      1  C1  BNZ d   1      -3.652   4.188   4.172  0.00  0.00     0.000 A 
ATOM      2  C2  BNZ d   1      -2.336   4.568   4.184  0.00  0.00     0.000 A 
ATOM      3  C3  BNZ d   1      -1.873   5.460   5.110  0.00  0.00     0.000 A 
ATOM      4  C4  BNZ d   1      -2.733   6.000   5.998  0.00  0.00     0.000 A 
ATOM      5  C5  BNZ d   1      -4.064   5.634   5.993  0.00  0.00     0.000 A 
ATOM      6  C6  BNZ d   1      -4.519   4.706   5.084  0.00  0.00     0.000 A 
ENDROOT
TORSDOF 0
ENDMDL
