MODEL 1
REMARK minimizedAffinity 1.71601081
REMARK minimizedRMSD -1
REMARK  0 active torsions:
REMARK  status: ('A' for Active; 'I' for Inactive)
ROOT
ATOM      1  C1  BNZ d   1       2.012   1.110  -4.182  0.00  0.00     0.000 A 
ATOM      2  C2  BNZ d   1       0.798   1.197  -3.555  0.00  0.00     0.000 A 
ATOM      3  C3  BNZ d   1       0.661   0.841  -2.242  0.00  0.00     0.000 A 
ATOM      4  C4  BNZ d   1       1.727   0.362  -1.571  0.00  0.00     0.000 A 
ATOM      5  C5  BNZ d   1       2.956   0.259  -2.191  0.00  0.00     0.000 A 
ATOM      6  C6  BNZ d   1       3.100   0.655  -3.501  0.00  0.00     0.000 A 
ENDROOT
TORSDOF 0
ENDMDL
