MODEL 1
REMARK minimizedAffinity 8.68570805
REMARK minimizedRMSD -1
REMARK  0 active torsions:
REMARK  status: ('A' for Active; 'I' for Inactive)
ROOT
ATOM      1  C1  BNZ d   1       1.094   1.061  -2.947  0.00  0.00     0.000 A 
ATOM      2  C2  BNZ d   1       1.484  -0.077  -3.601  0.00  0.00     0.000 A 
ATOM      3  C3  BNZ d   1       1.847  -1.196  -2.903  0.00  0.00     0.000 A 
ATOM      4  C4  BNZ d   1       1.859  -1.161  -1.555  0.00  0.00     0.000 A 
ATOM      5  C5  BNZ d   1       1.478  -0.018  -0.881  0.00  0.00     0.000 A 
ATOM      6  C6  BNZ d   1       1.075   1.093  -1.586  0.00  0.00     0.000 A 
ENDROOT
TORSDOF 0
ENDMDL
