MODEL 1
REMARK minimizedAffinity 4.09043264
REMARK minimizedRMSD -1
REMARK  0 active torsions:
REMARK  status: ('A' for Active; 'I' for Inactive)
ROOT
ATOM      1  C1  BNZ d   1       1.520  -0.047  -1.740  0.00  0.00     0.000 A 
ATOM      2  C2  BNZ d   1       0.748  -0.456  -2.794  0.00  0.00     0.000 A 
ATOM      3  C3  BNZ d   1       0.692   0.276  -3.947  0.00  0.00     0.000 A 
ATOM      4  C4  BNZ d   1       1.376   1.436  -4.029  0.00  0.00     0.000 A 
ATOM      5  C5  BNZ d   1       2.151   1.867  -2.971  0.00  0.00     0.000 A 
ATOM      6  C6  BNZ d   1       2.236   1.107  -1.827  0.00  0.00     0.000 A 
ENDROOT
TORSDOF 0
ENDMDL
