MODEL 1
REMARK minimizedAffinity -0.973302126
REMARK minimizedRMSD -1
REMARK  0 active torsions:
REMARK  status: ('A' for Active; 'I' for Inactive)
ROOT
ATOM      1  C1  BNZ d   1       1.487   0.412  -3.782  0.00  0.00     0.000 A 
ATOM      2  C2  BNZ d   1       1.157   0.281  -2.459  0.00  0.00     0.000 A 
ATOM      3  C3  BNZ d   1       1.420   1.285  -1.569  0.00  0.00     0.000 A 
ATOM      4  C4  BNZ d   1       2.047   2.400  -1.995  0.00  0.00     0.000 A 
ATOM      5  C5  BNZ d   1       2.394   2.544  -3.323  0.00  0.00     0.000 A 
ATOM      6  C6  BNZ d   1       2.093   1.548  -4.223  0.00  0.00     0.000 A 
ENDROOT
TORSDOF 0
ENDMDL
