MODEL 1
REMARK minimizedAffinity 8.48221016
REMARK minimizedRMSD -1
REMARK  0 active torsions:
REMARK  status: ('A' for Active; 'I' for Inactive)
ROOT
ATOM      1  C1  BNZ d   1       0.412   1.834  -4.928  0.00  0.00     0.000 A 
ATOM      2  C2  BNZ d   1       0.175   0.575  -4.446  0.00  0.00     0.000 A 
ATOM      3  C3  BNZ d   1       0.675   0.184  -3.235  0.00  0.00     0.000 A 
ATOM      4  C4  BNZ d   1       1.443   1.037  -2.528  0.00  0.00     0.000 A 
ATOM      5  C5  BNZ d   1       1.698   2.307  -3.005  0.00  0.00     0.000 A 
ATOM      6  C6  BNZ d   1       1.161   2.711  -4.206  0.00  0.00     0.000 A 
ENDROOT
TORSDOF 0
ENDMDL
