MODEL 1
REMARK minimizedAffinity 7.41850567
REMARK minimizedRMSD -1
REMARK  0 active torsions:
REMARK  status: ('A' for Active; 'I' for Inactive)
ROOT
ATOM      1  C1  BNZ d   1       1.198   0.070  -3.873  0.00  0.00     0.000 A 
ATOM      2  C2  BNZ d   1       1.231  -0.612  -2.686  0.00  0.00     0.000 A 
ATOM      3  C3  BNZ d   1       2.022  -0.187  -1.656  0.00  0.00     0.000 A 
ATOM      4  C4  BNZ d   1       2.808   0.895  -1.827  0.00  0.00     0.000 A 
ATOM      5  C5  BNZ d   1       2.793   1.589  -3.021  0.00  0.00     0.000 A 
ATOM      6  C6  BNZ d   1       1.966   1.180  -4.042  0.00  0.00     0.000 A 
ENDROOT
TORSDOF 0
ENDMDL
