MODEL 1
REMARK minimizedAffinity 4.41461802
REMARK minimizedRMSD -1
REMARK  0 active torsions:
REMARK  status: ('A' for Active; 'I' for Inactive)
ROOT
ATOM      1  C1  BNZ d   1       0.603   1.796  -2.923  0.00  0.00     0.000 A 
ATOM      2  C2  BNZ d   1      -0.424   0.928  -3.184  0.00  0.00     0.000 A 
ATOM      3  C3  BNZ d   1      -0.727  -0.080  -2.312  0.00  0.00     0.000 A 
ATOM      4  C4  BNZ d   1       0.022  -0.245  -1.203  0.00  0.00     0.000 A 
ATOM      5  C5  BNZ d   1       1.067   0.616  -0.931  0.00  0.00     0.000 A 
ATOM      6  C6  BNZ d   1       1.344   1.654  -1.791  0.00  0.00     0.000 A 
ENDROOT
TORSDOF 0
ENDMDL
