MODEL 1
REMARK minimizedAffinity 1.97649682
REMARK minimizedRMSD -1
REMARK  0 active torsions:
REMARK  status: ('A' for Active; 'I' for Inactive)
ROOT
ATOM      1  C1  BNZ d   1      -3.172   4.854   3.950  0.00  0.00     0.000 A 
ATOM      2  C2  BNZ d   1      -4.490   4.483   3.976  0.00  0.00     0.000 A 
ATOM      3  C3  BNZ d   1      -5.311   4.886   4.992  0.00  0.00     0.000 A 
ATOM      4  C4  BNZ d   1      -4.804   5.625   6.000  0.00  0.00     0.000 A 
ATOM      5  C5  BNZ d   1      -3.475   5.999   5.993  0.00  0.00     0.000 A 
ATOM      6  C6  BNZ d   1      -2.661   5.624   4.948  0.00  0.00     0.000 A 
ENDROOT
TORSDOF 0
ENDMDL
