MODEL 1
REMARK minimizedAffinity 8.09698391
REMARK minimizedRMSD -1
REMARK  0 active torsions:
REMARK  status: ('A' for Active; 'I' for Inactive)
ROOT
ATOM      1  C1  BNZ d   1      -0.541  -0.042  -3.953  0.00  0.00     0.000 A 
ATOM      2  C2  BNZ d   1      -0.046  -0.100  -2.678  0.00  0.00     0.000 A 
ATOM      3  C3  BNZ d   1       0.955   0.741  -2.277  0.00  0.00     0.000 A 
ATOM      4  C4  BNZ d   1       1.485   1.610  -3.162  0.00  0.00     0.000 A 
ATOM      5  C5  BNZ d   1       1.002   1.674  -4.454  0.00  0.00     0.000 A 
ATOM      6  C6  BNZ d   1      -0.031   0.853  -4.843  0.00  0.00     0.000 A 
ENDROOT
TORSDOF 0
ENDMDL
