MODEL 1
REMARK minimizedAffinity -5.24892521
REMARK minimizedRMSD -1
REMARK  0 active torsions:
REMARK  status: ('A' for Active; 'I' for Inactive)
ROOT
ATOM      1  C1  BNZ d   1      -3.377   0.861   3.244  0.00  0.00     0.000 A 
ATOM      2  C2  BNZ d   1      -3.627  -0.298   2.558  0.00  0.00     0.000 A 
ATOM      3  C3  BNZ d   1      -3.542  -0.336   1.194  0.00  0.00     0.000 A 
ATOM      4  C4  BNZ d   1      -3.249   0.792   0.516  0.00  0.00     0.000 A 
ATOM      5  C5  BNZ d   1      -3.004   1.970   1.193  0.00  0.00     0.000 A 
ATOM      6  C6  BNZ d   1      -3.051   1.996   2.568  0.00  0.00     0.000 A 
ENDROOT
TORSDOF 0
ENDMDL
