MODEL 1
REMARK minimizedAffinity -3.0744071
REMARK minimizedRMSD -1
REMARK  0 active torsions:
REMARK  status: ('A' for Active; 'I' for Inactive)
ROOT
ATOM      1  C1  BNZ d   1      -0.550   0.579   2.127  0.00  0.00     0.000 A 
ATOM      2  C2  BNZ d   1       0.471   0.249   2.978  0.00  0.00     0.000 A 
ATOM      3  C3  BNZ d   1       1.638  -0.278   2.500  0.00  0.00     0.000 A 
ATOM      4  C4  BNZ d   1       1.768  -0.512   1.178  0.00  0.00     0.000 A 
ATOM      5  C5  BNZ d   1       0.744  -0.194   0.308  0.00  0.00     0.000 A 
ATOM      6  C6  BNZ d   1      -0.414   0.373   0.788  0.00  0.00     0.000 A 
ENDROOT
TORSDOF 0
ENDMDL
