MODEL 1
REMARK minimizedAffinity -2.12478709
REMARK minimizedRMSD -1
REMARK  0 active torsions:
REMARK  status: ('A' for Active; 'I' for Inactive)
ROOT
ATOM      1  C1  BNZ d   1      -1.142  -0.295   1.419  0.00  0.00     0.000 A 
ATOM      2  C2  BNZ d   1      -0.030  -0.441   2.204  0.00  0.00     0.000 A 
ATOM      3  C3  BNZ d   1       1.185  -0.733   1.650  0.00  0.00     0.000 A 
ATOM      4  C4  BNZ d   1       1.278  -0.918   0.318  0.00  0.00     0.000 A 
ATOM      5  C5  BNZ d   1       0.165  -0.783  -0.487  0.00  0.00     0.000 A 
ATOM      6  C6  BNZ d   1      -1.049  -0.450   0.070  0.00  0.00     0.000 A 
ENDROOT
TORSDOF 0
ENDMDL
