MODEL 1
REMARK minimizedAffinity -3.5767386
REMARK minimizedRMSD -1
REMARK  0 active torsions:
REMARK  status: ('A' for Active; 'I' for Inactive)
ROOT
ATOM      1  C1  BNZ d   1      -0.682  -0.161  -0.970  0.00  0.00     0.000 A 
ATOM      2  C2  BNZ d   1      -1.613   0.501  -0.215  0.00  0.00     0.000 A 
ATOM      3  C3  BNZ d   1      -1.277   1.039   0.996  0.00  0.00     0.000 A 
ATOM      4  C4  BNZ d   1      -0.024   0.880   1.467  0.00  0.00     0.000 A 
ATOM      5  C5  BNZ d   1       0.923   0.207   0.722  0.00  0.00     0.000 A 
ATOM      6  C6  BNZ d   1       0.592  -0.299  -0.514  0.00  0.00     0.000 A 
ENDROOT
TORSDOF 0
ENDMDL
