MODEL 1
REMARK minimizedAffinity -2.21378446
REMARK minimizedRMSD -1
REMARK  0 active torsions:
REMARK  status: ('A' for Active; 'I' for Inactive)
ROOT
ATOM      1  C1  BNZ d   1      -0.658  -0.168  -0.672  0.00  0.00     0.000 A 
ATOM      2  C2  BNZ d   1      -1.659   0.185   0.194  0.00  0.00     0.000 A 
ATOM      3  C3  BNZ d   1      -1.397   0.391   1.519  0.00  0.00     0.000 A 
ATOM      4  C4  BNZ d   1      -0.144   0.206   1.984  0.00  0.00     0.000 A 
ATOM      5  C5  BNZ d   1       0.874  -0.158   1.125  0.00  0.00     0.000 A 
ATOM      6  C6  BNZ d   1       0.614  -0.327  -0.215  0.00  0.00     0.000 A 
ENDROOT
TORSDOF 0
ENDMDL
