MODEL 1
REMARK minimizedAffinity -2.80184984
REMARK minimizedRMSD -1
REMARK  0 active torsions:
REMARK  status: ('A' for Active; 'I' for Inactive)
ROOT
ATOM      1  C1  BNZ d   1       1.353  -0.356  -1.862  0.00  0.00     0.000 A 
ATOM      2  C2  BNZ d   1       1.903   0.479  -2.797  0.00  0.00     0.000 A 
ATOM      3  C3  BNZ d   1       1.305   0.658  -4.013  0.00  0.00     0.000 A 
ATOM      4  C4  BNZ d   1       0.181  -0.028  -4.307  0.00  0.00     0.000 A 
ATOM      5  C5  BNZ d   1      -0.380  -0.881  -3.378  0.00  0.00     0.000 A 
ATOM      6  C6  BNZ d   1       0.204  -1.029  -2.141  0.00  0.00     0.000 A 
ENDROOT
TORSDOF 0
ENDMDL
