MODEL 1
REMARK minimizedAffinity -5.29014635
REMARK minimizedRMSD -1
REMARK  0 active torsions:
REMARK  status: ('A' for Active; 'I' for Inactive)
ROOT
ATOM      1  C1  BNZ d   1       0.624   0.735   3.046  0.00  0.00     0.000 A 
ATOM      2  C2  BNZ d   1       1.212   0.099   1.985  0.00  0.00     0.000 A 
ATOM      3  C3  BNZ d   1       0.527  -0.094   0.818  0.00  0.00     0.000 A 
ATOM      4  C4  BNZ d   1      -0.755   0.313   0.727  0.00  0.00     0.000 A 
ATOM      5  C5  BNZ d   1      -1.365   0.947   1.791  0.00  0.00     0.000 A 
ATOM      6  C6  BNZ d   1      -0.660   1.175   2.950  0.00  0.00     0.000 A 
ENDROOT
TORSDOF 0
ENDMDL
