MODEL 1
REMARK minimizedAffinity -3.98907065
REMARK minimizedRMSD -1
REMARK  0 active torsions:
REMARK  status: ('A' for Active; 'I' for Inactive)
ROOT
ATOM      1  C1  BNZ d   1      -0.551  -0.003   2.846  0.00  0.00     0.000 A 
ATOM      2  C2  BNZ d   1      -1.739  -0.052   2.166  0.00  0.00     0.000 A 
ATOM      3  C3  BNZ d   1      -1.819   0.363   0.866  0.00  0.00     0.000 A 
ATOM      4  C4  BNZ d   1      -0.722   0.864   0.262  0.00  0.00     0.000 A 
ATOM      5  C5  BNZ d   1       0.480   0.929   0.937  0.00  0.00     0.000 A 
ATOM      6  C6  BNZ d   1       0.566   0.474   2.233  0.00  0.00     0.000 A 
ENDROOT
TORSDOF 0
ENDMDL
