MODEL 1
REMARK minimizedAffinity -4.18296719
REMARK minimizedRMSD -1
REMARK  0 active torsions:
REMARK  status: ('A' for Active; 'I' for Inactive)
ROOT
ATOM      1  C1  BNZ d   1       0.153   0.740   0.589  0.00  0.00     0.000 A 
ATOM      2  C2  BNZ d   1       0.022   1.241   1.857  0.00  0.00     0.000 A 
ATOM      3  C3  BNZ d   1      -0.982   0.812   2.678  0.00  0.00     0.000 A 
ATOM      4  C4  BNZ d   1      -1.878  -0.086   2.218  0.00  0.00     0.000 A 
ATOM      5  C5  BNZ d   1      -1.765  -0.593   0.939  0.00  0.00     0.000 A 
ATOM      6  C6  BNZ d   1      -0.729  -0.188   0.128  0.00  0.00     0.000 A 
ENDROOT
TORSDOF 0
ENDMDL
