MODEL 1
REMARK minimizedAffinity -3.44186091
REMARK minimizedRMSD -1
REMARK  1 active torsions:
REMARK  status: ('A' for Active; 'I' for Inactive)
REMARK    1  A    between atoms: N_2  and  C1_3 
ROOT
ATOM      1  C1  UNL d   1      -2.276   1.922   1.005  0.00  0.00     0.143 A 
ATOM      2  C2  UNL d   1      -2.572   1.295   2.220  0.00  0.00    -0.057 A 
ATOM      3  C3  UNL d   1      -2.555  -0.100   2.340  0.00  0.00     0.033 A 
ATOM      4  C4  UNL d   1      -2.270  -0.896   1.235  0.00  0.00    -0.042 A 
ATOM      5  C5  UNL d   1      -1.998  -0.294   0.011  0.00  0.00     0.033 A 
ATOM      6  C6  UNL d   1      -2.009   1.099  -0.100  0.00  0.00    -0.057 A 
ENDROOT
BRANCH   1   7
ATOM      7  N   UNL d   1      -2.373   3.300   0.798  0.00  0.00    -0.732 N 
ATOM      8  C   UNL d   1      -3.079   3.826  -0.350  0.00  0.00     0.284 C 
ATOM      9  H3  UNL d   1      -2.544   3.812   1.661  0.00  0.00     0.395 HD
ENDBRANCH   1   7
TORSDOF 1
ENDMDL
