MODEL 1
REMARK minimizedAffinity 3.99427128
REMARK minimizedRMSD -1
REMARK  1 active torsions:
REMARK  status: ('A' for Active; 'I' for Inactive)
REMARK    1  A    between atoms: N_2  and  C1_3 
ROOT
ATOM      1  C1  UNL d   1      -3.120   0.066   1.371  0.00  0.00     0.143 A 
ATOM      2  C2  UNL d   1      -3.081   1.454   1.542  0.00  0.00    -0.057 A 
ATOM      3  C3  UNL d   1      -3.142   2.323   0.446  0.00  0.00     0.033 A 
ATOM      4  C4  UNL d   1      -3.215   1.817  -0.847  0.00  0.00    -0.042 A 
ATOM      5  C5  UNL d   1      -3.230   0.440  -1.043  0.00  0.00     0.033 A 
ATOM      6  C6  UNL d   1      -3.175  -0.422   0.056  0.00  0.00    -0.057 A 
ENDROOT
BRANCH   1   7
ATOM      7  N   UNL d   1      -2.963  -0.851   2.413  0.00  0.00    -0.732 N 
ATOM      8  C   UNL d   1      -2.079  -0.563   3.522  0.00  0.00     0.284 C 
ATOM      9  H3  UNL d   1      -3.842  -1.285   2.684  0.00  0.00     0.395 HD
ENDBRANCH   1   7
TORSDOF 1
ENDMDL
