MODEL 1
REMARK minimizedAffinity -1.48780251
REMARK minimizedRMSD -1
REMARK  1 active torsions:
REMARK  status: ('A' for Active; 'I' for Inactive)
REMARK    1  A    between atoms: N_2  and  C1_3 
ROOT
ATOM      1  C1  UNL d   1      -2.952   1.336   0.631  0.00  0.00     0.143 A 
ATOM      2  C2  UNL d   1      -3.045  -0.019   0.296  0.00  0.00    -0.057 A 
ATOM      3  C3  UNL d   1      -2.890  -1.018   1.264  0.00  0.00     0.033 A 
ATOM      4  C4  UNL d   1      -2.609  -0.680   2.583  0.00  0.00    -0.042 A 
ATOM      5  C5  UNL d   1      -2.488   0.660   2.934  0.00  0.00     0.033 A 
ATOM      6  C6  UNL d   1      -2.651   1.654   1.965  0.00  0.00    -0.057 A 
ENDROOT
BRANCH   1   7
ATOM      7  N   UNL d   1      -2.999   2.374  -0.304  0.00  0.00    -0.732 N 
ATOM      8  C   UNL d   1      -2.666   3.728   0.081  0.00  0.00     0.284 C 
ATOM      9  H3  UNL d   1      -2.630   2.097  -1.210  0.00  0.00     0.395 HD
ENDBRANCH   1   7
TORSDOF 1
ENDMDL
