MODEL 1
REMARK minimizedAffinity -1.74315453
REMARK minimizedRMSD -1
REMARK  1 active torsions:
REMARK  status: ('A' for Active; 'I' for Inactive)
REMARK    1  A    between atoms: N_2  and  C1_3 
ROOT
ATOM      1  C1  UNL d   1       2.702   1.663  -4.716  0.00  0.00     0.143 A 
ATOM      2  C2  UNL d   1       1.444   2.270  -4.631  0.00  0.00    -0.057 A 
ATOM      3  C3  UNL d   1       0.608   2.057  -3.529  0.00  0.00     0.033 A 
ATOM      4  C4  UNL d   1       1.005   1.207  -2.501  0.00  0.00    -0.042 A 
ATOM      5  C5  UNL d   1       2.240   0.573  -2.577  0.00  0.00     0.033 A 
ATOM      6  C6  UNL d   1       3.073   0.795  -3.677  0.00  0.00    -0.057 A 
ENDROOT
BRANCH   1   7
ATOM      7  N   UNL d   1       3.537   1.757  -5.832  0.00  0.00    -0.732 N 
ATOM      8  C   UNL d   1       4.658   0.856  -5.992  0.00  0.00     0.284 C 
ATOM      9  H3  UNL d   1       3.020   1.934  -6.691  0.00  0.00     0.395 HD
ENDBRANCH   1   7
TORSDOF 1
ENDMDL
