MODEL 1
REMARK minimizedAffinity -3.80628085
REMARK minimizedRMSD -1
REMARK  1 active torsions:
REMARK  status: ('A' for Active; 'I' for Inactive)
REMARK    1  A    between atoms: N_2  and  C1_3 
ROOT
ATOM      1  C1  UNL d   1      -3.885  -0.413   0.281  0.00  0.00     0.143 A 
ATOM      2  C2  UNL d   1      -4.479  -0.339   1.546  0.00  0.00    -0.057 A 
ATOM      3  C3  UNL d   1      -3.707  -0.368   2.713  0.00  0.00     0.033 A 
ATOM      4  C4  UNL d   1      -2.324  -0.499   2.637  0.00  0.00    -0.042 A 
ATOM      5  C5  UNL d   1      -1.714  -0.599   1.391  0.00  0.00     0.033 A 
ATOM      6  C6  UNL d   1      -2.490  -0.563   0.229  0.00  0.00    -0.057 A 
ENDROOT
BRANCH   1   7
ATOM      7  N   UNL d   1      -4.605  -0.489  -0.913  0.00  0.00    -0.732 N 
ATOM      8  C   UNL d   1      -6.000  -0.105  -0.959  0.00  0.00     0.284 C 
ATOM      9  H3  UNL d   1      -4.062  -0.177  -1.715  0.00  0.00     0.395 HD
ENDBRANCH   1   7
TORSDOF 1
ENDMDL
