MODEL 1
REMARK minimizedAffinity 6.87629366
REMARK minimizedRMSD -1
REMARK  1 active torsions:
REMARK  status: ('A' for Active; 'I' for Inactive)
REMARK    1  A    between atoms: N_2  and  C1_3 
ROOT
ATOM      1  C1  UNL d   1      -4.196   0.367   1.619  0.00  0.00     0.143 A 
ATOM      2  C2  UNL d   1      -5.560   0.393   1.307  0.00  0.00    -0.057 A 
ATOM      3  C3  UNL d   1      -6.000   0.577  -0.010  0.00  0.00     0.033 A 
ATOM      4  C4  UNL d   1      -5.081   0.767  -1.036  0.00  0.00    -0.042 A 
ATOM      5  C5  UNL d   1      -3.721   0.770  -0.745  0.00  0.00     0.033 A 
ATOM      6  C6  UNL d   1      -3.288   0.579   0.570  0.00  0.00    -0.057 A 
ENDROOT
BRANCH   1   7
ATOM      7  N   UNL d   1      -3.698   0.286   2.922  0.00  0.00    -0.732 N 
ATOM      8  C   UNL d   1      -4.439  -0.409   3.953  0.00  0.00     0.284 C 
ATOM      9  H3  UNL d   1      -2.695   0.117   2.944  0.00  0.00     0.395 HD
ENDBRANCH   1   7
TORSDOF 1
ENDMDL
