MODEL 1
REMARK minimizedAffinity -0.614117384
REMARK minimizedRMSD -1
REMARK  1 active torsions:
REMARK  status: ('A' for Active; 'I' for Inactive)
REMARK    1  A    between atoms: N_2  and  C1_3 
ROOT
ATOM      1  C1  UNL d   1      -3.321   4.692   1.463  0.00  0.00     0.143 A 
ATOM      2  C2  UNL d   1      -3.026   4.880   0.109  0.00  0.00    -0.057 A 
ATOM      3  C3  UNL d   1      -2.687   3.801  -0.717  0.00  0.00     0.033 A 
ATOM      4  C4  UNL d   1      -2.609   2.515  -0.194  0.00  0.00    -0.042 A 
ATOM      5  C5  UNL d   1      -2.873   2.308   1.155  0.00  0.00     0.033 A 
ATOM      6  C6  UNL d   1      -3.218   3.388   1.973  0.00  0.00    -0.057 A 
ENDROOT
BRANCH   1   7
ATOM      7  N   UNL d   1      -3.569   5.736   2.358  0.00  0.00    -0.732 N 
ATOM      8  C   UNL d   1      -4.597   5.613   3.369  0.00  0.00     0.284 C 
ATOM      9  H3  UNL d   1      -2.713   6.176   2.688  0.00  0.00     0.395 HD
ENDBRANCH   1   7
TORSDOF 1
ENDMDL
