MODEL 1
REMARK minimizedAffinity -3.51889038
REMARK minimizedRMSD -1
REMARK  1 active torsions:
REMARK  status: ('A' for Active; 'I' for Inactive)
REMARK    1  A    between atoms: N_2  and  C1_3 
ROOT
ATOM      1  C1  UNL d   1      -3.057   1.247   0.864  0.00  0.00     0.143 A 
ATOM      2  C2  UNL d   1      -3.170  -0.119   0.587  0.00  0.00    -0.057 A 
ATOM      3  C3  UNL d   1      -3.098  -1.076   1.607  0.00  0.00     0.033 A 
ATOM      4  C4  UNL d   1      -2.881  -0.682   2.923  0.00  0.00    -0.042 A 
ATOM      5  C5  UNL d   1      -2.740   0.669   3.219  0.00  0.00     0.033 A 
ATOM      6  C6  UNL d   1      -2.820   1.620   2.197  0.00  0.00    -0.057 A 
ENDROOT
BRANCH   1   7
ATOM      7  N   UNL d   1      -3.022   2.240  -0.118  0.00  0.00    -0.732 N 
ATOM      8  C   UNL d   1      -3.178   3.634   0.237  0.00  0.00     0.284 C 
ATOM      9  H3  UNL d   1      -2.305   2.068  -0.819  0.00  0.00     0.395 HD
ENDBRANCH   1   7
TORSDOF 1
ENDMDL
