MODEL 1
REMARK minimizedAffinity 2.10073185
REMARK minimizedRMSD -1
REMARK  1 active torsions:
REMARK  status: ('A' for Active; 'I' for Inactive)
REMARK    1  A    between atoms: N_2  and  C1_3 
ROOT
ATOM      1  C1  UNL d   1      -4.102   1.439   4.817  0.00  0.00     0.143 A 
ATOM      2  C2  UNL d   1      -3.328   1.970   3.780  0.00  0.00    -0.057 A 
ATOM      3  C3  UNL d   1      -2.985   1.200   2.662  0.00  0.00     0.033 A 
ATOM      4  C4  UNL d   1      -3.387  -0.129   2.575  0.00  0.00    -0.042 A 
ATOM      5  C5  UNL d   1      -4.136  -0.685   3.606  0.00  0.00     0.033 A 
ATOM      6  C6  UNL d   1      -4.481   0.091   4.717  0.00  0.00    -0.057 A 
ENDROOT
BRANCH   1   7
ATOM      7  N   UNL d   1      -4.393   2.123   6.000  0.00  0.00    -0.732 N 
ATOM      8  C   UNL d   1      -4.568   3.560   5.996  0.00  0.00     0.284 C 
ATOM      9  H3  UNL d   1      -5.061   1.624   6.583  0.00  0.00     0.395 HD
ENDBRANCH   1   7
TORSDOF 1
ENDMDL
