MODEL 1
REMARK minimizedAffinity -3.5164454
REMARK minimizedRMSD -1
REMARK  1 active torsions:
REMARK  status: ('A' for Active; 'I' for Inactive)
REMARK    1  A    between atoms: N_2  and  C1_3 
ROOT
ATOM      1  C1  UNL d   1      -2.484   1.786   1.390  0.00  0.00     0.143 A 
ATOM      2  C2  UNL d   1      -2.410   1.167   2.642  0.00  0.00    -0.057 A 
ATOM      3  C3  UNL d   1      -2.540  -0.221   2.775  0.00  0.00     0.033 A 
ATOM      4  C4  UNL d   1      -2.777  -1.014   1.657  0.00  0.00    -0.042 A 
ATOM      5  C5  UNL d   1      -2.880  -0.417   0.405  0.00  0.00     0.033 A 
ATOM      6  C6  UNL d   1      -2.742   0.968   0.278  0.00  0.00    -0.057 A 
ENDROOT
BRANCH   1   7
ATOM      7  N   UNL d   1      -2.461   3.170   1.204  0.00  0.00    -0.732 N 
ATOM      8  C   UNL d   1      -3.390   3.808   0.296  0.00  0.00     0.284 C 
ATOM      9  H3  UNL d   1      -2.316   3.677   2.075  0.00  0.00     0.395 HD
ENDBRANCH   1   7
TORSDOF 1
ENDMDL
