MODEL 1
REMARK minimizedAffinity -1.69996893
REMARK minimizedRMSD -1
REMARK  1 active torsions:
REMARK  status: ('A' for Active; 'I' for Inactive)
REMARK    1  A    between atoms: N_2  and  C1_3 
ROOT
ATOM      1  C1  UNL d   1      -2.424   1.985   1.169  0.00  0.00     0.143 A 
ATOM      2  C2  UNL d   1      -2.307   1.257   2.358  0.00  0.00    -0.057 A 
ATOM      3  C3  UNL d   1      -2.346  -0.142   2.359  0.00  0.00     0.033 A 
ATOM      4  C4  UNL d   1      -2.533  -0.840   1.171  0.00  0.00    -0.042 A 
ATOM      5  C5  UNL d   1      -2.677  -0.136  -0.020  0.00  0.00     0.033 A 
ATOM      6  C6  UNL d   1      -2.630   1.261  -0.016  0.00  0.00    -0.057 A 
ENDROOT
BRANCH   1   7
ATOM      7  N   UNL d   1      -2.491   3.379   1.114  0.00  0.00    -0.732 N 
ATOM      8  C   UNL d   1      -3.240   4.041   0.067  0.00  0.00     0.284 C 
ATOM      9  H3  UNL d   1      -2.603   3.799   2.034  0.00  0.00     0.395 HD
ENDBRANCH   1   7
TORSDOF 1
ENDMDL
