MODEL 1
REMARK minimizedAffinity -1.71965563
REMARK minimizedRMSD -1
REMARK  0 active torsions:
REMARK  status: ('A' for Active; 'I' for Inactive)
ROOT
ATOM      1  C   UNL d   1      -3.939   4.830  -5.832  0.00  0.00     0.023 A 
ATOM      2  C1  UNL d   1      -5.222   4.303  -5.983  0.00  0.00     0.003 A 
ATOM      3  C2  UNL d   1      -5.412   2.919  -6.000  0.00  0.00     0.048 A 
ATOM      4  C3  UNL d   1      -4.315   2.069  -5.864  0.00  0.00     0.023 A 
ATOM      5  C4  UNL d   1      -3.030   2.592  -5.713  0.00  0.00     0.048 A 
ATOM      6  C5  UNL d   1      -2.844   3.976  -5.698  0.00  0.00     0.003 A 
ATOM      7  I   UNL d   1      -4.595   0.010  -5.889  0.00  0.00    -0.146 I 
ENDROOT
TORSDOF 0
ENDMDL
