MODEL 1
REMARK minimizedAffinity -0.805900276
REMARK minimizedRMSD -1
REMARK  0 active torsions:
REMARK  status: ('A' for Active; 'I' for Inactive)
ROOT
ATOM      1  C   UNL d   1      -2.741   4.197  -5.524  0.00  0.00     0.023 A 
ATOM      2  C1  UNL d   1      -3.982   3.772  -5.999  0.00  0.00     0.003 A 
ATOM      3  C2  UNL d   1      -4.393   2.452  -5.800  0.00  0.00     0.048 A 
ATOM      4  C3  UNL d   1      -3.559   1.563  -5.123  0.00  0.00     0.023 A 
ATOM      5  C4  UNL d   1      -2.317   1.985  -4.644  0.00  0.00     0.048 A 
ATOM      6  C5  UNL d   1      -1.910   3.305  -4.847  0.00  0.00     0.003 A 
ATOM      7  I   UNL d   1      -4.168  -0.401  -4.824  0.00  0.00    -0.146 I 
ENDROOT
TORSDOF 0
ENDMDL
