MODEL 1
REMARK minimizedAffinity -3.67539358
REMARK minimizedRMSD -1
REMARK  0 active torsions:
REMARK  status: ('A' for Active; 'I' for Inactive)
ROOT
ATOM      1  C   UNL d   1       4.738  -1.457  -2.034  0.00  0.00     0.023 A 
ATOM      2  C1  UNL d   1       4.631  -0.110  -1.688  0.00  0.00     0.003 A 
ATOM      3  C2  UNL d   1       3.418   0.398  -1.221  0.00  0.00     0.048 A 
ATOM      4  C3  UNL d   1       2.315  -0.447  -1.101  0.00  0.00     0.023 A 
ATOM      5  C4  UNL d   1       2.417  -1.796  -1.445  0.00  0.00     0.048 A 
ATOM      6  C5  UNL d   1       3.633  -2.299  -1.912  0.00  0.00     0.003 A 
ATOM      7  I   UNL d   1       0.507   0.307  -0.405  0.00  0.00    -0.146 I 
ENDROOT
TORSDOF 0
ENDMDL
