MODEL 1
REMARK minimizedAffinity 0.145974964
REMARK minimizedRMSD -1
REMARK  0 active torsions:
REMARK  status: ('A' for Active; 'I' for Inactive)
ROOT
ATOM      1  C   UNL d   1      -1.314   3.521  -5.731  0.00  0.00     0.023 A 
ATOM      2  C1  UNL d   1      -2.308   2.546  -5.663  0.00  0.00     0.003 A 
ATOM      3  C2  UNL d   1      -3.654   2.911  -5.739  0.00  0.00     0.048 A 
ATOM      4  C3  UNL d   1      -3.998   4.255  -5.885  0.00  0.00     0.023 A 
ATOM      5  C4  UNL d   1      -3.006   5.235  -5.954  0.00  0.00     0.048 A 
ATOM      6  C5  UNL d   1      -1.662   4.864  -5.876  0.00  0.00     0.003 A 
ATOM      7  I   UNL d   1      -6.000   4.802  -6.000  0.00  0.00    -0.146 I 
ENDROOT
TORSDOF 0
ENDMDL
