MODEL 1
REMARK minimizedAffinity 0.342239082
REMARK minimizedRMSD -1
REMARK  0 active torsions:
REMARK  status: ('A' for Active; 'I' for Inactive)
ROOT
ATOM      1  C   UNL d   1      -5.699   4.959  -6.000  0.00  0.00     0.023 A 
ATOM      2  C1  UNL d   1      -5.665   3.565  -6.000  0.00  0.00     0.003 A 
ATOM      3  C2  UNL d   1      -4.454   2.894  -5.816  0.00  0.00     0.048 A 
ATOM      4  C3  UNL d   1      -3.281   3.624  -5.632  0.00  0.00     0.023 A 
ATOM      5  C4  UNL d   1      -3.309   5.020  -5.631  0.00  0.00     0.048 A 
ATOM      6  C5  UNL d   1      -4.522   5.686  -5.815  0.00  0.00     0.003 A 
ATOM      7  I   UNL d   1      -1.477   2.628  -5.359  0.00  0.00    -0.146 I 
ENDROOT
TORSDOF 0
ENDMDL
