MODEL 1
REMARK minimizedAffinity -0.742124319
REMARK minimizedRMSD -1
REMARK  0 active torsions:
REMARK  status: ('A' for Active; 'I' for Inactive)
ROOT
ATOM      1  C   UNL d   1      -6.000   4.119  -6.000  0.00  0.00     0.023 A 
ATOM      2  C1  UNL d   1      -5.213   2.967  -5.973  0.00  0.00     0.003 A 
ATOM      3  C2  UNL d   1      -3.827   3.070  -5.843  0.00  0.00     0.048 A 
ATOM      4  C3  UNL d   1      -3.233   4.327  -5.740  0.00  0.00     0.023 A 
ATOM      5  C4  UNL d   1      -4.016   5.483  -5.766  0.00  0.00     0.048 A 
ATOM      6  C5  UNL d   1      -5.402   5.375  -5.897  0.00  0.00     0.003 A 
ATOM      7  I   UNL d   1      -1.170   4.483  -5.547  0.00  0.00    -0.146 I 
ENDROOT
TORSDOF 0
ENDMDL
