MODEL 1
REMARK minimizedAffinity 2.35587835
REMARK minimizedRMSD -1
REMARK  0 active torsions:
REMARK  status: ('A' for Active; 'I' for Inactive)
ROOT
ATOM      1  C   UNL d   1      -0.963  -1.053  -2.554  0.00  0.00     0.023 A 
ATOM      2  C1  UNL d   1      -0.624   0.124  -3.221  0.00  0.00     0.003 A 
ATOM      3  C2  UNL d   1       0.531   0.823  -2.863  0.00  0.00     0.048 A 
ATOM      4  C3  UNL d   1       1.342   0.339  -1.837  0.00  0.00     0.023 A 
ATOM      5  C4  UNL d   1       1.007  -0.839  -1.168  0.00  0.00     0.048 A 
ATOM      6  C5  UNL d   1      -0.148  -1.534  -1.529  0.00  0.00     0.003 A 
ATOM      7  I   UNL d   1       3.061   1.378  -1.303  0.00  0.00    -0.146 I 
ENDROOT
TORSDOF 0
ENDMDL
