MODEL 1
REMARK minimizedAffinity -1.857095
REMARK minimizedRMSD -1
REMARK  0 active torsions:
REMARK  status: ('A' for Active; 'I' for Inactive)
ROOT
ATOM      1  C   UNL d   1       0.791   0.171   0.481  0.00  0.00     0.023 A 
ATOM      2  C1  UNL d   1       0.944   0.763  -0.773  0.00  0.00     0.003 A 
ATOM      3  C2  UNL d   1       0.283   0.231  -1.883  0.00  0.00     0.048 A 
ATOM      4  C3  UNL d   1      -0.529  -0.892  -1.731  0.00  0.00     0.023 A 
ATOM      5  C4  UNL d   1      -0.686  -1.487  -0.478  0.00  0.00     0.048 A 
ATOM      6  C5  UNL d   1      -0.023  -0.952   0.628  0.00  0.00     0.003 A 
ATOM      7  I   UNL d   1      -1.514  -1.684  -3.381  0.00  0.00    -0.146 I 
ENDROOT
TORSDOF 0
ENDMDL
