MODEL 1
REMARK minimizedAffinity -3.12955403
REMARK minimizedRMSD -1
REMARK  0 active torsions:
REMARK  status: ('A' for Active; 'I' for Inactive)
ROOT
ATOM      1  C   UNL d   1      -2.722   4.366  -5.331  0.00  0.00     0.023 A 
ATOM      2  C1  UNL d   1      -4.032   4.503  -5.790  0.00  0.00     0.003 A 
ATOM      3  C2  UNL d   1      -4.827   3.372  -5.983  0.00  0.00     0.048 A 
ATOM      4  C3  UNL d   1      -4.307   2.107  -5.714  0.00  0.00     0.023 A 
ATOM      5  C4  UNL d   1      -2.997   1.965  -5.253  0.00  0.00     0.048 A 
ATOM      6  C5  UNL d   1      -2.205   3.099  -5.063  0.00  0.00     0.003 A 
ATOM      7  I   UNL d   1      -5.489   0.421  -6.000  0.00  0.00    -0.146 I 
ENDROOT
TORSDOF 0
ENDMDL
