MODEL 1
REMARK minimizedAffinity 0.2494234
REMARK minimizedRMSD -1
REMARK  0 active torsions:
REMARK  status: ('A' for Active; 'I' for Inactive)
ROOT
ATOM      1  C   UNL d   1      -1.329   3.610  -5.708  0.00  0.00     0.023 A 
ATOM      2  C1  UNL d   1      -1.672   4.958  -5.608  0.00  0.00     0.003 A 
ATOM      3  C2  UNL d   1      -3.011   5.347  -5.692  0.00  0.00     0.048 A 
ATOM      4  C3  UNL d   1      -4.001   4.383  -5.875  0.00  0.00     0.023 A 
ATOM      5  C4  UNL d   1      -3.662   3.032  -5.975  0.00  0.00     0.048 A 
ATOM      6  C5  UNL d   1      -2.322   2.648  -5.891  0.00  0.00     0.003 A 
ATOM      7  I   UNL d   1      -5.994   4.959  -6.000  0.00  0.00    -0.146 I 
ENDROOT
TORSDOF 0
ENDMDL
