MODEL 1
REMARK minimizedAffinity 3.42962289
REMARK minimizedRMSD -1
REMARK  0 active torsions:
REMARK  status: ('A' for Active; 'I' for Inactive)
ROOT
ATOM      1  C   UNL d   1      -1.481   5.407  -5.794  0.00  0.00     0.023 A 
ATOM      2  C1  UNL d   1      -2.729   6.000  -5.982  0.00  0.00     0.003 A 
ATOM      3  C2  UNL d   1      -3.883   5.213  -6.000  0.00  0.00     0.048 A 
ATOM      4  C3  UNL d   1      -3.780   3.833  -5.828  0.00  0.00     0.023 A 
ATOM      5  C4  UNL d   1      -2.533   3.235  -5.638  0.00  0.00     0.048 A 
ATOM      6  C5  UNL d   1      -1.383   4.026  -5.622  0.00  0.00     0.003 A 
ATOM      7  I   UNL d   1      -5.495   2.659  -5.854  0.00  0.00    -0.146 I 
ENDROOT
TORSDOF 0
ENDMDL
