MODEL 1
REMARK minimizedAffinity -2.58902907
REMARK minimizedRMSD -1
REMARK  0 active torsions:
REMARK  status: ('A' for Active; 'I' for Inactive)
ROOT
ATOM      1  C   UNL d   1      -3.138   4.617  -5.852  0.00  0.00     0.023 A 
ATOM      2  C1  UNL d   1      -2.575   3.342  -5.792  0.00  0.00     0.003 A 
ATOM      3  C2  UNL d   1      -3.395   2.213  -5.833  0.00  0.00     0.048 A 
ATOM      4  C3  UNL d   1      -4.777   2.365  -5.936  0.00  0.00     0.023 A 
ATOM      5  C4  UNL d   1      -5.345   3.639  -5.997  0.00  0.00     0.048 A 
ATOM      6  C5  UNL d   1      -4.522   4.765  -5.955  0.00  0.00     0.003 A 
ATOM      7  I   UNL d   1      -6.000   0.685  -5.998  0.00  0.00    -0.146 I 
ENDROOT
TORSDOF 0
ENDMDL
