MODEL 1
REMARK minimizedAffinity -4.6913085
REMARK minimizedRMSD -1
REMARK  0 active torsions:
REMARK  status: ('A' for Active; 'I' for Inactive)
ROOT
ATOM      1  C   UNL d   1       2.579  -1.123  -2.243  0.00  0.00     0.023 A 
ATOM      2  C1  UNL d   1       2.614  -0.374  -3.419  0.00  0.00     0.003 A 
ATOM      3  C2  UNL d   1       3.390  -0.802  -4.498  0.00  0.00     0.048 A 
ATOM      4  C3  UNL d   1       4.129  -1.980  -4.394  0.00  0.00     0.023 A 
ATOM      5  C4  UNL d   1       4.097  -2.732  -3.219  0.00  0.00     0.048 A 
ATOM      6  C5  UNL d   1       3.320  -2.300  -2.143  0.00  0.00     0.003 A 
ATOM      7  I   UNL d   1       5.286  -2.619  -5.998  0.00  0.00    -0.146 I 
ENDROOT
TORSDOF 0
ENDMDL
