MODEL 1
REMARK minimizedAffinity -3.20442128
REMARK minimizedRMSD -1
REMARK  0 active torsions:
REMARK  status: ('A' for Active; 'I' for Inactive)
ROOT
ATOM      1  C   UNL d   1      -4.184  -3.768  -5.966  0.00  0.00     0.023 A 
ATOM      2  C1  UNL d   1      -5.325  -2.965  -5.990  0.00  0.00     0.003 A 
ATOM      3  C2  UNL d   1      -5.202  -1.574  -6.000  0.00  0.00     0.048 A 
ATOM      4  C3  UNL d   1      -3.935  -0.992  -5.986  0.00  0.00     0.023 A 
ATOM      5  C4  UNL d   1      -2.790  -1.791  -5.962  0.00  0.00     0.048 A 
ATOM      6  C5  UNL d   1      -2.919  -3.182  -5.951  0.00  0.00     0.003 A 
ATOM      7  I   UNL d   1      -3.748   1.078  -6.000  0.00  0.00    -0.146 I 
ENDROOT
TORSDOF 0
ENDMDL
