MODEL 1
REMARK minimizedAffinity -1.09749174
REMARK minimizedRMSD -1
REMARK  0 active torsions:
REMARK  status: ('A' for Active; 'I' for Inactive)
ROOT
ATOM      1  C   UNL d   1      -3.751  -3.040  -5.724  0.00  0.00     0.023 A 
ATOM      2  C1  UNL d   1      -2.669  -2.167  -5.607  0.00  0.00     0.003 A 
ATOM      3  C2  UNL d   1      -2.871  -0.788  -5.686  0.00  0.00     0.048 A 
ATOM      4  C3  UNL d   1      -4.158  -0.288  -5.881  0.00  0.00     0.023 A 
ATOM      5  C4  UNL d   1      -5.244  -1.157  -5.997  0.00  0.00     0.048 A 
ATOM      6  C5  UNL d   1      -5.037  -2.535  -5.918  0.00  0.00     0.003 A 
ATOM      7  I   UNL d   1      -4.462   1.765  -5.999  0.00  0.00    -0.146 I 
ENDROOT
TORSDOF 0
ENDMDL
