MODEL 1
REMARK minimizedAffinity 3.54909873
REMARK minimizedRMSD -1
REMARK  0 active torsions:
REMARK  status: ('A' for Active; 'I' for Inactive)
ROOT
ATOM      1  C   UNL d   1      -4.438   4.862  -5.996  0.00  0.00     0.023 A 
ATOM      2  C1  UNL d   1      -3.320   4.084  -5.693  0.00  0.00     0.003 A 
ATOM      3  C2  UNL d   1      -3.472   2.729  -5.391  0.00  0.00     0.048 A 
ATOM      4  C3  UNL d   1      -4.744   2.158  -5.395  0.00  0.00     0.023 A 
ATOM      5  C4  UNL d   1      -5.865   2.932  -5.699  0.00  0.00     0.048 A 
ATOM      6  C5  UNL d   1      -5.709   4.286  -5.999  0.00  0.00     0.003 A 
ATOM      7  I   UNL d   1      -4.971   0.141  -4.946  0.00  0.00    -0.146 I 
ENDROOT
TORSDOF 0
ENDMDL
