MODEL 1
REMARK minimizedAffinity -2.9421916
REMARK minimizedRMSD -1
REMARK  0 active torsions:
REMARK  status: ('A' for Active; 'I' for Inactive)
ROOT
ATOM      1  C   UNL d   1       2.736  -1.140  -1.773  0.00  0.00     0.023 A 
ATOM      2  C1  UNL d   1       3.495  -2.305  -1.884  0.00  0.00     0.003 A 
ATOM      3  C2  UNL d   1       4.108  -2.628  -3.097  0.00  0.00     0.048 A 
ATOM      4  C3  UNL d   1       3.959  -1.780  -4.194  0.00  0.00     0.023 A 
ATOM      5  C4  UNL d   1       3.201  -0.613  -4.087  0.00  0.00     0.048 A 
ATOM      6  C5  UNL d   1       2.589  -0.295  -2.873  0.00  0.00     0.003 A 
ATOM      7  I   UNL d   1       4.870  -2.258  -6.000  0.00  0.00    -0.146 I 
ENDROOT
TORSDOF 0
ENDMDL
