MODEL 1
REMARK minimizedAffinity 4.72673655
REMARK minimizedRMSD -1
REMARK  0 active torsions:
REMARK  status: ('A' for Active; 'I' for Inactive)
ROOT
ATOM      1  C   UNL d   1       5.789   1.667  -1.098  0.00  0.00     0.023 A 
ATOM      2  C1  UNL d   1       5.409   0.352  -1.366  0.00  0.00     0.003 A 
ATOM      3  C2  UNL d   1       4.058  -0.002  -1.356  0.00  0.00     0.048 A 
ATOM      4  C3  UNL d   1       3.092   0.964  -1.077  0.00  0.00     0.023 A 
ATOM      5  C4  UNL d   1       3.467   2.282  -0.810  0.00  0.00     0.048 A 
ATOM      6  C5  UNL d   1       4.819   2.631  -0.820  0.00  0.00     0.003 A 
ATOM      7  I   UNL d   1       1.081   0.440  -1.061  0.00  0.00    -0.146 I 
ENDROOT
TORSDOF 0
ENDMDL
