MODEL 1
REMARK minimizedAffinity -1.11729801
REMARK minimizedRMSD -1
REMARK  0 active torsions:
REMARK  status: ('A' for Active; 'I' for Inactive)
ROOT
ATOM      1  C   UNL d   1      -0.796  -1.362  -2.672  0.00  0.00     0.023 A 
ATOM      2  C1  UNL d   1      -1.808  -1.904  -3.464  0.00  0.00     0.003 A 
ATOM      3  C2  UNL d   1      -2.768  -1.070  -4.040  0.00  0.00     0.048 A 
ATOM      4  C3  UNL d   1      -2.710   0.306  -3.820  0.00  0.00     0.023 A 
ATOM      5  C4  UNL d   1      -1.699   0.853  -3.029  0.00  0.00     0.048 A 
ATOM      6  C5  UNL d   1      -0.741   0.015  -2.454  0.00  0.00     0.003 A 
ATOM      7  I   UNL d   1      -4.138   1.550  -4.677  0.00  0.00    -0.146 I 
ENDROOT
TORSDOF 0
ENDMDL
