MODEL 1
REMARK minimizedAffinity -4.65099955
REMARK minimizedRMSD -1
REMARK  0 active torsions:
REMARK  status: ('A' for Active; 'I' for Inactive)
ROOT
ATOM      1  C2' OXE d   1       0.599  -0.486  -0.972  0.00  0.00     0.078 C 
ATOM      2  C1' OXE d   1       0.840  -0.662   1.819  0.00  0.00     0.078 C 
ATOM      3  C1  OXE d   1      -0.058   0.412   1.257  0.00  0.00    -0.078 A 
ATOM      4  C2  OXE d   1      -0.133   0.521  -0.111  0.00  0.00    -0.078 A 
ATOM      5  C3  OXE d   1      -0.989   1.458  -0.682  0.00  0.00     0.003 A 
ATOM      6  C4  OXE d   1      -1.655   2.392   0.121  0.00  0.00    -0.002 A 
ATOM      7  C5  OXE d   1      -1.561   2.324   1.516  0.00  0.00    -0.002 A 
ATOM      8  C6  OXE d   1      -0.802   1.316   2.099  0.00  0.00     0.003 A 
ENDROOT
TORSDOF 0
ENDMDL
