MODEL 1
REMARK minimizedAffinity -3.23060083
REMARK minimizedRMSD -1
REMARK  0 active torsions:
REMARK  status: ('A' for Active; 'I' for Inactive)
ROOT
ATOM      1  C2' OXE d   1       0.951   1.599  -1.162  0.00  0.00     0.078 C 
ATOM      2  C1' OXE d   1       0.727  -1.198  -1.087  0.00  0.00     0.078 C 
ATOM      3  C1  OXE d   1       0.145  -0.415   0.062  0.00  0.00    -0.078 A 
ATOM      4  C2  OXE d   1       0.300   0.950   0.040  0.00  0.00    -0.078 A 
ATOM      5  C3  OXE d   1      -0.266   1.725   1.049  0.00  0.00     0.003 A 
ATOM      6  C4  OXE d   1      -0.857   1.116   2.163  0.00  0.00    -0.002 A 
ATOM      7  C5  OXE d   1      -0.991  -0.275   2.224  0.00  0.00    -0.002 A 
ATOM      8  C6  OXE d   1      -0.534  -1.051   1.165  0.00  0.00     0.003 A 
ENDROOT
TORSDOF 0
ENDMDL
