MODEL 1
REMARK minimizedAffinity -6.27286339
REMARK minimizedRMSD -1
REMARK  0 active torsions:
REMARK  status: ('A' for Active; 'I' for Inactive)
ROOT
ATOM      1  C2' OXE d   1      -0.324  -0.437   0.981  0.00  0.00     0.078 C 
ATOM      2  C1' OXE d   1       1.070   0.881  -1.068  0.00  0.00     0.078 C 
ATOM      3  C1  OXE d   1       0.039   1.669  -0.299  0.00  0.00    -0.078 A 
ATOM      4  C2  OXE d   1      -0.671   1.003   0.671  0.00  0.00    -0.078 A 
ATOM      5  C3  OXE d   1      -1.595   1.697   1.447  0.00  0.00     0.003 A 
ATOM      6  C4  OXE d   1      -1.918   3.026   1.147  0.00  0.00    -0.002 A 
ATOM      7  C5  OXE d   1      -1.234   3.711   0.137  0.00  0.00    -0.002 A 
ATOM      8  C6  OXE d   1      -0.225   3.061  -0.566  0.00  0.00     0.003 A 
ENDROOT
TORSDOF 0
ENDMDL
