MODEL 1
REMARK minimizedAffinity -5.7120471
REMARK minimizedRMSD -1
REMARK  0 active torsions:
REMARK  status: ('A' for Active; 'I' for Inactive)
ROOT
ATOM      1  C2' OXE d   1      -0.927  -0.761   2.012  0.00  0.00     0.078 C 
ATOM      2  C1' OXE d   1       0.609  -0.320  -0.296  0.00  0.00     0.078 C 
ATOM      3  C1  OXE d   1      -0.164   0.846   0.268  0.00  0.00    -0.078 A 
ATOM      4  C2  OXE d   1      -0.950   0.609   1.370  0.00  0.00    -0.078 A 
ATOM      5  C3  OXE d   1      -1.641   1.662   1.963  0.00  0.00     0.003 A 
ATOM      6  C4  OXE d   1      -1.666   2.924   1.357  0.00  0.00    -0.002 A 
ATOM      7  C5  OXE d   1      -0.904   3.176   0.211  0.00  0.00    -0.002 A 
ATOM      8  C6  OXE d   1      -0.116   2.161  -0.320  0.00  0.00     0.003 A 
ENDROOT
TORSDOF 0
ENDMDL
