MODEL 1
REMARK minimizedAffinity -3.65536022
REMARK minimizedRMSD -1
REMARK  0 active torsions:
REMARK  status: ('A' for Active; 'I' for Inactive)
ROOT
ATOM      1  C2' OXE d   1      -0.825   1.553   1.948  0.00  0.00     0.078 C 
ATOM      2  C1' OXE d   1       0.509  -0.356   0.380  0.00  0.00     0.078 C 
ATOM      3  C1  OXE d   1       0.489   1.070  -0.113  0.00  0.00    -0.078 A 
ATOM      4  C2  OXE d   1      -0.206   1.988   0.637  0.00  0.00    -0.078 A 
ATOM      5  C3  OXE d   1      -0.211   3.327   0.256  0.00  0.00     0.003 A 
ATOM      6  C4  OXE d   1       0.355   3.719  -0.963  0.00  0.00    -0.002 A 
ATOM      7  C5  OXE d   1       1.034   2.792  -1.762  0.00  0.00    -0.002 A 
ATOM      8  C6  OXE d   1       1.146   1.475  -1.331  0.00  0.00     0.003 A 
ENDROOT
TORSDOF 0
ENDMDL
