MODEL 1
REMARK minimizedAffinity -5.22078276
REMARK minimizedRMSD -1
REMARK  0 active torsions:
REMARK  status: ('A' for Active; 'I' for Inactive)
ROOT
ATOM      1  C2' OXE d   1       0.452   2.286  -1.560  0.00  0.00     0.078 C 
ATOM      2  C1' OXE d   1       1.467  -0.166  -0.645  0.00  0.00     0.078 C 
ATOM      3  C1  OXE d   1       0.302   0.435   0.101  0.00  0.00    -0.078 A 
ATOM      4  C2  OXE d   1      -0.158   1.658  -0.325  0.00  0.00    -0.078 A 
ATOM      5  C3  OXE d   1      -1.266   2.231   0.293  0.00  0.00     0.003 A 
ATOM      6  C4  OXE d   1      -1.818   1.648   1.440  0.00  0.00    -0.002 A 
ATOM      7  C5  OXE d   1      -1.339   0.423   1.914  0.00  0.00    -0.002 A 
ATOM      8  C6  OXE d   1      -0.310  -0.217   1.232  0.00  0.00     0.003 A 
ENDROOT
TORSDOF 0
ENDMDL
