MODEL 1
REMARK minimizedAffinity -1.89948273
REMARK minimizedRMSD -1
REMARK  0 active torsions:
REMARK  status: ('A' for Active; 'I' for Inactive)
ROOT
ATOM      1  C2' OXE d   1      -1.153   2.523   1.996  0.00  0.00     0.078 C 
ATOM      2  C1' OXE d   1      -1.211   2.696  -0.805  0.00  0.00     0.078 C 
ATOM      3  C1  OXE d   1      -0.690   1.421  -0.189  0.00  0.00    -0.078 A 
ATOM      4  C2  OXE d   1      -0.621   1.363   1.182  0.00  0.00    -0.078 A 
ATOM      5  C3  OXE d   1      -0.199   0.191   1.802  0.00  0.00     0.003 A 
ATOM      6  C4  OXE d   1       0.300  -0.873   1.042  0.00  0.00    -0.002 A 
ATOM      7  C5  OXE d   1       0.277  -0.819  -0.356  0.00  0.00    -0.002 A 
ATOM      8  C6  OXE d   1      -0.254   0.301  -0.986  0.00  0.00     0.003 A 
ENDROOT
TORSDOF 0
ENDMDL
