MODEL 1
REMARK minimizedAffinity -5.03931904
REMARK minimizedRMSD -1
REMARK  0 active torsions:
REMARK  status: ('A' for Active; 'I' for Inactive)
ROOT
ATOM      1  C2' OXE d   1      -0.252  -0.967   1.815  0.00  0.00     0.078 C 
ATOM      2  C1' OXE d   1       0.930  -0.190  -0.609  0.00  0.00     0.078 C 
ATOM      3  C1  OXE d   1       0.032   0.803   0.086  0.00  0.00    -0.078 A 
ATOM      4  C2  OXE d   1      -0.579   0.397   1.248  0.00  0.00    -0.078 A 
ATOM      5  C3  OXE d   1      -1.374   1.293   1.958  0.00  0.00     0.003 A 
ATOM      6  C4  OXE d   1      -1.679   2.549   1.421  0.00  0.00    -0.002 A 
ATOM      7  C5  OXE d   1      -1.099   2.968   0.219  0.00  0.00    -0.002 A 
ATOM      8  C6  OXE d   1      -0.209   2.125  -0.438  0.00  0.00     0.003 A 
ENDROOT
TORSDOF 0
ENDMDL
