MODEL 1
REMARK minimizedAffinity -5.64113903
REMARK minimizedRMSD -1
REMARK  0 active torsions:
REMARK  status: ('A' for Active; 'I' for Inactive)
ROOT
ATOM      1  C2' OXE d   1      -0.099  -0.751   1.888  0.00  0.00     0.078 C 
ATOM      2  C1' OXE d   1       0.431  -0.422  -0.849  0.00  0.00     0.078 C 
ATOM      3  C1  OXE d   1      -0.163   0.746  -0.102  0.00  0.00    -0.078 A 
ATOM      4  C2  OXE d   1      -0.463   0.560   1.226  0.00  0.00    -0.078 A 
ATOM      5  C3  OXE d   1      -0.962   1.622   1.975  0.00  0.00     0.003 A 
ATOM      6  C4  OXE d   1      -1.304   2.829   1.353  0.00  0.00    -0.002 A 
ATOM      7  C5  OXE d   1      -1.044   3.025  -0.007  0.00  0.00    -0.002 A 
ATOM      8  C6  OXE d   1      -0.436   2.011  -0.738  0.00  0.00     0.003 A 
ENDROOT
TORSDOF 0
ENDMDL
