MODEL 1
REMARK minimizedAffinity -6.61601019
REMARK minimizedRMSD -1
REMARK  0 active torsions:
REMARK  status: ('A' for Active; 'I' for Inactive)
ROOT
ATOM      1  C2' OXE d   1       0.601  -0.419   0.834  0.00  0.00     0.078 C 
ATOM      2  C1' OXE d   1       1.319   0.978  -1.493  0.00  0.00     0.078 C 
ATOM      3  C1  OXE d   1       0.196   1.537  -0.655  0.00  0.00    -0.078 A 
ATOM      4  C2  OXE d   1      -0.180   0.822   0.456  0.00  0.00    -0.078 A 
ATOM      5  C3  OXE d   1      -1.173   1.321   1.294  0.00  0.00     0.003 A 
ATOM      6  C4  OXE d   1      -1.897   2.463   0.932  0.00  0.00    -0.002 A 
ATOM      7  C5  OXE d   1      -1.557   3.185  -0.217  0.00  0.00    -0.002 A 
ATOM      8  C6  OXE d   1      -0.487   2.760  -0.997  0.00  0.00     0.003 A 
ENDROOT
TORSDOF 0
ENDMDL
