MODEL 1
REMARK minimizedAffinity -5.30508614
REMARK minimizedRMSD -1
REMARK  0 active torsions:
REMARK  status: ('A' for Active; 'I' for Inactive)
ROOT
ATOM      1  C2' OXE d   1       0.691  -0.226  -0.474  0.00  0.00     0.078 C 
ATOM      2  C1' OXE d   1       0.796   2.426  -1.388  0.00  0.00     0.078 C 
ATOM      3  C1  OXE d   1      -0.117   2.117  -0.228  0.00  0.00    -0.078 A 
ATOM      4  C2  OXE d   1      -0.198   0.808   0.183  0.00  0.00    -0.078 A 
ATOM      5  C3  OXE d   1      -0.983   0.478   1.284  0.00  0.00     0.003 A 
ATOM      6  C4  OXE d   1      -1.809   1.439   1.879  0.00  0.00    -0.002 A 
ATOM      7  C5  OXE d   1      -1.772   2.770   1.451  0.00  0.00    -0.002 A 
ATOM      8  C6  OXE d   1      -0.902   3.133   0.429  0.00  0.00     0.003 A 
ENDROOT
TORSDOF 0
ENDMDL
