MODEL 1
REMARK minimizedAffinity -4.7890048
REMARK minimizedRMSD -1
REMARK  0 active torsions:
REMARK  status: ('A' for Active; 'I' for Inactive)
ROOT
ATOM      1  C2' OXE d   1       0.490  -0.900   2.308  0.00  0.00     0.078 C 
ATOM      2  C1' OXE d   1       0.509  -0.764  -0.496  0.00  0.00     0.078 C 
ATOM      3  C1  OXE d   1      -0.309   0.259   0.253  0.00  0.00    -0.078 A 
ATOM      4  C2  OXE d   1      -0.350   0.156   1.622  0.00  0.00    -0.078 A 
ATOM      5  C3  OXE d   1      -1.045   1.107   2.364  0.00  0.00     0.003 A 
ATOM      6  C4  OXE d   1      -1.827   2.075   1.722  0.00  0.00    -0.002 A 
ATOM      7  C5  OXE d   1      -1.831   2.172   0.326  0.00  0.00    -0.002 A 
ATOM      8  C6  OXE d   1      -1.045   1.301  -0.420  0.00  0.00     0.003 A 
ENDROOT
TORSDOF 0
ENDMDL
