MODEL 1
REMARK minimizedAffinity -3.62009954
REMARK minimizedRMSD -1
REMARK  0 active torsions:
REMARK  status: ('A' for Active; 'I' for Inactive)
ROOT
ATOM      1  C2' OXE d   1      -1.540   2.111   1.409  0.00  0.00     0.078 C 
ATOM      2  C1' OXE d   1      -0.438   2.524  -1.140  0.00  0.00     0.078 C 
ATOM      3  C1  OXE d   1      -0.113   1.231  -0.434  0.00  0.00    -0.078 A 
ATOM      4  C2  OXE d   1      -0.618   1.058   0.832  0.00  0.00    -0.078 A 
ATOM      5  C3  OXE d   1      -0.394  -0.140   1.506  0.00  0.00     0.003 A 
ATOM      6  C4  OXE d   1       0.467  -1.104   0.969  0.00  0.00    -0.002 A 
ATOM      7  C5  OXE d   1       1.024  -0.930  -0.302  0.00  0.00    -0.002 A 
ATOM      8  C6  OXE d   1       0.711   0.210  -1.033  0.00  0.00     0.003 A 
ENDROOT
TORSDOF 0
ENDMDL
