MODEL 1
REMARK minimizedAffinity -5.35369301
REMARK minimizedRMSD -1
REMARK  0 active torsions:
REMARK  status: ('A' for Active; 'I' for Inactive)
ROOT
ATOM      1  C2' OXE d   1       0.793  -0.383  -0.560  0.00  0.00     0.078 C 
ATOM      2  C1' OXE d   1       0.439   2.348  -1.102  0.00  0.00     0.078 C 
ATOM      3  C1  OXE d   1      -0.425   1.725  -0.034  0.00  0.00    -0.078 A 
ATOM      4  C2  OXE d   1      -0.278   0.377   0.191  0.00  0.00    -0.078 A 
ATOM      5  C3  OXE d   1      -1.011  -0.236   1.203  0.00  0.00     0.003 A 
ATOM      6  C4  OXE d   1      -2.006   0.472   1.887  0.00  0.00    -0.002 A 
ATOM      7  C5  OXE d   1      -2.200   1.836   1.644  0.00  0.00    -0.002 A 
ATOM      8  C6  OXE d   1      -1.391   2.486   0.719  0.00  0.00     0.003 A 
ENDROOT
TORSDOF 0
ENDMDL
