MODEL 1
REMARK minimizedAffinity -5.01474619
REMARK minimizedRMSD -1
REMARK  0 active torsions:
REMARK  status: ('A' for Active; 'I' for Inactive)
ROOT
ATOM      1  C2' OXE d   1      -0.591  -0.415   1.894  0.00  0.00     0.078 C 
ATOM      2  C1' OXE d   1      -1.784   2.051   1.283  0.00  0.00     0.078 C 
ATOM      3  C1  OXE d   1      -0.634   1.594   0.421  0.00  0.00    -0.078 A 
ATOM      4  C2  OXE d   1      -0.026   0.408   0.756  0.00  0.00    -0.078 A 
ATOM      5  C3  OXE d   1       1.004  -0.088  -0.038  0.00  0.00     0.003 A 
ATOM      6  C4  OXE d   1       1.527   0.684  -1.083  0.00  0.00    -0.002 A 
ATOM      7  C5  OXE d   1       0.948   1.913  -1.416  0.00  0.00    -0.002 A 
ATOM      8  C6  OXE d   1      -0.158   2.362  -0.702  0.00  0.00     0.003 A 
ENDROOT
TORSDOF 0
ENDMDL
