MODEL 1
REMARK minimizedAffinity -3.40192533
REMARK minimizedRMSD -1
REMARK  0 active torsions:
REMARK  status: ('A' for Active; 'I' for Inactive)
ROOT
ATOM      1  C2' OXE d   1      -2.222   2.285   1.241  0.00  0.00     0.078 C 
ATOM      2  C1' OXE d   1      -1.390  -0.048   2.562  0.00  0.00     0.078 C 
ATOM      3  C1  OXE d   1      -0.640   0.363   1.320  0.00  0.00    -0.078 A 
ATOM      4  C2  OXE d   1      -1.083   1.480   0.653  0.00  0.00    -0.078 A 
ATOM      5  C3  OXE d   1      -0.393   1.934  -0.467  0.00  0.00     0.003 A 
ATOM      6  C4  OXE d   1       0.654   1.178  -1.009  0.00  0.00    -0.002 A 
ATOM      7  C5  OXE d   1       1.096   0.015  -0.368  0.00  0.00    -0.002 A 
ATOM      8  C6  OXE d   1       0.489  -0.382   0.818  0.00  0.00     0.003 A 
ENDROOT
TORSDOF 0
ENDMDL
