MODEL 1
REMARK minimizedAffinity -3.12569642
REMARK minimizedRMSD -1
REMARK  3 active torsions:
REMARK  status: ('A' for Active; 'I' for Inactive)
REMARK    1  A    between atoms: C3'_2  and  C2'_3 
REMARK    2  A    between atoms: C2'_3  and  C1'_4 
REMARK    3  A    between atoms: C1'_4  and  C1_5 
ROOT
ATOM      1  C1  N4B d   1      -0.900  -1.696  -2.918  0.00  0.00    -0.075 A 
ATOM      2  C2  N4B d   1      -1.057  -1.674  -1.515  0.00  0.00     0.002 A 
ATOM      3  C3  N4B d   1      -0.144  -1.011  -0.732  0.00  0.00     0.002 A 
ATOM      4  C4  N4B d   1       0.939  -0.381  -1.326  0.00  0.00    -0.004 A 
ATOM      5  C5  N4B d   1       1.070  -0.385  -2.684  0.00  0.00     0.002 A 
ATOM      6  C6  N4B d   1       0.157  -1.044  -3.483  0.00  0.00     0.002 A 
ENDROOT
BRANCH   1   7
ATOM      7  C1' N4B d   1      -1.825  -2.480  -3.808  0.00  0.00     0.057 C 
BRANCH   7   8
ATOM      8  C2' N4B d   1      -2.695  -1.511  -4.604  0.00  0.00     0.009 C 
BRANCH   8   9
ATOM      9  C3' N4B d   1      -3.529  -2.226  -5.653  0.00  0.00     0.004 C 
ATOM     10  C4' N4B d   1      -5.003  -2.040  -5.450  0.00  0.00     0.003 C 
ENDBRANCH   8   9
ENDBRANCH   7   8
ENDBRANCH   1   7
TORSDOF 3
ENDMDL
