MODEL 1
REMARK minimizedAffinity -3.12816191
REMARK minimizedRMSD -1
REMARK  3 active torsions:
REMARK  status: ('A' for Active; 'I' for Inactive)
REMARK    1  A    between atoms: C3'_2  and  C2'_3 
REMARK    2  A    between atoms: C2'_3  and  C1'_4 
REMARK    3  A    between atoms: C1'_4  and  C1_5 
ROOT
ATOM      1  C1  N4B d   1      -3.218   1.845  -5.868  0.00  0.00    -0.075 A 
ATOM      2  C2  N4B d   1      -4.568   2.244  -5.971  0.00  0.00     0.002 A 
ATOM      3  C3  N4B d   1      -4.903   3.571  -5.857  0.00  0.00     0.002 A 
ATOM      4  C4  N4B d   1      -3.910   4.510  -5.622  0.00  0.00    -0.004 A 
ATOM      5  C5  N4B d   1      -2.605   4.120  -5.549  0.00  0.00     0.002 A 
ATOM      6  C6  N4B d   1      -2.254   2.790  -5.665  0.00  0.00     0.002 A 
ENDROOT
BRANCH   1   7
ATOM      7  C1' N4B d   1      -2.813   0.396  -5.900  0.00  0.00     0.057 C 
BRANCH   7   8
ATOM      8  C2' N4B d   1      -4.064  -0.471  -6.000  0.00  0.00     0.009 C 
BRANCH   8   9
ATOM      9  C3' N4B d   1      -3.733  -1.953  -5.960  0.00  0.00     0.004 C 
ATOM     10  C4' N4B d   1      -4.955  -2.823  -5.997  0.00  0.00     0.003 C 
ENDBRANCH   8   9
ENDBRANCH   7   8
ENDBRANCH   1   7
TORSDOF 3
ENDMDL
