MODEL 1
REMARK minimizedAffinity -1.52911711
REMARK minimizedRMSD -1
REMARK  3 active torsions:
REMARK  status: ('A' for Active; 'I' for Inactive)
REMARK    1  A    between atoms: C3'_2  and  C2'_3 
REMARK    2  A    between atoms: C2'_3  and  C1'_4 
REMARK    3  A    between atoms: C1'_4  and  C1_5 
ROOT
ATOM      1  C1  N4B d   1      -4.172   2.481  -5.804  0.00  0.00    -0.075 A 
ATOM      2  C2  N4B d   1      -2.975   3.173  -5.517  0.00  0.00     0.002 A 
ATOM      3  C3  N4B d   1      -2.975   4.545  -5.448  0.00  0.00     0.002 A 
ATOM      4  C4  N4B d   1      -4.151   5.243  -5.680  0.00  0.00    -0.004 A 
ATOM      5  C5  N4B d   1      -5.308   4.566  -5.931  0.00  0.00     0.002 A 
ATOM      6  C6  N4B d   1      -5.323   3.187  -6.000  0.00  0.00     0.002 A 
ENDROOT
BRANCH   1   7
ATOM      7  C1' N4B d   1      -4.203   0.987  -5.975  0.00  0.00     0.057 C 
BRANCH   7   8
ATOM      8  C2' N4B d   1      -5.642   0.497  -5.842  0.00  0.00     0.009 C 
BRANCH   8   9
ATOM      9  C3' N4B d   1      -5.747  -1.010  -5.999  0.00  0.00     0.004 C 
ATOM     10  C4' N4B d   1      -4.409  -1.689  -5.995  0.00  0.00     0.003 C 
ENDBRANCH   8   9
ENDBRANCH   7   8
ENDBRANCH   1   7
TORSDOF 3
ENDMDL
