MODEL 1
REMARK minimizedAffinity -1.30063248
REMARK minimizedRMSD -1
REMARK  3 active torsions:
REMARK  status: ('A' for Active; 'I' for Inactive)
REMARK    1  A    between atoms: C3'_2  and  C2'_3 
REMARK    2  A    between atoms: C2'_3  and  C1'_4 
REMARK    3  A    between atoms: C1'_4  and  C1_5 
ROOT
ATOM      1  C1  N4B d   1      -4.868   1.993  -5.898  0.00  0.00    -0.075 A 
ATOM      2  C2  N4B d   1      -3.462   2.100  -5.976  0.00  0.00     0.002 A 
ATOM      3  C3  N4B d   1      -2.866   3.337  -5.967  0.00  0.00     0.002 A 
ATOM      4  C4  N4B d   1      -3.653   4.477  -5.899  0.00  0.00    -0.004 A 
ATOM      5  C5  N4B d   1      -5.009   4.364  -5.798  0.00  0.00     0.002 A 
ATOM      6  C6  N4B d   1      -5.621   3.127  -5.803  0.00  0.00     0.002 A 
ENDROOT
BRANCH   1   7
ATOM      7  C1' N4B d   1      -5.570   0.666  -5.992  0.00  0.00     0.057 C 
BRANCH   7   8
ATOM      8  C2' N4B d   1      -4.530  -0.451  -5.999  0.00  0.00     0.009 C 
BRANCH   8   9
ATOM      9  C3' N4B d   1      -5.174  -1.826  -5.960  0.00  0.00     0.004 C 
ATOM     10  C4' N4B d   1      -4.168  -2.939  -5.974  0.00  0.00     0.003 C 
ENDBRANCH   8   9
ENDBRANCH   7   8
ENDBRANCH   1   7
TORSDOF 3
ENDMDL
