MODEL 1
REMARK minimizedAffinity 5.56793976
REMARK minimizedRMSD -1
REMARK  3 active torsions:
REMARK  status: ('A' for Active; 'I' for Inactive)
REMARK    1  A    between atoms: C3'_2  and  C2'_3 
REMARK    2  A    between atoms: C2'_3  and  C1'_4 
REMARK    3  A    between atoms: C1'_4  and  C1_5 
ROOT
ATOM      1  C1  N4B d   1      -4.704   1.023  -6.000  0.00  0.00    -0.075 A 
ATOM      2  C2  N4B d   1      -5.134   2.368  -5.988  0.00  0.00     0.002 A 
ATOM      3  C3  N4B d   1      -4.211   3.383  -5.923  0.00  0.00     0.002 A 
ATOM      4  C4  N4B d   1      -2.861   3.078  -5.850  0.00  0.00    -0.004 A 
ATOM      5  C5  N4B d   1      -2.452   1.777  -5.888  0.00  0.00     0.002 A 
ATOM      6  C6  N4B d   1      -3.369   0.747  -5.957  0.00  0.00     0.002 A 
ENDROOT
BRANCH   1   7
ATOM      7  C1' N4B d   1      -5.680  -0.123  -5.984  0.00  0.00     0.057 C 
BRANCH   7   8
ATOM      8  C2' N4B d   1      -5.762  -0.690  -4.570  0.00  0.00     0.009 C 
BRANCH   8   9
ATOM      9  C3' N4B d   1      -5.859  -2.206  -4.571  0.00  0.00     0.004 C 
ATOM     10  C4' N4B d   1      -4.529  -2.874  -4.386  0.00  0.00     0.003 C 
ENDBRANCH   8   9
ENDBRANCH   7   8
ENDBRANCH   1   7
TORSDOF 3
ENDMDL
