MODEL 1
REMARK minimizedAffinity -2.53315306
REMARK minimizedRMSD -1
REMARK  3 active torsions:
REMARK  status: ('A' for Active; 'I' for Inactive)
REMARK    1  A    between atoms: C3'_2  and  C2'_3 
REMARK    2  A    between atoms: C2'_3  and  C1'_4 
REMARK    3  A    between atoms: C1'_4  and  C1_5 
ROOT
ATOM      1  C1  N4B d   1      -3.511   2.488  -5.997  0.00  0.00    -0.075 A 
ATOM      2  C2  N4B d   1      -4.558   3.436  -5.996  0.00  0.00     0.002 A 
ATOM      3  C3  N4B d   1      -4.270   4.776  -5.913  0.00  0.00     0.002 A 
ATOM      4  C4  N4B d   1      -2.950   5.189  -5.811  0.00  0.00    -0.004 A 
ATOM      5  C5  N4B d   1      -1.943   4.268  -5.837  0.00  0.00     0.002 A 
ATOM      6  C6  N4B d   1      -2.218   2.918  -5.925  0.00  0.00     0.002 A 
ENDROOT
BRANCH   1   7
ATOM      7  C1' N4B d   1      -3.781   1.008  -5.999  0.00  0.00     0.057 C 
BRANCH   7   8
ATOM      8  C2' N4B d   1      -5.287   0.773  -5.934  0.00  0.00     0.009 C 
BRANCH   8   9
ATOM      9  C3' N4B d   1      -5.636  -0.704  -5.999  0.00  0.00     0.004 C 
ATOM     10  C4' N4B d   1      -4.424  -1.587  -5.991  0.00  0.00     0.003 C 
ENDBRANCH   8   9
ENDBRANCH   7   8
ENDBRANCH   1   7
TORSDOF 3
ENDMDL
