MODEL 1
REMARK minimizedAffinity 2.08297682
REMARK minimizedRMSD -1
REMARK  3 active torsions:
REMARK  status: ('A' for Active; 'I' for Inactive)
REMARK    1  A    between atoms: C3'_2  and  C2'_3 
REMARK    2  A    between atoms: C2'_3  and  C1'_4 
REMARK    3  A    between atoms: C1'_4  and  C1_5 
ROOT
ATOM      1  C1  N4B d   1      -3.133   1.009  -5.948  0.00  0.00    -0.075 A 
ATOM      2  C2  N4B d   1      -2.225  -0.060  -5.783  0.00  0.00     0.002 A 
ATOM      3  C3  N4B d   1      -2.692  -1.346  -5.662  0.00  0.00     0.002 A 
ATOM      4  C4  N4B d   1      -4.058  -1.584  -5.685  0.00  0.00    -0.004 A 
ATOM      5  C5  N4B d   1      -4.928  -0.549  -5.870  0.00  0.00     0.002 A 
ATOM      6  C6  N4B d   1      -4.472   0.748  -5.997  0.00  0.00     0.002 A 
ENDROOT
BRANCH   1   7
ATOM      7  C1' N4B d   1      -2.673   2.440  -5.999  0.00  0.00     0.057 C 
BRANCH   7   8
ATOM      8  C2' N4B d   1      -3.354   3.224  -4.880  0.00  0.00     0.009 C 
BRANCH   8   9
ATOM      9  C3' N4B d   1      -3.376   4.716  -5.164  0.00  0.00     0.004 C 
ATOM     10  C4' N4B d   1      -4.556   5.132  -5.991  0.00  0.00     0.003 C 
ENDBRANCH   8   9
ENDBRANCH   7   8
ENDBRANCH   1   7
TORSDOF 3
ENDMDL
