MODEL 1
REMARK minimizedAffinity 2.00417352
REMARK minimizedRMSD -1
REMARK  3 active torsions:
REMARK  status: ('A' for Active; 'I' for Inactive)
REMARK    1  A    between atoms: C3'_2  and  C2'_3 
REMARK    2  A    between atoms: C2'_3  and  C1'_4 
REMARK    3  A    between atoms: C1'_4  and  C1_5 
ROOT
ATOM      1  C1  N4B d   1       0.698   0.284  -0.271  0.00  0.00    -0.075 A 
ATOM      2  C2  N4B d   1      -0.283  -0.699  -0.524  0.00  0.00     0.002 A 
ATOM      3  C3  N4B d   1      -0.181  -1.501  -1.634  0.00  0.00     0.002 A 
ATOM      4  C4  N4B d   1       0.878  -1.326  -2.512  0.00  0.00    -0.004 A 
ATOM      5  C5  N4B d   1       1.835  -0.390  -2.247  0.00  0.00     0.002 A 
ATOM      6  C6  N4B d   1       1.748   0.420  -1.132  0.00  0.00     0.002 A 
ENDROOT
BRANCH   1   7
ATOM      7  C1' N4B d   1       0.584   1.242   0.884  0.00  0.00     0.057 C 
BRANCH   7   8
ATOM      8  C2' N4B d   1       1.975   1.744   1.258  0.00  0.00     0.009 C 
BRANCH   8   9
ATOM      9  C3' N4B d   1       2.026   3.259   1.350  0.00  0.00     0.004 C 
ATOM     10  C4' N4B d   1       1.899   3.927   0.013  0.00  0.00     0.003 C 
ENDBRANCH   8   9
ENDBRANCH   7   8
ENDBRANCH   1   7
TORSDOF 3
ENDMDL
