MODEL 1
REMARK minimizedAffinity -3.71320176
REMARK minimizedRMSD -1
REMARK  0 active torsions:
REMARK  status: ('A' for Active; 'I' for Inactive)
ROOT
ATOM      1  C4' PXY d   1       3.179   0.244   1.478  0.00  0.00     0.077 C 
ATOM      2  C1' PXY d   1      -1.982   0.349  -1.122  0.00  0.00     0.077 C 
ATOM      3  C1  PXY d   1      -0.625   0.332  -0.447  0.00  0.00    -0.082 A 
ATOM      4  C2  PXY d   1      -0.138  -0.808   0.015  0.00  0.00     0.003 A 
ATOM      5  C3  PXY d   1       1.073  -0.836   0.657  0.00  0.00     0.003 A 
ATOM      6  C4  PXY d   1       1.818   0.307   0.781  0.00  0.00    -0.082 A 
ATOM      7  C5  PXY d   1       1.332   1.472   0.303  0.00  0.00     0.003 A 
ATOM      8  C6  PXY d   1       0.082   1.486  -0.309  0.00  0.00     0.003 A 
ENDROOT
TORSDOF 0
ENDMDL
