MODEL 1
REMARK minimizedAffinity -5.07850647
REMARK minimizedRMSD -1
REMARK  0 active torsions:
REMARK  status: ('A' for Active; 'I' for Inactive)
ROOT
ATOM      1  C4' PXY d   1      -2.420   0.041  -0.881  0.00  0.00     0.077 C 
ATOM      2  C1' PXY d   1       2.852  -0.264   1.470  0.00  0.00     0.077 C 
ATOM      3  C1  PXY d   1       1.468  -0.197   0.854  0.00  0.00    -0.082 A 
ATOM      4  C2  PXY d   1       1.132   0.846   0.113  0.00  0.00     0.003 A 
ATOM      5  C3  PXY d   1      -0.126   0.938  -0.426  0.00  0.00     0.003 A 
ATOM      6  C4  PXY d   1      -1.031  -0.074  -0.247  0.00  0.00    -0.082 A 
ATOM      7  C5  PXY d   1      -0.692  -1.146   0.499  0.00  0.00     0.003 A 
ATOM      8  C6  PXY d   1       0.576  -1.201   1.070  0.00  0.00     0.003 A 
ENDROOT
TORSDOF 0
ENDMDL
