MODEL 1
REMARK minimizedAffinity -3.75072622
REMARK minimizedRMSD -1
REMARK  0 active torsions:
REMARK  status: ('A' for Active; 'I' for Inactive)
ROOT
ATOM      1  C4' PXY d   1      -2.493   0.191  -1.868  0.00  0.00     0.077 C 
ATOM      2  C1' PXY d   1       2.363   0.633   1.237  0.00  0.00     0.077 C 
ATOM      3  C1  PXY d   1       1.092   0.504   0.421  0.00  0.00    -0.082 A 
ATOM      4  C2  PXY d   1       0.591   1.570  -0.181  0.00  0.00     0.003 A 
ATOM      5  C3  PXY d   1      -0.575   1.478  -0.897  0.00  0.00     0.003 A 
ATOM      6  C4  PXY d   1      -1.206   0.272  -1.041  0.00  0.00    -0.082 A 
ATOM      7  C5  PXY d   1      -0.695  -0.823  -0.439  0.00  0.00     0.003 A 
ATOM      8  C6  PXY d   1       0.467  -0.700   0.317  0.00  0.00     0.003 A 
ENDROOT
TORSDOF 0
ENDMDL
