MODEL 1
REMARK minimizedAffinity -4.71764469
REMARK minimizedRMSD -1
REMARK  0 active torsions:
REMARK  status: ('A' for Active; 'I' for Inactive)
ROOT
ATOM      1  C4' PXY d   1      -2.236  -0.009  -0.312  0.00  0.00     0.077 C 
ATOM      2  C1' PXY d   1       2.809  -0.900   2.365  0.00  0.00     0.077 C 
ATOM      3  C1  PXY d   1       1.489  -0.654   1.662  0.00  0.00    -0.082 A 
ATOM      4  C2  PXY d   1       0.499  -1.520   1.807  0.00  0.00     0.003 A 
ATOM      5  C3  PXY d   1      -0.691  -1.329   1.153  0.00  0.00     0.003 A 
ATOM      6  C4  PXY d   1      -0.889  -0.212   0.386  0.00  0.00    -0.082 A 
ATOM      7  C5  PXY d   1       0.113   0.681   0.241  0.00  0.00     0.003 A 
ATOM      8  C6  PXY d   1       1.327   0.448   0.880  0.00  0.00     0.003 A 
ENDROOT
TORSDOF 0
ENDMDL
