MODEL 1
REMARK minimizedAffinity -1.15753579
REMARK minimizedRMSD -1
REMARK  0 active torsions:
REMARK  status: ('A' for Active; 'I' for Inactive)
ROOT
ATOM      1  C4' PXY d   1      -2.334   0.746  -1.202  0.00  0.00     0.077 C 
ATOM      2  C1' PXY d   1       2.611   0.280   1.754  0.00  0.00     0.077 C 
ATOM      3  C1  PXY d   1       1.314   0.389   0.978  0.00  0.00    -0.082 A 
ATOM      4  C2  PXY d   1       1.017   1.519   0.355  0.00  0.00     0.003 A 
ATOM      5  C3  PXY d   1      -0.167   1.645  -0.325  0.00  0.00     0.003 A 
ATOM      6  C4  PXY d   1      -1.031   0.587  -0.414  0.00  0.00    -0.082 A 
ATOM      7  C5  PXY d   1      -0.731  -0.572   0.210  0.00  0.00     0.003 A 
ATOM      8  C6  PXY d   1       0.457  -0.666   0.930  0.00  0.00     0.003 A 
ENDROOT
TORSDOF 0
ENDMDL
