MODEL 1
REMARK minimizedAffinity -4.50886488
REMARK minimizedRMSD -1
REMARK  0 active torsions:
REMARK  status: ('A' for Active; 'I' for Inactive)
ROOT
ATOM      1  C4' PXY d   1      -2.789  -0.372  -2.345  0.00  0.00     0.077 C 
ATOM      2  C1' PXY d   1       1.806   0.724   0.987  0.00  0.00     0.077 C 
ATOM      3  C1  PXY d   1       0.595   0.432   0.124  0.00  0.00    -0.082 A 
ATOM      4  C2  PXY d   1       0.745   0.269  -1.181  0.00  0.00     0.003 A 
ATOM      5  C3  PXY d   1      -0.343   0.036  -1.981  0.00  0.00     0.003 A 
ATOM      6  C4  PXY d   1      -1.593  -0.085  -1.433  0.00  0.00    -0.082 A 
ATOM      7  C5  PXY d   1      -1.753   0.070  -0.102  0.00  0.00     0.003 A 
ATOM      8  C6  PXY d   1      -0.640   0.347   0.688  0.00  0.00     0.003 A 
ENDROOT
TORSDOF 0
ENDMDL
