MODEL 1
REMARK minimizedAffinity 1.25261235
REMARK minimizedRMSD -1
REMARK  0 active torsions:
REMARK  status: ('A' for Active; 'I' for Inactive)
ROOT
ATOM      1  C4' PXY d   1      -2.330   0.349  -1.787  0.00  0.00     0.077 C 
ATOM      2  C1' PXY d   1       2.539   0.873   1.286  0.00  0.00     0.077 C 
ATOM      3  C1  PXY d   1       1.257   0.727   0.489  0.00  0.00    -0.082 A 
ATOM      4  C2  PXY d   1       1.264   0.971  -0.811  0.00  0.00     0.003 A 
ATOM      5  C3  PXY d   1       0.107   0.875  -1.541  0.00  0.00     0.003 A 
ATOM      6  C4  PXY d   1      -1.057   0.474  -0.944  0.00  0.00    -0.082 A 
ATOM      7  C5  PXY d   1      -1.070   0.212   0.380  0.00  0.00     0.003 A 
ATOM      8  C6  PXY d   1       0.106   0.355   1.111  0.00  0.00     0.003 A 
ENDROOT
TORSDOF 0
ENDMDL
