MODEL 1
REMARK minimizedAffinity -4.78484344
REMARK minimizedRMSD -1
REMARK  0 active torsions:
REMARK  status: ('A' for Active; 'I' for Inactive)
ROOT
ATOM      1  C4' PXY d   1      -2.186   0.479  -0.923  0.00  0.00     0.077 C 
ATOM      2  C1' PXY d   1       2.947  -0.219   1.643  0.00  0.00     0.077 C 
ATOM      3  C1  PXY d   1       1.599  -0.049   0.970  0.00  0.00    -0.082 A 
ATOM      4  C2  PXY d   1       1.347   1.052   0.279  0.00  0.00     0.003 A 
ATOM      5  C3  PXY d   1       0.123   1.236  -0.309  0.00  0.00     0.003 A 
ATOM      6  C4  PXY d   1      -0.836   0.261  -0.234  0.00  0.00    -0.082 A 
ATOM      7  C5  PXY d   1      -0.583  -0.869   0.459  0.00  0.00     0.003 A 
ATOM      8  C6  PXY d   1       0.652  -1.019   1.084  0.00  0.00     0.003 A 
ENDROOT
TORSDOF 0
ENDMDL
