MODEL 1
REMARK minimizedAffinity -3.36844802
REMARK minimizedRMSD -1
REMARK  0 active torsions:
REMARK  status: ('A' for Active; 'I' for Inactive)
ROOT
ATOM      1  C4' PXY d   1       2.448  -1.529   2.965  0.00  0.00     0.077 C 
ATOM      2  C1' PXY d   1      -1.102   0.229  -1.245  0.00  0.00     0.077 C 
ATOM      3  C1  PXY d   1      -0.161  -0.225  -0.146  0.00  0.00    -0.082 A 
ATOM      4  C2  PXY d   1      -0.416  -1.344   0.512  0.00  0.00     0.003 A 
ATOM      5  C3  PXY d   1       0.407  -1.753   1.530  0.00  0.00     0.003 A 
ATOM      6  C4  PXY d   1       1.531  -1.037   1.842  0.00  0.00    -0.082 A 
ATOM      7  C5  PXY d   1       1.804   0.101   1.168  0.00  0.00     0.003 A 
ATOM      8  C6  PXY d   1       0.934   0.520   0.165  0.00  0.00     0.003 A 
ENDROOT
TORSDOF 0
ENDMDL
