MODEL 1
REMARK minimizedAffinity -0.804512024
REMARK minimizedRMSD -1
REMARK  0 active torsions:
REMARK  status: ('A' for Active; 'I' for Inactive)
ROOT
ATOM      1  C4' PXY d   1       0.063  -2.865   1.813  0.00  0.00     0.077 C 
ATOM      2  C1' PXY d   1       0.803   2.590   0.050  0.00  0.00     0.077 C 
ATOM      3  C1  PXY d   1       0.622   1.158   0.513  0.00  0.00    -0.082 A 
ATOM      4  C2  PXY d   1      -0.513   0.528   0.260  0.00  0.00     0.003 A 
ATOM      5  C3  PXY d   1      -0.706  -0.757   0.698  0.00  0.00     0.003 A 
ATOM      6  C4  PXY d   1       0.294  -1.422   1.357  0.00  0.00    -0.082 A 
ATOM      7  C5  PXY d   1       1.459  -0.789   1.609  0.00  0.00     0.003 A 
ATOM      8  C6  PXY d   1       1.620   0.529   1.191  0.00  0.00     0.003 A 
ENDROOT
TORSDOF 0
ENDMDL
