MODEL 1
REMARK minimizedAffinity -3.4118762
REMARK minimizedRMSD -1
REMARK  0 active torsions:
REMARK  status: ('A' for Active; 'I' for Inactive)
ROOT
ATOM      1  C4' PXY d   1      -2.962   0.425  -1.827  0.00  0.00     0.077 C 
ATOM      2  C1' PXY d   1       1.861   0.731   1.345  0.00  0.00     0.077 C 
ATOM      3  C1  PXY d   1       0.598   0.638   0.511  0.00  0.00    -0.082 A 
ATOM      4  C2  PXY d   1       0.104   1.729  -0.051  0.00  0.00     0.003 A 
ATOM      5  C3  PXY d   1      -1.054   1.669  -0.782  0.00  0.00     0.003 A 
ATOM      6  C4  PXY d   1      -1.684   0.470  -0.984  0.00  0.00    -0.082 A 
ATOM      7  C5  PXY d   1      -1.181  -0.649  -0.422  0.00  0.00     0.003 A 
ATOM      8  C6  PXY d   1      -0.027  -0.560   0.350  0.00  0.00     0.003 A 
ENDROOT
TORSDOF 0
ENDMDL
