MODEL 1
REMARK minimizedAffinity -3.6444869
REMARK minimizedRMSD -1
REMARK  0 active torsions:
REMARK  status: ('A' for Active; 'I' for Inactive)
ROOT
ATOM      1  C4' PXY d   1      -2.117   0.065  -0.582  0.00  0.00     0.077 C 
ATOM      2  C1' PXY d   1       3.164  -0.196   1.755  0.00  0.00     0.077 C 
ATOM      3  C1  PXY d   1       1.779  -0.141   1.140  0.00  0.00    -0.082 A 
ATOM      4  C2  PXY d   1       1.352   0.985   0.591  0.00  0.00     0.003 A 
ATOM      5  C3  PXY d   1       0.090   1.062   0.060  0.00  0.00     0.003 A 
ATOM      6  C4  PXY d   1      -0.722  -0.040   0.042  0.00  0.00    -0.082 A 
ATOM      7  C5  PXY d   1      -0.290  -1.195   0.590  0.00  0.00     0.003 A 
ATOM      8  C6  PXY d   1       0.979  -1.241   1.162  0.00  0.00     0.003 A 
ENDROOT
TORSDOF 0
ENDMDL
