MODEL 1
REMARK minimizedAffinity -5.0995512
REMARK minimizedRMSD -1
REMARK  0 active torsions:
REMARK  status: ('A' for Active; 'I' for Inactive)
ROOT
ATOM      1  C4' PXY d   1       2.129  -2.853   2.271  0.00  0.00     0.077 C 
ATOM      2  C1' PXY d   1       1.501   2.190  -0.483  0.00  0.00     0.077 C 
ATOM      3  C1  PXY d   1       1.679   0.869   0.239  0.00  0.00    -0.082 A 
ATOM      4  C2  PXY d   1       0.731  -0.051   0.161  0.00  0.00     0.003 A 
ATOM      5  C3  PXY d   1       0.862  -1.239   0.834  0.00  0.00     0.003 A 
ATOM      6  C4  PXY d   1       1.997  -1.508   1.551  0.00  0.00    -0.082 A 
ATOM      7  C5  PXY d   1       2.972  -0.578   1.626  0.00  0.00     0.003 A 
ATOM      8  C6  PXY d   1       2.803   0.637   0.969  0.00  0.00     0.003 A 
ENDROOT
TORSDOF 0
ENDMDL
