MODEL 1
REMARK minimizedAffinity -4.36175871
REMARK minimizedRMSD -1
REMARK  0 active torsions:
REMARK  status: ('A' for Active; 'I' for Inactive)
ROOT
ATOM      1  C   UNL d   1       2.198   2.719   1.493  0.00  0.00     0.078 C 
ATOM      2  C1  UNL d   1       1.170   1.919   0.749  0.00  0.00    -0.077 A 
ATOM      3  C2  UNL d   1       0.758   0.664   1.214  0.00  0.00    -0.001 A 
ATOM      4  C3  UNL d   1      -0.192  -0.074   0.506  0.00  0.00     0.003 A 
ATOM      5  C4  UNL d   1      -0.737   0.434  -0.672  0.00  0.00    -0.005 A 
ATOM      6  C5  UNL d   1      -0.331   1.681  -1.143  0.00  0.00     0.003 A 
ATOM      7  C6  UNL d   1       0.619   2.420  -0.437  0.00  0.00    -0.001 A 
ENDROOT
TORSDOF 0
ENDMDL
