MODEL 1
REMARK minimizedAffinity -2.28502512
REMARK minimizedRMSD -1
REMARK  0 active torsions:
REMARK  status: ('A' for Active; 'I' for Inactive)
ROOT
ATOM      1  C   UNL d   1       1.130   2.734   1.052  0.00  0.00     0.078 C 
ATOM      2  C1  UNL d   1       0.536   1.416   0.653  0.00  0.00    -0.077 A 
ATOM      3  C2  UNL d   1       0.819   0.846  -0.595  0.00  0.00    -0.001 A 
ATOM      4  C3  UNL d   1       0.251  -0.377  -0.957  0.00  0.00     0.003 A 
ATOM      5  C4  UNL d   1      -0.603  -1.040  -0.078  0.00  0.00    -0.005 A 
ATOM      6  C5  UNL d   1      -0.892  -0.479   1.165  0.00  0.00     0.003 A 
ATOM      7  C6  UNL d   1      -0.325   0.743   1.529  0.00  0.00    -0.001 A 
ENDROOT
TORSDOF 0
ENDMDL
