MODEL 1
REMARK minimizedAffinity -2.28420806
REMARK minimizedRMSD -1
REMARK  0 active torsions:
REMARK  status: ('A' for Active; 'I' for Inactive)
ROOT
ATOM      1  C   UNL d   1       1.879   3.002  -2.110  0.00  0.00     0.078 C 
ATOM      2  C1  UNL d   1       2.514   3.007  -3.469  0.00  0.00    -0.077 A 
ATOM      3  C2  UNL d   1       1.787   3.383  -4.604  0.00  0.00    -0.001 A 
ATOM      4  C3  UNL d   1       2.389   3.374  -5.863  0.00  0.00     0.003 A 
ATOM      5  C4  UNL d   1       3.721   2.987  -5.999  0.00  0.00    -0.005 A 
ATOM      6  C5  UNL d   1       4.452   2.609  -4.875  0.00  0.00     0.003 A 
ATOM      7  C6  UNL d   1       3.852   2.618  -3.615  0.00  0.00    -0.001 A 
ENDROOT
TORSDOF 0
ENDMDL
