MODEL 1
REMARK minimizedAffinity -3.52809644
REMARK minimizedRMSD -1
REMARK  0 active torsions:
REMARK  status: ('A' for Active; 'I' for Inactive)
ROOT
ATOM      1  C   UNL d   1      -0.760  -0.756   2.188  0.00  0.00     0.078 C 
ATOM      2  C1  UNL d   1      -0.154   0.343   1.367  0.00  0.00    -0.077 A 
ATOM      3  C2  UNL d   1       0.092   1.605   1.922  0.00  0.00    -0.001 A 
ATOM      4  C3  UNL d   1       0.648   2.622   1.143  0.00  0.00     0.003 A 
ATOM      5  C4  UNL d   1       0.960   2.387  -0.195  0.00  0.00    -0.005 A 
ATOM      6  C5  UNL d   1       0.716   1.135  -0.756  0.00  0.00     0.003 A 
ATOM      7  C6  UNL d   1       0.161   0.118   0.022  0.00  0.00    -0.001 A 
ENDROOT
TORSDOF 0
ENDMDL
