MODEL 1
REMARK minimizedAffinity -5.90956163
REMARK minimizedRMSD -1
REMARK  0 active torsions:
REMARK  status: ('A' for Active; 'I' for Inactive)
ROOT
ATOM      1  C   UNL d   1       1.068   2.700   1.099  0.00  0.00     0.078 C 
ATOM      2  C1  UNL d   1       0.974   1.364   0.425  0.00  0.00    -0.077 A 
ATOM      3  C2  UNL d   1      -0.185   0.585   0.525  0.00  0.00    -0.001 A 
ATOM      4  C3  UNL d   1      -0.255  -0.661  -0.100  0.00  0.00     0.003 A 
ATOM      5  C4  UNL d   1       0.832  -1.139  -0.829  0.00  0.00    -0.005 A 
ATOM      6  C5  UNL d   1       1.990  -0.372  -0.934  0.00  0.00     0.003 A 
ATOM      7  C6  UNL d   1       2.062   0.874  -0.309  0.00  0.00    -0.001 A 
ENDROOT
TORSDOF 0
ENDMDL
