MODEL 1
REMARK minimizedAffinity -3.53685832
REMARK minimizedRMSD -1
REMARK  0 active torsions:
REMARK  status: ('A' for Active; 'I' for Inactive)
ROOT
ATOM      1  C   UNL d   1      -5.251   3.587  -5.020  0.00  0.00     0.078 C 
ATOM      2  C1  UNL d   1      -4.070   4.349  -4.497  0.00  0.00    -0.077 A 
ATOM      3  C2  UNL d   1      -2.785   4.126  -5.006  0.00  0.00    -0.001 A 
ATOM      4  C3  UNL d   1      -1.693   4.836  -4.503  0.00  0.00     0.003 A 
ATOM      5  C4  UNL d   1      -1.876   5.773  -3.488  0.00  0.00    -0.005 A 
ATOM      6  C5  UNL d   1      -3.150   6.000  -2.974  0.00  0.00     0.003 A 
ATOM      7  C6  UNL d   1      -4.243   5.291  -3.476  0.00  0.00    -0.001 A 
ENDROOT
TORSDOF 0
ENDMDL
