MODEL 1
REMARK minimizedAffinity -4.63108587
REMARK minimizedRMSD -1
REMARK  0 active torsions:
REMARK  status: ('A' for Active; 'I' for Inactive)
ROOT
ATOM      1  C   UNL d   1      -1.063  -0.975  -0.532  0.00  0.00     0.078 C 
ATOM      2  C1  UNL d   1      -0.316  -0.045   0.377  0.00  0.00    -0.077 A 
ATOM      3  C2  UNL d   1      -0.834   0.314   1.627  0.00  0.00    -0.001 A 
ATOM      4  C3  UNL d   1      -0.132   1.189   2.458  0.00  0.00     0.003 A 
ATOM      5  C4  UNL d   1       1.092   1.713   2.047  0.00  0.00    -0.005 A 
ATOM      6  C5  UNL d   1       1.615   1.363   0.803  0.00  0.00     0.003 A 
ATOM      7  C6  UNL d   1       0.914   0.489  -0.029  0.00  0.00    -0.001 A 
ENDROOT
TORSDOF 0
ENDMDL
