MODEL 1
REMARK minimizedAffinity -5.15013647
REMARK minimizedRMSD -1
REMARK  0 active torsions:
REMARK  status: ('A' for Active; 'I' for Inactive)
ROOT
ATOM      1  C   UNL d   1      -0.498  -1.080   0.837  0.00  0.00     0.078 C 
ATOM      2  C1  UNL d   1       0.138   0.274   0.729  0.00  0.00    -0.077 A 
ATOM      3  C2  UNL d   1       1.071   0.555  -0.277  0.00  0.00    -0.001 A 
ATOM      4  C3  UNL d   1       1.662   1.816  -0.359  0.00  0.00     0.003 A 
ATOM      5  C4  UNL d   1       1.329   2.807   0.563  0.00  0.00    -0.005 A 
ATOM      6  C5  UNL d   1       0.404   2.536   1.569  0.00  0.00     0.003 A 
ATOM      7  C6  UNL d   1      -0.189   1.275   1.653  0.00  0.00    -0.001 A 
ENDROOT
TORSDOF 0
ENDMDL
