MODEL 1
REMARK minimizedAffinity -5.36419249
REMARK minimizedRMSD -1
REMARK  0 active torsions:
REMARK  status: ('A' for Active; 'I' for Inactive)
ROOT
ATOM      1  C   UNL d   1      -0.384   1.304   1.407  0.00  0.00     0.078 C 
ATOM      2  C1  UNL d   1       1.008   1.003   0.938  0.00  0.00    -0.077 A 
ATOM      3  C2  UNL d   1       1.259  -0.053   0.053  0.00  0.00    -0.001 A 
ATOM      4  C3  UNL d   1       2.561  -0.327  -0.368  0.00  0.00     0.003 A 
ATOM      5  C4  UNL d   1       3.623   0.449   0.091  0.00  0.00    -0.005 A 
ATOM      6  C5  UNL d   1       3.384   1.500   0.974  0.00  0.00     0.003 A 
ATOM      7  C6  UNL d   1       2.082   1.776   1.396  0.00  0.00    -0.001 A 
ENDROOT
TORSDOF 0
ENDMDL
