MODEL 1
REMARK minimizedAffinity -4.09464073
REMARK minimizedRMSD -1
REMARK  0 active torsions:
REMARK  status: ('A' for Active; 'I' for Inactive)
ROOT
ATOM      1  C   UNL d   1      -4.953  -3.433   0.032  0.00  0.00     0.078 C 
ATOM      2  C1  UNL d   1      -4.052  -2.679  -0.900  0.00  0.00    -0.077 A 
ATOM      3  C2  UNL d   1      -4.569  -1.995  -2.007  0.00  0.00    -0.001 A 
ATOM      4  C3  UNL d   1      -3.718  -1.305  -2.871  0.00  0.00     0.003 A 
ATOM      5  C4  UNL d   1      -2.344  -1.294  -2.639  0.00  0.00    -0.005 A 
ATOM      6  C5  UNL d   1      -1.820  -1.973  -1.541  0.00  0.00     0.003 A 
ATOM      7  C6  UNL d   1      -2.670  -2.664  -0.676  0.00  0.00    -0.001 A 
ENDROOT
TORSDOF 0
ENDMDL
