MODEL 1
REMARK minimizedAffinity -2.75223398
REMARK minimizedRMSD -1
REMARK  0 active torsions:
REMARK  status: ('A' for Active; 'I' for Inactive)
ROOT
ATOM      1  C   UNL d   1       3.722   0.539   0.025  0.00  0.00     0.078 C 
ATOM      2  C1  UNL d   1       2.312   0.590   0.532  0.00  0.00    -0.077 A 
ATOM      3  C2  UNL d   1       1.946   1.467   1.561  0.00  0.00    -0.001 A 
ATOM      4  C3  UNL d   1       0.632   1.498   2.029  0.00  0.00     0.003 A 
ATOM      5  C4  UNL d   1      -0.328   0.653   1.475  0.00  0.00    -0.005 A 
ATOM      6  C5  UNL d   1       0.027  -0.225   0.453  0.00  0.00     0.003 A 
ATOM      7  C6  UNL d   1       1.341  -0.257  -0.017  0.00  0.00    -0.001 A 
ENDROOT
TORSDOF 0
ENDMDL
