MODEL 1
REMARK minimizedAffinity -5.56698084
REMARK minimizedRMSD -1
REMARK  0 active torsions:
REMARK  status: ('A' for Active; 'I' for Inactive)
ROOT
ATOM      1  C   UNL d   1      -0.353  -0.870  -0.305  0.00  0.00     0.078 C 
ATOM      2  C1  UNL d   1       0.139   0.259   0.551  0.00  0.00    -0.077 A 
ATOM      3  C2  UNL d   1      -0.207   0.342   1.905  0.00  0.00    -0.001 A 
ATOM      4  C3  UNL d   1       0.249   1.404   2.687  0.00  0.00     0.003 A 
ATOM      5  C4  UNL d   1       1.054   2.392   2.123  0.00  0.00    -0.005 A 
ATOM      6  C5  UNL d   1       1.401   2.320   0.776  0.00  0.00     0.003 A 
ATOM      7  C6  UNL d   1       0.946   1.259  -0.008  0.00  0.00    -0.001 A 
ENDROOT
TORSDOF 0
ENDMDL
