MODEL 1
REMARK minimizedAffinity -3.7735157
REMARK minimizedRMSD -1
REMARK  0 active torsions:
REMARK  status: ('A' for Active; 'I' for Inactive)
ROOT
ATOM      1  C   UNL d   1       0.041   0.179  -0.018  0.00  0.00     0.078 C 
ATOM      2  C1  UNL d   1      -0.954  -0.522  -0.894  0.00  0.00    -0.077 A 
ATOM      3  C2  UNL d   1      -1.760  -1.550  -0.390  0.00  0.00    -0.001 A 
ATOM      4  C3  UNL d   1      -2.675  -2.201  -1.219  0.00  0.00     0.003 A 
ATOM      5  C4  UNL d   1      -2.792  -1.832  -2.557  0.00  0.00    -0.005 A 
ATOM      6  C5  UNL d   1      -1.992  -0.812  -3.069  0.00  0.00     0.003 A 
ATOM      7  C6  UNL d   1      -1.077  -0.160  -2.241  0.00  0.00    -0.001 A 
ENDROOT
TORSDOF 0
ENDMDL
