MODEL 1
REMARK minimizedAffinity -5.36185598
REMARK minimizedRMSD -1
REMARK  0 active torsions:
REMARK  status: ('A' for Active; 'I' for Inactive)
ROOT
ATOM      1  C   UNL d   1      -0.373  -0.750  -0.780  0.00  0.00     0.078 C 
ATOM      2  C1  UNL d   1       0.141   0.378   0.064  0.00  0.00    -0.077 A 
ATOM      3  C2  UNL d   1      -0.480   0.714   1.274  0.00  0.00    -0.001 A 
ATOM      4  C3  UNL d   1       0.003   1.772   2.045  0.00  0.00     0.003 A 
ATOM      5  C4  UNL d   1       1.108   2.504   1.615  0.00  0.00    -0.005 A 
ATOM      6  C5  UNL d   1       1.731   2.179   0.412  0.00  0.00     0.003 A 
ATOM      7  C6  UNL d   1       1.249   1.121  -0.361  0.00  0.00    -0.001 A 
ENDROOT
TORSDOF 0
ENDMDL
