MODEL 1
REMARK minimizedAffinity 11.5468483
REMARK minimizedRMSD -1
REMARK  2 active torsions:
REMARK  status: ('A' for Active; 'I' for Inactive)
REMARK    1  A    between atoms: C2'_3  and  C1'_4 
REMARK    2  A    between atoms: C1'_4  and  C1_5 
ROOT
ATOM      1  C1  I4B d   1       3.025  -3.676   1.473  0.00  0.00    -0.075 A 
ATOM      2  C2  I4B d   1       3.695  -3.729   0.276  0.00  0.00     0.003 A 
ATOM      3  C3  I4B d   1       5.022  -4.222   0.223  0.00  0.00     0.002 A 
ATOM      4  C4  I4B d   1       5.653  -4.602   1.390  0.00  0.00    -0.004 A 
ATOM      5  C5  I4B d   1       4.964  -4.569   2.599  0.00  0.00     0.002 A 
ATOM      6  C6  I4B d   1       3.638  -4.116   2.640  0.00  0.00     0.003 A 
ENDROOT
BRANCH   1   7
ATOM      7  C1' I4B d   1       1.637  -3.119   1.498  0.00  0.00     0.060 C 
BRANCH   7   8
ATOM      8  C2' I4B d   1       1.740  -1.616   1.653  0.00  0.00    -0.013 C 
ATOM      9  C4' I4B d   1       1.569  -0.918   0.330  0.00  0.00     0.013 C 
ATOM     10  C3' I4B d   1       0.694  -1.179   2.635  0.00  0.00     0.013 C 
ENDBRANCH   7   8
ENDBRANCH   1   7
TORSDOF 2
ENDMDL
