MODEL 1
REMARK minimizedAffinity 1.52878237
REMARK minimizedRMSD -1
REMARK  2 active torsions:
REMARK  status: ('A' for Active; 'I' for Inactive)
REMARK    1  A    between atoms: C2'_3  and  C1'_4 
REMARK    2  A    between atoms: C1'_4  and  C1_5 
ROOT
ATOM      1  C1  I4B d   1      -3.794  -0.336  -4.880  0.00  0.00    -0.075 A 
ATOM      2  C2  I4B d   1      -5.159  -0.478  -4.850  0.00  0.00     0.003 A 
ATOM      3  C3  I4B d   1      -5.994   0.568  -5.310  0.00  0.00     0.002 A 
ATOM      4  C4  I4B d   1      -5.428   1.751  -5.741  0.00  0.00    -0.004 A 
ATOM      5  C5  I4B d   1      -4.044   1.884  -5.791  0.00  0.00     0.002 A 
ATOM      6  C6  I4B d   1      -3.221   0.830  -5.370  0.00  0.00     0.003 A 
ENDROOT
BRANCH   1   7
ATOM      7  C1' I4B d   1      -2.942  -1.449  -4.356  0.00  0.00     0.060 C 
BRANCH   7   8
ATOM      8  C2' I4B d   1      -3.392  -1.755  -2.942  0.00  0.00    -0.013 C 
ATOM      9  C4' I4B d   1      -3.361  -0.520  -2.080  0.00  0.00     0.013 C 
ATOM     10  C3' I4B d   1      -4.774  -2.333  -3.010  0.00  0.00     0.013 C 
ENDBRANCH   7   8
ENDBRANCH   1   7
TORSDOF 2
ENDMDL
