MODEL 1
REMARK minimizedAffinity 0.266521603
REMARK minimizedRMSD -1
REMARK  2 active torsions:
REMARK  status: ('A' for Active; 'I' for Inactive)
REMARK    1  A    between atoms: C2'_3  and  C1'_4 
REMARK    2  A    between atoms: C1'_4  and  C1_5 
ROOT
ATOM      1  C1  I4B d   1       3.455  -2.529   0.608  0.00  0.00    -0.075 A 
ATOM      2  C2  I4B d   1       2.284  -1.897   0.272  0.00  0.00     0.003 A 
ATOM      3  C3  I4B d   1       2.308  -0.582  -0.251  0.00  0.00     0.002 A 
ATOM      4  C4  I4B d   1       3.514   0.078  -0.373  0.00  0.00    -0.004 A 
ATOM      5  C5  I4B d   1       4.702  -0.572  -0.053  0.00  0.00     0.002 A 
ATOM      6  C6  I4B d   1       4.674  -1.889   0.429  0.00  0.00     0.003 A 
ENDROOT
BRANCH   1   7
ATOM      7  C1' I4B d   1       3.390  -3.906   1.189  0.00  0.00     0.060 C 
BRANCH   7   8
ATOM      8  C2' I4B d   1       4.698  -4.173   1.905  0.00  0.00    -0.013 C 
ATOM      9  C4' I4B d   1       4.464  -4.548   3.345  0.00  0.00     0.013 C 
ATOM     10  C3' I4B d   1       5.414  -5.267   1.170  0.00  0.00     0.013 C 
ENDBRANCH   7   8
ENDBRANCH   1   7
TORSDOF 2
ENDMDL
