MODEL 1
REMARK minimizedAffinity 0.905857146
REMARK minimizedRMSD -1
REMARK  2 active torsions:
REMARK  status: ('A' for Active; 'I' for Inactive)
REMARK    1  A    between atoms: C2'_3  and  C1'_4 
REMARK    2  A    between atoms: C1'_4  and  C1_5 
ROOT
ATOM      1  C1  I4B d   1       5.231  -3.820   3.291  0.00  0.00    -0.075 A 
ATOM      2  C2  I4B d   1       5.729  -2.584   3.622  0.00  0.00     0.003 A 
ATOM      3  C3  I4B d   1       6.000  -2.264   4.974  0.00  0.00     0.002 A 
ATOM      4  C4  I4B d   1       5.712  -3.184   5.962  0.00  0.00    -0.004 A 
ATOM      5  C5  I4B d   1       5.229  -4.445   5.622  0.00  0.00     0.002 A 
ATOM      6  C6  I4B d   1       4.998  -4.769   4.277  0.00  0.00     0.003 A 
ENDROOT
BRANCH   1   7
ATOM      7  C1' I4B d   1       4.926  -4.113   1.856  0.00  0.00     0.060 C 
BRANCH   7   8
ATOM      8  C2' I4B d   1       3.583  -3.493   1.529  0.00  0.00    -0.013 C 
ATOM      9  C4' I4B d   1       3.749  -2.207   0.762  0.00  0.00     0.013 C 
ATOM     10  C3' I4B d   1       2.790  -4.493   0.742  0.00  0.00     0.013 C 
ENDBRANCH   7   8
ENDBRANCH   1   7
TORSDOF 2
ENDMDL
