MODEL 1
REMARK minimizedAffinity 0.955336273
REMARK minimizedRMSD -1
REMARK  2 active torsions:
REMARK  status: ('A' for Active; 'I' for Inactive)
REMARK    1  A    between atoms: C2'_3  and  C1'_4 
REMARK    2  A    between atoms: C1'_4  and  C1_5 
ROOT
ATOM      1  C1  I4B d   1      -4.018  -0.531  -4.072  0.00  0.00    -0.075 A 
ATOM      2  C2  I4B d   1      -5.353  -0.233  -3.962  0.00  0.00     0.003 A 
ATOM      3  C3  I4B d   1      -5.967   0.642  -4.891  0.00  0.00     0.002 A 
ATOM      4  C4  I4B d   1      -5.202   1.232  -5.877  0.00  0.00    -0.004 A 
ATOM      5  C5  I4B d   1      -3.854   0.911  -6.000  0.00  0.00     0.002 A 
ATOM      6  C6  I4B d   1      -3.260   0.014  -5.100  0.00  0.00     0.003 A 
ENDROOT
BRANCH   1   7
ATOM      7  C1' I4B d   1      -3.395  -1.433  -3.054  0.00  0.00     0.060 C 
BRANCH   7   8
ATOM      8  C2' I4B d   1      -2.653  -0.568  -2.056  0.00  0.00    -0.013 C 
ATOM      9  C4' I4B d   1      -3.203   0.834  -2.033  0.00  0.00     0.013 C 
ATOM     10  C3' I4B d   1      -2.766  -1.216  -0.708  0.00  0.00     0.013 C 
ENDBRANCH   7   8
ENDBRANCH   1   7
TORSDOF 2
ENDMDL
