MODEL 1
REMARK minimizedAffinity 2.38989568
REMARK minimizedRMSD -1
REMARK  2 active torsions:
REMARK  status: ('A' for Active; 'I' for Inactive)
REMARK    1  A    between atoms: C2'_3  and  C1'_4 
REMARK    2  A    between atoms: C1'_4  and  C1_5 
ROOT
ATOM      1  C1  I4B d   1       1.655  -2.283   1.255  0.00  0.00    -0.075 A 
ATOM      2  C2  I4B d   1       2.356  -1.504   0.369  0.00  0.00     0.003 A 
ATOM      3  C3  I4B d   1       3.719  -1.780   0.100  0.00  0.00     0.002 A 
ATOM      4  C4  I4B d   1       4.350  -2.807   0.772  0.00  0.00    -0.004 A 
ATOM      5  C5  I4B d   1       3.631  -3.610   1.653  0.00  0.00     0.002 A 
ATOM      6  C6  I4B d   1       2.272  -3.355   1.887  0.00  0.00     0.003 A 
ENDROOT
BRANCH   1   7
ATOM      7  C1' I4B d   1       0.227  -1.943   1.541  0.00  0.00     0.060 C 
BRANCH   7   8
ATOM      8  C2' I4B d   1       0.024  -2.002   3.041  0.00  0.00    -0.013 C 
ATOM      9  C4' I4B d   1      -0.285  -0.640   3.604  0.00  0.00     0.013 C 
ATOM     10  C3' I4B d   1      -1.089  -2.968   3.320  0.00  0.00     0.013 C 
ENDBRANCH   7   8
ENDBRANCH   1   7
TORSDOF 2
ENDMDL
