MODEL 1
REMARK minimizedAffinity 8.11826134
REMARK minimizedRMSD -1
REMARK  2 active torsions:
REMARK  status: ('A' for Active; 'I' for Inactive)
REMARK    1  A    between atoms: C2'_3  and  C1'_4 
REMARK    2  A    between atoms: C1'_4  and  C1_5 
ROOT
ATOM      1  C1  I4B d   1       3.326  -0.423   0.051  0.00  0.00    -0.075 A 
ATOM      2  C2  I4B d   1       4.574  -0.845   0.436  0.00  0.00     0.003 A 
ATOM      3  C3  I4B d   1       5.635   0.085   0.557  0.00  0.00     0.002 A 
ATOM      4  C4  I4B d   1       5.419   1.409   0.236  0.00  0.00    -0.004 A 
ATOM      5  C5  I4B d   1       4.147   1.839  -0.133  0.00  0.00     0.002 A 
ATOM      6  C6  I4B d   1       3.091   0.920  -0.214  0.00  0.00     0.003 A 
ENDROOT
BRANCH   1   7
ATOM      7  C1' I4B d   1       2.237  -1.437  -0.098  0.00  0.00     0.060 C 
BRANCH   7   8
ATOM      8  C2' I4B d   1       2.179  -2.251   1.178  0.00  0.00    -0.013 C 
ATOM      9  C4' I4B d   1       0.820  -2.163   1.820  0.00  0.00     0.013 C 
ATOM     10  C3' I4B d   1       2.527  -3.670   0.838  0.00  0.00     0.013 C 
ENDBRANCH   7   8
ENDBRANCH   1   7
TORSDOF 2
ENDMDL
