MODEL 1
REMARK minimizedAffinity 11.3337917
REMARK minimizedRMSD -1
REMARK  1 active torsions:
REMARK  status: ('A' for Active; 'I' for Inactive)
REMARK    1  A    between atoms: N_2  and  C1_3 
ROOT
ATOM      1  C1  UNL d   1      -0.381  -4.908  -0.467  0.00  0.00     0.143 A 
ATOM      2  C2  UNL d   1      -0.106  -5.216  -1.803  0.00  0.00    -0.057 A 
ATOM      3  C3  UNL d   1       1.202  -5.185  -2.302  0.00  0.00     0.033 A 
ATOM      4  C4  UNL d   1       2.258  -4.815  -1.476  0.00  0.00    -0.042 A 
ATOM      5  C5  UNL d   1       2.006  -4.480  -0.150  0.00  0.00     0.033 A 
ATOM      6  C6  UNL d   1       0.698  -4.520   0.343  0.00  0.00    -0.057 A 
ENDROOT
BRANCH   1   7
ATOM      7  N   UNL d   1      -1.671  -4.825   0.063  0.00  0.00    -0.732 N 
ATOM      8  C   UNL d   1      -2.532  -5.988   0.092  0.00  0.00     0.284 C 
ATOM      9  H3  UNL d   1      -1.709  -4.259   0.908  0.00  0.00     0.395 HD
ENDBRANCH   1   7
TORSDOF 1
ENDMDL
