MODEL 1
REMARK minimizedAffinity 5.52033234
REMARK minimizedRMSD -1
REMARK  1 active torsions:
REMARK  status: ('A' for Active; 'I' for Inactive)
REMARK    1  A    between atoms: N_2  and  C1_3 
ROOT
ATOM      1  C1  UNL d   1       2.622  -2.645   3.605  0.00  0.00     0.143 A 
ATOM      2  C2  UNL d   1       2.040  -1.375   3.534  0.00  0.00    -0.057 A 
ATOM      3  C3  UNL d   1       1.532  -0.744   4.676  0.00  0.00     0.033 A 
ATOM      4  C4  UNL d   1       1.572  -1.387   5.908  0.00  0.00    -0.042 A 
ATOM      5  C5  UNL d   1       2.123  -2.660   5.998  0.00  0.00     0.033 A 
ATOM      6  C6  UNL d   1       2.634  -3.282   4.855  0.00  0.00    -0.057 A 
ENDROOT
BRANCH   1   7
ATOM      7  N   UNL d   1       3.055  -3.366   2.489  0.00  0.00    -0.732 N 
ATOM      8  C   UNL d   1       2.613  -3.003   1.160  0.00  0.00     0.284 C 
ATOM      9  H3  UNL d   1       4.040  -3.615   2.546  0.00  0.00     0.395 HD
ENDBRANCH   1   7
TORSDOF 1
ENDMDL
