MODEL 1
REMARK minimizedAffinity 0.286809087
REMARK minimizedRMSD -1
REMARK  1 active torsions:
REMARK  status: ('A' for Active; 'I' for Inactive)
REMARK    1  A    between atoms: N_2  and  C1_3 
ROOT
ATOM      1  C1  UNL d   1      -3.544   2.701  -3.212  0.00  0.00     0.143 A 
ATOM      2  C2  UNL d   1      -4.165   3.446  -2.204  0.00  0.00    -0.057 A 
ATOM      3  C3  UNL d   1      -4.664   4.730  -2.453  0.00  0.00     0.033 A 
ATOM      4  C4  UNL d   1      -4.524   5.305  -3.712  0.00  0.00    -0.042 A 
ATOM      5  C5  UNL d   1      -3.887   4.593  -4.722  0.00  0.00     0.033 A 
ATOM      6  C6  UNL d   1      -3.397   3.308  -4.469  0.00  0.00    -0.057 A 
ENDROOT
BRANCH   1   7
ATOM      7  N   UNL d   1      -2.940   1.459  -3.002  0.00  0.00    -0.732 N 
ATOM      8  C   UNL d   1      -3.496   0.259  -3.592  0.00  0.00     0.284 C 
ATOM      9  H3  UNL d   1      -1.925   1.509  -3.040  0.00  0.00     0.395 HD
ENDBRANCH   1   7
TORSDOF 1
ENDMDL
