MODEL 1
REMARK minimizedAffinity 7.61708117
REMARK minimizedRMSD -1
REMARK  1 active torsions:
REMARK  status: ('A' for Active; 'I' for Inactive)
REMARK    1  A    between atoms: N_2  and  C1_3 
ROOT
ATOM      1  C1  UNL d   1      -3.313   2.094  -2.872  0.00  0.00     0.143 A 
ATOM      2  C2  UNL d   1      -3.920   2.997  -1.994  0.00  0.00    -0.057 A 
ATOM      3  C3  UNL d   1      -4.429   4.220  -2.446  0.00  0.00     0.033 A 
ATOM      4  C4  UNL d   1      -4.312   4.576  -3.786  0.00  0.00    -0.042 A 
ATOM      5  C5  UNL d   1      -3.689   3.705  -4.673  0.00  0.00     0.033 A 
ATOM      6  C6  UNL d   1      -3.189   2.481  -4.216  0.00  0.00    -0.057 A 
ENDROOT
BRANCH   1   7
ATOM      7  N   UNL d   1      -2.700   0.906  -2.466  0.00  0.00    -0.732 N 
ATOM      8  C   UNL d   1      -1.816   0.886  -1.320  0.00  0.00     0.284 C 
ATOM      9  H3  UNL d   1      -3.328   0.107  -2.521  0.00  0.00     0.395 HD
ENDBRANCH   1   7
TORSDOF 1
ENDMDL
