MODEL 1
REMARK minimizedAffinity 5.14610291
REMARK minimizedRMSD -1
REMARK  1 active torsions:
REMARK  status: ('A' for Active; 'I' for Inactive)
REMARK    1  A    between atoms: N_2  and  C1_3 
ROOT
ATOM      1  C1  UNL d   1       1.625  -1.696   3.936  0.00  0.00     0.143 A 
ATOM      2  C2  UNL d   1       1.342  -0.521   3.231  0.00  0.00    -0.057 A 
ATOM      3  C3  UNL d   1       1.663  -0.393   1.874  0.00  0.00     0.033 A 
ATOM      4  C4  UNL d   1       2.300  -1.431   1.203  0.00  0.00    -0.042 A 
ATOM      5  C5  UNL d   1       2.613  -2.599   1.889  0.00  0.00     0.033 A 
ATOM      6  C6  UNL d   1       2.285  -2.723   3.243  0.00  0.00    -0.057 A 
ENDROOT
BRANCH   1   7
ATOM      7  N   UNL d   1       1.421  -1.848   5.310  0.00  0.00    -0.732 N 
ATOM      8  C   UNL d   1       1.896  -3.028   5.999  0.00  0.00     0.284 C 
ATOM      9  H3  UNL d   1       1.565  -0.981   5.822  0.00  0.00     0.395 HD
ENDBRANCH   1   7
TORSDOF 1
ENDMDL
