MODEL 1
REMARK minimizedAffinity 5.12947655
REMARK minimizedRMSD -1
REMARK  1 active torsions:
REMARK  status: ('A' for Active; 'I' for Inactive)
REMARK    1  A    between atoms: N_2  and  C1_3 
ROOT
ATOM      1  C1  UNL d   1      -1.513  -4.250  -0.307  0.00  0.00     0.143 A 
ATOM      2  C2  UNL d   1      -0.557  -4.423   0.699  0.00  0.00    -0.057 A 
ATOM      3  C3  UNL d   1       0.801  -4.570   0.393  0.00  0.00     0.033 A 
ATOM      4  C4  UNL d   1       1.225  -4.576  -0.932  0.00  0.00    -0.042 A 
ATOM      5  C5  UNL d   1       0.289  -4.431  -1.950  0.00  0.00     0.033 A 
ATOM      6  C6  UNL d   1      -1.065  -4.277  -1.637  0.00  0.00    -0.057 A 
ENDROOT
BRANCH   1   7
ATOM      7  N   UNL d   1      -2.889  -4.197  -0.072  0.00  0.00    -0.732 N 
ATOM      8  C   UNL d   1      -3.712  -5.374  -0.246  0.00  0.00     0.284 C 
ATOM      9  H3  UNL d   1      -3.122  -3.645   0.750  0.00  0.00     0.395 HD
ENDBRANCH   1   7
TORSDOF 1
ENDMDL
