MODEL 1
REMARK minimizedAffinity 6.66507912
REMARK minimizedRMSD -1
REMARK  1 active torsions:
REMARK  status: ('A' for Active; 'I' for Inactive)
REMARK    1  A    between atoms: N_2  and  C1_3 
ROOT
ATOM      1  C1  UNL d   1       4.801  -2.261  -1.057  0.00  0.00     0.143 A 
ATOM      2  C2  UNL d   1       4.485  -3.462  -1.701  0.00  0.00    -0.057 A 
ATOM      3  C3  UNL d   1       3.908  -3.472  -2.977  0.00  0.00     0.033 A 
ATOM      4  C4  UNL d   1       3.608  -2.276  -3.620  0.00  0.00    -0.042 A 
ATOM      5  C5  UNL d   1       3.890  -1.070  -2.989  0.00  0.00     0.033 A 
ATOM      6  C6  UNL d   1       4.472  -1.067  -1.718  0.00  0.00    -0.057 A 
ENDROOT
BRANCH   1   7
ATOM      7  N   UNL d   1       5.285  -2.183   0.251  0.00  0.00    -0.732 N 
ATOM      8  C   UNL d   1       5.999  -3.296   0.840  0.00  0.00     0.284 C 
ATOM      9  H3  UNL d   1       5.685  -1.273   0.464  0.00  0.00     0.395 HD
ENDBRANCH   1   7
TORSDOF 1
ENDMDL
