MODEL 1
REMARK minimizedAffinity 7.784657
REMARK minimizedRMSD -1
REMARK  0 active torsions:
REMARK  status: ('A' for Active; 'I' for Inactive)
ROOT
ATOM      1  C   UNL d   1      -0.603   3.938  -0.760  0.00  0.00     0.020 A 
ATOM      2  C1  UNL d   1       0.790   3.993  -0.782  0.00  0.00     0.020 A 
ATOM      3  C2  UNL d   1       1.523   3.571   0.330  0.00  0.00     0.034 A 
ATOM      4  C3  UNL d   1       0.864   3.094   1.468  0.00  0.00     0.017 A 
ATOM      5  C4  UNL d   1      -0.535   3.039   1.489  0.00  0.00     0.017 A 
ATOM      6  C5  UNL d   1      -1.264   3.463   0.374  0.00  0.00     0.034 A 
ATOM      7 Cl   UNL d   1      -1.419   2.462   2.857  0.00  0.00    -0.070 Cl
ATOM      8 Cl1  UNL d   1       1.833   2.589   2.806  0.00  0.00    -0.070 Cl
ENDROOT
TORSDOF 0
ENDMDL
