MODEL 1
REMARK minimizedAffinity 3.42577004
REMARK minimizedRMSD -1
REMARK  0 active torsions:
REMARK  status: ('A' for Active; 'I' for Inactive)
ROOT
ATOM      1  C   UNL d   1      -5.999   3.003  -1.584  0.00  0.00     0.020 A 
ATOM      2  C1  UNL d   1      -5.556   4.320  -1.696  0.00  0.00     0.020 A 
ATOM      3  C2  UNL d   1      -5.114   4.806  -2.929  0.00  0.00     0.034 A 
ATOM      4  C3  UNL d   1      -5.114   3.974  -4.054  0.00  0.00     0.017 A 
ATOM      5  C4  UNL d   1      -5.558   2.651  -3.940  0.00  0.00     0.017 A 
ATOM      6  C5  UNL d   1      -6.000   2.171  -2.704  0.00  0.00     0.034 A 
ATOM      7 Cl   UNL d   1      -5.588   1.565  -5.284  0.00  0.00    -0.070 Cl
ATOM      8 Cl1  UNL d   1      -4.554   4.641  -5.546  0.00  0.00    -0.070 Cl
ENDROOT
TORSDOF 0
ENDMDL
