MODEL 1
REMARK minimizedAffinity 2.02962375
REMARK minimizedRMSD -1
REMARK  0 active torsions:
REMARK  status: ('A' for Active; 'I' for Inactive)
ROOT
ATOM      1  C   UNL d   1       0.247   3.403   0.283  0.00  0.00     0.020 A 
ATOM      2  C1  UNL d   1       1.380   4.184   0.509  0.00  0.00     0.020 A 
ATOM      3  C2  UNL d   1       2.090   4.056   1.704  0.00  0.00     0.034 A 
ATOM      4  C3  UNL d   1       1.670   3.143   2.678  0.00  0.00     0.017 A 
ATOM      5  C4  UNL d   1       0.533   2.359   2.451  0.00  0.00     0.017 A 
ATOM      6  C5  UNL d   1      -0.175   2.492   1.253  0.00  0.00     0.034 A 
ATOM      7 Cl   UNL d   1      -0.048   1.212   3.606  0.00  0.00    -0.070 Cl
ATOM      8 Cl1  UNL d   1       2.596   3.036   4.133  0.00  0.00    -0.070 Cl
ENDROOT
TORSDOF 0
ENDMDL
