MODEL 1
REMARK minimizedAffinity 5.19398165
REMARK minimizedRMSD -1
REMARK  0 active torsions:
REMARK  status: ('A' for Active; 'I' for Inactive)
ROOT
ATOM      1  C   UNL d   1      -0.882   5.299  -1.641  0.00  0.00     0.020 A 
ATOM      2  C1  UNL d   1      -0.778   5.999  -0.440  0.00  0.00     0.020 A 
ATOM      3  C2  UNL d   1      -0.546   5.310   0.752  0.00  0.00     0.034 A 
ATOM      4  C3  UNL d   1      -0.416   3.916   0.745  0.00  0.00     0.017 A 
ATOM      5  C4  UNL d   1      -0.520   3.215  -0.461  0.00  0.00     0.017 A 
ATOM      6  C5  UNL d   1      -0.753   3.910  -1.652  0.00  0.00     0.034 A 
ATOM      7 Cl   UNL d   1      -0.371   1.495  -0.549  0.00  0.00    -0.070 Cl
ATOM      8 Cl1  UNL d   1      -0.129   3.129   2.256  0.00  0.00    -0.070 Cl
ENDROOT
TORSDOF 0
ENDMDL
