MODEL 1
REMARK minimizedAffinity 8.25524426
REMARK minimizedRMSD -1
REMARK  0 active torsions:
REMARK  status: ('A' for Active; 'I' for Inactive)
ROOT
ATOM      1  C   UNL d   1      -5.995   0.623  -4.815  0.00  0.00     0.020 A 
ATOM      2  C1  UNL d   1      -5.995   1.940  -5.274  0.00  0.00     0.020 A 
ATOM      3  C2  UNL d   1      -5.996   2.997  -4.361  0.00  0.00     0.034 A 
ATOM      4  C3  UNL d   1      -5.997   2.739  -2.985  0.00  0.00     0.017 A 
ATOM      5  C4  UNL d   1      -5.997   1.417  -2.526  0.00  0.00     0.017 A 
ATOM      6  C5  UNL d   1      -5.996   0.362  -3.444  0.00  0.00     0.034 A 
ATOM      7 Cl   UNL d   1      -5.998   1.020  -0.844  0.00  0.00    -0.070 Cl
ATOM      8 Cl1  UNL d   1      -5.999   4.095  -1.914  0.00  0.00    -0.070 Cl
ENDROOT
TORSDOF 0
ENDMDL
