MODEL 1
REMARK minimizedAffinity 7.00890255
REMARK minimizedRMSD -1
REMARK  0 active torsions:
REMARK  status: ('A' for Active; 'I' for Inactive)
ROOT
ATOM      1  C   UNL d   1      -5.978   3.151  -1.998  0.00  0.00     0.020 A 
ATOM      2  C1  UNL d   1      -5.992   1.804  -1.640  0.00  0.00     0.020 A 
ATOM      3  C2  UNL d   1      -5.998   0.818  -2.629  0.00  0.00     0.034 A 
ATOM      4  C3  UNL d   1      -5.990   1.178  -3.981  0.00  0.00     0.017 A 
ATOM      5  C4  UNL d   1      -5.976   2.531  -4.340  0.00  0.00     0.017 A 
ATOM      6  C5  UNL d   1      -5.970   3.514  -3.346  0.00  0.00     0.034 A 
ATOM      7 Cl   UNL d   1      -5.965   3.053  -5.988  0.00  0.00    -0.070 Cl
ATOM      8 Cl1  UNL d   1      -5.998  -0.093  -5.151  0.00  0.00    -0.070 Cl
ENDROOT
TORSDOF 0
ENDMDL
