MODEL 1
REMARK minimizedAffinity -2.14030695
REMARK minimizedRMSD -1
REMARK  0 active torsions:
REMARK  status: ('A' for Active; 'I' for Inactive)
ROOT
ATOM      1  C1  BNZ d   1       1.524   0.939   0.019  0.00  0.00     0.000 A 
ATOM      2  C2  BNZ d   1       2.618   0.813   0.833  0.00  0.00     0.000 A 
ATOM      3  C3  BNZ d   1       2.809  -0.317   1.579  0.00  0.00     0.000 A 
ATOM      4  C4  BNZ d   1       1.887  -1.300   1.541  0.00  0.00     0.000 A 
ATOM      5  C5  BNZ d   1       0.774  -1.184   0.733  0.00  0.00     0.000 A 
ATOM      6  C6  BNZ d   1       0.605  -0.062  -0.047  0.00  0.00     0.000 A 
ENDROOT
TORSDOF 0
ENDMDL
