MODEL 1
REMARK minimizedAffinity -4.52133512
REMARK minimizedRMSD -1
REMARK  0 active torsions:
REMARK  status: ('A' for Active; 'I' for Inactive)
ROOT
ATOM      1  C1  BNZ d   1       0.757  -1.460   0.425  0.00  0.00     0.000 A 
ATOM      2  C2  BNZ d   1       1.859  -0.662   0.575  0.00  0.00     0.000 A 
ATOM      3  C3  BNZ d   1       1.745   0.700   0.559  0.00  0.00     0.000 A 
ATOM      4  C4  BNZ d   1       0.536   1.261   0.354  0.00  0.00     0.000 A 
ATOM      5  C5  BNZ d   1      -0.584   0.470   0.192  0.00  0.00     0.000 A 
ATOM      6  C6  BNZ d   1      -0.471  -0.901   0.247  0.00  0.00     0.000 A 
ENDROOT
TORSDOF 0
ENDMDL
