MODEL 1
REMARK minimizedAffinity -4.2095952
REMARK minimizedRMSD -1
REMARK  0 active torsions:
REMARK  status: ('A' for Active; 'I' for Inactive)
ROOT
ATOM      1  C1  BNZ d   1       0.740  -1.077   0.426  0.00  0.00     0.000 A 
ATOM      2  C2  BNZ d   1      -0.271  -0.267  -0.016  0.00  0.00     0.000 A 
ATOM      3  C3  BNZ d   1      -0.063   1.070  -0.207  0.00  0.00     0.000 A 
ATOM      4  C4  BNZ d   1       1.142   1.602   0.081  0.00  0.00     0.000 A 
ATOM      5  C5  BNZ d   1       2.169   0.800   0.537  0.00  0.00     0.000 A 
ATOM      6  C6  BNZ d   1       1.968  -0.553   0.691  0.00  0.00     0.000 A 
ENDROOT
TORSDOF 0
ENDMDL
