MODEL 1
REMARK minimizedAffinity -3.52112174
REMARK minimizedRMSD -1
REMARK  0 active torsions:
REMARK  status: ('A' for Active; 'I' for Inactive)
ROOT
ATOM      1  C1  BNZ d   1       0.159   1.498  -0.151  0.00  0.00     0.000 A 
ATOM      2  C2  BNZ d   1       1.415   1.048   0.157  0.00  0.00     0.000 A 
ATOM      3  C3  BNZ d   1       1.651  -0.283   0.359  0.00  0.00     0.000 A 
ATOM      4  C4  BNZ d   1       0.626  -1.156   0.291  0.00  0.00     0.000 A 
ATOM      5  C5  BNZ d   1      -0.648  -0.717  -0.010  0.00  0.00     0.000 A 
ATOM      6  C6  BNZ d   1      -0.875   0.619  -0.250  0.00  0.00     0.000 A 
ENDROOT
TORSDOF 0
ENDMDL
