MODEL 1
REMARK minimizedAffinity -2.94976902
REMARK minimizedRMSD -1
REMARK  0 active torsions:
REMARK  status: ('A' for Active; 'I' for Inactive)
ROOT
ATOM      1  C1  BNZ d   1       0.940   1.054   0.553  0.00  0.00     0.000 A 
ATOM      2  C2  BNZ d   1       2.270   0.737   0.638  0.00  0.00     0.000 A 
ATOM      3  C3  BNZ d   1       2.691  -0.556   0.505  0.00  0.00     0.000 A 
ATOM      4  C4  BNZ d   1       1.780  -1.536   0.328  0.00  0.00     0.000 A 
ATOM      5  C5  BNZ d   1       0.435  -1.234   0.250  0.00  0.00     0.000 A 
ATOM      6  C6  BNZ d   1       0.018   0.074   0.346  0.00  0.00     0.000 A 
ENDROOT
TORSDOF 0
ENDMDL
