MODEL 1
REMARK minimizedAffinity -2.8680048
REMARK minimizedRMSD -1
REMARK  0 active torsions:
REMARK  status: ('A' for Active; 'I' for Inactive)
ROOT
ATOM      1  C1  BNZ d   1       0.862   0.747   0.515  0.00  0.00     0.000 A 
ATOM      2  C2  BNZ d   1       1.965   1.137   1.226  0.00  0.00     0.000 A 
ATOM      3  C3  BNZ d   1       2.719   0.221   1.906  0.00  0.00     0.000 A 
ATOM      4  C4  BNZ d   1       2.346  -1.075   1.908  0.00  0.00     0.000 A 
ATOM      5  C5  BNZ d   1       1.230  -1.482   1.203  0.00  0.00     0.000 A 
ATOM      6  C6  BNZ d   1       0.496  -0.563   0.488  0.00  0.00     0.000 A 
ENDROOT
TORSDOF 0
ENDMDL
