MODEL 1
REMARK minimizedAffinity -4.45681143
REMARK minimizedRMSD -1
REMARK  0 active torsions:
REMARK  status: ('A' for Active; 'I' for Inactive)
ROOT
ATOM      1  C1  BNZ d   1       0.882   1.302   0.179  0.00  0.00     0.000 A 
ATOM      2  C2  BNZ d   1       2.118   1.013   0.694  0.00  0.00     0.000 A 
ATOM      3  C3  BNZ d   1       2.549  -0.280   0.795  0.00  0.00     0.000 A 
ATOM      4  C4  BNZ d   1       1.730  -1.283   0.419  0.00  0.00     0.000 A 
ATOM      5  C5  BNZ d   1       0.478  -1.009  -0.094  0.00  0.00     0.000 A 
ATOM      6  C6  BNZ d   1       0.062   0.296  -0.231  0.00  0.00     0.000 A 
ENDROOT
TORSDOF 0
ENDMDL
