MODEL 1
REMARK minimizedAffinity -3.69002271
REMARK minimizedRMSD -1
REMARK  0 active torsions:
REMARK  status: ('A' for Active; 'I' for Inactive)
ROOT
ATOM      1  C1  BNZ d   1      -0.233   1.661  -0.605  0.00  0.00     0.000 A 
ATOM      2  C2  BNZ d   1       1.118   1.447  -0.535  0.00  0.00     0.000 A 
ATOM      3  C3  BNZ d   1       1.616   0.205  -0.260  0.00  0.00     0.000 A 
ATOM      4  C4  BNZ d   1       0.765  -0.812  -0.015  0.00  0.00     0.000 A 
ATOM      5  C5  BNZ d   1      -0.600  -0.610  -0.072  0.00  0.00     0.000 A 
ATOM      6  C6  BNZ d   1      -1.098   0.633  -0.388  0.00  0.00     0.000 A 
ENDROOT
TORSDOF 0
ENDMDL
