MODEL 1
REMARK minimizedAffinity -3.39717555
REMARK minimizedRMSD -1
REMARK  0 active torsions:
REMARK  status: ('A' for Active; 'I' for Inactive)
ROOT
ATOM      1  C1  BNZ d   1      -0.442   0.223  -0.294  0.00  0.00     0.000 A 
ATOM      2  C2  BNZ d   1       0.731   0.925  -0.215  0.00  0.00     0.000 A 
ATOM      3  C3  BNZ d   1       1.850   0.358   0.329  0.00  0.00     0.000 A 
ATOM      4  C4  BNZ d   1       1.784  -0.893   0.829  0.00  0.00     0.000 A 
ATOM      5  C5  BNZ d   1       0.605  -1.610   0.765  0.00  0.00     0.000 A 
ATOM      6  C6  BNZ d   1      -0.508  -1.050   0.181  0.00  0.00     0.000 A 
ENDROOT
TORSDOF 0
ENDMDL
