MODEL 1
REMARK minimizedAffinity -4.07951069
REMARK minimizedRMSD -1
REMARK  0 active torsions:
REMARK  status: ('A' for Active; 'I' for Inactive)
ROOT
ATOM      1  C1  BNZ d   1       0.914  -1.906   1.051  0.00  0.00     0.000 A 
ATOM      2  C2  BNZ d   1       0.795  -0.869   0.165  0.00  0.00     0.000 A 
ATOM      3  C3  BNZ d   1       1.815   0.026  -0.007  0.00  0.00     0.000 A 
ATOM      4  C4  BNZ d   1       2.934  -0.095   0.736  0.00  0.00     0.000 A 
ATOM      5  C5  BNZ d   1       3.065  -1.130   1.640  0.00  0.00     0.000 A 
ATOM      6  C6  BNZ d   1       2.053  -2.051   1.781  0.00  0.00     0.000 A 
ENDROOT
TORSDOF 0
ENDMDL
