MODEL 1
REMARK minimizedAffinity -2.94373989
REMARK minimizedRMSD -1
REMARK  1 active torsions:
REMARK  status: ('A' for Active; 'I' for Inactive)
REMARK    1  A    between atoms: C1_2  and  C2_3 
ROOT
ATOM      1  C2  UNL d   1      -0.324  -0.279   0.946  0.00  0.00    -0.076 A 
ATOM      2  C3  UNL d   1       1.009  -0.174   0.512  0.00  0.00     0.004 A 
ATOM      3  C4  UNL d   1       1.310   0.222  -0.789  0.00  0.00    -0.003 A 
ATOM      4  C5  UNL d   1       0.284   0.522  -1.678  0.00  0.00     0.000 A 
ATOM      5  C6  UNL d   1      -1.044   0.441  -1.259  0.00  0.00     0.000 A 
ATOM      6  C7  UNL d   1      -1.365   0.058   0.054  0.00  0.00    -0.073 A 
ATOM      7  C8  UNL d   1      -2.814  -0.018   0.450  0.00  0.00     0.078 C 
ENDROOT
BRANCH   1   8
ATOM      8  C1  UNL d   1      -0.591  -0.740   2.361  0.00  0.00     0.053 C 
ATOM      9  C   UNL d   1      -0.320   0.347   3.390  0.00  0.00     0.018 C 
ENDBRANCH   1   8
TORSDOF 1
ENDMDL
