MODEL 1
REMARK minimizedAffinity -3.9906013
REMARK minimizedRMSD -1
REMARK  1 active torsions:
REMARK  status: ('A' for Active; 'I' for Inactive)
REMARK    1  A    between atoms: C1_2  and  C2_3 
ROOT
ATOM      1  C2  UNL d   1      -0.522   0.557  -0.809  0.00  0.00    -0.076 A 
ATOM      2  C3  UNL d   1      -1.921   0.557  -0.948  0.00  0.00     0.004 A 
ATOM      3  C4  UNL d   1      -2.751   0.308   0.144  0.00  0.00    -0.003 A 
ATOM      4  C5  UNL d   1      -2.195   0.057   1.393  0.00  0.00     0.000 A 
ATOM      5  C6  UNL d   1      -0.810   0.071   1.554  0.00  0.00     0.000 A 
ATOM      6  C7  UNL d   1       0.040   0.336   0.466  0.00  0.00    -0.073 A 
ATOM      7  C8  UNL d   1       1.527   0.332   0.694  0.00  0.00     0.078 C 
ENDROOT
BRANCH   1   8
ATOM      8  C1  UNL d   1       0.327   0.806  -2.035  0.00  0.00     0.053 C 
ATOM      9  C   UNL d   1       0.636  -0.472  -2.799  0.00  0.00     0.018 C 
ENDBRANCH   1   8
TORSDOF 1
ENDMDL
