MODEL 1
REMARK minimizedAffinity -4.78169489
REMARK minimizedRMSD -1
REMARK  1 active torsions:
REMARK  status: ('A' for Active; 'I' for Inactive)
REMARK    1  A    between atoms: C1_2  and  C2_3 
ROOT
ATOM      1  C2  UNL d   1      -0.954   0.311   1.130  0.00  0.00    -0.076 A 
ATOM      2  C3  UNL d   1       0.094   0.236   2.064  0.00  0.00     0.004 A 
ATOM      3  C4  UNL d   1      -0.167   0.105   3.427  0.00  0.00    -0.003 A 
ATOM      4  C5  UNL d   1      -1.481   0.045   3.878  0.00  0.00     0.000 A 
ATOM      5  C6  UNL d   1      -2.533   0.099   2.964  0.00  0.00     0.000 A 
ATOM      6  C7  UNL d   1      -2.287   0.216   1.586  0.00  0.00    -0.073 A 
ATOM      7  C8  UNL d   1      -3.459   0.277   0.646  0.00  0.00     0.078 C 
ENDROOT
BRANCH   1   8
ATOM      8  C1  UNL d   1      -0.611   0.481  -0.332  0.00  0.00     0.053 C 
ATOM      9  C   UNL d   1       0.815   0.055  -0.649  0.00  0.00     0.018 C 
ENDBRANCH   1   8
TORSDOF 1
ENDMDL
