MODEL 1
REMARK minimizedAffinity -3.95072651
REMARK minimizedRMSD -1
REMARK  1 active torsions:
REMARK  status: ('A' for Active; 'I' for Inactive)
REMARK    1  A    between atoms: C1_2  and  C2_3 
ROOT
ATOM      1  C2  UNL d   1      -0.743  -0.359   0.732  0.00  0.00    -0.076 A 
ATOM      2  C3  UNL d   1      -0.124   0.354  -0.310  0.00  0.00     0.004 A 
ATOM      3  C4  UNL d   1       1.121   0.953  -0.129  0.00  0.00    -0.003 A 
ATOM      4  C5  UNL d   1       1.768   0.849   1.097  0.00  0.00     0.000 A 
ATOM      5  C6  UNL d   1       1.178   0.131   2.136  0.00  0.00     0.000 A 
ATOM      6  C7  UNL d   1      -0.070  -0.493   1.965  0.00  0.00    -0.073 A 
ATOM      7  C8  UNL d   1      -0.664  -1.249   3.122  0.00  0.00     0.078 C 
ENDROOT
BRANCH   1   8
ATOM      8  C1  UNL d   1      -2.106  -0.965   0.485  0.00  0.00     0.053 C 
ATOM      9  C   UNL d   1      -3.133   0.069   0.050  0.00  0.00     0.018 C 
ENDBRANCH   1   8
TORSDOF 1
ENDMDL
