MODEL 1
REMARK minimizedAffinity -2.19823122
REMARK minimizedRMSD -1
REMARK  1 active torsions:
REMARK  status: ('A' for Active; 'I' for Inactive)
REMARK    1  A    between atoms: C1_2  and  C2_3 
ROOT
ATOM      1  C2  UNL d   1      -0.278   0.317   0.178  0.00  0.00    -0.076 A 
ATOM      2  C3  UNL d   1       0.996   0.171   0.755  0.00  0.00     0.004 A 
ATOM      3  C4  UNL d   1       1.141  -0.130   2.108  0.00  0.00    -0.003 A 
ATOM      4  C5  UNL d   1       0.014  -0.292   2.906  0.00  0.00     0.000 A 
ATOM      5  C6  UNL d   1      -1.258  -0.168   2.347  0.00  0.00     0.000 A 
ATOM      6  C7  UNL d   1      -1.421   0.120   0.981  0.00  0.00    -0.073 A 
ATOM      7  C8  UNL d   1      -2.816   0.248   0.432  0.00  0.00     0.078 C 
ENDROOT
BRANCH   1   8
ATOM      8  C1  UNL d   1      -0.372   0.672  -1.289  0.00  0.00     0.053 C 
ATOM      9  C   UNL d   1       0.763   0.075  -2.107  0.00  0.00     0.018 C 
ENDBRANCH   1   8
TORSDOF 1
ENDMDL
