MODEL 1
REMARK minimizedAffinity 3.63717365
REMARK minimizedRMSD -1
REMARK  1 active torsions:
REMARK  status: ('A' for Active; 'I' for Inactive)
REMARK    1  A    between atoms: C1_2  and  C2_3 
ROOT
ATOM      1  C2  UNL d   1      -0.727   0.291   1.985  0.00  0.00    -0.076 A 
ATOM      2  C3  UNL d   1      -0.449   0.682   0.664  0.00  0.00     0.004 A 
ATOM      3  C4  UNL d   1      -1.431   0.623  -0.323  0.00  0.00    -0.003 A 
ATOM      4  C5  UNL d   1      -2.707   0.172  -0.005  0.00  0.00     0.000 A 
ATOM      5  C6  UNL d   1      -3.006  -0.203   1.304  0.00  0.00     0.000 A 
ATOM      6  C7  UNL d   1      -2.032  -0.134   2.315  0.00  0.00    -0.073 A 
ATOM      7  C8  UNL d   1      -2.407  -0.556   3.709  0.00  0.00     0.078 C 
ENDROOT
BRANCH   1   8
ATOM      8  C1  UNL d   1       0.385   0.351   3.008  0.00  0.00     0.053 C 
ATOM      9  C   UNL d   1       1.273  -0.883   2.976  0.00  0.00     0.018 C 
ENDBRANCH   1   8
TORSDOF 1
ENDMDL
