MODEL 1
REMARK minimizedAffinity -3.94250917
REMARK minimizedRMSD -1
REMARK  1 active torsions:
REMARK  status: ('A' for Active; 'I' for Inactive)
REMARK    1  A    between atoms: C1_2  and  C2_3 
ROOT
ATOM      1  C2  UNL d   1       0.226   0.211   0.282  0.00  0.00    -0.076 A 
ATOM      2  C3  UNL d   1      -1.042  -0.353   0.504  0.00  0.00     0.004 A 
ATOM      3  C4  UNL d   1      -1.364  -0.937   1.728  0.00  0.00    -0.003 A 
ATOM      4  C5  UNL d   1      -0.422  -0.965   2.751  0.00  0.00     0.000 A 
ATOM      5  C6  UNL d   1       0.835  -0.395   2.554  0.00  0.00     0.000 A 
ATOM      6  C7  UNL d   1       1.170   0.213   1.331  0.00  0.00    -0.073 A 
ATOM      7  C8  UNL d   1       2.542   0.807   1.172  0.00  0.00     0.078 C 
ENDROOT
BRANCH   1   8
ATOM      8  C1  UNL d   1       0.527   0.806  -1.075  0.00  0.00     0.053 C 
ATOM      9  C   UNL d   1       0.068  -0.087  -2.218  0.00  0.00     0.018 C 
ENDBRANCH   1   8
TORSDOF 1
ENDMDL
