MODEL 1
REMARK minimizedAffinity -5.47765636
REMARK minimizedRMSD -1
REMARK  1 active torsions:
REMARK  status: ('A' for Active; 'I' for Inactive)
REMARK    1  A    between atoms: C1_2  and  C2_3 
ROOT
ATOM      1  C2  UNL d   1      -1.031  -0.184   1.069  0.00  0.00    -0.076 A 
ATOM      2  C3  UNL d   1      -0.124  -0.617   2.052  0.00  0.00     0.004 A 
ATOM      3  C4  UNL d   1      -0.543  -0.860   3.358  0.00  0.00    -0.003 A 
ATOM      4  C5  UNL d   1      -1.877  -0.674   3.704  0.00  0.00     0.000 A 
ATOM      5  C6  UNL d   1      -2.794  -0.262   2.738  0.00  0.00     0.000 A 
ATOM      6  C7  UNL d   1      -2.391  -0.029   1.412  0.00  0.00    -0.073 A 
ATOM      7  C8  UNL d   1      -3.422   0.420   0.413  0.00  0.00     0.078 C 
ENDROOT
BRANCH   1   8
ATOM      8  C1  UNL d   1      -0.514   0.089  -0.325  0.00  0.00     0.053 C 
ATOM      9  C   UNL d   1       0.912   0.620  -0.324  0.00  0.00     0.018 C 
ENDBRANCH   1   8
TORSDOF 1
ENDMDL
