MODEL 1
REMARK minimizedAffinity -3.19734001
REMARK minimizedRMSD -1
REMARK  1 active torsions:
REMARK  status: ('A' for Active; 'I' for Inactive)
REMARK    1  A    between atoms: C1_2  and  C2_3 
ROOT
ATOM      1  C2  UNL d   1      -0.248   0.417  -0.367  0.00  0.00    -0.076 A 
ATOM      2  C3  UNL d   1       1.050   0.203   0.128  0.00  0.00     0.004 A 
ATOM      3  C4  UNL d   1       1.287   0.099   1.498  0.00  0.00    -0.003 A 
ATOM      4  C5  UNL d   1       0.229   0.208   2.394  0.00  0.00     0.000 A 
ATOM      5  C6  UNL d   1      -1.067   0.404   1.919  0.00  0.00     0.000 A 
ATOM      6  C7  UNL d   1      -1.326   0.494   0.541  0.00  0.00    -0.073 A 
ATOM      7  C8  UNL d   1      -2.742   0.711   0.084  0.00  0.00     0.078 C 
ENDROOT
BRANCH   1   8
ATOM      8  C1  UNL d   1      -0.440   0.548  -1.861  0.00  0.00     0.053 C 
ATOM      9  C   UNL d   1       0.747   0.018  -2.650  0.00  0.00     0.018 C 
ENDBRANCH   1   8
TORSDOF 1
ENDMDL
