MODEL 1
REMARK minimizedAffinity 3.00775623
REMARK minimizedRMSD -1
REMARK  1 active torsions:
REMARK  status: ('A' for Active; 'I' for Inactive)
REMARK    1  A    between atoms: C1_2  and  C2_3 
ROOT
ATOM      1  C2  UNL d   1      -1.352  -0.739  -0.120  0.00  0.00    -0.076 A 
ATOM      2  C3  UNL d   1      -1.759  -1.941  -0.726  0.00  0.00     0.004 A 
ATOM      3  C4  UNL d   1      -2.384  -2.942   0.016  0.00  0.00    -0.003 A 
ATOM      4  C5  UNL d   1      -2.614  -2.757   1.375  0.00  0.00     0.000 A 
ATOM      5  C6  UNL d   1      -2.233  -1.564   1.988  0.00  0.00     0.000 A 
ATOM      6  C7  UNL d   1      -1.616  -0.538   1.252  0.00  0.00    -0.073 A 
ATOM      7  C8  UNL d   1      -1.220   0.725   1.966  0.00  0.00     0.078 C 
ENDROOT
BRANCH   1   8
ATOM      8  C1  UNL d   1      -0.654   0.300  -0.969  0.00  0.00     0.053 C 
ATOM      9  C   UNL d   1       0.850   0.320  -0.745  0.00  0.00     0.018 C 
ENDBRANCH   1   8
TORSDOF 1
ENDMDL
