MODEL 1
REMARK minimizedAffinity -3.34962058
REMARK minimizedRMSD -1
REMARK  1 active torsions:
REMARK  status: ('A' for Active; 'I' for Inactive)
REMARK    1  A    between atoms: C1_2  and  C2_3 
ROOT
ATOM      1  C2  UNL d   1      -0.188  -0.171   0.418  0.00  0.00    -0.076 A 
ATOM      2  C3  UNL d   1      -1.569  -0.426   0.472  0.00  0.00     0.004 A 
ATOM      3  C4  UNL d   1      -2.211  -0.646   1.689  0.00  0.00    -0.003 A 
ATOM      4  C5  UNL d   1      -1.483  -0.613   2.873  0.00  0.00     0.000 A 
ATOM      5  C6  UNL d   1      -0.115  -0.344   2.840  0.00  0.00     0.000 A 
ATOM      6  C7  UNL d   1       0.545  -0.104   1.623  0.00  0.00    -0.073 A 
ATOM      7  C8  UNL d   1       2.023   0.175   1.645  0.00  0.00     0.078 C 
ENDROOT
BRANCH   1   8
ATOM      8  C1  UNL d   1       0.459   0.033  -0.933  0.00  0.00     0.053 C 
ATOM      9  C   UNL d   1      -0.416   0.834  -1.884  0.00  0.00     0.018 C 
ENDBRANCH   1   8
TORSDOF 1
ENDMDL
