MODEL 1
REMARK minimizedAffinity -5.52690411
REMARK minimizedRMSD -1
REMARK  1 active torsions:
REMARK  status: ('A' for Active; 'I' for Inactive)
REMARK    1  A    between atoms: C1_2  and  C2_3 
ROOT
ATOM      1  C2  UNL d   1      -0.700   0.335   0.444  0.00  0.00    -0.076 A 
ATOM      2  C3  UNL d   1      -2.073   0.049   0.533  0.00  0.00     0.004 A 
ATOM      3  C4  UNL d   1      -2.647  -0.345   1.740  0.00  0.00    -0.003 A 
ATOM      4  C5  UNL d   1      -1.856  -0.459   2.879  0.00  0.00     0.000 A 
ATOM      5  C6  UNL d   1      -0.496  -0.162   2.812  0.00  0.00     0.000 A 
ATOM      6  C7  UNL d   1       0.095   0.252   1.607  0.00  0.00    -0.073 A 
ATOM      7  C8  UNL d   1       1.569   0.554   1.591  0.00  0.00     0.078 C 
ENDROOT
BRANCH   1   8
ATOM      8  C1  UNL d   1      -0.128   0.732  -0.899  0.00  0.00     0.053 C 
ATOM      9  C   UNL d   1       0.493  -0.443  -1.638  0.00  0.00     0.018 C 
ENDBRANCH   1   8
TORSDOF 1
ENDMDL
