MODEL 1
REMARK minimizedAffinity -4.73987913
REMARK minimizedRMSD -1
REMARK  0 active torsions:
REMARK  status: ('A' for Active; 'I' for Inactive)
ROOT
ATOM      1  C   UNL d   1       2.955  -1.439   1.126  0.00  0.00     0.078 C 
ATOM      2  C1  UNL d   1       1.907  -0.518   0.575  0.00  0.00    -0.077 A 
ATOM      3  C2  UNL d   1       0.869  -1.006  -0.229  0.00  0.00    -0.001 A 
ATOM      4  C3  UNL d   1      -0.094  -0.136  -0.742  0.00  0.00     0.003 A 
ATOM      5  C4  UNL d   1      -0.028   1.227  -0.459  0.00  0.00    -0.005 A 
ATOM      6  C5  UNL d   1       1.002   1.721   0.338  0.00  0.00     0.003 A 
ATOM      7  C6  UNL d   1       1.966   0.853   0.853  0.00  0.00    -0.001 A 
ENDROOT
TORSDOF 0
ENDMDL
