MODEL 1
REMARK minimizedAffinity 0.607671678
REMARK minimizedRMSD -1
REMARK  0 active torsions:
REMARK  status: ('A' for Active; 'I' for Inactive)
ROOT
ATOM      1  C   UNL d   1      -1.866   0.960  -5.945  0.00  0.00     0.078 C 
ATOM      2  C1  UNL d   1      -1.508  -0.325  -5.262  0.00  0.00    -0.077 A 
ATOM      3  C2  UNL d   1      -1.270  -1.492  -5.999  0.00  0.00    -0.001 A 
ATOM      4  C3  UNL d   1      -0.946  -2.684  -5.349  0.00  0.00     0.003 A 
ATOM      5  C4  UNL d   1      -0.859  -2.721  -3.959  0.00  0.00    -0.005 A 
ATOM      6  C5  UNL d   1      -1.095  -1.566  -3.217  0.00  0.00     0.003 A 
ATOM      7  C6  UNL d   1      -1.419  -0.373  -3.865  0.00  0.00    -0.001 A 
ENDROOT
TORSDOF 0
ENDMDL
