MODEL 1
REMARK minimizedAffinity -4.40335226
REMARK minimizedRMSD -1
REMARK  0 active torsions:
REMARK  status: ('A' for Active; 'I' for Inactive)
ROOT
ATOM      1  C   UNL d   1      -0.195  -0.947  -1.916  0.00  0.00     0.078 C 
ATOM      2  C1  UNL d   1       0.763  -0.941  -0.762  0.00  0.00    -0.077 A 
ATOM      3  C2  UNL d   1       2.036  -1.510  -0.879  0.00  0.00    -0.001 A 
ATOM      4  C3  UNL d   1       2.914  -1.506   0.206  0.00  0.00     0.003 A 
ATOM      5  C4  UNL d   1       2.527  -0.935   1.416  0.00  0.00    -0.005 A 
ATOM      6  C5  UNL d   1       1.261  -0.368   1.543  0.00  0.00     0.003 A 
ATOM      7  C6  UNL d   1       0.382  -0.371   0.459  0.00  0.00    -0.001 A 
ENDROOT
TORSDOF 0
ENDMDL
