MODEL 1
REMARK minimizedAffinity -3.88956523
REMARK minimizedRMSD -1
REMARK  0 active torsions:
REMARK  status: ('A' for Active; 'I' for Inactive)
ROOT
ATOM      1  C   UNL d   1       3.031  -1.211   1.161  0.00  0.00     0.078 C 
ATOM      2  C1  UNL d   1       1.945  -0.397   0.522  0.00  0.00    -0.077 A 
ATOM      3  C2  UNL d   1       2.052   0.996   0.422  0.00  0.00    -0.001 A 
ATOM      4  C3  UNL d   1       1.030   1.742  -0.166  0.00  0.00     0.003 A 
ATOM      5  C4  UNL d   1      -0.108   1.104  -0.657  0.00  0.00    -0.005 A 
ATOM      6  C5  UNL d   1      -0.224  -0.281  -0.560  0.00  0.00     0.003 A 
ATOM      7  C6  UNL d   1       0.797  -1.028   0.028  0.00  0.00    -0.001 A 
ENDROOT
TORSDOF 0
ENDMDL
