MODEL 1
REMARK minimizedAffinity -3.38113403
REMARK minimizedRMSD -1
REMARK  0 active torsions:
REMARK  status: ('A' for Active; 'I' for Inactive)
ROOT
ATOM      1  C   UNL d   1       2.634   1.112   1.094  0.00  0.00     0.078 C 
ATOM      2  C1  UNL d   1       1.956   0.001   0.349  0.00  0.00    -0.077 A 
ATOM      3  C2  UNL d   1       2.698  -1.022  -0.253  0.00  0.00    -0.001 A 
ATOM      4  C3  UNL d   1       2.054  -2.045  -0.951  0.00  0.00     0.003 A 
ATOM      5  C4  UNL d   1       0.664  -2.054  -1.054  0.00  0.00    -0.005 A 
ATOM      6  C5  UNL d   1      -0.083  -1.038  -0.461  0.00  0.00     0.003 A 
ATOM      7  C6  UNL d   1       0.560  -0.015   0.238  0.00  0.00    -0.001 A 
ENDROOT
TORSDOF 0
ENDMDL
