MODEL 1
REMARK minimizedAffinity -3.07370353
REMARK minimizedRMSD -1
REMARK  0 active torsions:
REMARK  status: ('A' for Active; 'I' for Inactive)
ROOT
ATOM      1  C   UNL d   1       0.375  -1.056  -1.410  0.00  0.00     0.078 C 
ATOM      2  C1  UNL d   1       1.180  -0.335  -0.371  0.00  0.00    -0.077 A 
ATOM      3  C2  UNL d   1       1.192   1.064  -0.309  0.00  0.00    -0.001 A 
ATOM      4  C3  UNL d   1       1.954   1.722   0.657  0.00  0.00     0.003 A 
ATOM      5  C4  UNL d   1       2.711   0.989   1.569  0.00  0.00    -0.005 A 
ATOM      6  C5  UNL d   1       2.707  -0.403   1.514  0.00  0.00     0.003 A 
ATOM      7  C6  UNL d   1       1.946  -1.063   0.548  0.00  0.00    -0.001 A 
ENDROOT
TORSDOF 0
ENDMDL
