MODEL 1
REMARK minimizedAffinity 0.191081986
REMARK minimizedRMSD -1
REMARK  1 active torsions:
REMARK  status: ('A' for Active; 'I' for Inactive)
REMARK    1  A    between atoms: N_2  and  C1_3 
ROOT
ATOM      1  C1  UNL d   1      -3.711  -4.925  -4.866  0.00  0.00     0.143 A 
ATOM      2  C2  UNL d   1      -3.963  -4.275  -3.653  0.00  0.00    -0.057 A 
ATOM      3  C3  UNL d   1      -4.904  -3.242  -3.564  0.00  0.00     0.033 A 
ATOM      4  C4  UNL d   1      -5.592  -2.820  -4.697  0.00  0.00    -0.042 A 
ATOM      5  C5  UNL d   1      -5.339  -3.435  -5.919  0.00  0.00     0.033 A 
ATOM      6  C6  UNL d   1      -4.403  -4.470  -5.999  0.00  0.00    -0.057 A 
ENDROOT
BRANCH   1   7
ATOM      7  N   UNL d   1      -2.717  -5.891  -5.038  0.00  0.00    -0.732 N 
ATOM      8  C   UNL d   1      -1.447  -5.543  -5.638  0.00  0.00     0.284 C 
ATOM      9  H3  UNL d   1      -2.642  -6.518  -4.241  0.00  0.00     0.395 HD
ENDBRANCH   1   7
TORSDOF 1
ENDMDL
