MODEL 1
REMARK minimizedAffinity -0.163620263
REMARK minimizedRMSD -1
REMARK  1 active torsions:
REMARK  status: ('A' for Active; 'I' for Inactive)
REMARK    1  A    between atoms: N_2  and  C1_3 
ROOT
ATOM      1  C1  UNL d   1      -4.245  -4.687  -5.116  0.00  0.00     0.143 A 
ATOM      2  C2  UNL d   1      -3.320  -4.121  -6.000  0.00  0.00    -0.057 A 
ATOM      3  C3  UNL d   1      -1.973  -4.503  -5.984  0.00  0.00     0.033 A 
ATOM      4  C4  UNL d   1      -1.521  -5.440  -5.061  0.00  0.00    -0.042 A 
ATOM      5  C5  UNL d   1      -2.417  -5.997  -4.156  0.00  0.00     0.033 A 
ATOM      6  C6  UNL d   1      -3.762  -5.616  -4.182  0.00  0.00    -0.057 A 
ENDROOT
BRANCH   1   7
ATOM      7  N   UNL d   1      -5.577  -4.277  -5.016  0.00  0.00    -0.732 N 
ATOM      8  C   UNL d   1      -5.917  -3.023  -4.379  0.00  0.00     0.284 C 
ATOM      9  H3  UNL d   1      -6.107  -4.470  -5.863  0.00  0.00     0.395 HD
ENDBRANCH   1   7
TORSDOF 1
ENDMDL
