MODEL 1
REMARK minimizedAffinity -3.30999136
REMARK minimizedRMSD -1
REMARK  1 active torsions:
REMARK  status: ('A' for Active; 'I' for Inactive)
REMARK    1  A    between atoms: N_2  and  C1_3 
ROOT
ATOM      1  C1  UNL d   1      -3.835  -4.512  -5.006  0.00  0.00     0.143 A 
ATOM      2  C2  UNL d   1      -3.871  -3.484  -5.954  0.00  0.00    -0.057 A 
ATOM      3  C3  UNL d   1      -4.935  -2.576  -5.999  0.00  0.00     0.033 A 
ATOM      4  C4  UNL d   1      -6.000  -2.697  -5.112  0.00  0.00    -0.042 A 
ATOM      5  C5  UNL d   1      -5.997  -3.726  -4.177  0.00  0.00     0.033 A 
ATOM      6  C6  UNL d   1      -4.928  -4.627  -4.133  0.00  0.00    -0.057 A 
ENDROOT
BRANCH   1   7
ATOM      7  N   UNL d   1      -2.854  -5.506  -4.973  0.00  0.00    -0.732 N 
ATOM      8  C   UNL d   1      -1.532  -5.221  -4.456  0.00  0.00     0.284 C 
ATOM      9  H3  UNL d   1      -3.225  -6.410  -4.689  0.00  0.00     0.395 HD
ENDBRANCH   1   7
TORSDOF 1
ENDMDL
