MODEL 1
REMARK minimizedAffinity -1.20297503
REMARK minimizedRMSD -1
REMARK  1 active torsions:
REMARK  status: ('A' for Active; 'I' for Inactive)
REMARK    1  A    between atoms: N_2  and  C1_3 
ROOT
ATOM      1  C1  UNL d   1      -3.531  -5.329  -5.515  0.00  0.00     0.143 A 
ATOM      2  C2  UNL d   1      -4.711  -5.905  -5.997  0.00  0.00    -0.057 A 
ATOM      3  C3  UNL d   1      -5.932  -5.222  -5.930  0.00  0.00     0.033 A 
ATOM      4  C4  UNL d   1      -5.999  -3.959  -5.351  0.00  0.00    -0.042 A 
ATOM      5  C5  UNL d   1      -4.843  -3.378  -4.843  0.00  0.00     0.033 A 
ATOM      6  C6  UNL d   1      -3.625  -4.062  -4.919  0.00  0.00    -0.057 A 
ENDROOT
BRANCH   1   7
ATOM      7  N   UNL d   1      -2.304  -5.996  -5.464  0.00  0.00    -0.732 N 
ATOM      8  C   UNL d   1      -1.318  -5.649  -4.464  0.00  0.00     0.284 C 
ATOM      9  H3  UNL d   1      -2.399  -6.996  -5.625  0.00  0.00     0.395 HD
ENDBRANCH   1   7
TORSDOF 1
ENDMDL
