MODEL 1
REMARK minimizedAffinity -2.91595674
REMARK minimizedRMSD -1
REMARK  1 active torsions:
REMARK  status: ('A' for Active; 'I' for Inactive)
REMARK    1  A    between atoms: N_2  and  C1_3 
ROOT
ATOM      1  C1  UNL d   1      -3.588  -4.927  -5.420  0.00  0.00     0.143 A 
ATOM      2  C2  UNL d   1      -3.531  -3.793  -4.603  0.00  0.00    -0.057 A 
ATOM      3  C3  UNL d   1      -4.684  -3.063  -4.291  0.00  0.00     0.033 A 
ATOM      4  C4  UNL d   1      -5.916  -3.439  -4.817  0.00  0.00    -0.042 A 
ATOM      5  C5  UNL d   1      -5.993  -4.549  -5.651  0.00  0.00     0.033 A 
ATOM      6  C6  UNL d   1      -4.839  -5.277  -5.954  0.00  0.00    -0.057 A 
ENDROOT
BRANCH   1   7
ATOM      7  N   UNL d   1      -2.463  -5.636  -5.847  0.00  0.00    -0.732 N 
ATOM      8  C   UNL d   1      -1.408  -5.973  -4.916  0.00  0.00     0.284 C 
ATOM      9  H3  UNL d   1      -2.698  -6.383  -6.497  0.00  0.00     0.395 HD
ENDBRANCH   1   7
TORSDOF 1
ENDMDL
