MODEL 1
REMARK minimizedAffinity -3.1602664
REMARK minimizedRMSD -1
REMARK  1 active torsions:
REMARK  status: ('A' for Active; 'I' for Inactive)
REMARK    1  A    between atoms: N_2  and  C1_3 
ROOT
ATOM      1  C1  UNL d   1      -2.170  -5.160  -4.636  0.00  0.00     0.143 A 
ATOM      2  C2  UNL d   1      -2.933  -4.148  -4.043  0.00  0.00    -0.057 A 
ATOM      3  C3  UNL d   1      -4.298  -4.009  -4.322  0.00  0.00     0.033 A 
ATOM      4  C4  UNL d   1      -4.920  -4.865  -5.226  0.00  0.00    -0.042 A 
ATOM      5  C5  UNL d   1      -4.176  -5.862  -5.847  0.00  0.00     0.033 A 
ATOM      6  C6  UNL d   1      -2.815  -6.000  -5.558  0.00  0.00    -0.057 A 
ENDROOT
BRANCH   1   7
ATOM      7  N   UNL d   1      -0.789  -5.289  -4.474  0.00  0.00    -0.732 N 
ATOM      8  C   UNL d   1       0.005  -6.000  -5.453  0.00  0.00     0.284 C 
ATOM      9  H3  UNL d   1      -0.357  -4.434  -4.130  0.00  0.00     0.395 HD
ENDBRANCH   1   7
TORSDOF 1
ENDMDL
