MODEL 1
REMARK minimizedAffinity -3.13363194
REMARK minimizedRMSD -1
REMARK  1 active torsions:
REMARK  status: ('A' for Active; 'I' for Inactive)
REMARK    1  A    between atoms: N_2  and  C1_3 
ROOT
ATOM      1  C1  UNL d   1      -5.113  -4.090  -4.575  0.00  0.00     0.143 A 
ATOM      2  C2  UNL d   1      -5.441  -5.032  -5.556  0.00  0.00    -0.057 A 
ATOM      3  C3  UNL d   1      -4.505  -5.974  -5.999  0.00  0.00     0.033 A 
ATOM      4  C4  UNL d   1      -3.211  -5.972  -5.488  0.00  0.00    -0.042 A 
ATOM      5  C5  UNL d   1      -2.856  -5.028  -4.531  0.00  0.00     0.033 A 
ATOM      6  C6  UNL d   1      -3.797  -4.094  -4.088  0.00  0.00    -0.057 A 
ENDROOT
BRANCH   1   7
ATOM      7  N   UNL d   1      -5.969  -3.065  -4.164  0.00  0.00    -0.732 N 
ATOM      8  C   UNL d   1      -5.999  -1.802  -4.870  0.00  0.00     0.284 C 
ATOM      9  H3  UNL d   1      -6.887  -3.411  -3.893  0.00  0.00     0.395 HD
ENDBRANCH   1   7
TORSDOF 1
ENDMDL
