MODEL 1
REMARK minimizedAffinity -3.7053237
REMARK minimizedRMSD -1
REMARK  1 active torsions:
REMARK  status: ('A' for Active; 'I' for Inactive)
REMARK    1  A    between atoms: N_2  and  C1_3 
ROOT
ATOM      1  C1  UNL d   1      -3.708  -4.559  -4.838  0.00  0.00     0.143 A 
ATOM      2  C2  UNL d   1      -4.403  -4.177  -3.686  0.00  0.00    -0.057 A 
ATOM      3  C3  UNL d   1      -5.260  -3.070  -3.688  0.00  0.00     0.033 A 
ATOM      4  C4  UNL d   1      -5.414  -2.304  -4.839  0.00  0.00    -0.042 A 
ATOM      5  C5  UNL d   1      -4.714  -2.650  -5.989  0.00  0.00     0.033 A 
ATOM      6  C6  UNL d   1      -3.865  -3.761  -5.983  0.00  0.00    -0.057 A 
ENDROOT
BRANCH   1   7
ATOM      7  N   UNL d   1      -2.766  -5.590  -4.873  0.00  0.00    -0.732 N 
ATOM      8  C   UNL d   1      -1.864  -5.727  -5.996  0.00  0.00     0.284 C 
ATOM      9  H3  UNL d   1      -2.330  -5.748  -3.967  0.00  0.00     0.395 HD
ENDBRANCH   1   7
TORSDOF 1
ENDMDL
