MODEL 1
REMARK minimizedAffinity -4.68626738
REMARK minimizedRMSD -1
REMARK  0 active torsions:
REMARK  status: ('A' for Active; 'I' for Inactive)
ROOT
ATOM      1  C   UNL d   1       2.874  -3.485   4.276  0.00  0.00     0.078 C 
ATOM      2  C1  UNL d   1       2.494  -2.697   3.059  0.00  0.00    -0.077 A 
ATOM      3  C2  UNL d   1       1.218  -2.814   2.493  0.00  0.00    -0.001 A 
ATOM      4  C3  UNL d   1       0.881  -2.081   1.354  0.00  0.00     0.003 A 
ATOM      5  C4  UNL d   1       1.814  -1.227   0.770  0.00  0.00    -0.005 A 
ATOM      6  C5  UNL d   1       3.087  -1.105   1.325  0.00  0.00     0.003 A 
ATOM      7  C6  UNL d   1       3.425  -1.837   2.464  0.00  0.00    -0.001 A 
ENDROOT
TORSDOF 0
ENDMDL
