MODEL 1
REMARK minimizedAffinity -1.45350516
REMARK minimizedRMSD -1
REMARK  0 active torsions:
REMARK  status: ('A' for Active; 'I' for Inactive)
ROOT
ATOM      1  C   UNL d   1       2.991   0.119   0.743  0.00  0.00     0.078 C 
ATOM      2  C1  UNL d   1       2.370  -1.066   1.420  0.00  0.00    -0.077 A 
ATOM      3  C2  UNL d   1       3.038  -1.740   2.450  0.00  0.00    -0.001 A 
ATOM      4  C3  UNL d   1       2.452  -2.848   3.064  0.00  0.00     0.003 A 
ATOM      5  C4  UNL d   1       1.196  -3.292   2.656  0.00  0.00    -0.005 A 
ATOM      6  C5  UNL d   1       0.525  -2.629   1.630  0.00  0.00     0.003 A 
ATOM      7  C6  UNL d   1       1.109  -1.521   1.014  0.00  0.00    -0.001 A 
ENDROOT
TORSDOF 0
ENDMDL
