MODEL 1
REMARK minimizedAffinity 5.34582901
REMARK minimizedRMSD -1
REMARK  0 active torsions:
REMARK  status: ('A' for Active; 'I' for Inactive)
ROOT
ATOM      1  C   UNL d   1       1.456   4.266  -0.518  0.00  0.00     0.078 C 
ATOM      2  C1  UNL d   1       1.936   3.029   0.180  0.00  0.00    -0.077 A 
ATOM      3  C2  UNL d   1       1.231   2.492   1.264  0.00  0.00    -0.001 A 
ATOM      4  C3  UNL d   1       1.695   1.346   1.910  0.00  0.00     0.003 A 
ATOM      5  C4  UNL d   1       2.867   0.727   1.481  0.00  0.00    -0.005 A 
ATOM      6  C5  UNL d   1       3.577   1.254   0.405  0.00  0.00     0.003 A 
ATOM      7  C6  UNL d   1       3.115   2.401  -0.243  0.00  0.00    -0.001 A 
ENDROOT
TORSDOF 0
ENDMDL
