MODEL 1
REMARK minimizedAffinity -3.49667573
REMARK minimizedRMSD -1
REMARK  0 active torsions:
REMARK  status: ('A' for Active; 'I' for Inactive)
ROOT
ATOM      1  C   UNL d   1       0.266  -3.046   2.327  0.00  0.00     0.078 C 
ATOM      2  C1  UNL d   1       1.542  -2.321   2.021  0.00  0.00    -0.077 A 
ATOM      3  C2  UNL d   1       1.674  -0.952   2.283  0.00  0.00    -0.001 A 
ATOM      4  C3  UNL d   1       2.865  -0.288   1.984  0.00  0.00     0.003 A 
ATOM      5  C4  UNL d   1       3.932  -0.984   1.420  0.00  0.00    -0.005 A 
ATOM      6  C5  UNL d   1       3.809  -2.346   1.154  0.00  0.00     0.003 A 
ATOM      7  C6  UNL d   1       2.619  -3.012   1.452  0.00  0.00    -0.001 A 
ENDROOT
TORSDOF 0
ENDMDL
