MODEL 1
REMARK minimizedAffinity -0.411958694
REMARK minimizedRMSD -1
REMARK  0 active torsions:
REMARK  status: ('A' for Active; 'I' for Inactive)
ROOT
ATOM      1  C   UNL d   1       0.414  -3.459   4.029  0.00  0.00     0.078 C 
ATOM      2  C1  UNL d   1       0.790  -2.578   2.874  0.00  0.00    -0.077 A 
ATOM      3  C2  UNL d   1       2.125  -2.441   2.476  0.00  0.00    -0.001 A 
ATOM      4  C3  UNL d   1       2.461  -1.611   1.406  0.00  0.00     0.003 A 
ATOM      5  C4  UNL d   1       1.468  -0.909   0.726  0.00  0.00    -0.005 A 
ATOM      6  C5  UNL d   1       0.136  -1.037   1.117  0.00  0.00     0.003 A 
ATOM      7  C6  UNL d   1      -0.202  -1.868   2.186  0.00  0.00    -0.001 A 
ENDROOT
TORSDOF 0
ENDMDL
