MODEL 1
REMARK minimizedAffinity 11.945015
REMARK minimizedRMSD -1
REMARK  1 active torsions:
REMARK  status: ('A' for Active; 'I' for Inactive)
REMARK    1  A    between atoms: C1_2  and  C2_3 
ROOT
ATOM      1  C2  UNL d   1      -1.522  -2.790   0.291  0.00  0.00    -0.076 A 
ATOM      2  C3  UNL d   1      -2.762  -2.128   0.258  0.00  0.00     0.004 A 
ATOM      3  C4  UNL d   1      -3.432  -1.800   1.435  0.00  0.00    -0.003 A 
ATOM      4  C5  UNL d   1      -2.873  -2.129   2.665  0.00  0.00     0.000 A 
ATOM      5  C6  UNL d   1      -1.636  -2.770   2.717  0.00  0.00     0.000 A 
ATOM      6  C7  UNL d   1      -0.939  -3.093   1.540  0.00  0.00    -0.073 A 
ATOM      7  C8  UNL d   1       0.388  -3.790   1.655  0.00  0.00     0.078 C 
ENDROOT
BRANCH   1   8
ATOM      8  C1  UNL d   1      -0.855  -3.144  -1.019  0.00  0.00     0.053 C 
ATOM      9  C   UNL d   1      -0.124  -1.963  -1.638  0.00  0.00     0.018 C 
ENDBRANCH   1   8
TORSDOF 1
ENDMDL
