MODEL 1
REMARK minimizedAffinity -0.0845273063
REMARK minimizedRMSD -1
REMARK  1 active torsions:
REMARK  status: ('A' for Active; 'I' for Inactive)
REMARK    1  A    between atoms: C1_2  and  C2_3 
ROOT
ATOM      1  C2  UNL d   1       1.455  -1.813  -1.907  0.00  0.00    -0.076 A 
ATOM      2  C3  UNL d   1       0.516  -1.539  -0.897  0.00  0.00     0.004 A 
ATOM      3  C4  UNL d   1      -0.834  -1.838  -1.073  0.00  0.00    -0.003 A 
ATOM      4  C5  UNL d   1      -1.267  -2.418  -2.261  0.00  0.00     0.000 A 
ATOM      5  C6  UNL d   1      -0.346  -2.713  -3.266  0.00  0.00     0.000 A 
ATOM      6  C7  UNL d   1       1.021  -2.432  -3.098  0.00  0.00    -0.073 A 
ATOM      7  C8  UNL d   1       1.969  -2.766  -4.217  0.00  0.00     0.078 C 
ENDROOT
BRANCH   1   8
ATOM      8  C1  UNL d   1       2.901  -1.442  -1.670  0.00  0.00     0.053 C 
ATOM      9  C   UNL d   1       3.318  -1.615  -0.217  0.00  0.00     0.018 C 
ENDBRANCH   1   8
TORSDOF 1
ENDMDL
