MODEL 1
REMARK minimizedAffinity -3.45952392
REMARK minimizedRMSD -1
REMARK  1 active torsions:
REMARK  status: ('A' for Active; 'I' for Inactive)
REMARK    1  A    between atoms: C1_2  and  C2_3 
ROOT
ATOM      1  C2  UNL d   1      -1.095  -2.317  -0.900  0.00  0.00    -0.076 A 
ATOM      2  C3  UNL d   1       0.200  -1.806  -1.091  0.00  0.00     0.004 A 
ATOM      3  C4  UNL d   1       0.844  -1.925  -2.322  0.00  0.00    -0.003 A 
ATOM      4  C5  UNL d   1       0.202  -2.555  -3.382  0.00  0.00     0.000 A 
ATOM      5  C6  UNL d   1      -1.090  -3.052  -3.215  0.00  0.00     0.000 A 
ATOM      6  C7  UNL d   1      -1.759  -2.927  -1.986  0.00  0.00    -0.073 A 
ATOM      7  C8  UNL d   1      -3.150  -3.486  -1.861  0.00  0.00     0.078 C 
ENDROOT
BRANCH   1   8
ATOM      8  C1  UNL d   1      -1.732  -2.183   0.464  0.00  0.00     0.053 C 
ATOM      9  C   UNL d   1      -1.282  -3.271   1.427  0.00  0.00     0.018 C 
ENDBRANCH   1   8
TORSDOF 1
ENDMDL
