MODEL 1
REMARK minimizedAffinity 1.79805648
REMARK minimizedRMSD -1
REMARK  1 active torsions:
REMARK  status: ('A' for Active; 'I' for Inactive)
REMARK    1  A    between atoms: C1_2  and  C2_3 
ROOT
ATOM      1  C2  UNL d   1       4.536   4.953  -3.012  0.00  0.00    -0.076 A 
ATOM      2  C3  UNL d   1       3.635   5.932  -3.466  0.00  0.00     0.004 A 
ATOM      3  C4  UNL d   1       3.265   5.998  -4.808  0.00  0.00    -0.003 A 
ATOM      4  C5  UNL d   1       3.789   5.086  -5.718  0.00  0.00     0.000 A 
ATOM      5  C6  UNL d   1       4.670   4.098  -5.281  0.00  0.00     0.000 A 
ATOM      6  C7  UNL d   1       5.041   4.007  -3.929  0.00  0.00    -0.073 A 
ATOM      7  C8  UNL d   1       6.000   2.924  -3.515  0.00  0.00     0.078 C 
ENDROOT
BRANCH   1   8
ATOM      8  C1  UNL d   1       4.922   4.947  -1.550  0.00  0.00     0.053 C 
ATOM      9  C   UNL d   1       6.000   5.970  -1.227  0.00  0.00     0.018 C 
ENDBRANCH   1   8
TORSDOF 1
ENDMDL
