MODEL 1
REMARK minimizedAffinity 4.45875692
REMARK minimizedRMSD -1
REMARK  1 active torsions:
REMARK  status: ('A' for Active; 'I' for Inactive)
REMARK    1  A    between atoms: C1_2  and  C2_3 
ROOT
ATOM      1  C2  UNL d   1       4.982   4.544  -3.996  0.00  0.00    -0.076 A 
ATOM      2  C3  UNL d   1       5.547   5.770  -3.603  0.00  0.00     0.004 A 
ATOM      3  C4  UNL d   1       5.999   5.966  -2.299  0.00  0.00    -0.003 A 
ATOM      4  C5  UNL d   1       5.893   4.940  -1.367  0.00  0.00     0.000 A 
ATOM      5  C6  UNL d   1       5.351   3.711  -1.744  0.00  0.00     0.000 A 
ATOM      6  C7  UNL d   1       4.906   3.492  -3.058  0.00  0.00    -0.073 A 
ATOM      7  C8  UNL d   1       4.324   2.149  -3.409  0.00  0.00     0.078 C 
ENDROOT
BRANCH   1   8
ATOM      8  C1  UNL d   1       4.484   4.398  -5.416  0.00  0.00     0.053 C 
ATOM      9  C   UNL d   1       4.703   2.999  -5.969  0.00  0.00     0.018 C 
ENDBRANCH   1   8
TORSDOF 1
ENDMDL
