MODEL 1
REMARK minimizedAffinity 0.0737996325
REMARK minimizedRMSD -1
REMARK  1 active torsions:
REMARK  status: ('A' for Active; 'I' for Inactive)
REMARK    1  A    between atoms: C1_2  and  C2_3 
ROOT
ATOM      1  C2  UNL d   1      -1.772  -2.693  -1.023  0.00  0.00    -0.076 A 
ATOM      2  C3  UNL d   1      -0.616  -1.943  -0.745  0.00  0.00     0.004 A 
ATOM      3  C4  UNL d   1       0.160  -1.412  -1.774  0.00  0.00    -0.003 A 
ATOM      4  C5  UNL d   1      -0.208  -1.623  -3.099  0.00  0.00     0.000 A 
ATOM      5  C6  UNL d   1      -1.361  -2.349  -3.393  0.00  0.00     0.000 A 
ATOM      6  C7  UNL d   1      -2.163  -2.877  -2.366  0.00  0.00    -0.073 A 
ATOM      7  C8  UNL d   1      -3.393  -3.658  -2.741  0.00  0.00     0.078 C 
ENDROOT
BRANCH   1   8
ATOM      8  C1  UNL d   1      -2.559  -3.266   0.134  0.00  0.00     0.053 C 
ATOM      9  C   UNL d   1      -1.766  -3.273   1.431  0.00  0.00     0.018 C 
ENDBRANCH   1   8
TORSDOF 1
ENDMDL
