MODEL 1
REMARK minimizedAffinity -0.770540655
REMARK minimizedRMSD -1
REMARK  1 active torsions:
REMARK  status: ('A' for Active; 'I' for Inactive)
REMARK    1  A    between atoms: C1_2  and  C2_3 
ROOT
ATOM      1  C2  UNL d   1       5.632   4.614  -3.695  0.00  0.00    -0.076 A 
ATOM      2  C3  UNL d   1       5.818   5.873  -3.099  0.00  0.00     0.004 A 
ATOM      3  C4  UNL d   1       5.998   5.996  -1.722  0.00  0.00    -0.003 A 
ATOM      4  C5  UNL d   1       5.998   4.860  -0.919  0.00  0.00     0.000 A 
ATOM      5  C6  UNL d   1       5.833   3.602  -1.496  0.00  0.00     0.000 A 
ATOM      6  C7  UNL d   1       5.666   3.459  -2.884  0.00  0.00    -0.073 A 
ATOM      7  C8  UNL d   1       5.486   2.078  -3.452  0.00  0.00     0.078 C 
ENDROOT
BRANCH   1   8
ATOM      8  C1  UNL d   1       5.414   4.545  -5.190  0.00  0.00     0.053 C 
ATOM      9  C   UNL d   1       4.122   5.221  -5.621  0.00  0.00     0.018 C 
ENDBRANCH   1   8
TORSDOF 1
ENDMDL
