MODEL 1
REMARK minimizedAffinity 1.47407544
REMARK minimizedRMSD -1
REMARK  1 active torsions:
REMARK  status: ('A' for Active; 'I' for Inactive)
REMARK    1  A    between atoms: C1_2  and  C2_3 
ROOT
ATOM      1  C2  UNL d   1       4.332   5.497  -3.545  0.00  0.00    -0.076 A 
ATOM      2  C3  UNL d   1       3.828   5.980  -4.765  0.00  0.00     0.004 A 
ATOM      3  C4  UNL d   1       4.381   5.579  -5.980  0.00  0.00    -0.003 A 
ATOM      4  C5  UNL d   1       5.448   4.688  -5.994  0.00  0.00     0.000 A 
ATOM      5  C6  UNL d   1       5.950   4.184  -4.794  0.00  0.00     0.000 A 
ATOM      6  C7  UNL d   1       5.393   4.566  -3.562  0.00  0.00    -0.073 A 
ATOM      7  C8  UNL d   1       5.977   3.996  -2.298  0.00  0.00     0.078 C 
ENDROOT
BRANCH   1   8
ATOM      8  C1  UNL d   1       3.709   5.988  -2.258  0.00  0.00     0.053 C 
ATOM      9  C   UNL d   1       4.692   5.991  -1.098  0.00  0.00     0.018 C 
ENDBRANCH   1   8
TORSDOF 1
ENDMDL
