MODEL 1
REMARK minimizedAffinity 4.1762886
REMARK minimizedRMSD -1
REMARK  1 active torsions:
REMARK  status: ('A' for Active; 'I' for Inactive)
REMARK    1  A    between atoms: C1_2  and  C2_3 
ROOT
ATOM      1  C2  UNL d   1      -1.534  -3.049  -1.042  0.00  0.00    -0.076 A 
ATOM      2  C3  UNL d   1      -2.919  -2.810  -1.047  0.00  0.00     0.004 A 
ATOM      3  C4  UNL d   1      -3.634  -2.704   0.145  0.00  0.00    -0.003 A 
ATOM      4  C5  UNL d   1      -2.975  -2.835   1.362  0.00  0.00     0.000 A 
ATOM      5  C6  UNL d   1      -1.598  -3.055   1.387  0.00  0.00     0.000 A 
ATOM      6  C7  UNL d   1      -0.860  -3.148   0.194  0.00  0.00    -0.073 A 
ATOM      7  C8  UNL d   1       0.622  -3.392   0.279  0.00  0.00     0.078 C 
ENDROOT
BRANCH   1   8
ATOM      8  C1  UNL d   1      -0.817  -3.181  -2.366  0.00  0.00     0.053 C 
ATOM      9  C   UNL d   1      -1.260  -4.408  -3.149  0.00  0.00     0.018 C 
ENDBRANCH   1   8
TORSDOF 1
ENDMDL
