MODEL 1
REMARK minimizedAffinity 3.42846131
REMARK minimizedRMSD -1
REMARK  1 active torsions:
REMARK  status: ('A' for Active; 'I' for Inactive)
REMARK    1  A    between atoms: C1_2  and  C2_3 
ROOT
ATOM      1  C2  UNL d   1      -1.735  -3.127  -2.119  0.00  0.00    -0.076 A 
ATOM      2  C3  UNL d   1      -2.295  -4.245  -2.763  0.00  0.00     0.004 A 
ATOM      3  C4  UNL d   1      -1.948  -4.566  -4.074  0.00  0.00    -0.003 A 
ATOM      4  C5  UNL d   1      -1.035  -3.775  -4.763  0.00  0.00     0.000 A 
ATOM      5  C6  UNL d   1      -0.456  -2.673  -4.134  0.00  0.00     0.000 A 
ATOM      6  C7  UNL d   1      -0.783  -2.345  -2.807  0.00  0.00    -0.073 A 
ATOM      7  C8  UNL d   1      -0.133  -1.142  -2.180  0.00  0.00     0.078 C 
ENDROOT
BRANCH   1   8
ATOM      8  C1  UNL d   1      -2.170  -2.813  -0.706  0.00  0.00     0.053 C 
ATOM      9  C   UNL d   1      -1.366  -3.576   0.335  0.00  0.00     0.018 C 
ENDBRANCH   1   8
TORSDOF 1
ENDMDL
