MODEL 1
REMARK minimizedAffinity 1.60420001
REMARK minimizedRMSD -1
REMARK  1 active torsions:
REMARK  status: ('A' for Active; 'I' for Inactive)
REMARK    1  A    between atoms: C1_2  and  C2_3 
ROOT
ATOM      1  C2  UNL d   1       4.184  -2.871   3.767  0.00  0.00    -0.076 A 
ATOM      2  C3  UNL d   1       5.140  -3.900   3.791  0.00  0.00     0.004 A 
ATOM      3  C4  UNL d   1       5.967  -4.085   4.898  0.00  0.00    -0.003 A 
ATOM      4  C5  UNL d   1       5.851  -3.244   5.999  0.00  0.00     0.000 A 
ATOM      5  C6  UNL d   1       4.895  -2.229   5.999  0.00  0.00     0.000 A 
ATOM      6  C7  UNL d   1       4.042  -2.039   4.898  0.00  0.00    -0.073 A 
ATOM      7  C8  UNL d   1       3.033  -0.924   4.950  0.00  0.00     0.078 C 
ENDROOT
BRANCH   1   8
ATOM      8  C1  UNL d   1       3.333  -2.701   2.528  0.00  0.00     0.053 C 
ATOM      9  C   UNL d   1       4.145  -2.259   1.320  0.00  0.00     0.018 C 
ENDBRANCH   1   8
TORSDOF 1
ENDMDL
