MODEL 1
REMARK minimizedAffinity 0.521994412
REMARK minimizedRMSD -1
REMARK  1 active torsions:
REMARK  status: ('A' for Active; 'I' for Inactive)
REMARK    1  A    between atoms: C1_2  and  C2_3 
ROOT
ATOM      1  C2  UNL d   1      -1.820  -0.534   2.778  0.00  0.00    -0.076 A 
ATOM      2  C3  UNL d   1      -1.781  -1.938   2.814  0.00  0.00     0.004 A 
ATOM      3  C4  UNL d   1      -1.451  -2.676   1.679  0.00  0.00    -0.003 A 
ATOM      4  C5  UNL d   1      -1.153  -2.021   0.489  0.00  0.00     0.000 A 
ATOM      5  C6  UNL d   1      -1.169  -0.627   0.440  0.00  0.00     0.000 A 
ATOM      6  C7  UNL d   1      -1.485   0.132   1.580  0.00  0.00    -0.073 A 
ATOM      7  C8  UNL d   1      -1.493   1.632   1.469  0.00  0.00     0.078 C 
ENDROOT
BRANCH   1   8
ATOM      8  C1  UNL d   1      -2.212   0.212   4.034  0.00  0.00     0.053 C 
ATOM      9  C   UNL d   1      -1.010   0.775   4.776  0.00  0.00     0.018 C 
ENDBRANCH   1   8
TORSDOF 1
ENDMDL
