MODEL 1
REMARK minimizedAffinity 0.410486758
REMARK minimizedRMSD -1
REMARK  1 active torsions:
REMARK  status: ('A' for Active; 'I' for Inactive)
REMARK    1  A    between atoms: C1_2  and  C2_3 
ROOT
ATOM      1  C2  UNL d   1       4.407   4.452  -1.878  0.00  0.00    -0.076 A 
ATOM      2  C3  UNL d   1       3.962   4.124  -3.171  0.00  0.00     0.004 A 
ATOM      3  C4  UNL d   1       4.518   4.730  -4.296  0.00  0.00    -0.003 A 
ATOM      4  C5  UNL d   1       5.529   5.674  -4.147  0.00  0.00     0.000 A 
ATOM      5  C6  UNL d   1       5.995   5.998  -2.874  0.00  0.00     0.000 A 
ATOM      6  C7  UNL d   1       5.456   5.384  -1.729  0.00  0.00    -0.073 A 
ATOM      7  C8  UNL d   1       5.993   5.777  -0.380  0.00  0.00     0.078 C 
ENDROOT
BRANCH   1   8
ATOM      8  C1  UNL d   1       3.748   3.782  -0.694  0.00  0.00     0.053 C 
ATOM      9  C   UNL d   1       2.230   3.818  -0.775  0.00  0.00     0.018 C 
ENDBRANCH   1   8
TORSDOF 1
ENDMDL
