MODEL 1
REMARK minimizedAffinity 8.32758713
REMARK minimizedRMSD -1
REMARK  1 active torsions:
REMARK  status: ('A' for Active; 'I' for Inactive)
REMARK    1  A    between atoms: C1_2  and  C2_3 
ROOT
ATOM      1  C2  UNL d   1       4.463   4.942  -2.909  0.00  0.00    -0.076 A 
ATOM      2  C3  UNL d   1       3.624   5.920  -3.470  0.00  0.00     0.004 A 
ATOM      3  C4  UNL d   1       3.430   5.994  -4.849  0.00  0.00    -0.003 A 
ATOM      4  C5  UNL d   1       4.070   5.089  -5.688  0.00  0.00     0.000 A 
ATOM      5  C6  UNL d   1       4.892   4.101  -5.147  0.00  0.00     0.000 A 
ATOM      6  C7  UNL d   1       5.086   4.003  -3.759  0.00  0.00    -0.073 A 
ATOM      7  C8  UNL d   1       5.987   2.921  -3.230  0.00  0.00     0.078 C 
ENDROOT
BRANCH   1   8
ATOM      8  C1  UNL d   1       4.657   4.928  -1.410  0.00  0.00     0.053 C 
ATOM      9  C   UNL d   1       5.993   5.519  -0.990  0.00  0.00     0.018 C 
ENDBRANCH   1   8
TORSDOF 1
ENDMDL
