MODEL 1
REMARK minimizedAffinity -4.3344245
REMARK minimizedRMSD -1
REMARK  3 active torsions:
REMARK  status: ('A' for Active; 'I' for Inactive)
REMARK    1  A    between atoms: C3'_2  and  C2'_3 
REMARK    2  A    between atoms: C2'_3  and  C1'_4 
REMARK    3  A    between atoms: C1'_4  and  C1_5 
ROOT
ATOM      1  C1  N4B d   1      -0.235  -0.442   0.123  0.00  0.00    -0.075 A 
ATOM      2  C2  N4B d   1       0.713  -0.665   1.146  0.00  0.00     0.002 A 
ATOM      3  C3  N4B d   1       0.440  -0.269   2.432  0.00  0.00     0.002 A 
ATOM      4  C4  N4B d   1      -0.761   0.366   2.715  0.00  0.00    -0.004 A 
ATOM      5  C5  N4B d   1      -1.681   0.554   1.726  0.00  0.00     0.002 A 
ATOM      6  C6  N4B d   1      -1.422   0.158   0.429  0.00  0.00     0.002 A 
ENDROOT
BRANCH   1   7
ATOM      7  C1' N4B d   1       0.054  -0.780  -1.314  0.00  0.00     0.057 C 
BRANCH   7   8
ATOM      8  C2' N4B d   1       0.638   0.446  -2.009  0.00  0.00     0.009 C 
BRANCH   8   9
ATOM      9  C3' N4B d   1       1.106   0.130  -3.420  0.00  0.00     0.004 C 
ATOM     10  C4' N4B d   1       0.565  -1.170  -3.934  0.00  0.00     0.003 C 
ENDBRANCH   8   9
ENDBRANCH   7   8
ENDBRANCH   1   7
TORSDOF 3
ENDMDL
