MODEL 1
REMARK minimizedAffinity -4.38025141
REMARK minimizedRMSD -1
REMARK  3 active torsions:
REMARK  status: ('A' for Active; 'I' for Inactive)
REMARK    1  A    between atoms: C3'_2  and  C2'_3 
REMARK    2  A    between atoms: C2'_3  and  C1'_4 
REMARK    3  A    between atoms: C1'_4  and  C1_5 
ROOT
ATOM      1  C1  N4B d   1      -0.286   0.311   0.871  0.00  0.00    -0.075 A 
ATOM      2  C2  N4B d   1       0.851  -0.267   1.478  0.00  0.00     0.002 A 
ATOM      3  C3  N4B d   1       0.989  -0.239   2.844  0.00  0.00     0.002 A 
ATOM      4  C4  N4B d   1       0.017   0.374   3.619  0.00  0.00    -0.004 A 
ATOM      5  C5  N4B d   1      -1.091   0.907   3.028  0.00  0.00     0.002 A 
ATOM      6  C6  N4B d   1      -1.245   0.883   1.656  0.00  0.00     0.002 A 
ENDROOT
BRANCH   1   7
ATOM      7  C1' N4B d   1      -0.439   0.381  -0.623  0.00  0.00     0.057 C 
BRANCH   7   8
ATOM      8  C2' N4B d   1       0.617  -0.505  -1.278  0.00  0.00     0.009 C 
BRANCH   8   9
ATOM      9  C3' N4B d   1       0.582  -0.406  -2.793  0.00  0.00     0.004 C 
ATOM     10  C4' N4B d   1       1.789   0.281  -3.358  0.00  0.00     0.003 C 
ENDBRANCH   8   9
ENDBRANCH   7   8
ENDBRANCH   1   7
TORSDOF 3
ENDMDL
