MODEL 1
REMARK minimizedAffinity -4.56165934
REMARK minimizedRMSD -1
REMARK  3 active torsions:
REMARK  status: ('A' for Active; 'I' for Inactive)
REMARK    1  A    between atoms: C3'_2  and  C2'_3 
REMARK    2  A    between atoms: C2'_3  and  C1'_4 
REMARK    3  A    between atoms: C1'_4  and  C1_5 
ROOT
ATOM      1  C1  N4B d   1       0.285   0.149  -1.596  0.00  0.00    -0.075 A 
ATOM      2  C2  N4B d   1       0.510  -1.120  -2.172  0.00  0.00     0.002 A 
ATOM      3  C3  N4B d   1       0.838  -1.222  -3.502  0.00  0.00     0.002 A 
ATOM      4  C4  N4B d   1       0.929  -0.074  -4.276  0.00  0.00    -0.004 A 
ATOM      5  C5  N4B d   1       0.736   1.150  -3.705  0.00  0.00     0.002 A 
ATOM      6  C6  N4B d   1       0.409   1.267  -2.369  0.00  0.00     0.002 A 
ENDROOT
BRANCH   1   7
ATOM      7  C1' N4B d   1      -0.160   0.305  -0.167  0.00  0.00     0.057 C 
BRANCH   7   8
ATOM      8  C2' N4B d   1      -1.393   1.202  -0.122  0.00  0.00     0.009 C 
BRANCH   8   9
ATOM      9  C3' N4B d   1      -1.922   1.370   1.292  0.00  0.00     0.004 C 
ATOM     10  C4' N4B d   1      -1.536   0.237   2.195  0.00  0.00     0.003 C 
ENDBRANCH   8   9
ENDBRANCH   7   8
ENDBRANCH   1   7
TORSDOF 3
ENDMDL
