MODEL 1
REMARK minimizedAffinity -1.6341579
REMARK minimizedRMSD -1
REMARK  3 active torsions:
REMARK  status: ('A' for Active; 'I' for Inactive)
REMARK    1  A    between atoms: C3'_2  and  C2'_3 
REMARK    2  A    between atoms: C2'_3  and  C1'_4 
REMARK    3  A    between atoms: C1'_4  and  C1_5 
ROOT
ATOM      1  C1  N4B d   1      -0.046  -0.541   0.447  0.00  0.00    -0.075 A 
ATOM      2  C2  N4B d   1      -1.381  -0.096   0.562  0.00  0.00     0.002 A 
ATOM      3  C3  N4B d   1      -1.910   0.174   1.800  0.00  0.00     0.002 A 
ATOM      4  C4  N4B d   1      -1.132  -0.010   2.934  0.00  0.00    -0.004 A 
ATOM      5  C5  N4B d   1       0.165  -0.416   2.812  0.00  0.00     0.002 A 
ATOM      6  C6  N4B d   1       0.711  -0.687   1.573  0.00  0.00     0.002 A 
ENDROOT
BRANCH   1   7
ATOM      7  C1' N4B d   1       0.549  -0.931  -0.879  0.00  0.00     0.057 C 
BRANCH   7   8
ATOM      8  C2' N4B d   1       0.418   0.237  -1.850  0.00  0.00     0.009 C 
BRANCH   8   9
ATOM      9  C3' N4B d   1       1.049  -0.070  -3.198  0.00  0.00     0.004 C 
ATOM     10  C4' N4B d   1       0.681   0.930  -4.253  0.00  0.00     0.003 C 
ENDBRANCH   8   9
ENDBRANCH   7   8
ENDBRANCH   1   7
TORSDOF 3
ENDMDL
