MODEL 1
REMARK minimizedAffinity -5.08297014
REMARK minimizedRMSD -1
REMARK  3 active torsions:
REMARK  status: ('A' for Active; 'I' for Inactive)
REMARK    1  A    between atoms: C3'_2  and  C2'_3 
REMARK    2  A    between atoms: C2'_3  and  C1'_4 
REMARK    3  A    between atoms: C1'_4  and  C1_5 
ROOT
ATOM      1  C1  N4B d   1      -0.317  -0.713   0.003  0.00  0.00    -0.075 A 
ATOM      2  C2  N4B d   1       0.089  -0.227   1.266  0.00  0.00     0.002 A 
ATOM      3  C3  N4B d   1      -0.810   0.432   2.069  0.00  0.00     0.002 A 
ATOM      4  C4  N4B d   1      -2.108   0.632   1.625  0.00  0.00    -0.004 A 
ATOM      5  C5  N4B d   1      -2.499   0.137   0.415  0.00  0.00     0.002 A 
ATOM      6  C6  N4B d   1      -1.608  -0.531  -0.401  0.00  0.00     0.002 A 
ENDROOT
BRANCH   1   7
ATOM      7  C1' N4B d   1       0.652  -1.364  -0.946  0.00  0.00     0.057 C 
BRANCH   7   8
ATOM      8  C2' N4B d   1       0.384  -0.858  -2.360  0.00  0.00     0.009 C 
BRANCH   8   9
ATOM      9  C3' N4B d   1       0.873   0.567  -2.555  0.00  0.00     0.004 C 
ATOM     10  C4' N4B d   1       2.300   0.634  -3.011  0.00  0.00     0.003 C 
ENDBRANCH   8   9
ENDBRANCH   7   8
ENDBRANCH   1   7
TORSDOF 3
ENDMDL
