MODEL 1
REMARK minimizedAffinity -5.25392723
REMARK minimizedRMSD -1
REMARK  0 active torsions:
REMARK  status: ('A' for Active; 'I' for Inactive)
ROOT
ATOM      1  C2' OXE d   1      -2.522  -0.073   1.458  0.00  0.00     0.078 C 
ATOM      2  C1' OXE d   1      -0.546  -1.551   0.120  0.00  0.00     0.078 C 
ATOM      3  C1  OXE d   1      -0.324  -0.068   0.286  0.00  0.00    -0.078 A 
ATOM      4  C2  OXE d   1      -1.318   0.655   0.901  0.00  0.00    -0.078 A 
ATOM      5  C3  OXE d   1      -1.140   2.017   1.127  0.00  0.00     0.003 A 
ATOM      6  C4  OXE d   1      -0.028   2.684   0.599  0.00  0.00    -0.002 A 
ATOM      7  C5  OXE d   1       0.977   1.973  -0.065  0.00  0.00    -0.002 A 
ATOM      8  C6  OXE d   1       0.865   0.593  -0.193  0.00  0.00     0.003 A 
ENDROOT
TORSDOF 0
ENDMDL
