MODEL 1
REMARK minimizedAffinity -5.19784546
REMARK minimizedRMSD -1
REMARK  0 active torsions:
REMARK  status: ('A' for Active; 'I' for Inactive)
ROOT
ATOM      1  C2' OXE d   1      -2.496   0.766   0.052  0.00  0.00     0.078 C 
ATOM      2  C1' OXE d   1      -0.540   2.715   0.554  0.00  0.00     0.078 C 
ATOM      3  C1  OXE d   1      -0.087   1.283   0.420  0.00  0.00    -0.078 A 
ATOM      4  C2  OXE d   1      -1.057   0.330   0.221  0.00  0.00    -0.078 A 
ATOM      5  C3  OXE d   1      -0.689  -1.000   0.035  0.00  0.00     0.003 A 
ATOM      6  C4  OXE d   1       0.644  -1.396   0.202  0.00  0.00    -0.002 A 
ATOM      7  C5  OXE d   1       1.642  -0.446   0.445  0.00  0.00    -0.002 A 
ATOM      8  C6  OXE d   1       1.299   0.900   0.514  0.00  0.00     0.003 A 
ENDROOT
TORSDOF 0
ENDMDL
