MODEL 1
REMARK minimizedAffinity -1.04113841
REMARK minimizedRMSD -1
REMARK  0 active torsions:
REMARK  status: ('A' for Active; 'I' for Inactive)
ROOT
ATOM      1  C2' OXE d   1      -1.865   0.004  -0.077  0.00  0.00     0.078 C 
ATOM      2  C1' OXE d   1       0.145  -1.936  -0.352  0.00  0.00     0.078 C 
ATOM      3  C1  OXE d   1       0.573  -0.504  -0.153  0.00  0.00    -0.078 A 
ATOM      4  C2  OXE d   1      -0.417   0.445  -0.067  0.00  0.00    -0.078 A 
ATOM      5  C3  OXE d   1      -0.079   1.775   0.171  0.00  0.00     0.003 A 
ATOM      6  C4  OXE d   1       1.262   2.176   0.169  0.00  0.00    -0.002 A 
ATOM      7  C5  OXE d   1       2.286   1.231   0.043  0.00  0.00    -0.002 A 
ATOM      8  C6  OXE d   1       1.959  -0.115  -0.076  0.00  0.00     0.003 A 
ENDROOT
TORSDOF 0
ENDMDL
