MODEL 1
REMARK minimizedAffinity -3.87230277
REMARK minimizedRMSD -1
REMARK  0 active torsions:
REMARK  status: ('A' for Active; 'I' for Inactive)
ROOT
ATOM      1  C2' OXE d   1       0.451  -1.362   0.355  0.00  0.00     0.078 C 
ATOM      2  C1' OXE d   1       2.169   0.800  -0.153  0.00  0.00     0.078 C 
ATOM      3  C1  OXE d   1       0.708   1.100   0.076  0.00  0.00    -0.078 A 
ATOM      4  C2  OXE d   1      -0.133   0.032   0.277  0.00  0.00    -0.078 A 
ATOM      5  C3  OXE d   1      -1.480   0.257   0.547  0.00  0.00     0.003 A 
ATOM      6  C4  OXE d   1      -2.014   1.548   0.463  0.00  0.00    -0.002 A 
ATOM      7  C5  OXE d   1      -1.181   2.646   0.220  0.00  0.00    -0.002 A 
ATOM      8  C6  OXE d   1       0.186   2.444   0.067  0.00  0.00     0.003 A 
ENDROOT
TORSDOF 0
ENDMDL
