MODEL 1
REMARK minimizedAffinity -1.07419848
REMARK minimizedRMSD -1
REMARK  0 active torsions:
REMARK  status: ('A' for Active; 'I' for Inactive)
ROOT
ATOM      1  C2' OXE d   1       0.874   0.171  -0.128  0.00  0.00     0.078 C 
ATOM      2  C1' OXE d   1      -1.095  -1.090   1.426  0.00  0.00     0.078 C 
ATOM      3  C1  OXE d   1      -0.665  -1.768   0.150  0.00  0.00    -0.078 A 
ATOM      4  C2  OXE d   1       0.265  -1.121  -0.628  0.00  0.00    -0.078 A 
ATOM      5  C3  OXE d   1       0.736  -1.729  -1.788  0.00  0.00     0.003 A 
ATOM      6  C4  OXE d   1       0.160  -2.919  -2.249  0.00  0.00    -0.002 A 
ATOM      7  C5  OXE d   1      -0.817  -3.575  -1.492  0.00  0.00    -0.002 A 
ATOM      8  C6  OXE d   1      -1.209  -3.036  -0.272  0.00  0.00     0.003 A 
ENDROOT
TORSDOF 0
ENDMDL
