MODEL 1
REMARK minimizedAffinity -3.50632262
REMARK minimizedRMSD -1
REMARK  0 active torsions:
REMARK  status: ('A' for Active; 'I' for Inactive)
ROOT
ATOM      1  C2' OXE d   1       0.442  -0.606   0.069  0.00  0.00     0.078 C 
ATOM      2  C1' OXE d   1      -1.592   1.243   0.644  0.00  0.00     0.078 C 
ATOM      3  C1  OXE d   1      -0.169   1.646   0.942  0.00  0.00    -0.078 A 
ATOM      4  C2  OXE d   1       0.815   0.718   0.701  0.00  0.00    -0.078 A 
ATOM      5  C3  OXE d   1       2.149   1.058   0.907  0.00  0.00     0.003 A 
ATOM      6  C4  OXE d   1       2.485   2.281   1.501  0.00  0.00    -0.002 A 
ATOM      7  C5  OXE d   1       1.494   3.225   1.792  0.00  0.00    -0.002 A 
ATOM      8  C6  OXE d   1       0.170   2.941   1.479  0.00  0.00     0.003 A 
ENDROOT
TORSDOF 0
ENDMDL
