MODEL 1
REMARK minimizedAffinity -5.07099724
REMARK minimizedRMSD -1
REMARK  0 active torsions:
REMARK  status: ('A' for Active; 'I' for Inactive)
ROOT
ATOM      1  C2' OXE d   1       2.175  -0.407   0.293  0.00  0.00     0.078 C 
ATOM      2  C1' OXE d   1      -0.497  -1.041   0.872  0.00  0.00     0.078 C 
ATOM      3  C1  OXE d   1      -0.208   0.318   0.284  0.00  0.00    -0.078 A 
ATOM      4  C2  OXE d   1       1.107   0.637   0.047  0.00  0.00    -0.078 A 
ATOM      5  C3  OXE d   1       1.425   1.855  -0.546  0.00  0.00     0.003 A 
ATOM      6  C4  OXE d   1       0.433   2.819  -0.761  0.00  0.00    -0.002 A 
ATOM      7  C5  OXE d   1      -0.909   2.529  -0.490  0.00  0.00    -0.002 A 
ATOM      8  C6  OXE d   1      -1.250   1.271  -0.008  0.00  0.00     0.003 A 
ENDROOT
TORSDOF 0
ENDMDL
