MODEL 1
REMARK minimizedAffinity -4.17259836
REMARK minimizedRMSD -1
REMARK  0 active torsions:
REMARK  status: ('A' for Active; 'I' for Inactive)
ROOT
ATOM      1  C2' OXE d   1      -0.245   2.840  -0.292  0.00  0.00     0.078 C 
ATOM      2  C1' OXE d   1      -2.593   1.368   0.152  0.00  0.00     0.078 C 
ATOM      3  C1  OXE d   1      -1.308   0.602  -0.033  0.00  0.00    -0.078 A 
ATOM      4  C2  OXE d   1      -0.171   1.328  -0.296  0.00  0.00    -0.078 A 
ATOM      5  C3  OXE d   1       1.052   0.674  -0.420  0.00  0.00     0.003 A 
ATOM      6  C4  OXE d   1       1.109  -0.725  -0.433  0.00  0.00    -0.002 A 
ATOM      7  C5  OXE d   1      -0.043  -1.485  -0.206  0.00  0.00    -0.002 A 
ATOM      8  C6  OXE d   1      -1.249  -0.838   0.037  0.00  0.00     0.003 A 
ENDROOT
TORSDOF 0
ENDMDL
