MODEL 1
REMARK minimizedAffinity -5.19619751
REMARK minimizedRMSD -1
REMARK  0 active torsions:
REMARK  status: ('A' for Active; 'I' for Inactive)
ROOT
ATOM      1  C2' OXE d   1       0.577  -1.620   0.524  0.00  0.00     0.078 C 
ATOM      2  C1' OXE d   1       2.649   0.237   0.147  0.00  0.00     0.078 C 
ATOM      3  C1  OXE d   1       1.235   0.761   0.198  0.00  0.00    -0.078 A 
ATOM      4  C2  OXE d   1       0.224  -0.160   0.335  0.00  0.00    -0.078 A 
ATOM      5  C3  OXE d   1      -1.094   0.275   0.443  0.00  0.00     0.003 A 
ATOM      6  C4  OXE d   1      -1.412   1.625   0.257  0.00  0.00    -0.002 A 
ATOM      7  C5  OXE d   1      -0.401   2.575   0.076  0.00  0.00    -0.002 A 
ATOM      8  C6  OXE d   1       0.928   2.165   0.086  0.00  0.00     0.003 A 
ENDROOT
TORSDOF 0
ENDMDL
