MODEL 1
REMARK minimizedAffinity -4.07279778
REMARK minimizedRMSD -1
REMARK  0 active torsions:
REMARK  status: ('A' for Active; 'I' for Inactive)
ROOT
ATOM      1  C2' OXE d   1       0.025   3.159  -0.063  0.00  0.00     0.078 C 
ATOM      2  C1' OXE d   1      -2.268   1.683   0.602  0.00  0.00     0.078 C 
ATOM      3  C1  OXE d   1      -1.018   0.918   0.248  0.00  0.00    -0.078 A 
ATOM      4  C2  OXE d   1       0.087   1.648  -0.122  0.00  0.00    -0.078 A 
ATOM      5  C3  OXE d   1       1.282   0.994  -0.406  0.00  0.00     0.003 A 
ATOM      6  C4  OXE d   1       1.327  -0.404  -0.468  0.00  0.00    -0.002 A 
ATOM      7  C5  OXE d   1       0.203  -1.167  -0.134  0.00  0.00    -0.002 A 
ATOM      8  C6  OXE d   1      -0.963  -0.523   0.266  0.00  0.00     0.003 A 
ENDROOT
TORSDOF 0
ENDMDL
