MODEL 1
REMARK minimizedAffinity -2.89619637
REMARK minimizedRMSD -1
REMARK  0 active torsions:
REMARK  status: ('A' for Active; 'I' for Inactive)
ROOT
ATOM      1  C2' OXE d   1       2.396   1.438  -0.017  0.00  0.00     0.078 C 
ATOM      2  C1' OXE d   1       0.188   3.161   0.170  0.00  0.00     0.078 C 
ATOM      3  C1  OXE d   1      -0.074   1.676   0.208  0.00  0.00    -0.078 A 
ATOM      4  C2  OXE d   1       1.008   0.840   0.069  0.00  0.00    -0.078 A 
ATOM      5  C3  OXE d   1       0.829  -0.538   0.152  0.00  0.00     0.003 A 
ATOM      6  C4  OXE d   1      -0.459  -1.083   0.222  0.00  0.00    -0.002 A 
ATOM      7  C5  OXE d   1      -1.577  -0.249   0.325  0.00  0.00    -0.002 A 
ATOM      8  C6  OXE d   1      -1.399   1.129   0.362  0.00  0.00     0.003 A 
ENDROOT
TORSDOF 0
ENDMDL
