MODEL 1
REMARK minimizedAffinity -4.76642084
REMARK minimizedRMSD -1
REMARK  0 active torsions:
REMARK  status: ('A' for Active; 'I' for Inactive)
ROOT
ATOM      1  C2' OXE d   1      -2.040   0.770   0.231  0.00  0.00     0.078 C 
ATOM      2  C1' OXE d   1      -0.031  -1.157  -0.129  0.00  0.00     0.078 C 
ATOM      3  C1  OXE d   1       0.397   0.255   0.184  0.00  0.00    -0.078 A 
ATOM      4  C2  OXE d   1      -0.592   1.201   0.312  0.00  0.00    -0.078 A 
ATOM      5  C3  OXE d   1      -0.255   2.508   0.654  0.00  0.00     0.003 A 
ATOM      6  C4  OXE d   1       1.088   2.900   0.718  0.00  0.00    -0.002 A 
ATOM      7  C5  OXE d   1       2.111   1.961   0.551  0.00  0.00    -0.002 A 
ATOM      8  C6  OXE d   1       1.782   0.628   0.326  0.00  0.00     0.003 A 
ENDROOT
TORSDOF 0
ENDMDL
