MODEL 1
REMARK minimizedAffinity -3.55347967
REMARK minimizedRMSD -1
REMARK  0 active torsions:
REMARK  status: ('A' for Active; 'I' for Inactive)
ROOT
ATOM      1  C2' OXE d   1       0.032  -1.155  -0.793  0.00  0.00     0.078 C 
ATOM      2  C1' OXE d   1      -1.328  -0.110   1.430  0.00  0.00     0.078 C 
ATOM      3  C1  OXE d   1      -0.378   0.801   0.694  0.00  0.00    -0.078 A 
ATOM      4  C2  OXE d   1       0.318   0.268  -0.364  0.00  0.00    -0.078 A 
ATOM      5  C3  OXE d   1       1.166   1.081  -1.111  0.00  0.00     0.003 A 
ATOM      6  C4  OXE d   1       1.433   2.393  -0.702  0.00  0.00    -0.002 A 
ATOM      7  C5  OXE d   1       0.764   2.943   0.397  0.00  0.00    -0.002 A 
ATOM      8  C6  OXE d   1      -0.174   2.176   1.078  0.00  0.00     0.003 A 
ENDROOT
TORSDOF 0
ENDMDL
