MODEL 1
REMARK minimizedAffinity -2.88794756
REMARK minimizedRMSD -1
REMARK  0 active torsions:
REMARK  status: ('A' for Active; 'I' for Inactive)
ROOT
ATOM      1  C2' OXE d   1      -0.039   3.171  -0.854  0.00  0.00     0.078 C 
ATOM      2  C1' OXE d   1       1.859   1.104  -0.954  0.00  0.00     0.078 C 
ATOM      3  C1  OXE d   1       0.557   0.830  -0.244  0.00  0.00    -0.078 A 
ATOM      4  C2  OXE d   1      -0.347   1.862  -0.159  0.00  0.00    -0.078 A 
ATOM      5  C3  OXE d   1      -1.586   1.646   0.438  0.00  0.00     0.003 A 
ATOM      6  C4  OXE d   1      -1.859   0.436   1.087  0.00  0.00    -0.002 A 
ATOM      7  C5  OXE d   1      -0.936  -0.615   1.047  0.00  0.00    -0.002 A 
ATOM      8  C6  OXE d   1       0.256  -0.449   0.351  0.00  0.00     0.003 A 
ENDROOT
TORSDOF 0
ENDMDL
