MODEL 1
REMARK minimizedAffinity -4.7547226
REMARK minimizedRMSD -1
REMARK  0 active torsions:
REMARK  status: ('A' for Active; 'I' for Inactive)
ROOT
ATOM      1  C2' OXE d   1      -2.000   1.147   0.286  0.00  0.00     0.078 C 
ATOM      2  C1' OXE d   1       0.025   3.061  -0.056  0.00  0.00     0.078 C 
ATOM      3  C1  OXE d   1       0.439   1.620   0.105  0.00  0.00    -0.078 A 
ATOM      4  C2  OXE d   1      -0.555   0.696   0.318  0.00  0.00    -0.078 A 
ATOM      5  C3  OXE d   1      -0.232  -0.654   0.418  0.00  0.00     0.003 A 
ATOM      6  C4  OXE d   1       1.107  -1.061   0.457  0.00  0.00    -0.002 A 
ATOM      7  C5  OXE d   1       2.137  -0.131   0.281  0.00  0.00    -0.002 A 
ATOM      8  C6  OXE d   1       1.819   1.204   0.061  0.00  0.00     0.003 A 
ENDROOT
TORSDOF 0
ENDMDL
