MODEL 1
REMARK minimizedAffinity -5.86561394
REMARK minimizedRMSD -1
REMARK  0 active torsions:
REMARK  status: ('A' for Active; 'I' for Inactive)
ROOT
ATOM      1  C2' OXE d   1      -2.848   0.731   0.650  0.00  0.00     0.078 C 
ATOM      2  C1' OXE d   1      -0.756  -1.119   0.368  0.00  0.00     0.078 C 
ATOM      3  C1  OXE d   1      -0.435   0.342   0.173  0.00  0.00    -0.078 A 
ATOM      4  C2  OXE d   1      -1.474   1.236   0.268  0.00  0.00    -0.078 A 
ATOM      5  C3  OXE d   1      -1.223   2.600   0.151  0.00  0.00     0.003 A 
ATOM      6  C4  OXE d   1       0.049   3.058  -0.213  0.00  0.00    -0.002 A 
ATOM      7  C5  OXE d   1       1.114   2.161  -0.353  0.00  0.00    -0.002 A 
ATOM      8  C6  OXE d   1       0.898   0.806  -0.122  0.00  0.00     0.003 A 
ENDROOT
TORSDOF 0
ENDMDL
