MODEL 1
REMARK minimizedAffinity -4.23206568
REMARK minimizedRMSD -1
REMARK  0 active torsions:
REMARK  status: ('A' for Active; 'I' for Inactive)
ROOT
ATOM      1  C2' OXE d   1       0.976  -1.264   0.324  0.00  0.00     0.078 C 
ATOM      2  C1' OXE d   1       2.465   1.111   0.469  0.00  0.00     0.078 C 
ATOM      3  C1  OXE d   1       0.962   1.218   0.535  0.00  0.00    -0.078 A 
ATOM      4  C2  OXE d   1       0.240   0.056   0.416  0.00  0.00    -0.078 A 
ATOM      5  C3  OXE d   1      -1.147   0.091   0.525  0.00  0.00     0.003 A 
ATOM      6  C4  OXE d   1      -1.821   1.317   0.601  0.00  0.00    -0.002 A 
ATOM      7  C5  OXE d   1      -1.106   2.516   0.683  0.00  0.00    -0.002 A 
ATOM      8  C6  OXE d   1       0.284   2.481   0.694  0.00  0.00     0.003 A 
ENDROOT
TORSDOF 0
ENDMDL
