MODEL 1
REMARK minimizedAffinity 6.40258503
REMARK minimizedRMSD -1
REMARK  0 active torsions:
REMARK  status: ('A' for Active; 'I' for Inactive)
ROOT
ATOM      1  C   UNL d   1      -0.598  -1.505   3.211  0.00  0.00     0.077 C 
ATOM      2  C1  UNL d   1       0.484  -1.878   2.242  0.00  0.00    -0.074 A 
ATOM      3  C2  UNL d   1       0.548  -1.290   0.975  0.00  0.00    -0.005 A 
ATOM      4  C3  UNL d   1       1.566  -1.640   0.087  0.00  0.00     0.006 A 
ATOM      5  C4  UNL d   1       2.529  -2.580   0.458  0.00  0.00    -0.005 A 
ATOM      6  C5  UNL d   1       2.482  -3.178   1.722  0.00  0.00    -0.074 A 
ATOM      7  C6  UNL d   1       3.514  -4.182   2.139  0.00  0.00     0.077 C 
ATOM      8  C7  UNL d   1       1.460  -2.815   2.610  0.00  0.00    -0.001 A 
ENDROOT
TORSDOF 0
ENDMDL
