MODEL 1
REMARK minimizedAffinity 3.82863855
REMARK minimizedRMSD -1
REMARK  0 active torsions:
REMARK  status: ('A' for Active; 'I' for Inactive)
ROOT
ATOM      1  C   UNL d   1      -3.323  -1.097  -0.907  0.00  0.00     0.077 C 
ATOM      2  C1  UNL d   1      -2.968  -0.627   0.473  0.00  0.00    -0.074 A 
ATOM      3  C2  UNL d   1      -3.679   0.411   1.084  0.00  0.00    -0.005 A 
ATOM      4  C3  UNL d   1      -3.344   0.830   2.371  0.00  0.00     0.006 A 
ATOM      5  C4  UNL d   1      -2.296   0.217   3.060  0.00  0.00    -0.005 A 
ATOM      6  C5  UNL d   1      -1.575  -0.823   2.465  0.00  0.00    -0.074 A 
ATOM      7  C6  UNL d   1      -0.453  -1.500   3.195  0.00  0.00     0.077 C 
ATOM      8  C7  UNL d   1      -1.922  -1.244   1.174  0.00  0.00    -0.001 A 
ENDROOT
TORSDOF 0
ENDMDL
