MODEL 1
REMARK minimizedAffinity 6.32421017
REMARK minimizedRMSD -1
REMARK  0 active torsions:
REMARK  status: ('A' for Active; 'I' for Inactive)
ROOT
ATOM      1  C   UNL d   1       1.120   4.328  -4.532  0.00  0.00     0.077 C 
ATOM      2  C1  UNL d   1      -0.043   3.609  -3.916  0.00  0.00    -0.074 A 
ATOM      3  C2  UNL d   1      -1.351   4.070  -4.096  0.00  0.00    -0.005 A 
ATOM      4  C3  UNL d   1      -2.423   3.385  -3.525  0.00  0.00     0.006 A 
ATOM      5  C4  UNL d   1      -2.199   2.234  -2.769  0.00  0.00    -0.005 A 
ATOM      6  C5  UNL d   1      -0.898   1.757  -2.579  0.00  0.00    -0.074 A 
ATOM      7  C6  UNL d   1      -0.640   0.516  -1.777  0.00  0.00     0.077 C 
ATOM      8  C7  UNL d   1       0.174   2.447  -3.162  0.00  0.00    -0.001 A 
ENDROOT
TORSDOF 0
ENDMDL
