MODEL 1
REMARK minimizedAffinity 6.42623186
REMARK minimizedRMSD -1
REMARK  0 active torsions:
REMARK  status: ('A' for Active; 'I' for Inactive)
ROOT
ATOM      1  C   UNL d   1       0.908  -1.912  -0.032  0.00  0.00     0.077 C 
ATOM      2  C1  UNL d   1      -0.198  -1.042  -0.552  0.00  0.00    -0.074 A 
ATOM      3  C2  UNL d   1      -1.536  -1.426  -0.420  0.00  0.00    -0.005 A 
ATOM      4  C3  UNL d   1      -2.554  -0.602  -0.900  0.00  0.00     0.006 A 
ATOM      5  C4  UNL d   1      -2.245   0.611  -1.516  0.00  0.00    -0.005 A 
ATOM      6  C5  UNL d   1      -0.912   1.012  -1.656  0.00  0.00    -0.074 A 
ATOM      7  C6  UNL d   1      -0.563   2.317  -2.306  0.00  0.00     0.077 C 
ATOM      8  C7  UNL d   1       0.105   0.182  -1.165  0.00  0.00    -0.001 A 
ENDROOT
TORSDOF 0
ENDMDL
