MODEL 1
REMARK minimizedAffinity 3.38008618
REMARK minimizedRMSD -1
REMARK  0 active torsions:
REMARK  status: ('A' for Active; 'I' for Inactive)
ROOT
ATOM      1  C   UNL d   1      -3.866   1.135   3.488  0.00  0.00     0.077 C 
ATOM      2  C1  UNL d   1      -2.794   0.153   3.118  0.00  0.00    -0.074 A 
ATOM      3  C2  UNL d   1      -3.025  -0.832   2.152  0.00  0.00    -0.005 A 
ATOM      4  C3  UNL d   1      -2.015  -1.733   1.811  0.00  0.00     0.006 A 
ATOM      5  C4  UNL d   1      -0.768  -1.658   2.432  0.00  0.00    -0.005 A 
ATOM      6  C5  UNL d   1      -0.519  -0.679   3.399  0.00  0.00    -0.074 A 
ATOM      7  C6  UNL d   1       0.820  -0.578   4.068  0.00  0.00     0.077 C 
ATOM      8  C7  UNL d   1      -1.536   0.227   3.731  0.00  0.00    -0.001 A 
ENDROOT
TORSDOF 0
ENDMDL
