MODEL 1
REMARK minimizedAffinity 8.3456974
REMARK minimizedRMSD -1
REMARK  0 active torsions:
REMARK  status: ('A' for Active; 'I' for Inactive)
ROOT
ATOM      1  C   UNL d   1       2.870  -3.407   1.614  0.00  0.00     0.077 C 
ATOM      2  C1  UNL d   1       1.616  -2.596   1.475  0.00  0.00    -0.074 A 
ATOM      3  C2  UNL d   1       0.768  -2.389   2.568  0.00  0.00    -0.005 A 
ATOM      4  C3  UNL d   1      -0.389  -1.625   2.426  0.00  0.00     0.006 A 
ATOM      5  C4  UNL d   1      -0.711  -1.060   1.191  0.00  0.00    -0.005 A 
ATOM      6  C5  UNL d   1       0.125  -1.255   0.087  0.00  0.00    -0.074 A 
ATOM      7  C6  UNL d   1      -0.201  -0.647  -1.245  0.00  0.00     0.077 C 
ATOM      8  C7  UNL d   1       1.290  -2.019   0.239  0.00  0.00    -0.001 A 
ENDROOT
TORSDOF 0
ENDMDL
