MODEL 1
REMARK minimizedAffinity -0.719728947
REMARK minimizedRMSD -1
REMARK  0 active torsions:
REMARK  status: ('A' for Active; 'I' for Inactive)
ROOT
ATOM      1  C   UNL d   1       1.786  -1.266  -0.288  0.00  0.00     0.077 C 
ATOM      2  C1  UNL d   1       2.319  -2.430   0.494  0.00  0.00    -0.074 A 
ATOM      3  C2  UNL d   1       1.466  -3.236   1.255  0.00  0.00    -0.005 A 
ATOM      4  C3  UNL d   1       1.975  -4.320   1.970  0.00  0.00     0.006 A 
ATOM      5  C4  UNL d   1       3.340  -4.609   1.930  0.00  0.00    -0.005 A 
ATOM      6  C5  UNL d   1       4.208  -3.816   1.173  0.00  0.00    -0.074 A 
ATOM      7  C6  UNL d   1       5.675  -4.118   1.112  0.00  0.00     0.077 C 
ATOM      8  C7  UNL d   1       3.687  -2.732   0.453  0.00  0.00    -0.001 A 
ENDROOT
TORSDOF 0
ENDMDL
