MODEL 1
REMARK minimizedAffinity -0.264116377
REMARK minimizedRMSD -1
REMARK  0 active torsions:
REMARK  status: ('A' for Active; 'I' for Inactive)
ROOT
ATOM      1  C   UNL d   1       0.369  -3.722   1.898  0.00  0.00     0.077 C 
ATOM      2  C1  UNL d   1       0.223  -2.398   2.587  0.00  0.00    -0.074 A 
ATOM      3  C2  UNL d   1       1.296  -1.824   3.276  0.00  0.00    -0.005 A 
ATOM      4  C3  UNL d   1       1.148  -0.588   3.905  0.00  0.00     0.006 A 
ATOM      5  C4  UNL d   1      -0.073   0.086   3.851  0.00  0.00    -0.005 A 
ATOM      6  C5  UNL d   1      -1.157  -0.472   3.166  0.00  0.00    -0.074 A 
ATOM      7  C6  UNL d   1      -2.473   0.243   3.090  0.00  0.00     0.077 C 
ATOM      8  C7  UNL d   1      -0.998  -1.712   2.531  0.00  0.00    -0.001 A 
ENDROOT
TORSDOF 0
ENDMDL
