MODEL 1
REMARK minimizedAffinity 9.96946239
REMARK minimizedRMSD -1
REMARK  0 active torsions:
REMARK  status: ('A' for Active; 'I' for Inactive)
ROOT
ATOM      1  C   UNL d   1       5.407  -0.225   0.021  0.00  0.00     0.077 C 
ATOM      2  C1  UNL d   1       4.509  -1.284   0.589  0.00  0.00    -0.074 A 
ATOM      3  C2  UNL d   1       5.020  -2.524   0.985  0.00  0.00    -0.005 A 
ATOM      4  C3  UNL d   1       4.174  -3.494   1.521  0.00  0.00     0.006 A 
ATOM      5  C4  UNL d   1       2.811  -3.236   1.667  0.00  0.00    -0.005 A 
ATOM      6  C5  UNL d   1       2.282  -2.001   1.278  0.00  0.00    -0.074 A 
ATOM      7  C6  UNL d   1       0.820  -1.703   1.436  0.00  0.00     0.077 C 
ATOM      8  C7  UNL d   1       3.139  -1.028   0.746  0.00  0.00    -0.001 A 
ENDROOT
TORSDOF 0
ENDMDL
