MODEL 1
REMARK minimizedAffinity 9.27811718
REMARK minimizedRMSD -1
REMARK  0 active torsions:
REMARK  status: ('A' for Active; 'I' for Inactive)
ROOT
ATOM      1  C   UNL d   1       5.999  -2.619   3.368  0.00  0.00     0.077 C 
ATOM      2  C1  UNL d   1       4.574  -2.153   3.376  0.00  0.00    -0.074 A 
ATOM      3  C2  UNL d   1       4.117  -1.221   2.438  0.00  0.00    -0.005 A 
ATOM      4  C3  UNL d   1       2.786  -0.805   2.452  0.00  0.00     0.006 A 
ATOM      5  C4  UNL d   1       1.900  -1.315   3.401  0.00  0.00    -0.005 A 
ATOM      6  C5  UNL d   1       2.338  -2.248   4.346  0.00  0.00    -0.074 A 
ATOM      7  C6  UNL d   1       1.396  -2.813   5.367  0.00  0.00     0.077 C 
ATOM      8  C7  UNL d   1       3.675  -2.667   4.321  0.00  0.00    -0.001 A 
ENDROOT
TORSDOF 0
ENDMDL
