MODEL 1
REMARK minimizedAffinity 10.6198616
REMARK minimizedRMSD -1
REMARK  0 active torsions:
REMARK  status: ('A' for Active; 'I' for Inactive)
ROOT
ATOM      1  C   UNL d   1       6.000  -2.246   3.375  0.00  0.00     0.077 C 
ATOM      2  C1  UNL d   1       4.559  -2.005   3.715  0.00  0.00    -0.074 A 
ATOM      3  C2  UNL d   1       4.085  -2.204   5.015  0.00  0.00    -0.005 A 
ATOM      4  C3  UNL d   1       2.744  -1.967   5.319  0.00  0.00     0.006 A 
ATOM      5  C4  UNL d   1       1.866  -1.529   4.327  0.00  0.00    -0.005 A 
ATOM      6  C5  UNL d   1       2.322  -1.325   3.021  0.00  0.00    -0.074 A 
ATOM      7  C6  UNL d   1       1.394  -0.846   1.945  0.00  0.00     0.077 C 
ATOM      8  C7  UNL d   1       3.672  -1.558   2.725  0.00  0.00    -0.001 A 
ENDROOT
TORSDOF 0
ENDMDL
