MODEL 1
REMARK minimizedAffinity 3.11399484
REMARK minimizedRMSD -1
REMARK  0 active torsions:
REMARK  status: ('A' for Active; 'I' for Inactive)
ROOT
ATOM      1  C   UNL d   1       2.084   0.008   2.203  0.00  0.00     0.077 C 
ATOM      2  C1  UNL d   1       2.621  -1.026   3.148  0.00  0.00    -0.074 A 
ATOM      3  C2  UNL d   1       1.768  -1.944   3.770  0.00  0.00    -0.005 A 
ATOM      4  C3  UNL d   1       2.283  -2.906   4.638  0.00  0.00     0.006 A 
ATOM      5  C4  UNL d   1       3.654  -2.960   4.894  0.00  0.00    -0.005 A 
ATOM      6  C5  UNL d   1       4.522  -2.051   4.280  0.00  0.00    -0.074 A 
ATOM      7  C6  UNL d   1       5.999  -2.102   4.536  0.00  0.00     0.077 C 
ATOM      8  C7  UNL d   1       3.998  -1.092   3.403  0.00  0.00    -0.001 A 
ENDROOT
TORSDOF 0
ENDMDL
