MODEL 1
REMARK minimizedAffinity 11.089715
REMARK minimizedRMSD -1
REMARK  0 active torsions:
REMARK  status: ('A' for Active; 'I' for Inactive)
ROOT
ATOM      1  C   UNL d   1       5.515  -2.466   5.627  0.00  0.00     0.077 C 
ATOM      2  C1  UNL d   1       4.150  -2.426   5.006  0.00  0.00    -0.074 A 
ATOM      3  C2  UNL d   1       3.167  -3.351   5.371  0.00  0.00    -0.005 A 
ATOM      4  C3  UNL d   1       1.899  -3.296   4.792  0.00  0.00     0.006 A 
ATOM      5  C4  UNL d   1       1.602  -2.317   3.843  0.00  0.00    -0.005 A 
ATOM      6  C5  UNL d   1       2.572  -1.383   3.466  0.00  0.00    -0.074 A 
ATOM      7  C6  UNL d   1       2.267  -0.317   2.456  0.00  0.00     0.077 C 
ATOM      8  C7  UNL d   1       3.842  -1.440   4.058  0.00  0.00    -0.001 A 
ENDROOT
TORSDOF 0
ENDMDL
