MODEL 1
REMARK minimizedAffinity 3.32032919
REMARK minimizedRMSD -1
REMARK  0 active torsions:
REMARK  status: ('A' for Active; 'I' for Inactive)
ROOT
ATOM      1  C   UNL d   1       3.672   3.588   3.773  0.00  0.00     0.077 C 
ATOM      2  C1  UNL d   1       3.161   2.382   3.043  0.00  0.00    -0.074 A 
ATOM      3  C2  UNL d   1       2.898   2.430   1.670  0.00  0.00    -0.005 A 
ATOM      4  C3  UNL d   1       2.433   1.297   1.003  0.00  0.00     0.006 A 
ATOM      5  C4  UNL d   1       2.226   0.107   1.700  0.00  0.00    -0.005 A 
ATOM      6  C5  UNL d   1       2.484   0.039   3.073  0.00  0.00    -0.074 A 
ATOM      7  C6  UNL d   1       2.276  -1.236   3.836  0.00  0.00     0.077 C 
ATOM      8  C7  UNL d   1       2.958   1.180   3.735  0.00  0.00    -0.001 A 
ENDROOT
TORSDOF 0
ENDMDL
