MODEL 1
REMARK minimizedAffinity 5.54042912
REMARK minimizedRMSD -1
REMARK  0 active torsions:
REMARK  status: ('A' for Active; 'I' for Inactive)
ROOT
ATOM      1  C   UNL d   1       2.940  -1.699  -1.324  0.00  0.00     0.077 C 
ATOM      2  C1  UNL d   1       2.983  -3.199  -1.308  0.00  0.00    -0.074 A 
ATOM      3  C2  UNL d   1       2.253  -3.928  -0.365  0.00  0.00    -0.005 A 
ATOM      4  C3  UNL d   1       2.295  -5.323  -0.368  0.00  0.00     0.006 A 
ATOM      5  C4  UNL d   1       3.067  -6.000  -1.313  0.00  0.00    -0.005 A 
ATOM      6  C5  UNL d   1       3.803  -5.287  -2.264  0.00  0.00    -0.074 A 
ATOM      7  C6  UNL d   1       4.630  -5.999  -3.293  0.00  0.00     0.077 C 
ATOM      8  C7  UNL d   1       3.750  -3.886  -2.259  0.00  0.00    -0.001 A 
ENDROOT
TORSDOF 0
ENDMDL
