MODEL 1
REMARK minimizedAffinity 3.88854241
REMARK minimizedRMSD -1
REMARK  0 active torsions:
REMARK  status: ('A' for Active; 'I' for Inactive)
ROOT
ATOM      1  C   UNL d   1       2.713  -4.868   4.719  0.00  0.00     0.077 C 
ATOM      2  C1  UNL d   1       2.955  -3.481   4.203  0.00  0.00    -0.074 A 
ATOM      3  C2  UNL d   1       4.221  -2.892   4.292  0.00  0.00    -0.005 A 
ATOM      4  C3  UNL d   1       4.433  -1.605   3.799  0.00  0.00     0.006 A 
ATOM      5  C4  UNL d   1       3.384  -0.894   3.214  0.00  0.00    -0.005 A 
ATOM      6  C5  UNL d   1       2.112  -1.467   3.116  0.00  0.00    -0.074 A 
ATOM      7  C6  UNL d   1       0.977  -0.721   2.481  0.00  0.00     0.077 C 
ATOM      8  C7  UNL d   1       1.908  -2.764   3.607  0.00  0.00    -0.001 A 
ENDROOT
TORSDOF 0
ENDMDL
