MODEL 1
REMARK minimizedAffinity 15.5252562
REMARK minimizedRMSD -1
REMARK  0 active torsions:
REMARK  status: ('A' for Active; 'I' for Inactive)
ROOT
ATOM      1  C   UNL d   1       1.969  -3.483   5.035  0.00  0.00     0.077 C 
ATOM      2  C1  UNL d   1       2.409  -2.508   3.983  0.00  0.00    -0.074 A 
ATOM      3  C2  UNL d   1       3.548  -2.751   3.209  0.00  0.00    -0.005 A 
ATOM      4  C3  UNL d   1       3.940  -1.840   2.228  0.00  0.00     0.006 A 
ATOM      5  C4  UNL d   1       3.198  -0.678   2.012  0.00  0.00    -0.005 A 
ATOM      6  C5  UNL d   1       2.056  -0.419   2.776  0.00  0.00    -0.074 A 
ATOM      7  C6  UNL d   1       1.241   0.820   2.550  0.00  0.00     0.077 C 
ATOM      8  C7  UNL d   1       1.665  -1.342   3.755  0.00  0.00    -0.001 A 
ENDROOT
TORSDOF 0
ENDMDL
