MODEL 1
REMARK minimizedAffinity 1.12520933
REMARK minimizedRMSD -1
REMARK  0 active torsions:
REMARK  status: ('A' for Active; 'I' for Inactive)
ROOT
ATOM      1  C   UNL d   1       1.733  -0.473   3.063  0.00  0.00     0.077 C 
ATOM      2  C1  UNL d   1       1.874  -1.941   3.335  0.00  0.00    -0.074 A 
ATOM      3  C2  UNL d   1       2.662  -2.752   2.512  0.00  0.00    -0.005 A 
ATOM      4  C3  UNL d   1       2.790  -4.114   2.784  0.00  0.00     0.006 A 
ATOM      5  C4  UNL d   1       2.134  -4.678   3.878  0.00  0.00    -0.005 A 
ATOM      6  C5  UNL d   1       1.343  -3.882   4.713  0.00  0.00    -0.074 A 
ATOM      7  C6  UNL d   1       0.639  -4.470   5.900  0.00  0.00     0.077 C 
ATOM      8  C7  UNL d   1       1.224  -2.513   4.438  0.00  0.00    -0.001 A 
ENDROOT
TORSDOF 0
ENDMDL
