MODEL 1
REMARK minimizedAffinity 8.06701946
REMARK minimizedRMSD -1
REMARK  0 active torsions:
REMARK  status: ('A' for Active; 'I' for Inactive)
ROOT
ATOM      1  C   UNL d   1       3.057  -4.368   3.002  0.00  0.00     0.077 C 
ATOM      2  C1  UNL d   1       2.615  -3.080   2.374  0.00  0.00    -0.074 A 
ATOM      3  C2  UNL d   1       2.552  -1.900   3.122  0.00  0.00    -0.005 A 
ATOM      4  C3  UNL d   1       2.148  -0.707   2.522  0.00  0.00     0.006 A 
ATOM      5  C4  UNL d   1       1.803  -0.683   1.170  0.00  0.00    -0.005 A 
ATOM      6  C5  UNL d   1       1.860  -1.853   0.406  0.00  0.00    -0.074 A 
ATOM      7  C6  UNL d   1       1.502  -1.842  -1.050  0.00  0.00     0.077 C 
ATOM      8  C7  UNL d   1       2.274  -3.046   1.015  0.00  0.00    -0.001 A 
ENDROOT
TORSDOF 0
ENDMDL
