MODEL 1
REMARK minimizedAffinity 2.68526649
REMARK minimizedRMSD -1
REMARK  0 active torsions:
REMARK  status: ('A' for Active; 'I' for Inactive)
ROOT
ATOM      1  C4' PXY d   1      -3.442  -1.508   3.363  0.00  0.00     0.077 C 
ATOM      2  C1' PXY d   1      -5.998  -5.972   6.000  0.00  0.00     0.077 C 
ATOM      3  C1  PXY d   1      -5.333  -4.793   5.317  0.00  0.00    -0.082 A 
ATOM      4  C2  PXY d   1      -4.945  -4.902   4.056  0.00  0.00     0.003 A 
ATOM      5  C3  PXY d   1      -4.314  -3.856   3.433  0.00  0.00     0.003 A 
ATOM      6  C4  PXY d   1      -4.126  -2.670   4.090  0.00  0.00    -0.082 A 
ATOM      7  C5  PXY d   1      -4.528  -2.548   5.372  0.00  0.00     0.003 A 
ATOM      8  C6  PXY d   1      -5.130  -3.635   6.000  0.00  0.00     0.003 A 
ENDROOT
TORSDOF 0
ENDMDL
