MODEL 1
REMARK minimizedAffinity 9.5578928
REMARK minimizedRMSD -1
REMARK  0 active torsions:
REMARK  status: ('A' for Active; 'I' for Inactive)
ROOT
ATOM      1  C4' PXY d   1       5.887   5.732  -4.360  0.00  0.00     0.077 C 
ATOM      2  C1' PXY d   1       1.743   2.006  -2.824  0.00  0.00     0.077 C 
ATOM      3  C1  PXY d   1       2.824   2.993  -3.220  0.00  0.00    -0.082 A 
ATOM      4  C2  PXY d   1       3.502   2.806  -4.341  0.00  0.00     0.003 A 
ATOM      5  C3  PXY d   1       4.505   3.670  -4.697  0.00  0.00     0.003 A 
ATOM      6  C4  PXY d   1       4.780   4.767  -3.926  0.00  0.00    -0.082 A 
ATOM      7  C5  PXY d   1       4.086   4.971  -2.786  0.00  0.00     0.003 A 
ATOM      8  C6  PXY d   1       3.100   4.059  -2.421  0.00  0.00     0.003 A 
ENDROOT
TORSDOF 0
ENDMDL
