MODEL 1
REMARK minimizedAffinity 10.3055859
REMARK minimizedRMSD -1
REMARK  0 active torsions:
REMARK  status: ('A' for Active; 'I' for Inactive)
ROOT
ATOM      1  C4' PXY d   1       2.065  -0.830   1.762  0.00  0.00     0.077 C 
ATOM      2  C1' PXY d   1       5.520   3.797   1.496  0.00  0.00     0.077 C 
ATOM      3  C1  PXY d   1       4.605   2.590   1.559  0.00  0.00    -0.082 A 
ATOM      4  C2  PXY d   1       4.745   1.713   2.540  0.00  0.00     0.003 A 
ATOM      5  C3  PXY d   1       3.947   0.599   2.594  0.00  0.00     0.003 A 
ATOM      6  C4  PXY d   1       2.961   0.408   1.664  0.00  0.00    -0.082 A 
ATOM      7  C5  PXY d   1       2.804   1.304   0.666  0.00  0.00     0.003 A 
ATOM      8  C6  PXY d   1       3.652   2.406   0.606  0.00  0.00     0.003 A 
ENDROOT
TORSDOF 0
ENDMDL
