MODEL 1
REMARK minimizedAffinity 13.5206337
REMARK minimizedRMSD -1
REMARK  0 active torsions:
REMARK  status: ('A' for Active; 'I' for Inactive)
ROOT
ATOM      1  C4' PXY d   1      -1.894   1.446   4.159  0.00  0.00     0.077 C 
ATOM      2  C1' PXY d   1       1.488  -2.945   2.516  0.00  0.00     0.077 C 
ATOM      3  C1  PXY d   1       0.604  -1.796   2.959  0.00  0.00    -0.082 A 
ATOM      4  C2  PXY d   1      -0.391  -1.399   2.183  0.00  0.00     0.003 A 
ATOM      5  C3  PXY d   1      -1.180  -0.341   2.554  0.00  0.00     0.003 A 
ATOM      6  C4  PXY d   1      -0.982   0.284   3.756  0.00  0.00    -0.082 A 
ATOM      7  C5  PXY d   1       0.025  -0.122   4.558  0.00  0.00     0.003 A 
ATOM      8  C6  PXY d   1       0.841  -1.172   4.145  0.00  0.00     0.003 A 
ENDROOT
TORSDOF 0
ENDMDL
