MODEL 1
REMARK minimizedAffinity 2.65323305
REMARK minimizedRMSD -1
REMARK  0 active torsions:
REMARK  status: ('A' for Active; 'I' for Inactive)
ROOT
ATOM      1  C4' PXY d   1       3.321  -0.912  -0.486  0.00  0.00     0.077 C 
ATOM      2  C1' PXY d   1       5.999  -6.000  -1.083  0.00  0.00     0.077 C 
ATOM      3  C1  PXY d   1       5.309  -4.660  -0.925  0.00  0.00    -0.082 A 
ATOM      4  C2  PXY d   1       4.043  -4.617  -0.540  0.00  0.00     0.003 A 
ATOM      5  C3  PXY d   1       3.394  -3.416  -0.422  0.00  0.00     0.003 A 
ATOM      6  C4  PXY d   1       4.062  -2.242  -0.650  0.00  0.00    -0.082 A 
ATOM      7  C5  PXY d   1       5.356  -2.277  -1.032  0.00  0.00     0.003 A 
ATOM      8  C6  PXY d   1       5.985  -3.509  -1.186  0.00  0.00     0.003 A 
ENDROOT
TORSDOF 0
ENDMDL
