MODEL 1
REMARK minimizedAffinity 6.78893518
REMARK minimizedRMSD -1
REMARK  0 active torsions:
REMARK  status: ('A' for Active; 'I' for Inactive)
ROOT
ATOM      1  C4' PXY d   1      -0.848  -0.068   2.930  0.00  0.00     0.077 C 
ATOM      2  C1' PXY d   1      -5.657   1.921   5.447  0.00  0.00     0.077 C 
ATOM      3  C1  PXY d   1      -4.389   1.406   4.795  0.00  0.00    -0.082 A 
ATOM      4  C2  PXY d   1      -4.423   0.982   3.542  0.00  0.00     0.003 A 
ATOM      5  C3  PXY d   1      -3.292   0.483   2.948  0.00  0.00     0.003 A 
ATOM      6  C4  PXY d   1      -2.102   0.469   3.625  0.00  0.00    -0.082 A 
ATOM      7  C5  PXY d   1      -2.057   0.910   4.900  0.00  0.00     0.003 A 
ATOM      8  C6  PXY d   1      -3.225   1.374   5.499  0.00  0.00     0.003 A 
ENDROOT
TORSDOF 0
ENDMDL
