MODEL 1
REMARK minimizedAffinity 13.1624718
REMARK minimizedRMSD -1
REMARK  0 active torsions:
REMARK  status: ('A' for Active; 'I' for Inactive)
ROOT
ATOM      1  C4' PXY d   1      -4.546  -0.026   0.772  0.00  0.00     0.077 C 
ATOM      2  C1' PXY d   1       0.742  -1.227   2.774  0.00  0.00     0.077 C 
ATOM      3  C1  PXY d   1      -0.647  -0.905   2.260  0.00  0.00    -0.082 A 
ATOM      4  C2  PXY d   1      -1.236  -1.727   1.407  0.00  0.00     0.003 A 
ATOM      5  C3  PXY d   1      -2.479  -1.435   0.907  0.00  0.00     0.003 A 
ATOM      6  C4  PXY d   1      -3.148  -0.316   1.325  0.00  0.00    -0.082 A 
ATOM      7  C5  PXY d   1      -2.558   0.523   2.203  0.00  0.00     0.003 A 
ATOM      8  C6  PXY d   1      -1.279   0.229   2.667  0.00  0.00     0.003 A 
ENDROOT
TORSDOF 0
ENDMDL
