MODEL 1
REMARK minimizedAffinity 6.95733404
REMARK minimizedRMSD -1
REMARK  0 active torsions:
REMARK  status: ('A' for Active; 'I' for Inactive)
ROOT
ATOM      1  C4' PXY d   1      -6.000  -0.751  -5.389  0.00  0.00     0.077 C 
ATOM      2  C1' PXY d   1      -5.973  -0.381   0.379  0.00  0.00     0.077 C 
ATOM      3  C1  PXY d   1      -5.985  -0.466  -1.134  0.00  0.00    -0.082 A 
ATOM      4  C2  PXY d   1      -5.993  -1.651  -1.723  0.00  0.00     0.003 A 
ATOM      5  C3  PXY d   1      -5.972  -1.747  -3.090  0.00  0.00     0.003 A 
ATOM      6  C4  PXY d   1      -5.997  -0.617  -3.864  0.00  0.00    -0.082 A 
ATOM      7  C5  PXY d   1      -5.999   0.595  -3.271  0.00  0.00     0.003 A 
ATOM      8  C6  PXY d   1      -5.979   0.671  -1.882  0.00  0.00     0.003 A 
ENDROOT
TORSDOF 0
ENDMDL
