MODEL 1
REMARK minimizedAffinity 14.9996452
REMARK minimizedRMSD -1
REMARK  0 active torsions:
REMARK  status: ('A' for Active; 'I' for Inactive)
ROOT
ATOM      1  C4' PXY d   1       4.492   5.998  -1.425  0.00  0.00     0.077 C 
ATOM      2  C1' PXY d   1      -0.227   3.109  -3.098  0.00  0.00     0.077 C 
ATOM      3  C1  PXY d   1       1.017   3.855  -2.658  0.00  0.00    -0.082 A 
ATOM      4  C2  PXY d   1       0.904   5.067  -2.138  0.00  0.00     0.003 A 
ATOM      5  C3  PXY d   1       2.021   5.769  -1.765  0.00  0.00     0.003 A 
ATOM      6  C4  PXY d   1       3.263   5.204  -1.875  0.00  0.00    -0.082 A 
ATOM      7  C5  PXY d   1       3.386   3.964  -2.394  0.00  0.00     0.003 A 
ATOM      8  C6  PXY d   1       2.243   3.284  -2.806  0.00  0.00     0.003 A 
ENDROOT
TORSDOF 0
ENDMDL
