MODEL 1
REMARK minimizedAffinity 13.8783197
REMARK minimizedRMSD -1
REMARK  0 active torsions:
REMARK  status: ('A' for Active; 'I' for Inactive)
ROOT
ATOM      1  C4' PXY d   1      -1.881   5.251  -4.505  0.00  0.00     0.077 C 
ATOM      2  C1' PXY d   1       1.724   1.934  -1.437  0.00  0.00     0.077 C 
ATOM      3  C1  PXY d   1       0.775   2.810  -2.230  0.00  0.00    -0.082 A 
ATOM      4  C2  PXY d   1       0.364   2.415  -3.425  0.00  0.00     0.003 A 
ATOM      5  C3  PXY d   1      -0.469   3.209  -4.169  0.00  0.00     0.003 A 
ATOM      6  C4  PXY d   1      -0.930   4.395  -3.664  0.00  0.00    -0.082 A 
ATOM      7  C5  PXY d   1      -0.524   4.800  -2.442  0.00  0.00     0.003 A 
ATOM      8  C6  PXY d   1       0.355   3.999  -1.719  0.00  0.00     0.003 A 
ENDROOT
TORSDOF 0
ENDMDL
