MODEL 1
REMARK minimizedAffinity 21.3044205
REMARK minimizedRMSD -1
REMARK  0 active torsions:
REMARK  status: ('A' for Active; 'I' for Inactive)
ROOT
ATOM      1  C4' PXY d   1      -5.678   3.171  -0.455  0.00  0.00     0.077 C 
ATOM      2  C1' PXY d   1      -5.583  -1.753  -3.481  0.00  0.00     0.077 C 
ATOM      3  C1  PXY d   1      -5.609  -0.469  -2.676  0.00  0.00    -0.082 A 
ATOM      4  C2  PXY d   1      -6.000   0.656  -3.253  0.00  0.00     0.003 A 
ATOM      5  C3  PXY d   1      -5.999   1.833  -2.549  0.00  0.00     0.003 A 
ATOM      6  C4  PXY d   1      -5.645   1.849  -1.226  0.00  0.00    -0.082 A 
ATOM      7  C5  PXY d   1      -5.255   0.703  -0.628  0.00  0.00     0.003 A 
ATOM      8  C6  PXY d   1      -5.224  -0.473  -1.372  0.00  0.00     0.003 A 
ENDROOT
TORSDOF 0
ENDMDL
