MODEL 1
REMARK minimizedAffinity 9.95545959
REMARK minimizedRMSD -1
REMARK  0 active torsions:
REMARK  status: ('A' for Active; 'I' for Inactive)
ROOT
ATOM      1  C4' PXY d   1      -1.341   5.180  -4.317  0.00  0.00     0.077 C 
ATOM      2  C1' PXY d   1       2.450   2.032  -1.294  0.00  0.00     0.077 C 
ATOM      3  C1  PXY d   1       1.457   2.867  -2.078  0.00  0.00    -0.082 A 
ATOM      4  C2  PXY d   1       0.607   2.273  -2.900  0.00  0.00     0.003 A 
ATOM      5  C3  PXY d   1      -0.277   3.015  -3.640  0.00  0.00     0.003 A 
ATOM      6  C4  PXY d   1      -0.327   4.376  -3.498  0.00  0.00    -0.082 A 
ATOM      7  C5  PXY d   1       0.529   4.989  -2.654  0.00  0.00     0.003 A 
ATOM      8  C6  PXY d   1       1.446   4.221  -1.942  0.00  0.00     0.003 A 
ENDROOT
TORSDOF 0
ENDMDL
