MODEL 1
REMARK minimizedAffinity 14.9397106
REMARK minimizedRMSD -1
REMARK  0 active torsions:
REMARK  status: ('A' for Active; 'I' for Inactive)
ROOT
ATOM      1  C4' PXY d   1       1.041  -4.111   0.765  0.00  0.00     0.077 C 
ATOM      2  C1' PXY d   1      -2.136   0.301   2.727  0.00  0.00     0.077 C 
ATOM      3  C1  PXY d   1      -1.313  -0.864   2.213  0.00  0.00    -0.082 A 
ATOM      4  C2  PXY d   1      -0.000  -0.860   2.378  0.00  0.00     0.003 A 
ATOM      5  C3  PXY d   1       0.762  -1.890   1.891  0.00  0.00     0.003 A 
ATOM      6  C4  PXY d   1       0.170  -2.961   1.276  0.00  0.00    -0.082 A 
ATOM      7  C5  PXY d   1      -1.170  -2.977   1.114  0.00  0.00     0.003 A 
ATOM      8  C6  PXY d   1      -1.922  -1.902   1.579  0.00  0.00     0.003 A 
ENDROOT
TORSDOF 0
ENDMDL
