MODEL 1
REMARK minimizedAffinity 13.320981
REMARK minimizedRMSD -1
REMARK  0 active torsions:
REMARK  status: ('A' for Active; 'I' for Inactive)
ROOT
ATOM      1  C4' PXY d   1       5.689   5.744  -1.347  0.00  0.00     0.077 C 
ATOM      2  C1' PXY d   1       3.753   2.913  -6.000  0.00  0.00     0.077 C 
ATOM      3  C1  PXY d   1       4.273   3.654  -4.784  0.00  0.00    -0.082 A 
ATOM      4  C2  PXY d   1       3.580   3.630  -3.657  0.00  0.00     0.003 A 
ATOM      5  C3  PXY d   1       4.019   4.322  -2.558  0.00  0.00     0.003 A 
ATOM      6  C4  PXY d   1       5.207   5.002  -2.596  0.00  0.00    -0.082 A 
ATOM      7  C5  PXY d   1       5.926   5.022  -3.739  0.00  0.00     0.003 A 
ATOM      8  C6  PXY d   1       5.442   4.348  -4.856  0.00  0.00     0.003 A 
ENDROOT
TORSDOF 0
ENDMDL
