MODEL 1
REMARK minimizedAffinity 13.8849564
REMARK minimizedRMSD -1
REMARK  0 active torsions:
REMARK  status: ('A' for Active; 'I' for Inactive)
ROOT
ATOM      1  C4' PXY d   1       5.928   4.959  -0.765  0.00  0.00     0.077 C 
ATOM      2  C1' PXY d   1       3.755   3.236  -5.837  0.00  0.00     0.077 C 
ATOM      3  C1  PXY d   1       4.337   3.689  -4.512  0.00  0.00    -0.082 A 
ATOM      4  C2  PXY d   1       3.742   3.340  -3.383  0.00  0.00     0.003 A 
ATOM      5  C3  PXY d   1       4.236   3.767  -2.178  0.00  0.00     0.003 A 
ATOM      6  C4  PXY d   1       5.381   4.516  -2.125  0.00  0.00    -0.082 A 
ATOM      7  C5  PXY d   1       6.000   4.868  -3.272  0.00  0.00     0.003 A 
ATOM      8  C6  PXY d   1       5.459   4.458  -4.487  0.00  0.00     0.003 A 
ENDROOT
TORSDOF 0
ENDMDL
