MODEL 1
REMARK minimizedAffinity 6.97886372
REMARK minimizedRMSD -1
REMARK  0 active torsions:
REMARK  status: ('A' for Active; 'I' for Inactive)
ROOT
ATOM      1  C4' PXY d   1       4.123   2.989  -5.997  0.00  0.00     0.077 C 
ATOM      2  C1' PXY d   1       5.613   5.203  -0.870  0.00  0.00     0.077 C 
ATOM      3  C1  PXY d   1       5.215   4.613  -2.209  0.00  0.00    -0.082 A 
ATOM      4  C2  PXY d   1       5.999   4.789  -3.260  0.00  0.00     0.003 A 
ATOM      5  C3  PXY d   1       5.638   4.290  -4.485  0.00  0.00     0.003 A 
ATOM      6  C4  PXY d   1       4.490   3.558  -4.624  0.00  0.00    -0.082 A 
ATOM      7  C5  PXY d   1       3.690   3.365  -3.554  0.00  0.00     0.003 A 
ATOM      8  C6  PXY d   1       4.053   3.915  -2.328  0.00  0.00     0.003 A 
ENDROOT
TORSDOF 0
ENDMDL
