MODEL 1
REMARK minimizedAffinity 10.9990749
REMARK minimizedRMSD -1
REMARK  0 active torsions:
REMARK  status: ('A' for Active; 'I' for Inactive)
ROOT
ATOM      1  C4' PXY d   1       4.810   5.257  -1.566  0.00  0.00     0.077 C 
ATOM      2  C1' PXY d   1       0.149   2.288  -3.261  0.00  0.00     0.077 C 
ATOM      3  C1  PXY d   1       1.365   3.078  -2.818  0.00  0.00    -0.082 A 
ATOM      4  C2  PXY d   1       2.573   2.565  -2.982  0.00  0.00     0.003 A 
ATOM      5  C3  PXY d   1       3.681   3.252  -2.557  0.00  0.00     0.003 A 
ATOM      6  C4  PXY d   1       3.555   4.499  -2.007  0.00  0.00    -0.082 A 
ATOM      7  C5  PXY d   1       2.326   5.034  -1.846  0.00  0.00     0.003 A 
ATOM      8  C6  PXY d   1       1.211   4.303  -2.246  0.00  0.00     0.003 A 
ENDROOT
TORSDOF 0
ENDMDL
