MODEL 1
REMARK minimizedAffinity 8.91536331
REMARK minimizedRMSD -1
REMARK  0 active torsions:
REMARK  status: ('A' for Active; 'I' for Inactive)
ROOT
ATOM      1  C4' PXY d   1       4.596   4.525  -2.256  0.00  0.00     0.077 C 
ATOM      2  C1' PXY d   1      -1.121   4.273  -3.077  0.00  0.00     0.077 C 
ATOM      3  C1  PXY d   1       0.379   4.326  -2.860  0.00  0.00    -0.082 A 
ATOM      4  C2  PXY d   1       0.940   5.449  -2.442  0.00  0.00     0.003 A 
ATOM      5  C3  PXY d   1       2.298   5.524  -2.272  0.00  0.00     0.003 A 
ATOM      6  C4  PXY d   1       3.084   4.423  -2.480  0.00  0.00    -0.082 A 
ATOM      7  C5  PXY d   1       2.518   3.270  -2.896  0.00  0.00     0.003 A 
ATOM      8  C6  PXY d   1       1.142   3.227  -3.103  0.00  0.00     0.003 A 
ENDROOT
TORSDOF 0
ENDMDL
