MODEL 1
REMARK minimizedAffinity 4.13949728
REMARK minimizedRMSD -1
REMARK  0 active torsions:
REMARK  status: ('A' for Active; 'I' for Inactive)
ROOT
ATOM      1  C4' PXY d   1      -3.504   2.151   6.000  0.00  0.00     0.077 C 
ATOM      2  C1' PXY d   1      -0.761  -1.684   2.656  0.00  0.00     0.077 C 
ATOM      3  C1  PXY d   1      -1.479  -0.686   3.543  0.00  0.00    -0.082 A 
ATOM      4  C2  PXY d   1      -2.356   0.150   3.011  0.00  0.00     0.003 A 
ATOM      5  C3  PXY d   1      -2.990   1.080   3.794  0.00  0.00     0.003 A 
ATOM      6  C4  PXY d   1      -2.764   1.120   5.144  0.00  0.00    -0.082 A 
ATOM      7  C5  PXY d   1      -1.878   0.264   5.695  0.00  0.00     0.003 A 
ATOM      8  C6  PXY d   1      -1.214  -0.646   4.877  0.00  0.00     0.003 A 
ENDROOT
TORSDOF 0
ENDMDL
