MODEL 1
REMARK minimizedAffinity 9.28390408
REMARK minimizedRMSD -1
REMARK  0 active torsions:
REMARK  status: ('A' for Active; 'I' for Inactive)
ROOT
ATOM      1  C4' PXY d   1      -5.999  -1.126  -3.889  0.00  0.00     0.077 C 
ATOM      2  C1' PXY d   1      -5.395   1.234   1.353  0.00  0.00     0.077 C 
ATOM      3  C1  PXY d   1      -5.559   0.626  -0.025  0.00  0.00    -0.082 A 
ATOM      4  C2  PXY d   1      -5.555  -0.689  -0.165  0.00  0.00     0.003 A 
ATOM      5  C3  PXY d   1      -5.671  -1.256  -1.408  0.00  0.00     0.003 A 
ATOM      6  C4  PXY d   1      -5.846  -0.468  -2.515  0.00  0.00    -0.082 A 
ATOM      7  C5  PXY d   1      -5.862   0.875  -2.379  0.00  0.00     0.003 A 
ATOM      8  C6  PXY d   1      -5.702   1.431  -1.113  0.00  0.00     0.003 A 
ENDROOT
TORSDOF 0
ENDMDL
