MODEL 1
REMARK minimizedAffinity -3.39878559
REMARK minimizedRMSD -1
REMARK  0 active torsions:
REMARK  status: ('A' for Active; 'I' for Inactive)
ROOT
ATOM      1  N1  IND d   1       1.176  -1.969  -3.504  0.00  0.00    -0.196 N 
ATOM      2  C2  IND d   1       2.316  -1.223  -3.388  0.00  0.00     0.054 A 
ATOM      3  C3  IND d   1       2.101  -0.156  -2.587  0.00  0.00    -0.031 A 
ATOM      4  C4  IND d   1      -0.014   0.506  -1.277  0.00  0.00     0.051 A 
ATOM      5  C5  IND d   1      -1.322   0.154  -1.094  0.00  0.00    -0.031 A 
ATOM      6  C6  IND d   1      -1.874  -0.947  -1.715  0.00  0.00     0.015 A 
ATOM      7  C7  IND d   1      -1.133  -1.748  -2.537  0.00  0.00    -0.016 A 
ATOM      8  C8  IND d   1       0.193  -1.389  -2.731  0.00  0.00    -0.047 A 
ATOM      9  C9  IND d   1       0.748  -0.248  -2.137  0.00  0.00    -0.096 A 
ATOM     10  HN1 IND d   1       1.088  -2.680  -3.979  0.00  0.00     0.298 HD
ENDROOT
TORSDOF 0
ENDMDL
