MODEL 1
REMARK minimizedAffinity -2.60556006
REMARK minimizedRMSD -1
REMARK  0 active torsions:
REMARK  status: ('A' for Active; 'I' for Inactive)
ROOT
ATOM      1  N1  IND d   1      -0.745  -1.892  -2.833  0.00  0.00    -0.196 N 
ATOM      2  C2  IND d   1       0.471  -2.001  -3.447  0.00  0.00     0.054 A 
ATOM      3  C3  IND d   1       1.366  -1.167  -2.871  0.00  0.00    -0.031 A 
ATOM      4  C4  IND d   1       1.077   0.391  -0.842  0.00  0.00     0.051 A 
ATOM      5  C5  IND d   1       0.136   0.860   0.031  0.00  0.00    -0.031 A 
ATOM      6  C6  IND d   1      -1.173   0.424  -0.005  0.00  0.00     0.015 A 
ATOM      7  C7  IND d   1      -1.588  -0.509  -0.912  0.00  0.00    -0.016 A 
ATOM      8  C8  IND d   1      -0.637  -0.982  -1.805  0.00  0.00    -0.047 A 
ATOM      9  C9  IND d   1       0.683  -0.512  -1.800  0.00  0.00    -0.096 A 
ATOM     10  HN1 IND d   1      -1.458  -2.321  -3.052  0.00  0.00     0.298 HD
ENDROOT
TORSDOF 0
ENDMDL
