MODEL 1
REMARK minimizedAffinity -4.1697278
REMARK minimizedRMSD -1
REMARK  0 active torsions:
REMARK  status: ('A' for Active; 'I' for Inactive)
ROOT
ATOM      1  N1  IND d   1      -0.606   0.290  -0.643  0.00  0.00    -0.196 N 
ATOM      2  C2  IND d   1      -1.815  -0.307  -0.867  0.00  0.00     0.054 A 
ATOM      3  C3  IND d   1      -2.226  -0.966   0.240  0.00  0.00    -0.031 A 
ATOM      4  C4  IND d   1      -1.122  -1.113   2.561  0.00  0.00     0.051 A 
ATOM      5  C5  IND d   1       0.011  -0.760   3.239  0.00  0.00    -0.031 A 
ATOM      6  C6  IND d   1       1.015  -0.022   2.647  0.00  0.00     0.015 A 
ATOM      7  C7  IND d   1       0.918   0.403   1.352  0.00  0.00    -0.016 A 
ATOM      8  C8  IND d   1      -0.228   0.040   0.658  0.00  0.00    -0.047 A 
ATOM      9  C9  IND d   1      -1.231  -0.745   1.241  0.00  0.00    -0.096 A 
ATOM     10  HN1 IND d   1      -0.157   0.746  -1.218  0.00  0.00     0.298 HD
ENDROOT
TORSDOF 0
ENDMDL
