MODEL 1
REMARK minimizedAffinity -6.6298213
REMARK minimizedRMSD -1
REMARK  0 active torsions:
REMARK  status: ('A' for Active; 'I' for Inactive)
ROOT
ATOM      1  N1  IND d   1       0.277  -0.586   1.314  0.00  0.00    -0.196 N 
ATOM      2  C2  IND d   1       0.105  -0.721   2.663  0.00  0.00     0.054 A 
ATOM      3  C3  IND d   1      -1.181  -0.474   3.000  0.00  0.00    -0.031 A 
ATOM      4  C4  IND d   1      -3.192   0.070   1.488  0.00  0.00     0.051 A 
ATOM      5  C5  IND d   1      -3.522   0.335   0.188  0.00  0.00    -0.031 A 
ATOM      6  C6  IND d   1      -2.584   0.304  -0.823  0.00  0.00     0.015 A 
ATOM      7  C7  IND d   1      -1.278  -0.007  -0.573  0.00  0.00    -0.016 A 
ATOM      8  C8  IND d   1      -0.937  -0.270   0.746  0.00  0.00    -0.047 A 
ATOM      9  C9  IND d   1      -1.876  -0.198   1.783  0.00  0.00    -0.096 A 
ATOM     10  HN1 IND d   1       1.020  -0.682   0.891  0.00  0.00     0.298 HD
ENDROOT
TORSDOF 0
ENDMDL
