MODEL 1
REMARK minimizedAffinity -4.63123083
REMARK minimizedRMSD -1
REMARK  0 active torsions:
REMARK  status: ('A' for Active; 'I' for Inactive)
ROOT
ATOM      1  N1  IND d   1      -0.960   0.671  -0.500  0.00  0.00    -0.196 N 
ATOM      2  C2  IND d   1       0.398   0.814  -0.568  0.00  0.00     0.054 A 
ATOM      3  C3  IND d   1       0.959   0.550   0.633  0.00  0.00    -0.031 A 
ATOM      4  C4  IND d   1      -0.150  -0.233   2.821  0.00  0.00     0.051 A 
ATOM      5  C5  IND d   1      -1.372  -0.470   3.384  0.00  0.00    -0.031 A 
ATOM      6  C6  IND d   1      -2.543  -0.339   2.666  0.00  0.00     0.015 A 
ATOM      7  C7  IND d   1      -2.535   0.025   1.349  0.00  0.00    -0.016 A 
ATOM      8  C8  IND d   1      -1.296   0.274   0.776  0.00  0.00    -0.047 A 
ATOM      9  C9  IND d   1      -0.107   0.184   1.511  0.00  0.00    -0.096 A 
ATOM     10  HN1 IND d   1      -1.512   0.807  -1.145  0.00  0.00     0.298 HD
ENDROOT
TORSDOF 0
ENDMDL
