MODEL 1
REMARK minimizedAffinity -6.33159971
REMARK minimizedRMSD -1
REMARK  0 active torsions:
REMARK  status: ('A' for Active; 'I' for Inactive)
ROOT
ATOM      1  N1  IND d   1       0.751  -0.084   0.373  0.00  0.00    -0.196 N 
ATOM      2  C2  IND d   1       0.427  -0.019  -0.953  0.00  0.00     0.054 A 
ATOM      3  C3  IND d   1      -0.914   0.048  -1.107  0.00  0.00    -0.031 A 
ATOM      4  C4  IND d   1      -2.762   0.167   0.681  0.00  0.00     0.051 A 
ATOM      5  C5  IND d   1      -2.959   0.102   2.032  0.00  0.00    -0.031 A 
ATOM      6  C6  IND d   1      -1.909  -0.027   2.917  0.00  0.00     0.015 A 
ATOM      7  C7  IND d   1      -0.615  -0.086   2.483  0.00  0.00    -0.016 A 
ATOM      8  C8  IND d   1      -0.411  -0.028   1.111  0.00  0.00    -0.047 A 
ATOM      9  C9  IND d   1      -1.476   0.061   0.206  0.00  0.00    -0.096 A 
ATOM     10  HN1 IND d   1       1.546  -0.148   0.693  0.00  0.00     0.298 HD
ENDROOT
TORSDOF 0
ENDMDL
