MODEL 1
REMARK minimizedAffinity -6.61127758
REMARK minimizedRMSD -1
REMARK  0 active torsions:
REMARK  status: ('A' for Active; 'I' for Inactive)
ROOT
ATOM      1  N1  IND d   1       0.355  -0.046  -0.683  0.00  0.00    -0.196 N 
ATOM      2  C2  IND d   1      -0.317   0.230  -1.841  0.00  0.00     0.054 A 
ATOM      3  C3  IND d   1      -1.640   0.361  -1.597  0.00  0.00    -0.031 A 
ATOM      4  C4  IND d   1      -2.909   0.262   0.641  0.00  0.00     0.051 A 
ATOM      5  C5  IND d   1      -2.730  -0.002   1.970  0.00  0.00    -0.031 A 
ATOM      6  C6  IND d   1      -1.488  -0.297   2.494  0.00  0.00     0.015 A 
ATOM      7  C7  IND d   1      -0.372  -0.329   1.706  0.00  0.00    -0.016 A 
ATOM      8  C8  IND d   1      -0.551  -0.069   0.355  0.00  0.00    -0.047 A 
ATOM      9  C9  IND d   1      -1.815   0.190  -0.189  0.00  0.00    -0.096 A 
ATOM     10  HN1 IND d   1       1.201  -0.184  -0.614  0.00  0.00     0.298 HD
ENDROOT
TORSDOF 0
ENDMDL
