MODEL 1
REMARK minimizedAffinity -3.27596879
REMARK minimizedRMSD -1
REMARK  0 active torsions:
REMARK  status: ('A' for Active; 'I' for Inactive)
ROOT
ATOM      1  N1  IND d   1      -0.076   0.681  -0.449  0.00  0.00    -0.196 N 
ATOM      2  C2  IND d   1      -1.386   0.488  -0.111  0.00  0.00     0.054 A 
ATOM      3  C3  IND d   1      -1.981  -0.344  -0.995  0.00  0.00    -0.031 A 
ATOM      4  C4  IND d   1      -0.970  -1.585  -3.011  0.00  0.00     0.051 A 
ATOM      5  C5  IND d   1       0.181  -1.697  -3.740  0.00  0.00    -0.031 A 
ATOM      6  C6  IND d   1       1.329  -1.010  -3.401  0.00  0.00     0.015 A 
ATOM      7  C7  IND d   1       1.372  -0.191  -2.309  0.00  0.00    -0.016 A 
ATOM      8  C8  IND d   1       0.204  -0.069  -1.570  0.00  0.00    -0.047 A 
ATOM      9  C9  IND d   1      -0.976  -0.730  -1.934  0.00  0.00    -0.096 A 
ATOM     10  HN1 IND d   1       0.481   1.187  -0.032  0.00  0.00     0.298 HD
ENDROOT
TORSDOF 0
ENDMDL
