MODEL 1
REMARK minimizedAffinity -6.90384626
REMARK minimizedRMSD -1
REMARK  0 active torsions:
REMARK  status: ('A' for Active; 'I' for Inactive)
ROOT
ATOM      1  N1  IND d   1      -1.176   0.281  -0.480  0.00  0.00    -0.196 N 
ATOM      2  C2  IND d   1       0.179   0.098  -0.484  0.00  0.00     0.054 A 
ATOM      3  C3  IND d   1       0.611  -0.243   0.751  0.00  0.00    -0.031 A 
ATOM      4  C4  IND d   1      -0.742  -0.657   2.901  0.00  0.00     0.051 A 
ATOM      5  C5  IND d   1      -2.009  -0.579   3.409  0.00  0.00    -0.031 A 
ATOM      6  C6  IND d   1      -3.085  -0.205   2.630  0.00  0.00     0.015 A 
ATOM      7  C7  IND d   1      -2.935   0.094   1.305  0.00  0.00    -0.016 A 
ATOM      8  C8  IND d   1      -1.649   0.023   0.788  0.00  0.00    -0.047 A 
ATOM      9  C9  IND d   1      -0.547  -0.314   1.584  0.00  0.00    -0.096 A 
ATOM     10  HN1 IND d   1      -1.653   0.517  -1.155  0.00  0.00     0.298 HD
ENDROOT
TORSDOF 0
ENDMDL
