MODEL 1
REMARK minimizedAffinity -2.19227338
REMARK minimizedRMSD -1
REMARK  0 active torsions:
REMARK  status: ('A' for Active; 'I' for Inactive)
ROOT
ATOM      1  N1  IND d   1      -1.201  -0.283  -1.196  0.00  0.00    -0.196 N 
ATOM      2  C2  IND d   1      -2.052  -1.246  -1.663  0.00  0.00     0.054 A 
ATOM      3  C3  IND d   1      -1.510  -1.875  -2.730  0.00  0.00    -0.031 A 
ATOM      4  C4  IND d   1       0.802  -1.558  -3.815  0.00  0.00     0.051 A 
ATOM      5  C5  IND d   1       1.919  -0.772  -3.761  0.00  0.00    -0.031 A 
ATOM      6  C6  IND d   1       2.057   0.236  -2.828  0.00  0.00     0.015 A 
ATOM      7  C7  IND d   1       1.083   0.489  -1.904  0.00  0.00    -0.016 A 
ATOM      8  C8  IND d   1      -0.055  -0.303  -1.960  0.00  0.00    -0.047 A 
ATOM      9  C9  IND d   1      -0.219  -1.300  -2.931  0.00  0.00    -0.096 A 
ATOM     10  HN1 IND d   1      -1.356   0.245  -0.536  0.00  0.00     0.298 HD
ENDROOT
TORSDOF 0
ENDMDL
