MODEL 1
REMARK minimizedAffinity -1.80387998
REMARK minimizedRMSD -1
REMARK  0 active torsions:
REMARK  status: ('A' for Active; 'I' for Inactive)
ROOT
ATOM      1  N1  IND d   1      -1.545   0.381   0.058  0.00  0.00    -0.196 N 
ATOM      2  C2  IND d   1      -1.072   0.366  -1.225  0.00  0.00     0.054 A 
ATOM      3  C3  IND d   1       0.278   0.292  -1.228  0.00  0.00    -0.031 A 
ATOM      4  C4  IND d   1       1.909   0.083   0.752  0.00  0.00     0.051 A 
ATOM      5  C5  IND d   1       1.951   0.091   2.118  0.00  0.00    -0.031 A 
ATOM      6  C6  IND d   1       0.807   0.196   2.883  0.00  0.00     0.015 A 
ATOM      7  C7  IND d   1      -0.428   0.285   2.307  0.00  0.00    -0.016 A 
ATOM      8  C8  IND d   1      -0.475   0.284   0.920  0.00  0.00    -0.047 A 
ATOM      9  C9  IND d   1       0.686   0.221   0.139  0.00  0.00    -0.096 A 
ATOM     10  HN1 IND d   1      -2.371   0.441   0.288  0.00  0.00     0.298 HD
ENDROOT
TORSDOF 0
ENDMDL
