MODEL 1
REMARK minimizedAffinity -3.58985662
REMARK minimizedRMSD -1
REMARK  0 active torsions:
REMARK  status: ('A' for Active; 'I' for Inactive)
ROOT
ATOM      1  N1  IND d   1       0.928  -1.660  -3.567  0.00  0.00    -0.196 N 
ATOM      2  C2  IND d   1       2.058  -0.901  -3.694  0.00  0.00     0.054 A 
ATOM      3  C3  IND d   1       2.028   0.135  -2.826  0.00  0.00    -0.031 A 
ATOM      4  C4  IND d   1       0.273   0.720  -1.036  0.00  0.00     0.051 A 
ATOM      5  C5  IND d   1      -0.954   0.342  -0.566  0.00  0.00    -0.031 A 
ATOM      6  C6  IND d   1      -1.628  -0.746  -1.081  0.00  0.00     0.015 A 
ATOM      7  C7  IND d   1      -1.094  -1.507  -2.082  0.00  0.00    -0.016 A 
ATOM      8  C8  IND d   1       0.148  -1.122  -2.566  0.00  0.00    -0.047 A 
ATOM      9  C9  IND d   1       0.818   0.007  -2.077  0.00  0.00    -0.096 A 
ATOM     10  HN1 IND d   1       0.736  -2.356  -4.034  0.00  0.00     0.298 HD
ENDROOT
TORSDOF 0
ENDMDL
