MODEL 1
REMARK minimizedAffinity -4.72611284
REMARK minimizedRMSD -1
REMARK  0 active torsions:
REMARK  status: ('A' for Active; 'I' for Inactive)
ROOT
ATOM      1  N1  IND d   1      -0.964  -2.017  -3.030  0.00  0.00    -0.196 N 
ATOM      2  C2  IND d   1       0.263  -2.078  -3.629  0.00  0.00     0.054 A 
ATOM      3  C3  IND d   1       1.111  -1.195  -3.055  0.00  0.00    -0.031 A 
ATOM      4  C4  IND d   1       0.726   0.377  -1.053  0.00  0.00     0.051 A 
ATOM      5  C5  IND d   1      -0.246   0.814  -0.198  0.00  0.00    -0.031 A 
ATOM      6  C6  IND d   1      -1.533   0.318  -0.242  0.00  0.00     0.015 A 
ATOM      7  C7  IND d   1      -1.894  -0.647  -1.140  0.00  0.00    -0.016 A 
ATOM      8  C8  IND d   1      -0.911  -1.088  -2.015  0.00  0.00    -0.047 A 
ATOM      9  C9  IND d   1       0.385  -0.557  -2.002  0.00  0.00    -0.096 A 
ATOM     10  HN1 IND d   1      -1.654  -2.481  -3.251  0.00  0.00     0.298 HD
ENDROOT
TORSDOF 0
ENDMDL
