MODEL 1
REMARK minimizedAffinity -4.49414968
REMARK minimizedRMSD -1
REMARK  0 active torsions:
REMARK  status: ('A' for Active; 'I' for Inactive)
ROOT
ATOM      1  N1  IND d   1      -0.176  -1.637  -2.951  0.00  0.00    -0.196 N 
ATOM      2  C2  IND d   1       0.654  -1.011  -3.839  0.00  0.00     0.054 A 
ATOM      3  C3  IND d   1       1.267   0.040  -3.249  0.00  0.00    -0.031 A 
ATOM      4  C4  IND d   1       1.135   0.852  -0.810  0.00  0.00     0.051 A 
ATOM      5  C5  IND d   1       0.482   0.621   0.369  0.00  0.00    -0.031 A 
ATOM      6  C6  IND d   1      -0.440  -0.396   0.504  0.00  0.00     0.015 A 
ATOM      7  C7  IND d   1      -0.737  -1.232  -0.536  0.00  0.00    -0.016 A 
ATOM      8  C8  IND d   1      -0.081  -0.996  -1.736  0.00  0.00    -0.047 A 
ATOM      9  C9  IND d   1       0.825   0.061  -1.891  0.00  0.00    -0.096 A 
ATOM     10  HN1 IND d   1      -0.673  -2.317  -3.123  0.00  0.00     0.298 HD
ENDROOT
TORSDOF 0
ENDMDL
