MODEL 1
REMARK minimizedAffinity -0.890547514
REMARK minimizedRMSD -1
REMARK  1 active torsions:
REMARK  status: ('A' for Active; 'I' for Inactive)
REMARK    1  A    between atoms: C1_2  and  C2_3 
ROOT
ATOM      1  C2  UNL d   1       0.818   0.459   1.406  0.00  0.00    -0.081 A 
ATOM      2  C3  UNL d   1       1.446   1.679   1.684  0.00  0.00     0.006 A 
ATOM      3  C4  UNL d   1       0.927   2.538   2.656  0.00  0.00     0.002 A 
ATOM      4  C5  UNL d   1      -0.224   2.189   3.371  0.00  0.00    -0.080 A 
ATOM      5  C6  UNL d   1      -0.774   3.088   4.437  0.00  0.00     0.076 C 
ATOM      6  C7  UNL d   1      -0.861   0.978   3.081  0.00  0.00     0.002 A 
ATOM      7  C8  UNL d   1      -0.343   0.119   2.109  0.00  0.00     0.006 A 
ENDROOT
BRANCH   1   8
ATOM      8  C1  UNL d   1       1.412  -0.498   0.405  0.00  0.00     0.054 C 
ATOM      9  C   UNL d   1       2.822  -0.909   0.802  0.00  0.00     0.018 C 
ENDBRANCH   1   8
TORSDOF 1
ENDMDL
