MODEL 1
REMARK minimizedAffinity -2.97447419
REMARK minimizedRMSD -1
REMARK  1 active torsions:
REMARK  status: ('A' for Active; 'I' for Inactive)
REMARK    1  A    between atoms: C1_2  and  C2_3 
ROOT
ATOM      1  C2  UNL d   1       0.361  -0.065  -0.866  0.00  0.00    -0.081 A 
ATOM      2  C3  UNL d   1       1.384   0.612  -0.190  0.00  0.00     0.006 A 
ATOM      3  C4  UNL d   1       2.305   1.389  -0.897  0.00  0.00     0.002 A 
ATOM      4  C5  UNL d   1       2.214   1.509  -2.287  0.00  0.00    -0.080 A 
ATOM      5  C6  UNL d   1       3.178   2.364  -3.054  0.00  0.00     0.076 C 
ATOM      6  C7  UNL d   1       1.203   0.819  -2.964  0.00  0.00     0.002 A 
ATOM      7  C8  UNL d   1       0.282   0.041  -2.259  0.00  0.00     0.006 A 
ENDROOT
BRANCH   1   8
ATOM      8  C1  UNL d   1      -0.673  -0.852  -0.101  0.00  0.00     0.054 C 
ATOM      9  C   UNL d   1      -1.657   0.069   0.606  0.00  0.00     0.018 C 
ENDBRANCH   1   8
TORSDOF 1
ENDMDL
