MODEL 1
REMARK minimizedAffinity 4.68459558
REMARK minimizedRMSD -1
REMARK  1 active torsions:
REMARK  status: ('A' for Active; 'I' for Inactive)
REMARK    1  A    between atoms: C1_2  and  C2_3 
ROOT
ATOM      1  C2  UNL d   1       0.749   0.087  -0.371  0.00  0.00    -0.081 A 
ATOM      2  C3  UNL d   1       0.235   1.389  -0.333  0.00  0.00     0.006 A 
ATOM      3  C4  UNL d   1      -1.141   1.604  -0.226  0.00  0.00     0.002 A 
ATOM      4  C5  UNL d   1      -2.025   0.523  -0.148  0.00  0.00    -0.080 A 
ATOM      5  C6  UNL d   1      -3.501   0.740  -0.002  0.00  0.00     0.076 C 
ATOM      6  C7  UNL d   1      -1.513  -0.778  -0.204  0.00  0.00     0.002 A 
ATOM      7  C8  UNL d   1      -0.137  -0.994  -0.311  0.00  0.00     0.006 A 
ENDROOT
BRANCH   1   8
ATOM      8  C1  UNL d   1       2.237  -0.149  -0.421  0.00  0.00     0.054 C 
ATOM      9  C   UNL d   1       2.713  -0.941   0.789  0.00  0.00     0.018 C 
ENDBRANCH   1   8
TORSDOF 1
ENDMDL
