MODEL 1
REMARK minimizedAffinity -0.635178328
REMARK minimizedRMSD -1
REMARK  1 active torsions:
REMARK  status: ('A' for Active; 'I' for Inactive)
REMARK    1  A    between atoms: C1_2  and  C2_3 
ROOT
ATOM      1  C2  UNL d   1      -0.755  -0.048   2.085  0.00  0.00    -0.081 A 
ATOM      2  C3  UNL d   1      -1.906  -0.141   1.292  0.00  0.00     0.006 A 
ATOM      3  C4  UNL d   1      -1.819  -0.567  -0.036  0.00  0.00     0.002 A 
ATOM      4  C5  UNL d   1      -0.582  -0.915  -0.590  0.00  0.00    -0.080 A 
ATOM      5  C6  UNL d   1      -0.479  -1.403  -2.004  0.00  0.00     0.076 C 
ATOM      6  C7  UNL d   1       0.569  -0.805   0.197  0.00  0.00     0.002 A 
ATOM      7  C8  UNL d   1       0.483  -0.379   1.524  0.00  0.00     0.006 A 
ENDROOT
BRANCH   1   8
ATOM      8  C1  UNL d   1      -0.854   0.349   3.535  0.00  0.00     0.054 C 
ATOM      9  C   UNL d   1       0.372   1.134   3.979  0.00  0.00     0.018 C 
ENDBRANCH   1   8
TORSDOF 1
ENDMDL
