MODEL 1
REMARK minimizedAffinity 5.27329063
REMARK minimizedRMSD -1
REMARK  1 active torsions:
REMARK  status: ('A' for Active; 'I' for Inactive)
REMARK    1  A    between atoms: C1_2  and  C2_3 
ROOT
ATOM      1  C2  UNL d   1       0.837  -0.403   1.001  0.00  0.00    -0.081 A 
ATOM      2  C3  UNL d   1       0.420  -0.370  -0.335  0.00  0.00     0.006 A 
ATOM      3  C4  UNL d   1      -0.893  -0.023  -0.659  0.00  0.00     0.002 A 
ATOM      4  C5  UNL d   1      -1.809   0.306   0.346  0.00  0.00    -0.080 A 
ATOM      5  C6  UNL d   1      -3.214   0.710   0.010  0.00  0.00     0.076 C 
ATOM      6  C7  UNL d   1      -1.398   0.256   1.682  0.00  0.00     0.002 A 
ATOM      7  C8  UNL d   1      -0.085  -0.092   2.007  0.00  0.00     0.006 A 
ENDROOT
BRANCH   1   8
ATOM      8  C1  UNL d   1       2.270  -0.714   1.350  0.00  0.00     0.054 C 
ATOM      9  C   UNL d   1       2.496  -0.668   2.854  0.00  0.00     0.018 C 
ENDBRANCH   1   8
TORSDOF 1
ENDMDL
