MODEL 1
REMARK minimizedAffinity 2.5536201
REMARK minimizedRMSD -1
REMARK  1 active torsions:
REMARK  status: ('A' for Active; 'I' for Inactive)
REMARK    1  A    between atoms: C1_2  and  C2_3 
ROOT
ATOM      1  C2  UNL d   1      -3.688  -0.991  -0.386  0.00  0.00    -0.081 A 
ATOM      2  C3  UNL d   1      -3.447   0.278   0.155  0.00  0.00     0.006 A 
ATOM      3  C4  UNL d   1      -2.174   0.621   0.618  0.00  0.00     0.002 A 
ATOM      4  C5  UNL d   1      -1.120  -0.296   0.540  0.00  0.00    -0.080 A 
ATOM      5  C6  UNL d   1       0.258   0.070   1.005  0.00  0.00     0.076 C 
ATOM      6  C7  UNL d   1      -1.364  -1.569   0.015  0.00  0.00     0.002 A 
ATOM      7  C8  UNL d   1      -2.637  -1.913  -0.447  0.00  0.00     0.006 A 
ENDROOT
BRANCH   1   8
ATOM      8  C1  UNL d   1      -5.043  -1.341  -0.945  0.00  0.00     0.054 C 
ATOM      9  C   UNL d   1      -5.115  -2.809  -1.343  0.00  0.00     0.018 C 
ENDBRANCH   1   8
TORSDOF 1
ENDMDL
