MODEL 1
REMARK minimizedAffinity -5.5176363
REMARK minimizedRMSD -1
REMARK  1 active torsions:
REMARK  status: ('A' for Active; 'I' for Inactive)
REMARK    1  A    between atoms: C1_2  and  C2_3 
ROOT
ATOM      1  C2  UNL d   1       0.250  -0.335   0.051  0.00  0.00    -0.081 A 
ATOM      2  C3  UNL d   1       1.354  -0.367   0.911  0.00  0.00     0.006 A 
ATOM      3  C4  UNL d   1       1.265   0.168   2.198  0.00  0.00     0.002 A 
ATOM      4  C5  UNL d   1       0.069   0.737   2.649  0.00  0.00    -0.080 A 
ATOM      5  C6  UNL d   1      -0.049   1.288   4.039  0.00  0.00     0.076 C 
ATOM      6  C7  UNL d   1      -1.029   0.784   1.783  0.00  0.00     0.002 A 
ATOM      7  C8  UNL d   1      -0.940   0.250   0.496  0.00  0.00     0.006 A 
ENDROOT
BRANCH   1   8
ATOM      8  C1  UNL d   1       0.323  -0.970  -1.315  0.00  0.00     0.054 C 
ATOM      9  C   UNL d   1       0.996  -0.045  -2.319  0.00  0.00     0.018 C 
ENDBRANCH   1   8
TORSDOF 1
ENDMDL
