MODEL 1
REMARK minimizedAffinity -4.82560301
REMARK minimizedRMSD -1
REMARK  0 active torsions:
REMARK  status: ('A' for Active; 'I' for Inactive)
ROOT
ATOM      1  C4' PXY d   1      -0.431   1.741   2.408  0.00  0.00     0.077 C 
ATOM      2  C1' PXY d   1       1.279  -1.423  -2.118  0.00  0.00     0.077 C 
ATOM      3  C1  PXY d   1       0.833  -0.603  -0.923  0.00  0.00    -0.082 A 
ATOM      4  C2  PXY d   1      -0.000   0.410  -1.098  0.00  0.00     0.003 A 
ATOM      5  C3  PXY d   1      -0.389   1.181  -0.033  0.00  0.00     0.003 A 
ATOM      6  C4  PXY d   1       0.038   0.880   1.232  0.00  0.00    -0.082 A 
ATOM      7  C5  PXY d   1       0.880  -0.158   1.421  0.00  0.00     0.003 A 
ATOM      8  C6  PXY d   1       1.295  -0.904   0.321  0.00  0.00     0.003 A 
ENDROOT
TORSDOF 0
ENDMDL
