MODEL 1
REMARK minimizedAffinity -4.28997803
REMARK minimizedRMSD -1
REMARK  0 active torsions:
REMARK  status: ('A' for Active; 'I' for Inactive)
ROOT
ATOM      1  C4' PXY d   1       0.317  -1.359  -2.472  0.00  0.00     0.077 C 
ATOM      2  C1' PXY d   1      -0.883   1.608   2.342  0.00  0.00     0.077 C 
ATOM      3  C1  PXY d   1      -0.558   0.838   1.077  0.00  0.00    -0.082 A 
ATOM      4  C2  PXY d   1      -1.504   0.131   0.481  0.00  0.00     0.003 A 
ATOM      5  C3  PXY d   1      -1.220  -0.597  -0.646  0.00  0.00     0.003 A 
ATOM      6  C4  PXY d   1       0.032  -0.558  -1.198  0.00  0.00    -0.082 A 
ATOM      7  C5  PXY d   1       1.000   0.169  -0.601  0.00  0.00     0.003 A 
ATOM      8  C6  PXY d   1       0.702   0.868   0.565  0.00  0.00     0.003 A 
ENDROOT
TORSDOF 0
ENDMDL
