MODEL 1
REMARK minimizedAffinity -4.70058393
REMARK minimizedRMSD -1
REMARK  0 active torsions:
REMARK  status: ('A' for Active; 'I' for Inactive)
ROOT
ATOM      1  C4' PXY d   1      -0.912   1.548   2.885  0.00  0.00     0.077 C 
ATOM      2  C1' PXY d   1       1.059  -0.692  -2.066  0.00  0.00     0.077 C 
ATOM      3  C1  PXY d   1       0.552  -0.110  -0.761  0.00  0.00    -0.082 A 
ATOM      4  C2  PXY d   1      -0.729   0.197  -0.636  0.00  0.00     0.003 A 
ATOM      5  C3  PXY d   1      -1.198   0.754   0.526  0.00  0.00     0.003 A 
ATOM      6  C4  PXY d   1      -0.358   0.949   1.589  0.00  0.00    -0.082 A 
ATOM      7  C5  PXY d   1       0.948   0.629   1.473  0.00  0.00     0.003 A 
ATOM      8  C6  PXY d   1       1.413   0.103   0.271  0.00  0.00     0.003 A 
ENDROOT
TORSDOF 0
ENDMDL
