MODEL 1
REMARK minimizedAffinity -0.0244888924
REMARK minimizedRMSD -1
REMARK  0 active torsions:
REMARK  status: ('A' for Active; 'I' for Inactive)
ROOT
ATOM      1  C4' PXY d   1       0.367   0.567  -0.444  0.00  0.00     0.077 C 
ATOM      2  C1' PXY d   1       1.776   1.319  -5.999  0.00  0.00     0.077 C 
ATOM      3  C1  PXY d   1       1.419   1.122  -4.539  0.00  0.00    -0.082 A 
ATOM      4  C2  PXY d   1       0.251   0.591  -4.217  0.00  0.00     0.003 A 
ATOM      5  C3  PXY d   1      -0.101   0.435  -2.901  0.00  0.00     0.003 A 
ATOM      6  C4  PXY d   1       0.773   0.776  -1.905  0.00  0.00    -0.082 A 
ATOM      7  C5  PXY d   1       1.972   1.309  -2.225  0.00  0.00     0.003 A 
ATOM      8  C6  PXY d   1       2.293   1.497  -3.566  0.00  0.00     0.003 A 
ENDROOT
TORSDOF 0
ENDMDL
