MODEL 1
REMARK minimizedAffinity -5.32808733
REMARK minimizedRMSD -1
REMARK  0 active torsions:
REMARK  status: ('A' for Active; 'I' for Inactive)
ROOT
ATOM      1  C4' PXY d   1       0.447  -0.398  -2.168  0.00  0.00     0.077 C 
ATOM      2  C1' PXY d   1      -1.027   0.796   3.292  0.00  0.00     0.077 C 
ATOM      3  C1  PXY d   1      -0.628   0.482   1.864  0.00  0.00    -0.082 A 
ATOM      4  C2  PXY d   1      -1.411   0.861   0.867  0.00  0.00     0.003 A 
ATOM      5  C3  PXY d   1      -1.082   0.558  -0.429  0.00  0.00     0.003 A 
ATOM      6  C4  PXY d   1       0.089  -0.094  -0.711  0.00  0.00    -0.082 A 
ATOM      7  C5  PXY d   1       0.899  -0.475   0.299  0.00  0.00     0.003 A 
ATOM      8  C6  PXY d   1       0.526  -0.193   1.610  0.00  0.00     0.003 A 
ENDROOT
TORSDOF 0
ENDMDL
