MODEL 1
REMARK minimizedAffinity -2.15584517
REMARK minimizedRMSD -1
REMARK  0 active torsions:
REMARK  status: ('A' for Active; 'I' for Inactive)
ROOT
ATOM      1  C4' PXY d   1       0.611  -0.972  -2.065  0.00  0.00     0.077 C 
ATOM      2  C1' PXY d   1      -1.140   1.089   3.044  0.00  0.00     0.077 C 
ATOM      3  C1  PXY d   1      -0.692   0.542   1.702  0.00  0.00    -0.082 A 
ATOM      4  C2  PXY d   1       0.598   0.382   1.459  0.00  0.00     0.003 A 
ATOM      5  C3  PXY d   1       1.022  -0.080   0.240  0.00  0.00     0.003 A 
ATOM      6  C4  PXY d   1       0.113  -0.433  -0.721  0.00  0.00    -0.082 A 
ATOM      7  C5  PXY d   1      -1.206  -0.282  -0.477  0.00  0.00     0.003 A 
ATOM      8  C6  PXY d   1      -1.614   0.228   0.752  0.00  0.00     0.003 A 
ENDROOT
TORSDOF 0
ENDMDL
