MODEL 1
REMARK minimizedAffinity -3.61621261
REMARK minimizedRMSD -1
REMARK  0 active torsions:
REMARK  status: ('A' for Active; 'I' for Inactive)
ROOT
ATOM      1  C4' PXY d   1      -2.378   0.056  -0.632  0.00  0.00     0.077 C 
ATOM      2  C1' PXY d   1       2.768   0.176   1.997  0.00  0.00     0.077 C 
ATOM      3  C1  PXY d   1       1.424   0.141   1.297  0.00  0.00    -0.082 A 
ATOM      4  C2  PXY d   1       0.424   0.869   1.765  0.00  0.00     0.003 A 
ATOM      5  C3  PXY d   1      -0.807   0.824   1.162  0.00  0.00     0.003 A 
ATOM      6  C4  PXY d   1      -1.002   0.067   0.038  0.00  0.00    -0.082 A 
ATOM      7  C5  PXY d   1       0.018  -0.670  -0.452  0.00  0.00     0.003 A 
ATOM      8  C6  PXY d   1       1.248  -0.643   0.198  0.00  0.00     0.003 A 
ENDROOT
TORSDOF 0
ENDMDL
