MODEL 1
REMARK minimizedAffinity -4.85286617
REMARK minimizedRMSD -1
REMARK  0 active torsions:
REMARK  status: ('A' for Active; 'I' for Inactive)
ROOT
ATOM      1  C4' PXY d   1       0.589  -0.844  -1.357  0.00  0.00     0.077 C 
ATOM      2  C1' PXY d   1      -0.552   1.736   3.689  0.00  0.00     0.077 C 
ATOM      3  C1  PXY d   1      -0.240   1.062   2.367  0.00  0.00    -0.082 A 
ATOM      4  C2  PXY d   1      -1.178   0.979   1.438  0.00  0.00     0.003 A 
ATOM      5  C3  PXY d   1      -0.923   0.344   0.250  0.00  0.00     0.003 A 
ATOM      6  C4  PXY d   1       0.322  -0.164  -0.011  0.00  0.00    -0.082 A 
ATOM      7  C5  PXY d   1       1.287  -0.073   0.928  0.00  0.00     0.003 A 
ATOM      8  C6  PXY d   1       0.996   0.538   2.144  0.00  0.00     0.003 A 
ENDROOT
TORSDOF 0
ENDMDL
