MODEL 1
REMARK minimizedAffinity -4.68746805
REMARK minimizedRMSD -1
REMARK  0 active torsions:
REMARK  status: ('A' for Active; 'I' for Inactive)
ROOT
ATOM      1  C4' PXY d   1      -0.502   2.005   3.372  0.00  0.00     0.077 C 
ATOM      2  C1' PXY d   1      -0.615  -1.188  -1.445  0.00  0.00     0.077 C 
ATOM      3  C1  PXY d   1      -0.597  -0.346  -0.185  0.00  0.00    -0.082 A 
ATOM      4  C2  PXY d   1       0.560   0.027   0.337  0.00  0.00     0.003 A 
ATOM      5  C3  PXY d   1       0.595   0.761   1.494  0.00  0.00     0.003 A 
ATOM      6  C4  PXY d   1      -0.568   1.163   2.095  0.00  0.00    -0.082 A 
ATOM      7  C5  PXY d   1      -1.753   0.795   1.563  0.00  0.00     0.003 A 
ATOM      8  C6  PXY d   1      -1.766   0.015   0.411  0.00  0.00     0.003 A 
ENDROOT
TORSDOF 0
ENDMDL
