MODEL 1
REMARK minimizedAffinity -5.56769848
REMARK minimizedRMSD -1
REMARK  0 active torsions:
REMARK  status: ('A' for Active; 'I' for Inactive)
ROOT
ATOM      1  C4' PXY d   1      -2.691  -0.072  -0.598  0.00  0.00     0.077 C 
ATOM      2  C1' PXY d   1       1.741   0.636   3.044  0.00  0.00     0.077 C 
ATOM      3  C1  PXY d   1       0.587   0.450   2.079  0.00  0.00    -0.082 A 
ATOM      4  C2  PXY d   1      -0.622   0.870   2.416  0.00  0.00     0.003 A 
ATOM      5  C3  PXY d   1      -1.683   0.681   1.568  0.00  0.00     0.003 A 
ATOM      6  C4  PXY d   1      -1.495   0.104   0.341  0.00  0.00    -0.082 A 
ATOM      7  C5  PXY d   1      -0.263  -0.317  -0.015  0.00  0.00     0.003 A 
ATOM      8  C6  PXY d   1       0.793  -0.153   0.877  0.00  0.00     0.003 A 
ENDROOT
TORSDOF 0
ENDMDL
