MODEL 1
REMARK minimizedAffinity 4.05241871
REMARK minimizedRMSD -1
REMARK  1 active torsions:
REMARK  status: ('A' for Active; 'I' for Inactive)
REMARK    1  A    between atoms: C1_2  and  C2_3 
ROOT
ATOM      1  C2  UNL d   1      -1.753  -1.095   2.386  0.00  0.00    -0.081 A 
ATOM      2  C3  UNL d   1      -2.571  -0.501   3.355  0.00  0.00     0.006 A 
ATOM      3  C4  UNL d   1      -3.211  -1.283   4.319  0.00  0.00     0.002 A 
ATOM      4  C5  UNL d   1      -3.037  -2.671   4.336  0.00  0.00    -0.080 A 
ATOM      5  C6  UNL d   1      -3.693  -3.520   5.384  0.00  0.00     0.076 C 
ATOM      6  C7  UNL d   1      -2.234  -3.267   3.358  0.00  0.00     0.002 A 
ATOM      7  C8  UNL d   1      -1.595  -2.485   2.393  0.00  0.00     0.006 A 
ENDROOT
BRANCH   1   8
ATOM      8  C1  UNL d   1      -1.011  -0.248   1.385  0.00  0.00     0.054 C 
ATOM      9  C   UNL d   1      -0.284   0.903   2.065  0.00  0.00     0.018 C 
ENDBRANCH   1   8
TORSDOF 1
ENDMDL
