MODEL 1
REMARK minimizedAffinity 4.53655672
REMARK minimizedRMSD -1
REMARK  1 active torsions:
REMARK  status: ('A' for Active; 'I' for Inactive)
REMARK    1  A    between atoms: C1_2  and  C2_3 
ROOT
ATOM      1  C2  UNL d   1       0.690   5.292  -4.007  0.00  0.00    -0.081 A 
ATOM      2  C3  UNL d   1       0.175   5.930  -2.872  0.00  0.00     0.006 A 
ATOM      3  C4  UNL d   1       0.204   5.296  -1.628  0.00  0.00     0.002 A 
ATOM      4  C5  UNL d   1       0.756   4.017  -1.497  0.00  0.00    -0.080 A 
ATOM      5  C6  UNL d   1       0.821   3.337  -0.162  0.00  0.00     0.076 C 
ATOM      6  C7  UNL d   1       1.255   3.372  -2.634  0.00  0.00     0.002 A 
ATOM      7  C8  UNL d   1       1.225   4.006  -3.878  0.00  0.00     0.006 A 
ENDROOT
BRANCH   1   8
ATOM      8  C1  UNL d   1       0.718   6.000  -5.338  0.00  0.00     0.054 C 
ATOM      9  C   UNL d   1       2.083   5.879  -6.000  0.00  0.00     0.018 C 
ENDBRANCH   1   8
TORSDOF 1
ENDMDL
