MODEL 1
REMARK minimizedAffinity 5.26266289
REMARK minimizedRMSD -1
REMARK  1 active torsions:
REMARK  status: ('A' for Active; 'I' for Inactive)
REMARK    1  A    between atoms: C1_2  and  C2_3 
ROOT
ATOM      1  C2  UNL d   1      -0.195   5.986  -4.030  0.00  0.00    -0.081 A 
ATOM      2  C3  UNL d   1      -0.476   5.994  -2.658  0.00  0.00     0.006 A 
ATOM      3  C4  UNL d   1      -1.798   6.000  -2.207  0.00  0.00     0.002 A 
ATOM      4  C5  UNL d   1      -2.860   5.990  -3.118  0.00  0.00    -0.080 A 
ATOM      5  C6  UNL d   1      -4.283   5.966  -2.646  0.00  0.00     0.076 C 
ATOM      6  C7  UNL d   1      -2.579   6.000  -4.488  0.00  0.00     0.002 A 
ATOM      7  C8  UNL d   1      -1.257   5.995  -4.941  0.00  0.00     0.006 A 
ENDROOT
BRANCH   1   8
ATOM      8  C1  UNL d   1       1.229   5.914  -4.520  0.00  0.00     0.054 C 
ATOM      9  C   UNL d   1       1.297   5.391  -5.948  0.00  0.00     0.018 C 
ENDBRANCH   1   8
TORSDOF 1
ENDMDL
