MODEL 1
REMARK minimizedAffinity 0.617542267
REMARK minimizedRMSD -1
REMARK  1 active torsions:
REMARK  status: ('A' for Active; 'I' for Inactive)
REMARK    1  A    between atoms: C1_2  and  C2_3 
ROOT
ATOM      1  C2  UNL d   1      -0.778   5.941  -4.217  0.00  0.00    -0.081 A 
ATOM      2  C3  UNL d   1      -2.168   5.993  -4.376  0.00  0.00     0.006 A 
ATOM      3  C4  UNL d   1      -3.009   5.999  -3.261  0.00  0.00     0.002 A 
ATOM      4  C5  UNL d   1      -2.475   5.960  -1.969  0.00  0.00    -0.080 A 
ATOM      5  C6  UNL d   1      -3.366   5.997  -0.763  0.00  0.00     0.076 C 
ATOM      6  C7  UNL d   1      -1.087   5.891  -1.810  0.00  0.00     0.002 A 
ATOM      7  C8  UNL d   1      -0.245   5.884  -2.924  0.00  0.00     0.006 A 
ENDROOT
BRANCH   1   8
ATOM      8  C1  UNL d   1       0.134   6.000  -5.416  0.00  0.00     0.054 C 
ATOM      9  C   UNL d   1       0.694   4.625  -5.753  0.00  0.00     0.018 C 
ENDBRANCH   1   8
TORSDOF 1
ENDMDL
