MODEL 1
REMARK minimizedAffinity 4.84867954
REMARK minimizedRMSD -1
REMARK  1 active torsions:
REMARK  status: ('A' for Active; 'I' for Inactive)
REMARK    1  A    between atoms: C1_2  and  C2_3 
ROOT
ATOM      1  C2  UNL d   1       1.441   5.981  -4.703  0.00  0.00    -0.081 A 
ATOM      2  C3  UNL d   1       1.417   5.992  -3.303  0.00  0.00     0.006 A 
ATOM      3  C4  UNL d   1       0.200   6.000  -2.616  0.00  0.00     0.002 A 
ATOM      4  C5  UNL d   1      -1.011   5.989  -3.316  0.00  0.00    -0.080 A 
ATOM      5  C6  UNL d   1      -2.323   5.966  -2.591  0.00  0.00     0.076 C 
ATOM      6  C7  UNL d   1      -0.986   5.995  -4.715  0.00  0.00     0.002 A 
ATOM      7  C8  UNL d   1       0.229   5.988  -5.402  0.00  0.00     0.006 A 
ENDROOT
BRANCH   1   8
ATOM      8  C1  UNL d   1       2.750   5.907  -5.446  0.00  0.00     0.054 C 
ATOM      9  C   UNL d   1       3.933   5.998  -4.493  0.00  0.00     0.018 C 
ENDBRANCH   1   8
TORSDOF 1
ENDMDL
