MODEL 1
REMARK minimizedAffinity -0.942950308
REMARK minimizedRMSD -1
REMARK  1 active torsions:
REMARK  status: ('A' for Active; 'I' for Inactive)
REMARK    1  A    between atoms: C1_2  and  C2_3 
ROOT
ATOM      1  C2  UNL d   1      -2.633   5.964  -3.243  0.00  0.00    -0.081 A 
ATOM      2  C3  UNL d   1      -2.453   5.939  -4.632  0.00  0.00     0.006 A 
ATOM      3  C4  UNL d   1      -1.168   5.939  -5.180  0.00  0.00     0.002 A 
ATOM      4  C5  UNL d   1      -0.042   5.956  -4.349  0.00  0.00    -0.080 A 
ATOM      5  C6  UNL d   1       1.343   5.926  -4.924  0.00  0.00     0.076 C 
ATOM      6  C7  UNL d   1      -0.222   5.999  -2.962  0.00  0.00     0.002 A 
ATOM      7  C8  UNL d   1      -1.506   6.000  -2.414  0.00  0.00     0.006 A 
ENDROOT
BRANCH   1   8
ATOM      8  C1  UNL d   1      -4.016   5.899  -2.648  0.00  0.00     0.054 C 
ATOM      9  C   UNL d   1      -3.967   5.942  -1.128  0.00  0.00     0.018 C 
ENDBRANCH   1   8
TORSDOF 1
ENDMDL
