MODEL 1
REMARK minimizedAffinity -2.98151994
REMARK minimizedRMSD -1
REMARK  1 active torsions:
REMARK  status: ('A' for Active; 'I' for Inactive)
REMARK    1  A    between atoms: C1_2  and  C2_3 
ROOT
ATOM      1  C2  UNL d   1      -0.006   1.016   1.803  0.00  0.00    -0.081 A 
ATOM      2  C3  UNL d   1       0.588   0.496   2.959  0.00  0.00     0.006 A 
ATOM      3  C4  UNL d   1       1.979   0.437   3.076  0.00  0.00     0.002 A 
ATOM      4  C5  UNL d   1       2.798   0.904   2.043  0.00  0.00    -0.080 A 
ATOM      5  C6  UNL d   1       4.292   0.874   2.168  0.00  0.00     0.076 C 
ATOM      6  C7  UNL d   1       2.205   1.408   0.880  0.00  0.00     0.002 A 
ATOM      7  C8  UNL d   1       0.814   1.466   0.762  0.00  0.00     0.006 A 
ENDROOT
BRANCH   1   8
ATOM      8  C1  UNL d   1      -1.505   1.141   1.700  0.00  0.00     0.054 C 
ATOM      9  C   UNL d   1      -2.124   1.492   3.046  0.00  0.00     0.018 C 
ENDBRANCH   1   8
TORSDOF 1
ENDMDL
