MODEL 1
REMARK minimizedAffinity 5.16644239
REMARK minimizedRMSD -1
REMARK  1 active torsions:
REMARK  status: ('A' for Active; 'I' for Inactive)
REMARK    1  A    between atoms: C1_2  and  C2_3 
ROOT
ATOM      1  C2  UNL d   1      -1.913   5.960  -3.170  0.00  0.00    -0.081 A 
ATOM      2  C3  UNL d   1      -1.598   5.969  -4.534  0.00  0.00     0.006 A 
ATOM      3  C4  UNL d   1      -0.266   5.987  -4.953  0.00  0.00     0.002 A 
ATOM      4  C5  UNL d   1       0.773   5.988  -4.016  0.00  0.00    -0.080 A 
ATOM      5  C6  UNL d   1       2.208   5.977  -4.453  0.00  0.00     0.076 C 
ATOM      6  C7  UNL d   1       0.459   5.998  -2.653  0.00  0.00     0.002 A 
ATOM      7  C8  UNL d   1      -0.873   5.980  -2.233  0.00  0.00     0.006 A 
ENDROOT
BRANCH   1   8
ATOM      8  C1  UNL d   1      -3.347   5.876  -2.714  0.00  0.00     0.054 C 
ATOM      9  C   UNL d   1      -3.454   5.971  -1.199  0.00  0.00     0.018 C 
ENDBRANCH   1   8
TORSDOF 1
ENDMDL
