MODEL 1
REMARK minimizedAffinity 2.04698157
REMARK minimizedRMSD -1
REMARK  1 active torsions:
REMARK  status: ('A' for Active; 'I' for Inactive)
REMARK    1  A    between atoms: C1_2  and  C2_3 
ROOT
ATOM      1  C2  UNL d   1      -1.898   5.957  -2.698  0.00  0.00    -0.081 A 
ATOM      2  C3  UNL d   1      -2.363   5.969  -4.019  0.00  0.00     0.006 A 
ATOM      3  C4  UNL d   1      -1.463   5.986  -5.087  0.00  0.00     0.002 A 
ATOM      4  C5  UNL d   1      -0.083   5.983  -4.853  0.00  0.00    -0.080 A 
ATOM      5  C6  UNL d   1       0.894   5.970  -5.990  0.00  0.00     0.076 C 
ATOM      6  C7  UNL d   1       0.381   5.988  -3.533  0.00  0.00     0.002 A 
ATOM      7  C8  UNL d   1      -0.518   5.972  -2.465  0.00  0.00     0.006 A 
ENDROOT
BRANCH   1   8
ATOM      8  C1  UNL d   1      -2.866   5.873  -1.546  0.00  0.00     0.054 C 
ATOM      9  C   UNL d   1      -2.137   5.889  -0.210  0.00  0.00     0.018 C 
ENDBRANCH   1   8
TORSDOF 1
ENDMDL
