MODEL 1
REMARK minimizedAffinity -2.22015262
REMARK minimizedRMSD -1
REMARK  1 active torsions:
REMARK  status: ('A' for Active; 'I' for Inactive)
REMARK    1  A    between atoms: C1_2  and  C2_3 
ROOT
ATOM      1  C2  UNL d   1      -1.993   5.956  -3.364  0.00  0.00    -0.081 A 
ATOM      2  C3  UNL d   1      -1.939   5.976  -4.763  0.00  0.00     0.006 A 
ATOM      3  C4  UNL d   1      -0.708   5.999  -5.423  0.00  0.00     0.002 A 
ATOM      4  C5  UNL d   1       0.488   5.994  -4.697  0.00  0.00    -0.080 A 
ATOM      5  C6  UNL d   1       1.815   5.989  -5.394  0.00  0.00     0.076 C 
ATOM      6  C7  UNL d   1       0.433   5.992  -3.299  0.00  0.00     0.002 A 
ATOM      7  C8  UNL d   1      -0.797   5.969  -2.638  0.00  0.00     0.006 A 
ENDROOT
BRANCH   1   8
ATOM      8  C1  UNL d   1      -3.317   5.865  -2.649  0.00  0.00     0.054 C 
ATOM      9  C   UNL d   1      -4.481   5.999  -3.622  0.00  0.00     0.018 C 
ENDBRANCH   1   8
TORSDOF 1
ENDMDL
