MODEL 1
REMARK minimizedAffinity 9.76434994
REMARK minimizedRMSD -1
REMARK  1 active torsions:
REMARK  status: ('A' for Active; 'I' for Inactive)
REMARK    1  A    between atoms: C1_2  and  C2_3 
ROOT
ATOM      1  C2  UNL d   1      -2.458  -1.237  -3.219  0.00  0.00    -0.081 A 
ATOM      2  C3  UNL d   1      -3.257  -2.370  -3.416  0.00  0.00     0.006 A 
ATOM      3  C4  UNL d   1      -4.122  -2.810  -2.411  0.00  0.00     0.002 A 
ATOM      4  C5  UNL d   1      -4.208  -2.121  -1.197  0.00  0.00    -0.080 A 
ATOM      5  C6  UNL d   1      -5.154  -2.565  -0.121  0.00  0.00     0.076 C 
ATOM      6  C7  UNL d   1      -3.397  -0.999  -0.993  0.00  0.00     0.002 A 
ATOM      7  C8  UNL d   1      -2.532  -0.559  -1.998  0.00  0.00     0.006 A 
ENDROOT
BRANCH   1   8
ATOM      8  C1  UNL d   1      -1.572  -0.722  -4.325  0.00  0.00     0.054 C 
ATOM      9  C   UNL d   1      -0.200  -0.330  -3.797  0.00  0.00     0.018 C 
ENDBRANCH   1   8
TORSDOF 1
ENDMDL
