MODEL 1
REMARK minimizedAffinity 4.33377886
REMARK minimizedRMSD -1
REMARK  1 active torsions:
REMARK  status: ('A' for Active; 'I' for Inactive)
REMARK    1  A    between atoms: C1_2  and  C2_3 
ROOT
ATOM      1  C2  UNL d   1      -3.121  -1.461  -3.003  0.00  0.00    -0.081 A 
ATOM      2  C3  UNL d   1      -2.766  -1.238  -1.667  0.00  0.00     0.006 A 
ATOM      3  C4  UNL d   1      -3.437  -1.900  -0.636  0.00  0.00     0.002 A 
ATOM      4  C5  UNL d   1      -4.467  -2.802  -0.923  0.00  0.00    -0.080 A 
ATOM      5  C6  UNL d   1      -5.174  -3.543   0.173  0.00  0.00     0.076 C 
ATOM      6  C7  UNL d   1      -4.833  -3.012  -2.257  0.00  0.00     0.002 A 
ATOM      7  C8  UNL d   1      -4.164  -2.349  -3.288  0.00  0.00     0.006 A 
ENDROOT
BRANCH   1   8
ATOM      8  C1  UNL d   1      -2.357  -0.797  -4.120  0.00  0.00     0.054 C 
ATOM      9  C   UNL d   1      -1.168  -1.641  -4.555  0.00  0.00     0.018 C 
ENDBRANCH   1   8
TORSDOF 1
ENDMDL
