MODEL 1
REMARK minimizedAffinity -1.9826479
REMARK minimizedRMSD -1
REMARK  1 active torsions:
REMARK  status: ('A' for Active; 'I' for Inactive)
REMARK    1  A    between atoms: C1_2  and  C2_3 
ROOT
ATOM      1  C2  UNL d   1       3.576   5.960  -4.490  0.00  0.00    -0.081 A 
ATOM      2  C3  UNL d   1       2.693   5.983  -3.404  0.00  0.00     0.006 A 
ATOM      3  C4  UNL d   1       1.312   5.998  -3.614  0.00  0.00     0.002 A 
ATOM      4  C5  UNL d   1       0.792   5.984  -4.912  0.00  0.00    -0.080 A 
ATOM      5  C6  UNL d   1      -0.689   5.970  -5.152  0.00  0.00     0.076 C 
ATOM      6  C7  UNL d   1       1.674   5.979  -5.998  0.00  0.00     0.002 A 
ATOM      7  C8  UNL d   1       3.055   5.964  -5.788  0.00  0.00     0.006 A 
ENDROOT
BRANCH   1   8
ATOM      8  C1  UNL d   1       5.065   5.878  -4.266  0.00  0.00     0.054 C 
ATOM      9  C   UNL d   1       5.521   4.435  -4.101  0.00  0.00     0.018 C 
ENDBRANCH   1   8
TORSDOF 1
ENDMDL
