MODEL 1
REMARK minimizedAffinity -3.1378653
REMARK minimizedRMSD -1
REMARK  0 active torsions:
REMARK  status: ('A' for Active; 'I' for Inactive)
ROOT
ATOM      1  C1  DEN d   1      -0.575  -0.822  -1.409  0.00  0.00     0.130 A 
ATOM      2  C2  DEN d   1      -0.451  -1.447  -0.095  0.00  0.00    -0.031 A 
ATOM      3  C3  DEN d   1      -0.149  -0.387   0.888  0.00  0.00     0.027 A 
ATOM      4  C4  DEN d   1       0.132   2.148   0.505  0.00  0.00     0.027 A 
ATOM      5  C5  DEN d   1       0.129   3.148  -0.443  0.00  0.00    -0.003 A 
ATOM      6  C6  DEN d   1      -0.074   2.892  -1.773  0.00  0.00     0.001 A 
ATOM      7  C7  DEN d   1      -0.327   1.611  -2.187  0.00  0.00     0.017 A 
ATOM      8  C8  DEN d   1      -0.318   0.597  -1.238  0.00  0.00    -0.094 A 
ATOM      9  C9  DEN d   1      -0.123   0.877   0.104  0.00  0.00    -0.072 A 
ENDROOT
TORSDOF 0
ENDMDL
