MODEL 1
REMARK minimizedAffinity -5.81848097
REMARK minimizedRMSD -1
REMARK  0 active torsions:
REMARK  status: ('A' for Active; 'I' for Inactive)
ROOT
ATOM      1  C1  DEN d   1       1.616   2.988   0.454  0.00  0.00     0.130 A 
ATOM      2  C2  DEN d   1       2.896   2.287   0.412  0.00  0.00    -0.031 A 
ATOM      3  C3  DEN d   1       2.622   0.849   0.218  0.00  0.00     0.027 A 
ATOM      4  C4  DEN d   1       0.353  -0.353  -0.025  0.00  0.00     0.027 A 
ATOM      5  C5  DEN d   1      -1.013  -0.179  -0.042  0.00  0.00    -0.003 A 
ATOM      6  C6  DEN d   1      -1.595   1.048   0.136  0.00  0.00     0.001 A 
ATOM      7  C7  DEN d   1      -0.807   2.157   0.296  0.00  0.00     0.017 A 
ATOM      8  C8  DEN d   1       0.571   1.988   0.322  0.00  0.00    -0.094 A 
ATOM      9  C9  DEN d   1       1.141   0.741   0.127  0.00  0.00    -0.072 A 
ENDROOT
TORSDOF 0
ENDMDL
