MODEL 1
REMARK minimizedAffinity -1.45536137
REMARK minimizedRMSD -1
REMARK  0 active torsions:
REMARK  status: ('A' for Active; 'I' for Inactive)
ROOT
ATOM      1  C1  DEN d   1      -0.484  -0.491   0.834  0.00  0.00     0.130 A 
ATOM      2  C2  DEN d   1      -1.784   0.100   1.140  0.00  0.00    -0.031 A 
ATOM      3  C3  DEN d   1      -1.725   1.535   0.797  0.00  0.00     0.027 A 
ATOM      4  C4  DEN d   1       0.240   2.890  -0.179  0.00  0.00     0.027 A 
ATOM      5  C5  DEN d   1       1.552   2.825  -0.596  0.00  0.00    -0.003 A 
ATOM      6  C6  DEN d   1       2.281   1.667  -0.534  0.00  0.00     0.001 A 
ATOM      7  C7  DEN d   1       1.689   0.516  -0.086  0.00  0.00     0.017 A 
ATOM      8  C8  DEN d   1       0.369   0.575   0.343  0.00  0.00    -0.094 A 
ATOM      9  C9  DEN d   1      -0.354   1.753   0.261  0.00  0.00    -0.072 A 
ENDROOT
TORSDOF 0
ENDMDL
