MODEL 1
REMARK minimizedAffinity -5.70980644
REMARK minimizedRMSD -1
REMARK  0 active torsions:
REMARK  status: ('A' for Active; 'I' for Inactive)
ROOT
ATOM      1  C1  DEN d   1      -0.595   2.937   0.176  0.00  0.00     0.130 A 
ATOM      2  C2  DEN d   1       0.731   3.209  -0.372  0.00  0.00    -0.031 A 
ATOM      3  C3  DEN d   1       1.496   1.946  -0.365  0.00  0.00     0.027 A 
ATOM      4  C4  DEN d   1       0.758  -0.394   0.433  0.00  0.00     0.027 A 
ATOM      5  C5  DEN d   1      -0.274  -1.116   0.988  0.00  0.00    -0.003 A 
ATOM      6  C6  DEN d   1      -1.464  -0.537   1.340  0.00  0.00     0.001 A 
ATOM      7  C7  DEN d   1      -1.668   0.797   1.099  0.00  0.00     0.017 A 
ATOM      8  C8  DEN d   1      -0.628   1.533   0.546  0.00  0.00    -0.094 A 
ATOM      9  C9  DEN d   1       0.563   0.926   0.186  0.00  0.00    -0.072 A 
ENDROOT
TORSDOF 0
ENDMDL
