MODEL 1
REMARK minimizedAffinity -1.17429638
REMARK minimizedRMSD -1
REMARK  0 active torsions:
REMARK  status: ('A' for Active; 'I' for Inactive)
ROOT
ATOM      1  C1  DEN d   1       1.114  -0.769   0.717  0.00  0.00     0.130 A 
ATOM      2  C2  DEN d   1       2.438  -0.152   0.716  0.00  0.00    -0.031 A 
ATOM      3  C3  DEN d   1       2.259   1.313   0.662  0.00  0.00     0.027 A 
ATOM      4  C4  DEN d   1       0.073   2.678   0.583  0.00  0.00     0.027 A 
ATOM      5  C5  DEN d   1      -1.302   2.596   0.552  0.00  0.00    -0.003 A 
ATOM      6  C6  DEN d   1      -1.961   1.395   0.540  0.00  0.00     0.001 A 
ATOM      7  C7  DEN d   1      -1.247   0.228   0.605  0.00  0.00     0.017 A 
ATOM      8  C8  DEN d   1       0.139   0.303   0.628  0.00  0.00    -0.094 A 
ATOM      9  C9  DEN d   1       0.787   1.527   0.652  0.00  0.00    -0.072 A 
ENDROOT
TORSDOF 0
ENDMDL
