MODEL 1
REMARK minimizedAffinity -5.66131639
REMARK minimizedRMSD -1
REMARK  0 active torsions:
REMARK  status: ('A' for Active; 'I' for Inactive)
ROOT
ATOM      1  C1  DEN d   1       1.885  -1.017   0.254  0.00  0.00     0.130 A 
ATOM      2  C2  DEN d   1       0.884  -2.078   0.333  0.00  0.00    -0.031 A 
ATOM      3  C3  DEN d   1      -0.415  -1.513  -0.085  0.00  0.00     0.027 A 
ATOM      4  C4  DEN d   1      -0.969   0.889  -0.846  0.00  0.00     0.027 A 
ATOM      5  C5  DEN d   1      -0.449   2.145  -1.064  0.00  0.00    -0.003 A 
ATOM      6  C6  DEN d   1       0.867   2.442  -0.827  0.00  0.00     0.001 A 
ATOM      7  C7  DEN d   1       1.719   1.458  -0.401  0.00  0.00     0.017 A 
ATOM      8  C8  DEN d   1       1.200   0.190  -0.172  0.00  0.00    -0.094 A 
ATOM      9  C9  DEN d   1      -0.131  -0.093  -0.429  0.00  0.00    -0.072 A 
ENDROOT
TORSDOF 0
ENDMDL
