MODEL 1
REMARK minimizedAffinity -4.33134365
REMARK minimizedRMSD -1
REMARK  0 active torsions:
REMARK  status: ('A' for Active; 'I' for Inactive)
ROOT
ATOM      1  C1  DEN d   1      -0.452  -1.067   0.554  0.00  0.00     0.130 A 
ATOM      2  C2  DEN d   1       0.853  -1.714   0.455  0.00  0.00    -0.031 A 
ATOM      3  C3  DEN d   1       1.863  -0.668   0.195  0.00  0.00     0.027 A 
ATOM      4  C4  DEN d   1       1.535   1.878  -0.055  0.00  0.00     0.027 A 
ATOM      5  C5  DEN d   1       0.606   2.894  -0.061  0.00  0.00    -0.003 A 
ATOM      6  C6  DEN d   1      -0.734   2.661   0.103  0.00  0.00     0.001 A 
ATOM      7  C7  DEN d   1      -1.178   1.384   0.325  0.00  0.00     0.017 A 
ATOM      8  C8  DEN d   1      -0.248   0.352   0.324  0.00  0.00    -0.094 A 
ATOM      9  C9  DEN d   1       1.104   0.611   0.169  0.00  0.00    -0.072 A 
ENDROOT
TORSDOF 0
ENDMDL
