MODEL 1
REMARK minimizedAffinity -4.46562243
REMARK minimizedRMSD -1
REMARK  0 active torsions:
REMARK  status: ('A' for Active; 'I' for Inactive)
ROOT
ATOM      1  C1  DEN d   1       1.213  -0.114  -1.228  0.00  0.00     0.130 A 
ATOM      2  C2  DEN d   1       0.364  -1.290  -1.061  0.00  0.00    -0.031 A 
ATOM      3  C3  DEN d   1      -0.841  -0.880  -0.312  0.00  0.00     0.027 A 
ATOM      4  C4  DEN d   1      -1.473   1.449   0.597  0.00  0.00     0.027 A 
ATOM      5  C5  DEN d   1      -1.061   2.759   0.711  0.00  0.00    -0.003 A 
ATOM      6  C6  DEN d   1       0.142   3.192   0.221  0.00  0.00     0.001 A 
ATOM      7  C7  DEN d   1       0.958   2.317  -0.446  0.00  0.00     0.017 A 
ATOM      8  C8  DEN d   1       0.553   0.993  -0.559  0.00  0.00    -0.094 A 
ATOM      9  C9  DEN d   1      -0.673   0.578  -0.068  0.00  0.00    -0.072 A 
ENDROOT
TORSDOF 0
ENDMDL
