MODEL 1
REMARK minimizedAffinity -4.28136635
REMARK minimizedRMSD -1
REMARK  0 active torsions:
REMARK  status: ('A' for Active; 'I' for Inactive)
ROOT
ATOM      1  C1  DEN d   1       1.554   1.432  -0.931  0.00  0.00     0.130 A 
ATOM      2  C2  DEN d   1       1.136   2.730  -0.406  0.00  0.00    -0.031 A 
ATOM      3  C3  DEN d   1      -0.108   2.531   0.365  0.00  0.00     0.027 A 
ATOM      4  C4  DEN d   1      -1.417   0.351   0.800  0.00  0.00     0.027 A 
ATOM      5  C5  DEN d   1      -1.457  -1.002   0.549  0.00  0.00    -0.003 A 
ATOM      6  C6  DEN d   1      -0.524  -1.629  -0.233  0.00  0.00     0.001 A 
ATOM      7  C7  DEN d   1       0.517  -0.908  -0.757  0.00  0.00     0.017 A 
ATOM      8  C8  DEN d   1       0.560   0.459  -0.515  0.00  0.00    -0.094 A 
ATOM      9  C9  DEN d   1      -0.386   1.071   0.289  0.00  0.00    -0.072 A 
ENDROOT
TORSDOF 0
ENDMDL
