MODEL 1
REMARK minimizedAffinity -4.41754627
REMARK minimizedRMSD -1
REMARK  0 active torsions:
REMARK  status: ('A' for Active; 'I' for Inactive)
ROOT
ATOM      1  C1  DEN d   1      -0.109  -1.608   0.445  0.00  0.00     0.130 A 
ATOM      2  C2  DEN d   1       0.322  -0.222   0.286  0.00  0.00    -0.031 A 
ATOM      3  C3  DEN d   1       0.333   0.090  -1.158  0.00  0.00     0.027 A 
ATOM      4  C4  DEN d   1      -0.277  -1.430  -3.151  0.00  0.00     0.027 A 
ATOM      5  C5  DEN d   1      -0.689  -2.693  -3.514  0.00  0.00    -0.003 A 
ATOM      6  C6  DEN d   1      -0.902  -3.684  -2.594  0.00  0.00     0.001 A 
ATOM      7  C7  DEN d   1      -0.748  -3.417  -1.259  0.00  0.00     0.017 A 
ATOM      8  C8  DEN d   1      -0.325  -2.148  -0.885  0.00  0.00    -0.094 A 
ATOM      9  C9  DEN d   1      -0.127  -1.155  -1.830  0.00  0.00    -0.072 A 
ENDROOT
TORSDOF 0
ENDMDL
