MODEL 1
REMARK minimizedAffinity -5.88728094
REMARK minimizedRMSD -1
REMARK  0 active torsions:
REMARK  status: ('A' for Active; 'I' for Inactive)
ROOT
ATOM      1  C1  DEN d   1       1.382   2.180  -0.281  0.00  0.00     0.130 A 
ATOM      2  C2  DEN d   1       0.560   3.204   0.357  0.00  0.00    -0.031 A 
ATOM      3  C3  DEN d   1      -0.731   2.588   0.725  0.00  0.00     0.027 A 
ATOM      4  C4  DEN d   1      -1.530   0.161   0.375  0.00  0.00     0.027 A 
ATOM      5  C5  DEN d   1      -1.185  -1.072  -0.134  0.00  0.00    -0.003 A 
ATOM      6  C6  DEN d   1       0.016  -1.296  -0.753  0.00  0.00     0.001 A 
ATOM      7  C7  DEN d   1       0.935  -0.284  -0.839  0.00  0.00     0.017 A 
ATOM      8  C8  DEN d   1       0.592   0.963  -0.334  0.00  0.00    -0.094 A 
ATOM      9  C9  DEN d   1      -0.622   1.167   0.298  0.00  0.00    -0.072 A 
ENDROOT
TORSDOF 0
ENDMDL
