MODEL 1
REMARK minimizedAffinity -6.78660917
REMARK minimizedRMSD -1
REMARK  0 active torsions:
REMARK  status: ('A' for Active; 'I' for Inactive)
ROOT
ATOM      1  C1  DEN d   1       1.897   1.889   0.099  0.00  0.00     0.130 A 
ATOM      2  C2  DEN d   1       0.952   2.992  -0.047  0.00  0.00    -0.031 A 
ATOM      3  C3  DEN d   1      -0.411   2.426  -0.068  0.00  0.00     0.027 A 
ATOM      4  C4  DEN d   1      -1.147  -0.040   0.115  0.00  0.00     0.027 A 
ATOM      5  C5  DEN d   1      -0.702  -1.337   0.241  0.00  0.00    -0.003 A 
ATOM      6  C6  DEN d   1       0.630  -1.651   0.294  0.00  0.00     0.001 A 
ATOM      7  C7  DEN d   1       1.565  -0.650   0.266  0.00  0.00     0.017 A 
ATOM      8  C8  DEN d   1       1.124   0.661   0.131  0.00  0.00    -0.094 A 
ATOM      9  C9  DEN d   1      -0.227   0.958   0.092  0.00  0.00    -0.072 A 
ENDROOT
TORSDOF 0
ENDMDL
