MODEL 1
REMARK minimizedAffinity -6.39372826
REMARK minimizedRMSD -1
REMARK  0 active torsions:
REMARK  status: ('A' for Active; 'I' for Inactive)
ROOT
ATOM      1  C1  DEN d   1      -1.478  -0.135   1.239  0.00  0.00     0.130 A 
ATOM      2  C2  DEN d   1      -0.587  -1.288   1.139  0.00  0.00    -0.031 A 
ATOM      3  C3  DEN d   1       0.686  -0.831   0.545  0.00  0.00     0.027 A 
ATOM      4  C4  DEN d   1       1.361   1.538  -0.220  0.00  0.00     0.027 A 
ATOM      5  C5  DEN d   1       0.935   2.841  -0.345  0.00  0.00    -0.003 A 
ATOM      6  C6  DEN d   1      -0.327   3.234   0.015  0.00  0.00     0.001 A 
ATOM      7  C7  DEN d   1      -1.192   2.323   0.560  0.00  0.00     0.017 A 
ATOM      8  C8  DEN d   1      -0.772   1.005   0.682  0.00  0.00    -0.094 A 
ATOM      9  C9  DEN d   1       0.512   0.630   0.324  0.00  0.00    -0.072 A 
ENDROOT
TORSDOF 0
ENDMDL
