MODEL 1
REMARK minimizedAffinity -7.10308599
REMARK minimizedRMSD -1
REMARK  0 active torsions:
REMARK  status: ('A' for Active; 'I' for Inactive)
ROOT
ATOM      1  C1  DEN d   1      -0.429   0.506   0.376  0.00  0.00     0.130 A 
ATOM      2  C2  DEN d   1       0.353  -0.726   0.306  0.00  0.00    -0.031 A 
ATOM      3  C3  DEN d   1       1.782  -0.357   0.254  0.00  0.00     0.027 A 
ATOM      4  C4  DEN d   1       2.855   1.989   0.280  0.00  0.00     0.027 A 
ATOM      5  C5  DEN d   1       2.596   3.341   0.319  0.00  0.00    -0.003 A 
ATOM      6  C6  DEN d   1       1.320   3.840   0.345  0.00  0.00     0.001 A 
ATOM      7  C7  DEN d   1       0.255   2.979   0.379  0.00  0.00     0.017 A 
ATOM      8  C8  DEN d   1       0.508   1.614   0.332  0.00  0.00    -0.094 A 
ATOM      9  C9  DEN d   1       1.805   1.129   0.318  0.00  0.00    -0.072 A 
ENDROOT
TORSDOF 0
ENDMDL
