MODEL 1
REMARK minimizedAffinity -4.34029341
REMARK minimizedRMSD -1
REMARK  0 active torsions:
REMARK  status: ('A' for Active; 'I' for Inactive)
ROOT
ATOM      1  C1  DEN d   1       1.412   2.778   1.127  0.00  0.00     0.130 A 
ATOM      2  C2  DEN d   1       2.718   2.126   1.170  0.00  0.00    -0.031 A 
ATOM      3  C3  DEN d   1       2.521   0.690   0.891  0.00  0.00     0.027 A 
ATOM      4  C4  DEN d   1       0.333  -0.582   0.393  0.00  0.00     0.027 A 
ATOM      5  C5  DEN d   1      -1.032  -0.457   0.260  0.00  0.00    -0.003 A 
ATOM      6  C6  DEN d   1      -1.677   0.738   0.438  0.00  0.00     0.001 A 
ATOM      7  C7  DEN d   1      -0.951   1.866   0.716  0.00  0.00     0.017 A 
ATOM      8  C8  DEN d   1       0.425   1.747   0.859  0.00  0.00    -0.094 A 
ATOM      9  C9  DEN d   1       1.060   0.532   0.663  0.00  0.00    -0.072 A 
ENDROOT
TORSDOF 0
ENDMDL
