MODEL 1
REMARK minimizedAffinity 4.09190226
REMARK minimizedRMSD -1
REMARK  1 active torsions:
REMARK  status: ('A' for Active; 'I' for Inactive)
REMARK    1  A    between atoms: C1_2  and  C2_3 
ROOT
ATOM      1  C2  UNL d   1       1.033   1.695  -1.959  0.00  0.00    -0.077 A 
ATOM      2  C3  UNL d   1       0.656   1.577  -0.614  0.00  0.00     0.002 A 
ATOM      3  C4  UNL d   1       1.625   1.427   0.380  0.00  0.00     0.002 A 
ATOM      4  C5  UNL d   1       2.976   1.397   0.040  0.00  0.00    -0.004 A 
ATOM      5  C6  UNL d   1       3.361   1.511  -1.295  0.00  0.00     0.002 A 
ATOM      6  C7  UNL d   1       2.394   1.660  -2.290  0.00  0.00     0.002 A 
ENDROOT
BRANCH   1   7
ATOM      7  C1  UNL d   1      -0.008   1.907  -3.027  0.00  0.00     0.055 C 
ATOM      8  C   UNL d   1      -0.184   3.385  -3.343  0.00  0.00     0.019 C 
ENDBRANCH   1   7
TORSDOF 1
ENDMDL
