MODEL 1
REMARK minimizedAffinity 2.86531734
REMARK minimizedRMSD -1
REMARK  1 active torsions:
REMARK  status: ('A' for Active; 'I' for Inactive)
REMARK    1  A    between atoms: C1_2  and  C2_3 
ROOT
ATOM      1  C2  UNL d   1      -3.284   5.282  -5.238  0.00  0.00    -0.077 A 
ATOM      2  C3  UNL d   1      -3.730   4.560  -4.121  0.00  0.00     0.002 A 
ATOM      3  C4  UNL d   1      -5.082   4.559  -3.775  0.00  0.00     0.002 A 
ATOM      4  C5  UNL d   1      -6.000   5.275  -4.542  0.00  0.00    -0.004 A 
ATOM      5  C6  UNL d   1      -5.566   5.997  -5.653  0.00  0.00     0.002 A 
ATOM      6  C7  UNL d   1      -4.214   6.000  -6.000  0.00  0.00     0.002 A 
ENDROOT
BRANCH   1   7
ATOM      7  C1  UNL d   1      -1.833   5.244  -5.642  0.00  0.00     0.055 C 
ATOM      8  C   UNL d   1      -0.944   4.840  -4.475  0.00  0.00     0.019 C 
ENDBRANCH   1   7
TORSDOF 1
ENDMDL
