MODEL 1
REMARK minimizedAffinity 9.24085712
REMARK minimizedRMSD -1
REMARK  1 active torsions:
REMARK  status: ('A' for Active; 'I' for Inactive)
REMARK    1  A    between atoms: C1_2  and  C2_3 
ROOT
ATOM      1  C2  UNL d   1      -1.580   0.255   1.893  0.00  0.00    -0.077 A 
ATOM      2  C3  UNL d   1      -2.229   1.418   2.331  0.00  0.00     0.002 A 
ATOM      3  C4  UNL d   1      -2.523   1.595   3.684  0.00  0.00     0.002 A 
ATOM      4  C5  UNL d   1      -2.169   0.616   4.610  0.00  0.00    -0.004 A 
ATOM      5  C6  UNL d   1      -1.525  -0.545   4.184  0.00  0.00     0.002 A 
ATOM      6  C7  UNL d   1      -1.231  -0.724   2.832  0.00  0.00     0.002 A 
ENDROOT
BRANCH   1   7
ATOM      7  C1  UNL d   1      -1.217   0.084   0.441  0.00  0.00     0.055 C 
ATOM      8  C   UNL d   1      -0.130   1.064   0.023  0.00  0.00     0.019 C 
ENDBRANCH   1   7
TORSDOF 1
ENDMDL
