MODEL 1
REMARK minimizedAffinity 5.41363096
REMARK minimizedRMSD -1
REMARK  1 active torsions:
REMARK  status: ('A' for Active; 'I' for Inactive)
REMARK    1  A    between atoms: C1_2  and  C2_3 
ROOT
ATOM      1  C2  UNL d   1      -3.332   5.854  -5.091  0.00  0.00    -0.077 A 
ATOM      2  C3  UNL d   1      -3.609   5.758  -3.720  0.00  0.00     0.002 A 
ATOM      3  C4  UNL d   1      -4.929   5.747  -3.265  0.00  0.00     0.002 A 
ATOM      4  C5  UNL d   1      -5.982   5.827  -4.175  0.00  0.00    -0.004 A 
ATOM      5  C6  UNL d   1      -5.716   5.925  -5.540  0.00  0.00     0.002 A 
ATOM      6  C7  UNL d   1      -4.397   5.938  -5.996  0.00  0.00     0.002 A 
ENDROOT
BRANCH   1   7
ATOM      7  C1  UNL d   1      -1.910   5.817  -5.587  0.00  0.00     0.055 C 
ATOM      8  C   UNL d   1      -0.957   5.340  -4.500  0.00  0.00     0.019 C 
ENDBRANCH   1   7
TORSDOF 1
ENDMDL
