MODEL 1
REMARK minimizedAffinity 4.83678961
REMARK minimizedRMSD -1
REMARK  1 active torsions:
REMARK  status: ('A' for Active; 'I' for Inactive)
REMARK    1  A    between atoms: C1_2  and  C2_3 
ROOT
ATOM      1  C2  UNL d   1      -3.192   5.797  -4.836  0.00  0.00    -0.077 A 
ATOM      2  C3  UNL d   1      -3.854   5.479  -3.642  0.00  0.00     0.002 A 
ATOM      3  C4  UNL d   1      -5.245   5.367  -3.615  0.00  0.00     0.002 A 
ATOM      4  C5  UNL d   1      -5.985   5.566  -4.778  0.00  0.00    -0.004 A 
ATOM      5  C6  UNL d   1      -5.336   5.885  -5.970  0.00  0.00     0.002 A 
ATOM      6  C7  UNL d   1      -3.945   5.998  -6.000  0.00  0.00     0.002 A 
ENDROOT
BRANCH   1   7
ATOM      7  C1  UNL d   1      -1.688   5.870  -4.879  0.00  0.00     0.055 C 
ATOM      8  C   UNL d   1      -1.097   4.692  -5.641  0.00  0.00     0.019 C 
ENDBRANCH   1   7
TORSDOF 1
ENDMDL
