MODEL 1
REMARK minimizedAffinity 9.78471088
REMARK minimizedRMSD -1
REMARK  1 active torsions:
REMARK  status: ('A' for Active; 'I' for Inactive)
REMARK    1  A    between atoms: C1_2  and  C2_3 
ROOT
ATOM      1  C2  UNL d   1       2.104   2.132  -1.778  0.00  0.00    -0.077 A 
ATOM      2  C3  UNL d   1       3.151   2.615  -2.576  0.00  0.00     0.002 A 
ATOM      3  C4  UNL d   1       2.877   3.309  -3.756  0.00  0.00     0.002 A 
ATOM      4  C5  UNL d   1       1.558   3.531  -4.146  0.00  0.00    -0.004 A 
ATOM      5  C6  UNL d   1       0.510   3.053  -3.360  0.00  0.00     0.002 A 
ATOM      6  C7  UNL d   1       0.782   2.357  -2.181  0.00  0.00     0.002 A 
ENDROOT
BRANCH   1   7
ATOM      7  C1  UNL d   1       2.397   1.425  -0.480  0.00  0.00     0.055 C 
ATOM      8  C   UNL d   1       2.272   2.371   0.705  0.00  0.00     0.019 C 
ENDBRANCH   1   7
TORSDOF 1
ENDMDL
