MODEL 1
REMARK minimizedAffinity 11.3315773
REMARK minimizedRMSD -1
REMARK  1 active torsions:
REMARK  status: ('A' for Active; 'I' for Inactive)
REMARK    1  A    between atoms: C1_2  and  C2_3 
ROOT
ATOM      1  C2  UNL d   1      -3.384  -1.648   2.751  0.00  0.00    -0.077 A 
ATOM      2  C3  UNL d   1      -2.792  -0.586   3.449  0.00  0.00     0.002 A 
ATOM      3  C4  UNL d   1      -1.443  -0.280   3.257  0.00  0.00     0.002 A 
ATOM      4  C5  UNL d   1      -0.678  -1.027   2.365  0.00  0.00    -0.004 A 
ATOM      5  C6  UNL d   1      -1.257  -2.087   1.668  0.00  0.00     0.002 A 
ATOM      6  C7  UNL d   1      -2.605  -2.395   1.859  0.00  0.00     0.002 A 
ENDROOT
BRANCH   1   7
ATOM      7  C1  UNL d   1      -4.851  -1.949   2.920  0.00  0.00     0.055 C 
ATOM      8  C   UNL d   1      -5.691  -1.203   1.894  0.00  0.00     0.019 C 
ENDBRANCH   1   7
TORSDOF 1
ENDMDL
