MODEL 1
REMARK minimizedAffinity 12.3253469
REMARK minimizedRMSD -1
REMARK  1 active torsions:
REMARK  status: ('A' for Active; 'I' for Inactive)
REMARK    1  A    between atoms: C1_2  and  C2_3 
ROOT
ATOM      1  C2  UNL d   1       5.264   4.878  -2.978  0.00  0.00    -0.077 A 
ATOM      2  C3  UNL d   1       5.996   4.614  -4.144  0.00  0.00     0.002 A 
ATOM      3  C4  UNL d   1       5.465   3.793  -5.141  0.00  0.00     0.002 A 
ATOM      4  C5  UNL d   1       4.199   3.234  -4.984  0.00  0.00    -0.004 A 
ATOM      5  C6  UNL d   1       3.464   3.489  -3.827  0.00  0.00     0.002 A 
ATOM      6  C7  UNL d   1       3.993   4.308  -2.829  0.00  0.00     0.002 A 
ENDROOT
BRANCH   1   7
ATOM      7  C1  UNL d   1       5.814   5.803  -1.924  0.00  0.00     0.055 C 
ATOM      8  C   UNL d   1       5.959   5.093  -0.586  0.00  0.00     0.019 C 
ENDBRANCH   1   7
TORSDOF 1
ENDMDL
