MODEL 1
REMARK minimizedAffinity 13.0016184
REMARK minimizedRMSD -1
REMARK  1 active torsions:
REMARK  status: ('A' for Active; 'I' for Inactive)
REMARK    1  A    between atoms: C1_2  and  C2_3 
ROOT
ATOM      1  C2  UNL d   1       4.029   3.118  -1.111  0.00  0.00    -0.077 A 
ATOM      2  C3  UNL d   1       3.548   2.886  -2.407  0.00  0.00     0.002 A 
ATOM      3  C4  UNL d   1       3.969   3.685  -3.471  0.00  0.00     0.002 A 
ATOM      4  C5  UNL d   1       4.877   4.720  -3.251  0.00  0.00    -0.004 A 
ATOM      5  C6  UNL d   1       5.360   4.960  -1.965  0.00  0.00     0.002 A 
ATOM      6  C7  UNL d   1       4.939   4.163  -0.900  0.00  0.00     0.002 A 
ENDROOT
BRANCH   1   7
ATOM      7  C1  UNL d   1       3.614   2.226   0.029  0.00  0.00     0.055 C 
ATOM      8  C   UNL d   1       3.199   3.040   1.246  0.00  0.00     0.019 C 
ENDBRANCH   1   7
TORSDOF 1
ENDMDL
