MODEL 1
REMARK minimizedAffinity 10.1917753
REMARK minimizedRMSD -1
REMARK  1 active torsions:
REMARK  status: ('A' for Active; 'I' for Inactive)
REMARK    1  A    between atoms: C1_2  and  C2_3 
ROOT
ATOM      1  C2  UNL d   1       5.278   4.889  -2.937  0.00  0.00    -0.077 A 
ATOM      2  C3  UNL d   1       6.000   4.718  -4.126  0.00  0.00     0.002 A 
ATOM      3  C4  UNL d   1       5.424   4.059  -5.214  0.00  0.00     0.002 A 
ATOM      4  C5  UNL d   1       4.122   3.570  -5.124  0.00  0.00    -0.004 A 
ATOM      5  C6  UNL d   1       3.396   3.733  -3.945  0.00  0.00     0.002 A 
ATOM      6  C7  UNL d   1       3.971   4.391  -2.856  0.00  0.00     0.002 A 
ENDROOT
BRANCH   1   7
ATOM      7  C1  UNL d   1       5.880   5.643  -1.780  0.00  0.00     0.055 C 
ATOM      8  C   UNL d   1       4.825   5.999  -0.742  0.00  0.00     0.019 C 
ENDBRANCH   1   7
TORSDOF 1
ENDMDL
