MODEL 1
REMARK minimizedAffinity 9.64563179
REMARK minimizedRMSD -1
REMARK  1 active torsions:
REMARK  status: ('A' for Active; 'I' for Inactive)
REMARK    1  A    between atoms: C1_2  and  C2_3 
ROOT
ATOM      1  C2  UNL d   1       4.903   3.746   0.048  0.00  0.00    -0.077 A 
ATOM      2  C3  UNL d   1       4.335   2.554  -0.424  0.00  0.00     0.002 A 
ATOM      3  C4  UNL d   1       3.291   1.943   0.274  0.00  0.00     0.002 A 
ATOM      4  C5  UNL d   1       2.804   2.519   1.445  0.00  0.00    -0.004 A 
ATOM      5  C6  UNL d   1       3.362   3.703   1.924  0.00  0.00     0.002 A 
ATOM      6  C7  UNL d   1       4.407   4.314   1.228  0.00  0.00     0.002 A 
ENDROOT
BRANCH   1   7
ATOM      7  C1  UNL d   1       5.995   4.432  -0.729  0.00  0.00     0.055 C 
ATOM      8  C   UNL d   1       5.476   5.678  -1.432  0.00  0.00     0.019 C 
ENDBRANCH   1   7
TORSDOF 1
ENDMDL
