MODEL 1
REMARK minimizedAffinity 8.78444386
REMARK minimizedRMSD -1
REMARK  1 active torsions:
REMARK  status: ('A' for Active; 'I' for Inactive)
REMARK    1  A    between atoms: C1_2  and  C2_3 
ROOT
ATOM      1  C2  UNL d   1      -5.982   0.532  -2.338  0.00  0.00    -0.077 A 
ATOM      2  C3  UNL d   1      -5.988  -0.868  -2.422  0.00  0.00     0.002 A 
ATOM      3  C4  UNL d   1      -5.999  -1.501  -3.667  0.00  0.00     0.002 A 
ATOM      4  C5  UNL d   1      -6.000  -0.742  -4.836  0.00  0.00    -0.004 A 
ATOM      5  C6  UNL d   1      -5.996   0.650  -4.763  0.00  0.00     0.002 A 
ATOM      6  C7  UNL d   1      -5.987   1.284  -3.519  0.00  0.00     0.002 A 
ENDROOT
BRANCH   1   7
ATOM      7  C1  UNL d   1      -5.921   1.216  -0.997  0.00  0.00     0.055 C 
ATOM      8  C   UNL d   1      -5.599   2.696  -1.145  0.00  0.00     0.019 C 
ENDBRANCH   1   7
TORSDOF 1
ENDMDL
