MODEL 1
REMARK minimizedAffinity -5.53489304
REMARK minimizedRMSD -1
REMARK  0 active torsions:
REMARK  status: ('A' for Active; 'I' for Inactive)
ROOT
ATOM      1  C4' PXY d   1       3.410  -1.239   2.498  0.00  0.00     0.077 C 
ATOM      2  C1' PXY d   1      -1.212   1.121  -0.048  0.00  0.00     0.077 C 
ATOM      3  C1  PXY d   1       0.001   0.494   0.609  0.00  0.00    -0.082 A 
ATOM      4  C2  PXY d   1       0.168   0.607   1.917  0.00  0.00     0.003 A 
ATOM      5  C3  PXY d   1       1.276   0.073   2.524  0.00  0.00     0.003 A 
ATOM      6  C4  PXY d   1       2.195  -0.629   1.792  0.00  0.00    -0.082 A 
ATOM      7  C5  PXY d   1       2.027  -0.759   0.459  0.00  0.00     0.003 A 
ATOM      8  C6  PXY d   1       0.917  -0.174  -0.144  0.00  0.00     0.003 A 
ENDROOT
TORSDOF 0
ENDMDL
