MODEL 1
REMARK minimizedAffinity -4.31687927
REMARK minimizedRMSD -1
REMARK  0 active torsions:
REMARK  status: ('A' for Active; 'I' for Inactive)
ROOT
ATOM      1  C4' PXY d   1      -1.500   3.458   1.972  0.00  0.00     0.077 C 
ATOM      2  C1' PXY d   1       0.879  -1.119  -0.636  0.00  0.00     0.077 C 
ATOM      3  C1  PXY d   1       0.246   0.082   0.039  0.00  0.00    -0.082 A 
ATOM      4  C2  PXY d   1       0.975   0.841   0.841  0.00  0.00     0.003 A 
ATOM      5  C3  PXY d   1       0.410   1.912   1.484  0.00  0.00     0.003 A 
ATOM      6  C4  PXY d   1      -0.900   2.241   1.262  0.00  0.00    -0.082 A 
ATOM      7  C5  PXY d   1      -1.647   1.478   0.437  0.00  0.00     0.003 A 
ATOM      8  C6  PXY d   1      -1.066   0.371  -0.175  0.00  0.00     0.003 A 
ENDROOT
TORSDOF 0
ENDMDL
