MODEL 1
REMARK minimizedAffinity -2.29789257
REMARK minimizedRMSD -1
REMARK  0 active torsions:
REMARK  status: ('A' for Active; 'I' for Inactive)
ROOT
ATOM      1  C4' PXY d   1      -1.459   2.779  -1.610  0.00  0.00     0.077 C 
ATOM      2  C1' PXY d   1       1.571  -0.745   1.827  0.00  0.00     0.077 C 
ATOM      3  C1  PXY d   1       0.769   0.182   0.936  0.00  0.00    -0.082 A 
ATOM      4  C2  PXY d   1       0.739  -0.029  -0.370  0.00  0.00     0.003 A 
ATOM      5  C3  PXY d   1       0.045   0.819  -1.194  0.00  0.00     0.003 A 
ATOM      6  C4  PXY d   1      -0.670   1.863  -0.671  0.00  0.00    -0.082 A 
ATOM      7  C5  PXY d   1      -0.654   2.078   0.662  0.00  0.00     0.003 A 
ATOM      8  C6  PXY d   1       0.091   1.231   1.477  0.00  0.00     0.003 A 
ENDROOT
TORSDOF 0
ENDMDL
