MODEL 1
REMARK minimizedAffinity -3.29772806
REMARK minimizedRMSD -1
REMARK  0 active torsions:
REMARK  status: ('A' for Active; 'I' for Inactive)
ROOT
ATOM      1  C4' PXY d   1      -0.473   2.645   1.947  0.00  0.00     0.077 C 
ATOM      2  C1' PXY d   1       0.093  -2.047  -1.382  0.00  0.00     0.077 C 
ATOM      3  C1  PXY d   1      -0.053  -0.809  -0.519  0.00  0.00    -0.082 A 
ATOM      4  C2  PXY d   1       0.130  -0.897   0.788  0.00  0.00     0.003 A 
ATOM      5  C3  PXY d   1      -0.030   0.206   1.587  0.00  0.00     0.003 A 
ATOM      6  C4  PXY d   1      -0.327   1.423   1.036  0.00  0.00    -0.082 A 
ATOM      7  C5  PXY d   1      -0.504   1.524  -0.299  0.00  0.00     0.003 A 
ATOM      8  C6  PXY d   1      -0.378   0.384  -1.087  0.00  0.00     0.003 A 
ENDROOT
TORSDOF 0
ENDMDL
