MODEL 1
REMARK minimizedAffinity -2.34284353
REMARK minimizedRMSD -1
REMARK  0 active torsions:
REMARK  status: ('A' for Active; 'I' for Inactive)
ROOT
ATOM      1  C4' PXY d   1       0.800  -2.301  -1.489  0.00  0.00     0.077 C 
ATOM      2  C1' PXY d   1       0.016   2.010   2.281  0.00  0.00     0.077 C 
ATOM      3  C1  PXY d   1       0.213   0.885   1.284  0.00  0.00    -0.082 A 
ATOM      4  C2  PXY d   1       0.708  -0.272   1.693  0.00  0.00     0.003 A 
ATOM      5  C3  PXY d   1       0.922  -1.290   0.800  0.00  0.00     0.003 A 
ATOM      6  C4  PXY d   1       0.576  -1.140  -0.517  0.00  0.00    -0.082 A 
ATOM      7  C5  PXY d   1       0.061   0.034  -0.940  0.00  0.00     0.003 A 
ATOM      8  C6  PXY d   1      -0.110   1.069  -0.024  0.00  0.00     0.003 A 
ENDROOT
TORSDOF 0
ENDMDL
