MODEL 1
REMARK minimizedAffinity -4.38626194
REMARK minimizedRMSD -1
REMARK  0 active torsions:
REMARK  status: ('A' for Active; 'I' for Inactive)
ROOT
ATOM      1  C4' PXY d   1       0.482  -1.065  -0.064  0.00  0.00     0.077 C 
ATOM      2  C1' PXY d   1      -2.165   3.807   1.570  0.00  0.00     0.077 C 
ATOM      3  C1  PXY d   1      -1.460   2.534   1.147  0.00  0.00    -0.082 A 
ATOM      4  C2  PXY d   1      -1.880   1.877   0.078  0.00  0.00     0.003 A 
ATOM      5  C3  PXY d   1      -1.275   0.706  -0.299  0.00  0.00     0.003 A 
ATOM      6  C4  PXY d   1      -0.193   0.231   0.393  0.00  0.00    -0.082 A 
ATOM      7  C5  PXY d   1       0.248   0.901   1.479  0.00  0.00     0.003 A 
ATOM      8  C6  PXY d   1      -0.406   2.065   1.870  0.00  0.00     0.003 A 
ENDROOT
TORSDOF 0
ENDMDL
