MODEL 1
REMARK minimizedAffinity 4.24679661
REMARK minimizedRMSD -1
REMARK  1 active torsions:
REMARK  status: ('A' for Active; 'I' for Inactive)
REMARK    1  A    between atoms: C3_4  and  O_7 
ROOT
ATOM      1  C   UNL d   1      -0.033  -0.765  -1.076  0.00  0.00    -0.033 A 
ATOM      2  C1  UNL d   1      -1.415  -0.564  -1.037  0.00  0.00     0.039 A 
ATOM      3  C2  UNL d   1      -2.017  -0.056   0.115  0.00  0.00    -0.080 A 
ATOM      4  C3  UNL d   1      -1.227   0.248   1.221  0.00  0.00     0.150 A 
ATOM      5  C4  UNL d   1       0.150   0.054   1.189  0.00  0.00    -0.007 A 
ATOM      6  C5  UNL d   1       0.749  -0.454   0.037  0.00  0.00     0.039 A 
ENDROOT
BRANCH   4   7
ATOM      7  O   UNL d   1      -1.770   0.741   2.370  0.00  0.00    -0.526 OA
ATOM      8  H5  UNL d   1      -2.734   0.795   2.257  0.00  0.00     0.418 HD
ENDBRANCH   4   7
TORSDOF 1
ENDMDL
