MODEL 1
REMARK minimizedAffinity 2.46654439
REMARK minimizedRMSD -1
REMARK  1 active torsions:
REMARK  status: ('A' for Active; 'I' for Inactive)
REMARK    1  A    between atoms: C3_4  and  O_7 
ROOT
ATOM      1  C   UNL d   1       1.330  -0.919  -0.081  0.00  0.00    -0.033 A 
ATOM      2  C1  UNL d   1       0.844  -1.632  -1.178  0.00  0.00     0.039 A 
ATOM      3  C2  UNL d   1      -0.520  -1.613  -1.476  0.00  0.00    -0.080 A 
ATOM      4  C3  UNL d   1      -1.386  -0.878  -0.671  0.00  0.00     0.150 A 
ATOM      5  C4  UNL d   1      -0.907  -0.162   0.422  0.00  0.00    -0.007 A 
ATOM      6  C5  UNL d   1       0.455  -0.183   0.718  0.00  0.00     0.039 A 
ENDROOT
BRANCH   4   7
ATOM      7  O   UNL d   1      -2.725  -0.833  -0.919  0.00  0.00    -0.526 OA
ATOM      8  H5  UNL d   1      -2.915  -1.398  -1.687  0.00  0.00     0.418 HD
ENDBRANCH   4   7
TORSDOF 1
ENDMDL
