MODEL 1
REMARK minimizedAffinity 1.29838383
REMARK minimizedRMSD -1
REMARK  1 active torsions:
REMARK  status: ('A' for Active; 'I' for Inactive)
REMARK    1  A    between atoms: C3_4  and  O_7 
ROOT
ATOM      1  C   UNL d   1      -1.850  -0.059   0.471  0.00  0.00    -0.033 A 
ATOM      2  C1  UNL d   1      -0.527  -0.478   0.322  0.00  0.00     0.039 A 
ATOM      3  C2  UNL d   1       0.225  -0.835   1.444  0.00  0.00    -0.080 A 
ATOM      4  C3  UNL d   1      -0.359  -0.770   2.706  0.00  0.00     0.150 A 
ATOM      5  C4  UNL d   1      -1.678  -0.358   2.861  0.00  0.00    -0.007 A 
ATOM      6  C5  UNL d   1      -2.427  -0.001   1.740  0.00  0.00     0.039 A 
ENDROOT
BRANCH   4   7
ATOM      7  O   UNL d   1       0.337  -1.104   3.830  0.00  0.00    -0.526 OA
ATOM      8  H5  UNL d   1       1.243  -1.342   3.572  0.00  0.00     0.418 HD
ENDBRANCH   4   7
TORSDOF 1
ENDMDL
