MODEL 1
REMARK minimizedAffinity 2.04042149
REMARK minimizedRMSD -1
REMARK  1 active torsions:
REMARK  status: ('A' for Active; 'I' for Inactive)
REMARK    1  A    between atoms: C3_4  and  O_7 
ROOT
ATOM      1  C   UNL d   1      -0.890  -0.398  -1.039  0.00  0.00    -0.033 A 
ATOM      2  C1  UNL d   1      -0.285  -0.013   0.159  0.00  0.00     0.039 A 
ATOM      3  C2  UNL d   1      -1.038   0.055   1.332  0.00  0.00    -0.080 A 
ATOM      4  C3  UNL d   1      -2.393  -0.264   1.295  0.00  0.00     0.150 A 
ATOM      5  C4  UNL d   1      -3.001  -0.652   0.105  0.00  0.00    -0.007 A 
ATOM      6  C5  UNL d   1      -2.247  -0.719  -1.066  0.00  0.00     0.039 A 
ENDROOT
BRANCH   4   7
ATOM      7  O   UNL d   1      -3.170  -0.207   2.414  0.00  0.00    -0.526 OA
ATOM      8  H5  UNL d   1      -2.622   0.104   3.153  0.00  0.00     0.418 HD
ENDBRANCH   4   7
TORSDOF 1
ENDMDL
