MODEL 1
REMARK minimizedAffinity 12.7692204
REMARK minimizedRMSD -1
REMARK  0 active torsions:
REMARK  status: ('A' for Active; 'I' for Inactive)
ROOT
ATOM      1  C   UNL d   1       2.148  -4.296   4.890  0.00  0.00    -0.002 A 
ATOM      2  C1  UNL d   1       1.481  -4.890   3.828  0.00  0.00     0.010 A 
ATOM      3  C2  UNL d   1       1.165  -4.151   2.686  0.00  0.00     0.041 A 
ATOM      4  C3  UNL d   1       1.535  -2.793   2.628  0.00  0.00    -0.075 A 
ATOM      5  S   UNL d   1       1.254  -1.693   1.331  0.00  0.00     0.015 SA
ATOM      6  C4  UNL d   1       2.013  -0.409   2.156  0.00  0.00     0.022 A 
ATOM      7  C5  UNL d   1       2.475  -0.793   3.393  0.00  0.00     0.026 A 
ATOM      8  C6  UNL d   1       2.208  -2.173   3.685  0.00  0.00    -0.082 A 
ATOM      9  C7  UNL d   1       2.514  -2.949   4.829  0.00  0.00     0.045 A 
ENDROOT
TORSDOF 0
ENDMDL
