MODEL 1
REMARK minimizedAffinity 12.2201624
REMARK minimizedRMSD -1
REMARK  0 active torsions:
REMARK  status: ('A' for Active; 'I' for Inactive)
ROOT
ATOM      1  C   UNL d   1       2.076  -3.249   1.727  0.00  0.00    -0.002 A 
ATOM      2  C1  UNL d   1       1.565  -2.197   2.473  0.00  0.00     0.010 A 
ATOM      3  C2  UNL d   1       1.195  -2.386   3.806  0.00  0.00     0.041 A 
ATOM      4  C3  UNL d   1       1.349  -3.662   4.382  0.00  0.00    -0.075 A 
ATOM      5  S   UNL d   1       0.964  -4.127   5.997  0.00  0.00     0.015 SA
ATOM      6  C4  UNL d   1       1.469  -5.734   5.734  0.00  0.00     0.022 A 
ATOM      7  C5  UNL d   1       1.923  -5.928   4.451  0.00  0.00     0.026 A 
ATOM      8  C6  UNL d   1       1.862  -4.737   3.651  0.00  0.00    -0.082 A 
ATOM      9  C7  UNL d   1       2.228  -4.514   2.302  0.00  0.00     0.045 A 
ENDROOT
TORSDOF 0
ENDMDL
