MODEL 1
REMARK minimizedAffinity 8.82976151
REMARK minimizedRMSD -1
REMARK  0 active torsions:
REMARK  status: ('A' for Active; 'I' for Inactive)
ROOT
ATOM      1  C   UNL d   1       0.851  -1.473   2.215  0.00  0.00    -0.002 A 
ATOM      2  C1  UNL d   1       1.938  -0.807   1.665  0.00  0.00     0.010 A 
ATOM      3  C2  UNL d   1       3.241  -1.179   1.998  0.00  0.00     0.041 A 
ATOM      4  C3  UNL d   1       3.437  -2.244   2.900  0.00  0.00    -0.075 A 
ATOM      5  S   UNL d   1       4.944  -2.874   3.452  0.00  0.00     0.015 SA
ATOM      6  C4  UNL d   1       4.181  -4.043   4.431  0.00  0.00     0.022 A 
ATOM      7  C5  UNL d   1       2.811  -3.968   4.350  0.00  0.00     0.026 A 
ATOM      8  C6  UNL d   1       2.359  -2.930   3.466  0.00  0.00    -0.082 A 
ATOM      9  C7  UNL d   1       1.050  -2.528   3.109  0.00  0.00     0.045 A 
ENDROOT
TORSDOF 0
ENDMDL
