MODEL 1
REMARK minimizedAffinity 2.26972389
REMARK minimizedRMSD -1
REMARK  0 active torsions:
REMARK  status: ('A' for Active; 'I' for Inactive)
ROOT
ATOM      1  C   UNL d   1       3.034  -5.980  -1.106  0.00  0.00    -0.002 A 
ATOM      2  C1  UNL d   1       1.802  -5.992  -1.746  0.00  0.00     0.010 A 
ATOM      3  C2  UNL d   1       1.726  -5.996  -3.140  0.00  0.00     0.041 A 
ATOM      4  C3  UNL d   1       2.919  -5.989  -3.888  0.00  0.00    -0.075 A 
ATOM      5  S   UNL d   1       3.070  -5.993  -5.605  0.00  0.00     0.015 SA
ATOM      6  C4  UNL d   1       4.772  -5.979  -5.531  0.00  0.00     0.022 A 
ATOM      7  C5  UNL d   1       5.232  -5.971  -4.235  0.00  0.00     0.026 A 
ATOM      8  C6  UNL d   1       4.171  -5.977  -3.267  0.00  0.00    -0.082 A 
ATOM      9  C7  UNL d   1       4.216  -5.973  -1.852  0.00  0.00     0.045 A 
ENDROOT
TORSDOF 0
ENDMDL
