MODEL 1
REMARK minimizedAffinity 5.53465652
REMARK minimizedRMSD -1
REMARK  0 active torsions:
REMARK  status: ('A' for Active; 'I' for Inactive)
ROOT
ATOM      1  C   UNL d   1       1.285  -5.999  -3.843  0.00  0.00    -0.002 A 
ATOM      2  C1  UNL d   1       1.254  -5.996  -5.230  0.00  0.00     0.010 A 
ATOM      3  C2  UNL d   1       2.439  -5.959  -5.967  0.00  0.00     0.041 A 
ATOM      4  C3  UNL d   1       3.668  -5.928  -5.279  0.00  0.00    -0.075 A 
ATOM      5  S   UNL d   1       5.246  -5.881  -5.972  0.00  0.00     0.015 SA
ATOM      6  C4  UNL d   1       5.999  -5.865  -4.443  0.00  0.00     0.022 A 
ATOM      7  C5  UNL d   1       5.083  -5.894  -3.418  0.00  0.00     0.026 A 
ATOM      8  C6  UNL d   1       3.725  -5.931  -3.882  0.00  0.00    -0.082 A 
ATOM      9  C7  UNL d   1       2.506  -5.967  -3.164  0.00  0.00     0.045 A 
ENDROOT
TORSDOF 0
ENDMDL
