MODEL 1
REMARK minimizedAffinity 16.4011517
REMARK minimizedRMSD -1
REMARK  0 active torsions:
REMARK  status: ('A' for Active; 'I' for Inactive)
ROOT
ATOM      1  C   UNL d   1       3.599  -5.963  -5.847  0.00  0.00    -0.002 A 
ATOM      2  C1  UNL d   1       2.278  -5.966  -5.421  0.00  0.00     0.010 A 
ATOM      3  C2  UNL d   1       1.970  -5.960  -4.059  0.00  0.00     0.041 A 
ATOM      4  C3  UNL d   1       3.022  -5.950  -3.123  0.00  0.00    -0.075 A 
ATOM      5  S   UNL d   1       2.885  -5.940  -1.404  0.00  0.00     0.015 SA
ATOM      6  C4  UNL d   1       4.576  -5.931  -1.194  0.00  0.00     0.022 A 
ATOM      7  C5  UNL d   1       5.245  -5.935  -2.395  0.00  0.00     0.026 A 
ATOM      8  C6  UNL d   1       4.361  -5.946  -3.527  0.00  0.00    -0.082 A 
ATOM      9  C7  UNL d   1       4.640  -5.952  -4.915  0.00  0.00     0.045 A 
ENDROOT
TORSDOF 0
ENDMDL
