MODEL 1
REMARK minimizedAffinity -0.731444955
REMARK minimizedRMSD -1
REMARK  0 active torsions:
REMARK  status: ('A' for Active; 'I' for Inactive)
ROOT
ATOM      1  C   UNL d   1       2.968  -5.984  -5.732  0.00  0.00    -0.002 A 
ATOM      2  C1  UNL d   1       1.733  -5.974  -5.099  0.00  0.00     0.010 A 
ATOM      3  C2  UNL d   1       1.649  -5.972  -3.705  0.00  0.00     0.041 A 
ATOM      4  C3  UNL d   1       2.839  -5.977  -2.951  0.00  0.00    -0.075 A 
ATOM      5  S   UNL d   1       2.981  -5.975  -1.233  0.00  0.00     0.015 SA
ATOM      6  C4  UNL d   1       4.684  -5.986  -1.298  0.00  0.00     0.022 A 
ATOM      7  C5  UNL d   1       5.150  -5.992  -2.592  0.00  0.00     0.026 A 
ATOM      8  C6  UNL d   1       4.095  -5.987  -3.566  0.00  0.00    -0.082 A 
ATOM      9  C7  UNL d   1       4.146  -5.990  -4.980  0.00  0.00     0.045 A 
ENDROOT
TORSDOF 0
ENDMDL
