MODEL 1
REMARK minimizedAffinity 9.74249554
REMARK minimizedRMSD -1
REMARK  0 active torsions:
REMARK  status: ('A' for Active; 'I' for Inactive)
ROOT
ATOM      1  C   UNL d   1       1.541   0.057   3.529  0.00  0.00    -0.002 A 
ATOM      2  C1  UNL d   1       1.495  -0.321   4.864  0.00  0.00     0.010 A 
ATOM      3  C2  UNL d   1       1.642  -1.661   5.228  0.00  0.00     0.041 A 
ATOM      4  C3  UNL d   1       1.839  -2.624   4.218  0.00  0.00    -0.075 A 
ATOM      5  S   UNL d   1       2.044  -4.323   4.428  0.00  0.00     0.015 SA
ATOM      6  C4  UNL d   1       2.198  -4.586   2.751  0.00  0.00     0.022 A 
ATOM      7  C5  UNL d   1       2.098  -3.418   2.034  0.00  0.00     0.026 A 
ATOM      8  C6  UNL d   1       1.890  -2.267   2.867  0.00  0.00    -0.082 A 
ATOM      9  C7  UNL d   1       1.737  -0.901   2.531  0.00  0.00     0.045 A 
ENDROOT
TORSDOF 0
ENDMDL
