MODEL 1
REMARK minimizedAffinity 6.14643192
REMARK minimizedRMSD -1
REMARK  0 active torsions:
REMARK  status: ('A' for Active; 'I' for Inactive)
ROOT
ATOM      1  C   UNL d   1       1.947  -2.248   3.339  0.00  0.00    -0.002 A 
ATOM      2  C1  UNL d   1       3.244  -2.600   3.684  0.00  0.00     0.010 A 
ATOM      3  C2  UNL d   1       3.485  -3.702   4.507  0.00  0.00     0.041 A 
ATOM      4  C3  UNL d   1       2.390  -4.452   4.980  0.00  0.00    -0.075 A 
ATOM      5  S   UNL d   1       2.445  -5.841   6.000  0.00  0.00     0.015 SA
ATOM      6  C4  UNL d   1       0.748  -6.000   5.999  0.00  0.00     0.022 A 
ATOM      7  C5  UNL d   1       0.139  -5.025   5.245  0.00  0.00     0.026 A 
ATOM      8  C6  UNL d   1       1.075  -4.117   4.645  0.00  0.00    -0.082 A 
ATOM      9  C7  UNL d   1       0.864  -2.994   3.810  0.00  0.00     0.045 A 
ENDROOT
TORSDOF 0
ENDMDL
