MODEL 1
REMARK minimizedAffinity 14.0330324
REMARK minimizedRMSD -1
REMARK  0 active torsions:
REMARK  status: ('A' for Active; 'I' for Inactive)
ROOT
ATOM      1  C   UNL d   1       1.550  -2.046   1.901  0.00  0.00    -0.002 A 
ATOM      2  C1  UNL d   1       1.630  -1.685   3.238  0.00  0.00     0.010 A 
ATOM      3  C2  UNL d   1       2.070  -0.411   3.605  0.00  0.00     0.041 A 
ATOM      4  C3  UNL d   1       2.429   0.502   2.594  0.00  0.00    -0.075 A 
ATOM      5  S   UNL d   1       2.994   2.117   2.806  0.00  0.00     0.015 SA
ATOM      6  C4  UNL d   1       3.141   2.366   1.126  0.00  0.00     0.022 A 
ATOM      7  C5  UNL d   1       2.772   1.254   0.407  0.00  0.00     0.026 A 
ATOM      8  C6  UNL d   1       2.355   0.162   1.241  0.00  0.00    -0.082 A 
ATOM      9  C7  UNL d   1       1.907  -1.137   0.902  0.00  0.00     0.045 A 
ENDROOT
TORSDOF 0
ENDMDL
