MODEL 1
REMARK minimizedAffinity -5.15566111
REMARK minimizedRMSD -1
REMARK  2 active torsions:
REMARK  status: ('A' for Active; 'I' for Inactive)
REMARK    1  A    between atoms: C2'_3  and  C1'_4 
REMARK    2  A    between atoms: C1'_4  and  C1_5 
ROOT
ATOM      1  C1  I4B d   1       0.349   0.085  -0.319  0.00  0.00    -0.075 A 
ATOM      2  C2  I4B d   1      -0.993   0.206  -0.058  0.00  0.00     0.003 A 
ATOM      3  C3  I4B d   1      -1.466   0.174   1.277  0.00  0.00     0.002 A 
ATOM      4  C4  I4B d   1      -0.573  -0.030   2.309  0.00  0.00    -0.004 A 
ATOM      5  C5  I4B d   1       0.790  -0.129   2.044  0.00  0.00     0.002 A 
ATOM      6  C6  I4B d   1       1.256  -0.059   0.723  0.00  0.00     0.003 A 
ENDROOT
BRANCH   1   7
ATOM      7  C1' I4B d   1       0.810   0.089  -1.742  0.00  0.00     0.060 C 
BRANCH   7   8
ATOM      8  C2' I4B d   1       1.380  -1.280  -2.052  0.00  0.00    -0.013 C 
ATOM      9  C4' I4B d   1       0.496  -2.033  -3.012  0.00  0.00     0.013 C 
ATOM     10  C3' I4B d   1       2.756  -1.091  -2.617  0.00  0.00     0.013 C 
ENDBRANCH   7   8
ENDBRANCH   1   7
TORSDOF 2
ENDMDL
