MODEL 1
REMARK minimizedAffinity -3.87726378
REMARK minimizedRMSD -1
REMARK  2 active torsions:
REMARK  status: ('A' for Active; 'I' for Inactive)
REMARK    1  A    between atoms: C2'_3  and  C1'_4 
REMARK    2  A    between atoms: C1'_4  and  C1_5 
ROOT
ATOM      1  C1  I4B d   1      -0.176  -0.030  -0.126  0.00  0.00    -0.075 A 
ATOM      2  C2  I4B d   1       0.837   0.072   0.794  0.00  0.00     0.003 A 
ATOM      3  C3  I4B d   1       0.586  -0.190   2.163  0.00  0.00     0.002 A 
ATOM      4  C4  I4B d   1      -0.695  -0.500   2.571  0.00  0.00    -0.004 A 
ATOM      5  C5  I4B d   1      -1.716  -0.625   1.633  0.00  0.00     0.002 A 
ATOM      6  C6  I4B d   1      -1.453  -0.401   0.274  0.00  0.00     0.003 A 
ENDROOT
BRANCH   1   7
ATOM      7  C1' I4B d   1       0.118   0.286  -1.559  0.00  0.00     0.060 C 
BRANCH   7   8
ATOM      8  C2' I4B d   1       0.747  -0.939  -2.188  0.00  0.00    -0.013 C 
ATOM      9  C4' I4B d   1      -0.238  -1.672  -3.060  0.00  0.00     0.013 C 
ATOM     10  C3' I4B d   1       1.942  -0.493  -2.977  0.00  0.00     0.013 C 
ENDBRANCH   7   8
ENDBRANCH   1   7
TORSDOF 2
ENDMDL
