MODEL 1
REMARK minimizedAffinity -5.72290468
REMARK minimizedRMSD -1
REMARK  2 active torsions:
REMARK  status: ('A' for Active; 'I' for Inactive)
REMARK    1  A    between atoms: C2'_3  and  C1'_4 
REMARK    2  A    between atoms: C1'_4  and  C1_5 
ROOT
ATOM      1  C1  I4B d   1      -0.503  -0.022  -0.847  0.00  0.00    -0.075 A 
ATOM      2  C2  I4B d   1       0.347  -0.567   0.083  0.00  0.00     0.003 A 
ATOM      3  C3  I4B d   1      -0.098  -0.796   1.407  0.00  0.00     0.002 A 
ATOM      4  C4  I4B d   1      -1.376  -0.422   1.769  0.00  0.00    -0.004 A 
ATOM      5  C5  I4B d   1      -2.243   0.109   0.819  0.00  0.00     0.002 A 
ATOM      6  C6  I4B d   1      -1.809   0.299  -0.500  0.00  0.00     0.003 A 
ENDROOT
BRANCH   1   7
ATOM      7  C1' I4B d   1       0.010   0.237  -2.228  0.00  0.00     0.060 C 
BRANCH   7   8
ATOM      8  C2' I4B d   1       0.907  -0.921  -2.618  0.00  0.00    -0.013 C 
ATOM      9  C4' I4B d   1       0.174  -1.911  -3.484  0.00  0.00     0.013 C 
ATOM     10  C3' I4B d   1       2.103  -0.361  -3.329  0.00  0.00     0.013 C 
ENDBRANCH   7   8
ENDBRANCH   1   7
TORSDOF 2
ENDMDL
