MODEL 1
REMARK minimizedAffinity -5.21643734
REMARK minimizedRMSD -1
REMARK  2 active torsions:
REMARK  status: ('A' for Active; 'I' for Inactive)
REMARK    1  A    between atoms: C2'_3  and  C1'_4 
REMARK    2  A    between atoms: C1'_4  and  C1_5 
ROOT
ATOM      1  C1  I4B d   1      -0.281  -0.369  -0.590  0.00  0.00    -0.075 A 
ATOM      2  C2  I4B d   1      -0.382  -1.558  -1.269  0.00  0.00     0.003 A 
ATOM      3  C3  I4B d   1       0.302  -1.739  -2.495  0.00  0.00     0.002 A 
ATOM      4  C4  I4B d   1       1.030  -0.694  -3.028  0.00  0.00    -0.004 A 
ATOM      5  C5  I4B d   1       1.150   0.502  -2.327  0.00  0.00     0.002 A 
ATOM      6  C6  I4B d   1       0.501   0.662  -1.094  0.00  0.00     0.003 A 
ENDROOT
BRANCH   1   7
ATOM      7  C1' I4B d   1      -1.043  -0.201   0.686  0.00  0.00     0.060 C 
BRANCH   7   8
ATOM      8  C2' I4B d   1      -0.159  -0.674   1.823  0.00  0.00    -0.013 C 
ATOM      9  C4' I4B d   1       0.649   0.462   2.393  0.00  0.00     0.013 C 
ATOM     10  C3' I4B d   1      -1.040  -1.289   2.869  0.00  0.00     0.013 C 
ENDBRANCH   7   8
ENDBRANCH   1   7
TORSDOF 2
ENDMDL
