MODEL 1
REMARK minimizedAffinity -5.30686378
REMARK minimizedRMSD -1
REMARK  2 active torsions:
REMARK  status: ('A' for Active; 'I' for Inactive)
REMARK    1  A    between atoms: C2'_3  and  C1'_4 
REMARK    2  A    between atoms: C1'_4  and  C1_5 
ROOT
ATOM      1  C1  I4B d   1       0.029  -0.020  -0.280  0.00  0.00    -0.075 A 
ATOM      2  C2  I4B d   1       1.190   0.375   0.335  0.00  0.00     0.003 A 
ATOM      3  C3  I4B d   1       1.396   0.106   1.710  0.00  0.00     0.002 A 
ATOM      4  C4  I4B d   1       0.400  -0.511   2.439  0.00  0.00    -0.004 A 
ATOM      5  C5  I4B d   1      -0.768  -0.932   1.808  0.00  0.00     0.002 A 
ATOM      6  C6  I4B d   1      -0.950  -0.696   0.438  0.00  0.00     0.003 A 
ENDROOT
BRANCH   1   7
ATOM      7  C1' I4B d   1      -0.170   0.310  -1.725  0.00  0.00     0.060 C 
BRANCH   7   8
ATOM      8  C2' I4B d   1       0.747  -0.582  -2.537  0.00  0.00    -0.013 C 
ATOM      9  C4' I4B d   1      -0.040  -1.504  -3.430  0.00  0.00     0.013 C 
ATOM     10  C3' I4B d   1       1.659   0.299  -3.338  0.00  0.00     0.013 C 
ENDBRANCH   7   8
ENDBRANCH   1   7
TORSDOF 2
ENDMDL
