MODEL 1
REMARK minimizedAffinity -3.48247719
REMARK minimizedRMSD -1
REMARK  2 active torsions:
REMARK  status: ('A' for Active; 'I' for Inactive)
REMARK    1  A    between atoms: C2'_3  and  C1'_4 
REMARK    2  A    between atoms: C1'_4  and  C1_5 
ROOT
ATOM      1  C1  I4B d   1      -0.220   0.192   0.001  0.00  0.00    -0.075 A 
ATOM      2  C2  I4B d   1       0.973   0.335   0.665  0.00  0.00     0.003 A 
ATOM      3  C3  I4B d   1       1.036   0.148   2.067  0.00  0.00     0.002 A 
ATOM      4  C4  I4B d   1      -0.120  -0.131   2.768  0.00  0.00    -0.004 A 
ATOM      5  C5  I4B d   1      -1.324  -0.299   2.090  0.00  0.00     0.002 A 
ATOM      6  C6  I4B d   1      -1.373  -0.149   0.697  0.00  0.00     0.003 A 
ENDROOT
BRANCH   1   7
ATOM      7  C1' I4B d   1      -0.256   0.429  -1.475  0.00  0.00     0.060 C 
BRANCH   7   8
ATOM      8  C2' I4B d   1       0.654  -0.587  -2.134  0.00  0.00    -0.013 C 
ATOM      9  C4' I4B d   1      -0.137  -1.591  -2.931  0.00  0.00     0.013 C 
ATOM     10  C3' I4B d   1       1.622   0.155  -3.006  0.00  0.00     0.013 C 
ENDBRANCH   7   8
ENDBRANCH   1   7
TORSDOF 2
ENDMDL
