MODEL 1
REMARK minimizedAffinity -6.72759008
REMARK minimizedRMSD -1
REMARK  2 active torsions:
REMARK  status: ('A' for Active; 'I' for Inactive)
REMARK    1  A    between atoms: C2'_3  and  C1'_4 
REMARK    2  A    between atoms: C1'_4  and  C1_5 
ROOT
ATOM      1  C1  I4B d   1      -0.564  -0.130   1.158  0.00  0.00    -0.075 A 
ATOM      2  C2  I4B d   1       0.094   0.016   2.354  0.00  0.00     0.003 A 
ATOM      3  C3  I4B d   1      -0.632   0.030   3.570  0.00  0.00     0.002 A 
ATOM      4  C4  I4B d   1      -2.009  -0.053   3.541  0.00  0.00    -0.004 A 
ATOM      5  C5  I4B d   1      -2.673  -0.224   2.329  0.00  0.00     0.002 A 
ATOM      6  C6  I4B d   1      -1.945  -0.275   1.131  0.00  0.00     0.003 A 
ENDROOT
BRANCH   1   7
ATOM      7  C1' I4B d   1       0.230  -0.108  -0.109  0.00  0.00     0.060 C 
BRANCH   7   8
ATOM      8  C2' I4B d   1      -0.739  -0.212  -1.269  0.00  0.00    -0.013 C 
ATOM      9  C4' I4B d   1      -0.902   1.113  -1.964  0.00  0.00     0.013 C 
ATOM     10  C3' I4B d   1      -0.222  -1.258  -2.211  0.00  0.00     0.013 C 
ENDBRANCH   7   8
ENDBRANCH   1   7
TORSDOF 2
ENDMDL
