MODEL 1
REMARK minimizedAffinity -6.08378267
REMARK minimizedRMSD -1
REMARK  2 active torsions:
REMARK  status: ('A' for Active; 'I' for Inactive)
REMARK    1  A    between atoms: C2'_3  and  C1'_4 
REMARK    2  A    between atoms: C1'_4  and  C1_5 
ROOT
ATOM      1  C1  I4B d   1      -1.169  -0.293   1.250  0.00  0.00    -0.075 A 
ATOM      2  C2  I4B d   1      -0.801  -0.291   2.573  0.00  0.00     0.003 A 
ATOM      3  C3  I4B d   1      -1.707   0.157   3.564  0.00  0.00     0.002 A 
ATOM      4  C4  I4B d   1      -2.945   0.637   3.187  0.00  0.00    -0.004 A 
ATOM      5  C5  I4B d   1      -3.324   0.613   1.848  0.00  0.00     0.002 A 
ATOM      6  C6  I4B d   1      -2.436   0.134   0.874  0.00  0.00     0.003 A 
ENDROOT
BRANCH   1   7
ATOM      7  C1' I4B d   1      -0.174  -0.741   0.226  0.00  0.00     0.060 C 
BRANCH   7   8
ATOM      8  C2' I4B d   1       0.224   0.467  -0.597  0.00  0.00    -0.013 C 
ATOM      9  C4' I4B d   1       1.253   1.301   0.121  0.00  0.00     0.013 C 
ATOM     10  C3' I4B d   1       0.748  -0.023  -1.914  0.00  0.00     0.013 C 
ENDBRANCH   7   8
ENDBRANCH   1   7
TORSDOF 2
ENDMDL
