MODEL 1
REMARK minimizedAffinity -5.33685541
REMARK minimizedRMSD -1
REMARK  2 active torsions:
REMARK  status: ('A' for Active; 'I' for Inactive)
REMARK    1  A    between atoms: C2'_3  and  C1'_4 
REMARK    2  A    between atoms: C1'_4  and  C1_5 
ROOT
ATOM      1  C1  I4B d   1      -0.346   0.318   0.025  0.00  0.00    -0.075 A 
ATOM      2  C2  I4B d   1      -1.450  -0.249   0.612  0.00  0.00     0.003 A 
ATOM      3  C3  I4B d   1      -1.389  -0.708   1.950  0.00  0.00     0.002 A 
ATOM      4  C4  I4B d   1      -0.198  -0.629   2.642  0.00  0.00    -0.004 A 
ATOM      5  C5  I4B d   1       0.914  -0.034   2.053  0.00  0.00     0.002 A 
ATOM      6  C6  I4B d   1       0.836   0.454   0.741  0.00  0.00     0.003 A 
ENDROOT
BRANCH   1   7
ATOM      7  C1' I4B d   1      -0.437   0.763  -1.400  0.00  0.00     0.060 C 
BRANCH   7   8
ATOM      8  C2' I4B d   1       0.399  -0.183  -2.238  0.00  0.00    -0.013 C 
ATOM      9  C4' I4B d   1      -0.470  -1.116  -3.039  0.00  0.00     0.013 C 
ATOM     10  C3' I4B d   1       1.275   0.642  -3.133  0.00  0.00     0.013 C 
ENDBRANCH   7   8
ENDBRANCH   1   7
TORSDOF 2
ENDMDL
