MODEL 1
REMARK minimizedAffinity -3.53082681
REMARK minimizedRMSD -1
REMARK  2 active torsions:
REMARK  status: ('A' for Active; 'I' for Inactive)
REMARK    1  A    between atoms: C2'_3  and  C1'_4 
REMARK    2  A    between atoms: C1'_4  and  C1_5 
ROOT
ATOM      1  C1  I4B d   1       0.005   0.209  -0.671  0.00  0.00    -0.075 A 
ATOM      2  C2  I4B d   1      -1.147  -0.278  -0.105  0.00  0.00     0.003 A 
ATOM      3  C3  I4B d   1      -1.208  -0.521   1.289  0.00  0.00     0.002 A 
ATOM      4  C4  I4B d   1      -0.087  -0.314   2.065  0.00  0.00    -0.004 A 
ATOM      5  C5  I4B d   1       1.073   0.201   1.493  0.00  0.00     0.002 A 
ATOM      6  C6  I4B d   1       1.116   0.476   0.119  0.00  0.00     0.003 A 
ENDROOT
BRANCH   1   7
ATOM      7  C1' I4B d   1       0.046   0.424  -2.151  0.00  0.00     0.060 C 
BRANCH   7   8
ATOM      8  C2' I4B d   1       0.835  -0.714  -2.766  0.00  0.00    -0.013 C 
ATOM      9  C4' I4B d   1      -0.068  -1.668  -3.503  0.00  0.00     0.013 C 
ATOM     10  C3' I4B d   1       1.862  -0.122  -3.684  0.00  0.00     0.013 C 
ENDBRANCH   7   8
ENDBRANCH   1   7
TORSDOF 2
ENDMDL
