MODEL 1
REMARK minimizedAffinity 0.12403629
REMARK minimizedRMSD -1
REMARK  2 active torsions:
REMARK  status: ('A' for Active; 'I' for Inactive)
REMARK    1  A    between atoms: C2'_3  and  C1'_4 
REMARK    2  A    between atoms: C1'_4  and  C1_5 
ROOT
ATOM      1  C1  I4B d   1      -0.948  -0.106   0.540  0.00  0.00    -0.075 A 
ATOM      2  C2  I4B d   1       0.080   0.386   1.305  0.00  0.00     0.003 A 
ATOM      3  C3  I4B d   1       0.137   0.099   2.690  0.00  0.00     0.002 A 
ATOM      4  C4  I4B d   1      -0.874  -0.635   3.275  0.00  0.00    -0.004 A 
ATOM      5  C5  I4B d   1      -1.903  -1.152   2.494  0.00  0.00     0.002 A 
ATOM      6  C6  I4B d   1      -1.935  -0.897   1.115  0.00  0.00     0.003 A 
ENDROOT
BRANCH   1   7
ATOM      7  C1' I4B d   1      -0.996   0.243  -0.914  0.00  0.00     0.060 C 
BRANCH   7   8
ATOM      8  C2' I4B d   1       0.318   0.904  -1.278  0.00  0.00    -0.013 C 
ATOM      9  C4' I4B d   1       1.108   0.053  -2.239  0.00  0.00     0.013 C 
ATOM     10  C3' I4B d   1       0.012   2.247  -1.870  0.00  0.00     0.013 C 
ENDBRANCH   7   8
ENDBRANCH   1   7
TORSDOF 2
ENDMDL
