MODEL 1
REMARK minimizedAffinity -4.39859772
REMARK minimizedRMSD -1
REMARK  0 active torsions:
REMARK  status: ('A' for Active; 'I' for Inactive)
ROOT
ATOM      1  C   UNL d   1       0.169  -0.802  -2.179  0.00  0.00     0.077 C 
ATOM      2  C1  UNL d   1      -0.182  -0.234  -0.836  0.00  0.00    -0.074 A 
ATOM      3  C2  UNL d   1      -1.511   0.038  -0.495  0.00  0.00    -0.005 A 
ATOM      4  C3  UNL d   1      -1.823   0.557   0.761  0.00  0.00     0.006 A 
ATOM      5  C4  UNL d   1      -0.811   0.809   1.689  0.00  0.00    -0.005 A 
ATOM      6  C5  UNL d   1       0.523   0.542   1.367  0.00  0.00    -0.074 A 
ATOM      7  C6  UNL d   1       1.622   0.797   2.355  0.00  0.00     0.077 C 
ATOM      8  C7  UNL d   1       0.828   0.014   0.104  0.00  0.00    -0.001 A 
ENDROOT
TORSDOF 0
ENDMDL
