MODEL 1
REMARK minimizedAffinity -2.11735415
REMARK minimizedRMSD -1
REMARK  0 active torsions:
REMARK  status: ('A' for Active; 'I' for Inactive)
ROOT
ATOM      1  C   UNL d   1      -0.065  -0.681  -2.604  0.00  0.00     0.077 C 
ATOM      2  C1  UNL d   1       0.206  -0.405  -1.155  0.00  0.00    -0.074 A 
ATOM      3  C2  UNL d   1       1.461  -0.667  -0.596  0.00  0.00    -0.005 A 
ATOM      4  C3  UNL d   1       1.701  -0.396   0.751  0.00  0.00     0.006 A 
ATOM      5  C4  UNL d   1       0.691   0.139   1.551  0.00  0.00    -0.005 A 
ATOM      6  C5  UNL d   1      -0.570   0.409   1.010  0.00  0.00    -0.074 A 
ATOM      7  C6  UNL d   1      -1.664   0.993   1.853  0.00  0.00     0.077 C 
ATOM      8  C7  UNL d   1      -0.801   0.140  -0.347  0.00  0.00    -0.001 A 
ENDROOT
TORSDOF 0
ENDMDL
