MODEL 1
REMARK minimizedAffinity -4.44542551
REMARK minimizedRMSD -1
REMARK  0 active torsions:
REMARK  status: ('A' for Active; 'I' for Inactive)
ROOT
ATOM      1  C   UNL d   1      -1.074   1.660   2.274  0.00  0.00     0.077 C 
ATOM      2  C1  UNL d   1      -0.046   0.859   1.532  0.00  0.00    -0.074 A 
ATOM      3  C2  UNL d   1       1.179   0.538   2.124  0.00  0.00    -0.005 A 
ATOM      4  C3  UNL d   1       2.122  -0.216   1.425  0.00  0.00     0.006 A 
ATOM      5  C4  UNL d   1       1.849  -0.657   0.130  0.00  0.00    -0.005 A 
ATOM      6  C5  UNL d   1       0.628  -0.347  -0.478  0.00  0.00    -0.074 A 
ATOM      7  C6  UNL d   1       0.315  -0.820  -1.866  0.00  0.00     0.077 C 
ATOM      8  C7  UNL d   1      -0.316   0.406   0.233  0.00  0.00    -0.001 A 
ENDROOT
TORSDOF 0
ENDMDL
