MODEL 1
REMARK minimizedAffinity -2.72659707
REMARK minimizedRMSD -1
REMARK  0 active torsions:
REMARK  status: ('A' for Active; 'I' for Inactive)
ROOT
ATOM      1  C   UNL d   1       0.712  -0.801  -1.348  0.00  0.00     0.077 C 
ATOM      2  C1  UNL d   1      -0.493  -0.270  -0.630  0.00  0.00    -0.074 A 
ATOM      3  C2  UNL d   1      -1.704  -0.078  -1.302  0.00  0.00    -0.005 A 
ATOM      4  C3  UNL d   1      -2.819   0.407  -0.618  0.00  0.00     0.006 A 
ATOM      5  C4  UNL d   1      -2.734   0.705   0.742  0.00  0.00    -0.005 A 
ATOM      6  C5  UNL d   1      -1.532   0.518   1.432  0.00  0.00    -0.074 A 
ATOM      7  C6  UNL d   1      -1.426   0.824   2.896  0.00  0.00     0.077 C 
ATOM      8  C7  UNL d   1      -0.418   0.024   0.739  0.00  0.00    -0.001 A 
ENDROOT
TORSDOF 0
ENDMDL
