MODEL 1
REMARK minimizedAffinity -1.32916451
REMARK minimizedRMSD -1
REMARK  0 active torsions:
REMARK  status: ('A' for Active; 'I' for Inactive)
ROOT
ATOM      1  C   UNL d   1      -0.482   1.831   2.845  0.00  0.00     0.077 C 
ATOM      2  C1  UNL d   1      -0.674   1.042   1.584  0.00  0.00    -0.074 A 
ATOM      3  C2  UNL d   1      -1.954   0.692   1.143  0.00  0.00    -0.005 A 
ATOM      4  C3  UNL d   1      -2.118  -0.034  -0.037  0.00  0.00     0.006 A 
ATOM      5  C4  UNL d   1      -1.005  -0.417  -0.786  0.00  0.00    -0.005 A 
ATOM      6  C5  UNL d   1       0.283  -0.075  -0.362  0.00  0.00    -0.074 A 
ATOM      7  C6  UNL d   1       1.490  -0.470  -1.161  0.00  0.00     0.077 C 
ATOM      8  C7  UNL d   1       0.439   0.660   0.821  0.00  0.00    -0.001 A 
ENDROOT
TORSDOF 0
ENDMDL
