MODEL 1
REMARK minimizedAffinity -4.36664724
REMARK minimizedRMSD -1
REMARK  0 active torsions:
REMARK  status: ('A' for Active; 'I' for Inactive)
ROOT
ATOM      1  C   UNL d   1       0.974  -0.702  -1.295  0.00  0.00     0.077 C 
ATOM      2  C1  UNL d   1      -0.046  -0.219  -0.307  0.00  0.00    -0.074 A 
ATOM      3  C2  UNL d   1      -1.373  -0.653  -0.373  0.00  0.00    -0.005 A 
ATOM      4  C3  UNL d   1      -2.308  -0.203   0.559  0.00  0.00     0.006 A 
ATOM      5  C4  UNL d   1      -1.926   0.686   1.564  0.00  0.00    -0.005 A 
ATOM      6  C5  UNL d   1      -0.602   1.130   1.647  0.00  0.00    -0.074 A 
ATOM      7  C6  UNL d   1      -0.172   2.077   2.728  0.00  0.00     0.077 C 
ATOM      8  C7  UNL d   1       0.333   0.667   0.711  0.00  0.00    -0.001 A 
ENDROOT
TORSDOF 0
ENDMDL
