MODEL 1
REMARK minimizedAffinity -4.23865843
REMARK minimizedRMSD -1
REMARK  0 active torsions:
REMARK  status: ('A' for Active; 'I' for Inactive)
ROOT
ATOM      1  C   UNL d   1      -2.866  -0.555   3.359  0.00  0.00     0.077 C 
ATOM      2  C1  UNL d   1      -1.619  -0.013   2.724  0.00  0.00    -0.074 A 
ATOM      3  C2  UNL d   1      -0.901   1.026   3.324  0.00  0.00    -0.005 A 
ATOM      4  C3  UNL d   1       0.262   1.513   2.727  0.00  0.00     0.006 A 
ATOM      5  C4  UNL d   1       0.717   0.967   1.527  0.00  0.00    -0.005 A 
ATOM      6  C5  UNL d   1       0.013  -0.074   0.913  0.00  0.00    -0.074 A 
ATOM      7  C6  UNL d   1       0.495  -0.680  -0.372  0.00  0.00     0.077 C 
ATOM      8  C7  UNL d   1      -1.151  -0.563   1.523  0.00  0.00    -0.001 A 
ENDROOT
TORSDOF 0
ENDMDL
