MODEL 1
REMARK minimizedAffinity -5.05562115
REMARK minimizedRMSD -1
REMARK  0 active torsions:
REMARK  status: ('A' for Active; 'I' for Inactive)
ROOT
ATOM      1  C   UNL d   1      -0.428   1.651   2.961  0.00  0.00     0.077 C 
ATOM      2  C1  UNL d   1      -0.427   0.898   1.664  0.00  0.00    -0.074 A 
ATOM      3  C2  UNL d   1      -1.570   0.850   0.860  0.00  0.00    -0.005 A 
ATOM      4  C3  UNL d   1      -1.551   0.154  -0.349  0.00  0.00     0.006 A 
ATOM      5  C4  UNL d   1      -0.391  -0.500  -0.764  0.00  0.00    -0.005 A 
ATOM      6  C5  UNL d   1       0.762  -0.463   0.026  0.00  0.00    -0.074 A 
ATOM      7  C6  UNL d   1       2.020  -1.153  -0.410  0.00  0.00     0.077 C 
ATOM      8  C7  UNL d   1       0.737   0.245   1.236  0.00  0.00    -0.001 A 
ENDROOT
TORSDOF 0
ENDMDL
