MODEL 1
REMARK minimizedAffinity -3.34864783
REMARK minimizedRMSD -1
REMARK  0 active torsions:
REMARK  status: ('A' for Active; 'I' for Inactive)
ROOT
ATOM      1  C   UNL d   1       2.078  -0.626   2.221  0.00  0.00     0.077 C 
ATOM      2  C1  UNL d   1       0.942  -0.239   1.322  0.00  0.00    -0.074 A 
ATOM      3  C2  UNL d   1      -0.205   0.374   1.836  0.00  0.00    -0.005 A 
ATOM      4  C3  UNL d   1      -1.250   0.737   0.986  0.00  0.00     0.006 A 
ATOM      5  C4  UNL d   1      -1.158   0.492  -0.384  0.00  0.00    -0.005 A 
ATOM      6  C5  UNL d   1      -0.018  -0.119  -0.917  0.00  0.00    -0.074 A 
ATOM      7  C6  UNL d   1       0.101  -0.381  -2.389  0.00  0.00     0.077 C 
ATOM      8  C7  UNL d   1       1.030  -0.475  -0.057  0.00  0.00    -0.001 A 
ENDROOT
TORSDOF 0
ENDMDL
