MODEL 1
REMARK minimizedAffinity -4.31824017
REMARK minimizedRMSD -1
REMARK  0 active torsions:
REMARK  status: ('A' for Active; 'I' for Inactive)
ROOT
ATOM      1  C   UNL d   1       1.493  -0.978  -1.136  0.00  0.00     0.077 C 
ATOM      2  C1  UNL d   1       0.349  -0.342  -0.403  0.00  0.00    -0.074 A 
ATOM      3  C2  UNL d   1      -0.964  -0.471  -0.867  0.00  0.00    -0.005 A 
ATOM      4  C3  UNL d   1      -2.018   0.118  -0.170  0.00  0.00     0.006 A 
ATOM      5  C4  UNL d   1      -1.771   0.842   0.997  0.00  0.00    -0.005 A 
ATOM      6  C5  UNL d   1      -0.465   0.981   1.478  0.00  0.00    -0.074 A 
ATOM      7  C6  UNL d   1      -0.183   1.747   2.736  0.00  0.00     0.077 C 
ATOM      8  C7  UNL d   1       0.589   0.380   0.775  0.00  0.00    -0.001 A 
ENDROOT
TORSDOF 0
ENDMDL
