MODEL 1
REMARK minimizedAffinity 6.43654919
REMARK minimizedRMSD -1
REMARK  0 active torsions:
REMARK  status: ('A' for Active; 'I' for Inactive)
ROOT
ATOM      1  C4' PXY d   1       4.875   2.591   2.202  0.00  0.00     0.077 C 
ATOM      2  C1' PXY d   1       4.502   0.630  -3.224  0.00  0.00     0.077 C 
ATOM      3  C1  PXY d   1       4.612   1.140  -1.800  0.00  0.00    -0.082 A 
ATOM      4  C2  PXY d   1       3.515   1.315  -1.081  0.00  0.00     0.003 A 
ATOM      5  C3  PXY d   1       3.594   1.806   0.197  0.00  0.00     0.003 A 
ATOM      6  C4  PXY d   1       4.812   2.069   0.763  0.00  0.00    -0.082 A 
ATOM      7  C5  PXY d   1       5.937   1.883   0.040  0.00  0.00     0.003 A 
ATOM      8  C6  PXY d   1       5.832   1.423  -1.269  0.00  0.00     0.003 A 
ENDROOT
TORSDOF 0
ENDMDL
