MODEL 1
REMARK minimizedAffinity 2.74429345
REMARK minimizedRMSD -1
REMARK  0 active torsions:
REMARK  status: ('A' for Active; 'I' for Inactive)
ROOT
ATOM      1  C4' PXY d   1       3.030  -3.009  -2.330  0.00  0.00     0.077 C 
ATOM      2  C1' PXY d   1       4.019   2.148   0.088  0.00  0.00     0.077 C 
ATOM      3  C1  PXY d   1       3.760   0.790  -0.534  0.00  0.00    -0.082 A 
ATOM      4  C2  PXY d   1       4.074   0.581  -1.803  0.00  0.00     0.003 A 
ATOM      5  C3  PXY d   1       3.817  -0.631  -2.390  0.00  0.00     0.003 A 
ATOM      6  C4  PXY d   1       3.282  -1.657  -1.658  0.00  0.00    -0.082 A 
ATOM      7  C5  PXY d   1       2.969  -1.455  -0.360  0.00  0.00     0.003 A 
ATOM      8  C6  PXY d   1       3.199  -0.205   0.206  0.00  0.00     0.003 A 
ENDROOT
TORSDOF 0
ENDMDL
