MODEL 1
REMARK minimizedAffinity 3.26208401
REMARK minimizedRMSD -1
REMARK  0 active torsions:
REMARK  status: ('A' for Active; 'I' for Inactive)
ROOT
ATOM      1  C4' PXY d   1       4.144   2.289   5.960  0.00  0.00     0.077 C 
ATOM      2  C1' PXY d   1       0.014   5.990   4.328  0.00  0.00     0.077 C 
ATOM      3  C1  PXY d   1       1.104   5.022   4.746  0.00  0.00    -0.082 A 
ATOM      4  C2  PXY d   1       0.819   4.037   5.581  0.00  0.00     0.003 A 
ATOM      5  C3  PXY d   1       1.799   3.172   5.994  0.00  0.00     0.003 A 
ATOM      6  C4  PXY d   1       3.073   3.285   5.505  0.00  0.00    -0.082 A 
ATOM      7  C5  PXY d   1       3.369   4.281   4.644  0.00  0.00     0.003 A 
ATOM      8  C6  PXY d   1       2.369   5.174   4.269  0.00  0.00     0.003 A 
ENDROOT
TORSDOF 0
ENDMDL
