MODEL 1
REMARK minimizedAffinity 3.23030734
REMARK minimizedRMSD -1
REMARK  0 active torsions:
REMARK  status: ('A' for Active; 'I' for Inactive)
ROOT
ATOM      1  C4' PXY d   1       5.564   3.572  -0.526  0.00  0.00     0.077 C 
ATOM      2  C1' PXY d   1       2.905  -1.519  -1.176  0.00  0.00     0.077 C 
ATOM      3  C1  PXY d   1       3.591  -0.179  -1.003  0.00  0.00    -0.082 A 
ATOM      4  C2  PXY d   1       4.736   0.055  -1.623  0.00  0.00     0.003 A 
ATOM      5  C3  PXY d   1       5.386   1.251  -1.452  0.00  0.00     0.003 A 
ATOM      6  C4  PXY d   1       4.831   2.236  -0.680  0.00  0.00    -0.082 A 
ATOM      7  C5  PXY d   1       3.658   2.009  -0.052  0.00  0.00     0.003 A 
ATOM      8  C6  PXY d   1       3.035   0.774  -0.206  0.00  0.00     0.003 A 
ENDROOT
TORSDOF 0
ENDMDL
