MODEL 1
REMARK minimizedAffinity 5.19306374
REMARK minimizedRMSD -1
REMARK  0 active torsions:
REMARK  status: ('A' for Active; 'I' for Inactive)
ROOT
ATOM      1  C4' PXY d   1       2.401  -0.920  -0.690  0.00  0.00     0.077 C 
ATOM      2  C1' PXY d   1       6.000   3.476   0.375  0.00  0.00     0.077 C 
ATOM      3  C1  PXY d   1       5.051   2.325   0.108  0.00  0.00    -0.082 A 
ATOM      4  C2  PXY d   1       5.375   1.404  -0.786  0.00  0.00     0.003 A 
ATOM      5  C3  PXY d   1       4.514   0.374  -1.063  0.00  0.00     0.003 A 
ATOM      6  C4  PXY d   1       3.333   0.255  -0.381  0.00  0.00    -0.082 A 
ATOM      7  C5  PXY d   1       3.000   1.184   0.540  0.00  0.00     0.003 A 
ATOM      8  C6  PXY d   1       3.869   2.245   0.778  0.00  0.00     0.003 A 
ENDROOT
TORSDOF 0
ENDMDL
