MODEL 1
REMARK minimizedAffinity 7.88124371
REMARK minimizedRMSD -1
REMARK  0 active torsions:
REMARK  status: ('A' for Active; 'I' for Inactive)
ROOT
ATOM      1  C4' PXY d   1      -3.077  -1.068  -2.551  0.00  0.00     0.077 C 
ATOM      2  C1' PXY d   1      -4.167   1.977   2.241  0.00  0.00     0.077 C 
ATOM      3  C1  PXY d   1      -3.892   1.171   0.986  0.00  0.00    -0.082 A 
ATOM      4  C2  PXY d   1      -2.654   1.070   0.532  0.00  0.00     0.003 A 
ATOM      5  C3  PXY d   1      -2.392   0.372  -0.619  0.00  0.00     0.003 A 
ATOM      6  C4  PXY d   1      -3.400  -0.273  -1.283  0.00  0.00    -0.082 A 
ATOM      7  C5  PXY d   1      -4.665  -0.183  -0.820  0.00  0.00     0.003 A 
ATOM      8  C6  PXY d   1      -4.916   0.564   0.327  0.00  0.00     0.003 A 
ENDROOT
TORSDOF 0
ENDMDL
