MODEL 1
REMARK minimizedAffinity 1.70334029
REMARK minimizedRMSD -1
REMARK  0 active torsions:
REMARK  status: ('A' for Active; 'I' for Inactive)
ROOT
ATOM      1  C4' PXY d   1       3.106  -2.687  -2.833  0.00  0.00     0.077 C 
ATOM      2  C1' PXY d   1       4.089   1.573   0.948  0.00  0.00     0.077 C 
ATOM      3  C1  PXY d   1       3.829   0.465  -0.053  0.00  0.00    -0.082 A 
ATOM      4  C2  PXY d   1       3.418  -0.718   0.373  0.00  0.00     0.003 A 
ATOM      5  C3  PXY d   1       3.209  -1.742  -0.515  0.00  0.00     0.003 A 
ATOM      6  C4  PXY d   1       3.371  -1.536  -1.859  0.00  0.00    -0.082 A 
ATOM      7  C5  PXY d   1       3.780  -0.328  -2.303  0.00  0.00     0.003 A 
ATOM      8  C6  PXY d   1       4.026   0.685  -1.381  0.00  0.00     0.003 A 
ENDROOT
TORSDOF 0
ENDMDL
