MODEL 1
REMARK minimizedAffinity 8.71722317
REMARK minimizedRMSD -1
REMARK  0 active torsions:
REMARK  status: ('A' for Active; 'I' for Inactive)
ROOT
ATOM      1  C4' PXY d   1       2.380  -0.665  -0.790  0.00  0.00     0.077 C 
ATOM      2  C1' PXY d   1       6.000   3.461   1.024  0.00  0.00     0.077 C 
ATOM      3  C1  PXY d   1       5.061   2.373   0.543  0.00  0.00    -0.082 A 
ATOM      4  C2  PXY d   1       3.778   2.647   0.366  0.00  0.00     0.003 A 
ATOM      5  C3  PXY d   1       2.909   1.666  -0.038  0.00  0.00     0.003 A 
ATOM      6  C4  PXY d   1       3.367   0.406  -0.315  0.00  0.00    -0.082 A 
ATOM      7  C5  PXY d   1       4.676   0.121  -0.147  0.00  0.00     0.003 A 
ATOM      8  C6  PXY d   1       5.534   1.120   0.303  0.00  0.00     0.003 A 
ENDROOT
TORSDOF 0
ENDMDL
