MODEL 1
REMARK minimizedAffinity 15.1932936
REMARK minimizedRMSD -1
REMARK  0 active torsions:
REMARK  status: ('A' for Active; 'I' for Inactive)
ROOT
ATOM      1  C4' PXY d   1       0.166   5.684   5.985  0.00  0.00     0.077 C 
ATOM      2  C1' PXY d   1       5.451   3.344   5.923  0.00  0.00     0.077 C 
ATOM      3  C1  PXY d   1       4.060   3.947   5.934  0.00  0.00    -0.082 A 
ATOM      4  C2  PXY d   1       3.917   5.261   5.893  0.00  0.00     0.003 A 
ATOM      5  C3  PXY d   1       2.667   5.824   5.935  0.00  0.00     0.003 A 
ATOM      6  C4  PXY d   1       1.551   5.032   5.966  0.00  0.00    -0.082 A 
ATOM      7  C5  PXY d   1       1.689   3.689   5.998  0.00  0.00     0.003 A 
ATOM      8  C6  PXY d   1       2.967   3.139   5.996  0.00  0.00     0.003 A 
ENDROOT
TORSDOF 0
ENDMDL
