MODEL 1
REMARK minimizedAffinity 4.5873394
REMARK minimizedRMSD -1
REMARK  0 active torsions:
REMARK  status: ('A' for Active; 'I' for Inactive)
ROOT
ATOM      1  C4' PXY d   1       5.998   4.360  -0.002  0.00  0.00     0.077 C 
ATOM      2  C1' PXY d   1       3.342  -0.774  -0.098  0.00  0.00     0.077 C 
ATOM      3  C1  PXY d   1       4.047   0.568  -0.064  0.00  0.00    -0.082 A 
ATOM      4  C2  PXY d   1       3.389   1.662  -0.410  0.00  0.00     0.003 A 
ATOM      5  C3  PXY d   1       4.020   2.879  -0.416  0.00  0.00     0.003 A 
ATOM      6  C4  PXY d   1       5.324   2.985  -0.012  0.00  0.00    -0.082 A 
ATOM      7  C5  PXY d   1       6.000   1.875   0.353  0.00  0.00     0.003 A 
ATOM      8  C6  PXY d   1       5.353   0.643   0.312  0.00  0.00     0.003 A 
ENDROOT
TORSDOF 0
ENDMDL
