MODEL 1
REMARK minimizedAffinity 4.72623205
REMARK minimizedRMSD -1
REMARK  0 active torsions:
REMARK  status: ('A' for Active; 'I' for Inactive)
ROOT
ATOM      1  C4' PXY d   1       4.469   1.615   5.994  0.00  0.00     0.077 C 
ATOM      2  C1' PXY d   1       0.677   5.978   5.952  0.00  0.00     0.077 C 
ATOM      3  C1  PXY d   1       1.663   4.826   5.968  0.00  0.00    -0.082 A 
ATOM      4  C2  PXY d   1       2.962   5.077   5.969  0.00  0.00     0.003 A 
ATOM      5  C3  PXY d   1       3.867   4.047   5.952  0.00  0.00     0.003 A 
ATOM      6  C4  PXY d   1       3.438   2.747   5.987  0.00  0.00    -0.082 A 
ATOM      7  C5  PXY d   1       2.114   2.483   5.997  0.00  0.00     0.003 A 
ATOM      8  C6  PXY d   1       1.211   3.542   5.973  0.00  0.00     0.003 A 
ENDROOT
TORSDOF 0
ENDMDL
