MODEL 1
REMARK minimizedAffinity 2.84095383
REMARK minimizedRMSD -1
REMARK  1 active torsions:
REMARK  status: ('A' for Active; 'I' for Inactive)
REMARK    1  A    between atoms: C1_2  and  C2_3 
ROOT
ATOM      1  C2  UNL d   1       2.658   2.631   2.870  0.00  0.00    -0.073 A 
ATOM      2  C3  UNL d   1       2.313   1.784   3.930  0.00  0.00    -0.002 A 
ATOM      3  C4  UNL d   1       1.135   1.038   3.882  0.00  0.00     0.004 A 
ATOM      4  C5  UNL d   1       0.295   1.124   2.772  0.00  0.00    -0.004 A 
ATOM      5  C6  UNL d   1       0.628   1.955   1.697  0.00  0.00    -0.075 A 
ATOM      6  C7  UNL d   1      -0.266   2.061   0.497  0.00  0.00     0.076 C 
ATOM      7  C8  UNL d   1       1.811   2.704   1.755  0.00  0.00     0.001 A 
ENDROOT
BRANCH   1   8
ATOM      8  C1  UNL d   1       3.932   3.434   2.916  0.00  0.00     0.053 C 
ATOM      9  C   UNL d   1       4.709   3.198   4.201  0.00  0.00     0.018 C 
ENDBRANCH   1   8
TORSDOF 1
ENDMDL
