MODEL 1
REMARK minimizedAffinity 12.2522907
REMARK minimizedRMSD -1
REMARK  1 active torsions:
REMARK  status: ('A' for Active; 'I' for Inactive)
REMARK    1  A    between atoms: C1_2  and  C2_3 
ROOT
ATOM      1  C2  UNL d   1      -0.633  -3.942  -1.851  0.00  0.00    -0.073 A 
ATOM      2  C3  UNL d   1      -0.733  -4.668  -0.658  0.00  0.00    -0.002 A 
ATOM      3  C4  UNL d   1      -1.676  -5.688  -0.531  0.00  0.00     0.004 A 
ATOM      4  C5  UNL d   1      -2.522  -5.999  -1.596  0.00  0.00    -0.004 A 
ATOM      5  C6  UNL d   1      -2.429  -5.294  -2.800  0.00  0.00    -0.075 A 
ATOM      6  C7  UNL d   1      -3.333  -5.615  -3.954  0.00  0.00     0.076 C 
ATOM      7  C8  UNL d   1      -1.481  -4.268  -2.919  0.00  0.00     0.001 A 
ENDROOT
BRANCH   1   8
ATOM      8  C1  UNL d   1       0.388  -2.843  -1.995  0.00  0.00     0.053 C 
ATOM      9  C   UNL d   1       1.445  -2.901  -0.904  0.00  0.00     0.018 C 
ENDBRANCH   1   8
TORSDOF 1
ENDMDL
