MODEL 1
REMARK minimizedAffinity -1.3195504
REMARK minimizedRMSD -1
REMARK  1 active torsions:
REMARK  status: ('A' for Active; 'I' for Inactive)
REMARK    1  A    between atoms: C1_2  and  C2_3 
ROOT
ATOM      1  C2  UNL d   1       2.853   0.387  -0.649  0.00  0.00    -0.073 A 
ATOM      2  C3  UNL d   1       3.483  -0.823  -0.960  0.00  0.00    -0.002 A 
ATOM      3  C4  UNL d   1       2.767  -2.020  -0.921  0.00  0.00     0.004 A 
ATOM      4  C5  UNL d   1       1.415  -2.020  -0.578  0.00  0.00    -0.004 A 
ATOM      5  C6  UNL d   1       0.765  -0.819  -0.276  0.00  0.00    -0.075 A 
ATOM      6  C7  UNL d   1      -0.688  -0.801   0.097  0.00  0.00     0.076 C 
ATOM      7  C8  UNL d   1       1.491   0.379  -0.314  0.00  0.00     0.001 A 
ENDROOT
BRANCH   1   8
ATOM      8  C1  UNL d   1       3.620   1.684  -0.696  0.00  0.00     0.053 C 
ATOM      9  C   UNL d   1       5.045   1.486  -1.187  0.00  0.00     0.018 C 
ENDBRANCH   1   8
TORSDOF 1
ENDMDL
