MODEL 1
REMARK minimizedAffinity 4.18077803
REMARK minimizedRMSD -1
REMARK  1 active torsions:
REMARK  status: ('A' for Active; 'I' for Inactive)
REMARK    1  A    between atoms: C1_2  and  C2_3 
ROOT
ATOM      1  C2  UNL d   1      -0.120  -0.625   1.814  0.00  0.00    -0.073 A 
ATOM      2  C3  UNL d   1       0.770  -1.556   1.265  0.00  0.00    -0.002 A 
ATOM      3  C4  UNL d   1       1.168  -1.449  -0.068  0.00  0.00     0.004 A 
ATOM      4  C5  UNL d   1       0.687  -0.408  -0.863  0.00  0.00    -0.004 A 
ATOM      5  C6  UNL d   1      -0.193   0.538  -0.329  0.00  0.00    -0.075 A 
ATOM      6  C7  UNL d   1      -0.721   1.663  -1.171  0.00  0.00     0.076 C 
ATOM      7  C8  UNL d   1      -0.590   0.423   1.010  0.00  0.00     0.001 A 
ENDROOT
BRANCH   1   8
ATOM      8  C1  UNL d   1      -0.548  -0.733   3.255  0.00  0.00     0.053 C 
ATOM      9  C   UNL d   1      -1.993  -1.187   3.388  0.00  0.00     0.018 C 
ENDBRANCH   1   8
TORSDOF 1
ENDMDL
