MODEL 1
REMARK minimizedAffinity 7.8211174
REMARK minimizedRMSD -1
REMARK  1 active torsions:
REMARK  status: ('A' for Active; 'I' for Inactive)
REMARK    1  A    between atoms: C1_2  and  C2_3 
ROOT
ATOM      1  C2  UNL d   1       5.551  -3.983  -3.353  0.00  0.00    -0.073 A 
ATOM      2  C3  UNL d   1       5.982  -5.119  -4.047  0.00  0.00    -0.002 A 
ATOM      3  C4  UNL d   1       5.572  -5.340  -5.363  0.00  0.00     0.004 A 
ATOM      4  C5  UNL d   1       4.733  -4.425  -5.999  0.00  0.00    -0.004 A 
ATOM      5  C6  UNL d   1       4.301  -3.278  -5.326  0.00  0.00    -0.075 A 
ATOM      6  C7  UNL d   1       3.397  -2.285  -5.996  0.00  0.00     0.076 C 
ATOM      7  C8  UNL d   1       4.716  -3.064  -4.005  0.00  0.00     0.001 A 
ENDROOT
BRANCH   1   8
ATOM      8  C1  UNL d   1       5.997  -3.737  -1.935  0.00  0.00     0.053 C 
ATOM      9  C   UNL d   1       5.916  -2.266  -1.559  0.00  0.00     0.018 C 
ENDBRANCH   1   8
TORSDOF 1
ENDMDL
