MODEL 1
REMARK minimizedAffinity 3.47342205
REMARK minimizedRMSD -1
REMARK  1 active torsions:
REMARK  status: ('A' for Active; 'I' for Inactive)
REMARK    1  A    between atoms: C1_2  and  C2_3 
ROOT
ATOM      1  C2  UNL d   1       4.246  -3.894  -5.296  0.00  0.00    -0.073 A 
ATOM      2  C3  UNL d   1       4.625  -5.043  -6.000  0.00  0.00    -0.002 A 
ATOM      3  C4  UNL d   1       5.452  -5.995  -5.402  0.00  0.00     0.004 A 
ATOM      4  C5  UNL d   1       5.901  -5.813  -4.094  0.00  0.00    -0.004 A 
ATOM      5  C6  UNL d   1       5.523  -4.678  -3.370  0.00  0.00    -0.075 A 
ATOM      6  C7  UNL d   1       5.999  -4.466  -1.963  0.00  0.00     0.076 C 
ATOM      7  C8  UNL d   1       4.695  -3.724  -3.978  0.00  0.00     0.001 A 
ENDROOT
BRANCH   1   8
ATOM      8  C1  UNL d   1       3.349  -2.866  -5.935  0.00  0.00     0.053 C 
ATOM      9  C   UNL d   1       3.761  -1.447  -5.575  0.00  0.00     0.018 C 
ENDBRANCH   1   8
TORSDOF 1
ENDMDL
