MODEL 1
REMARK minimizedAffinity 13.5463057
REMARK minimizedRMSD -1
REMARK  1 active torsions:
REMARK  status: ('A' for Active; 'I' for Inactive)
REMARK    1  A    between atoms: C1_2  and  C2_3 
ROOT
ATOM      1  C2  UNL d   1      -3.995   0.510   3.518  0.00  0.00    -0.073 A 
ATOM      2  C3  UNL d   1      -4.978   0.750   4.485  0.00  0.00    -0.002 A 
ATOM      3  C4  UNL d   1      -5.971   1.704   4.259  0.00  0.00     0.004 A 
ATOM      4  C5  UNL d   1      -5.995   2.422   3.063  0.00  0.00    -0.004 A 
ATOM      5  C6  UNL d   1      -5.029   2.188   2.080  0.00  0.00    -0.075 A 
ATOM      6  C7  UNL d   1      -5.040   2.953   0.789  0.00  0.00     0.076 C 
ATOM      7  C8  UNL d   1      -4.033   1.230   2.315  0.00  0.00     0.001 A 
ENDROOT
BRANCH   1   8
ATOM      8  C1  UNL d   1      -2.924  -0.524   3.755  0.00  0.00     0.053 C 
ATOM      9  C   UNL d   1      -1.658  -0.224   2.968  0.00  0.00     0.018 C 
ENDBRANCH   1   8
TORSDOF 1
ENDMDL
