MODEL 1
REMARK minimizedAffinity 10.5397272
REMARK minimizedRMSD -1
REMARK  1 active torsions:
REMARK  status: ('A' for Active; 'I' for Inactive)
REMARK    1  A    between atoms: C1_2  and  C2_3 
ROOT
ATOM      1  C2  UNL d   1       5.533  -4.476  -3.198  0.00  0.00    -0.073 A 
ATOM      2  C3  UNL d   1       5.824  -5.695  -3.820  0.00  0.00    -0.002 A 
ATOM      3  C4  UNL d   1       5.395  -5.940  -5.126  0.00  0.00     0.004 A 
ATOM      4  C5  UNL d   1       4.679  -4.968  -5.824  0.00  0.00    -0.004 A 
ATOM      5  C6  UNL d   1       4.389  -3.739  -5.223  0.00  0.00    -0.075 A 
ATOM      6  C7  UNL d   1       3.617  -2.683  -5.960  0.00  0.00     0.076 C 
ATOM      7  C8  UNL d   1       4.820  -3.501  -3.912  0.00  0.00     0.001 A 
ENDROOT
BRANCH   1   8
ATOM      8  C1  UNL d   1       5.999  -4.204  -1.792  0.00  0.00     0.053 C 
ATOM      9  C   UNL d   1       5.998  -2.718  -1.468  0.00  0.00     0.018 C 
ENDBRANCH   1   8
TORSDOF 1
ENDMDL
