MODEL 1
REMARK minimizedAffinity 4.81467819
REMARK minimizedRMSD -1
REMARK  1 active torsions:
REMARK  status: ('A' for Active; 'I' for Inactive)
REMARK    1  A    between atoms: C1_2  and  C2_3 
ROOT
ATOM      1  C2  UNL d   1      -0.977  -1.127  -0.775  0.00  0.00    -0.073 A 
ATOM      2  C3  UNL d   1      -0.846   0.101  -1.433  0.00  0.00    -0.002 A 
ATOM      3  C4  UNL d   1      -0.327   1.209  -0.761  0.00  0.00     0.004 A 
ATOM      4  C5  UNL d   1       0.071   1.099   0.571  0.00  0.00    -0.004 A 
ATOM      5  C6  UNL d   1      -0.041  -0.123   1.242  0.00  0.00    -0.075 A 
ATOM      6  C7  UNL d   1       0.381  -0.258   2.675  0.00  0.00     0.076 C 
ATOM      7  C8  UNL d   1      -0.565  -1.230   0.561  0.00  0.00     0.001 A 
ENDROOT
BRANCH   1   8
ATOM      8  C1  UNL d   1      -1.530  -2.328  -1.499  0.00  0.00     0.053 C 
ATOM      9  C   UNL d   1      -0.434  -3.293  -1.922  0.00  0.00     0.018 C 
ENDBRANCH   1   8
TORSDOF 1
ENDMDL
