MODEL 1
REMARK minimizedAffinity 10.1496553
REMARK minimizedRMSD -1
REMARK  1 active torsions:
REMARK  status: ('A' for Active; 'I' for Inactive)
REMARK    1  A    between atoms: C1_2  and  C2_3 
ROOT
ATOM      1  C2  UNL d   1       4.846  -4.454  -5.661  0.00  0.00    -0.073 A 
ATOM      2  C3  UNL d   1       5.142  -3.089  -5.745  0.00  0.00    -0.002 A 
ATOM      3  C4  UNL d   1       4.119  -2.155  -5.917  0.00  0.00     0.004 A 
ATOM      4  C5  UNL d   1       2.791  -2.575  -6.000  0.00  0.00    -0.004 A 
ATOM      5  C6  UNL d   1       2.475  -3.934  -5.906  0.00  0.00    -0.075 A 
ATOM      6  C7  UNL d   1       1.052  -4.403  -5.995  0.00  0.00     0.076 C 
ATOM      7  C8  UNL d   1       3.508  -4.866  -5.736  0.00  0.00     0.001 A 
ENDROOT
BRANCH   1   8
ATOM      8  C1  UNL d   1       5.946  -5.465  -5.469  0.00  0.00     0.053 C 
ATOM      9  C   UNL d   1       5.990  -5.996  -4.045  0.00  0.00     0.018 C 
ENDBRANCH   1   8
TORSDOF 1
ENDMDL
