MODEL 1
REMARK minimizedAffinity 5.32149792
REMARK minimizedRMSD -1
REMARK  1 active torsions:
REMARK  status: ('A' for Active; 'I' for Inactive)
REMARK    1  A    between atoms: C1_2  and  C2_3 
ROOT
ATOM      1  C2  UNL d   1       4.197  -4.581  -4.284  0.00  0.00    -0.073 A 
ATOM      2  C3  UNL d   1       4.841  -5.557  -3.515  0.00  0.00    -0.002 A 
ATOM      3  C4  UNL d   1       4.275  -5.999  -2.319  0.00  0.00     0.004 A 
ATOM      4  C5  UNL d   1       3.058  -5.475  -1.882  0.00  0.00    -0.004 A 
ATOM      5  C6  UNL d   1       2.394  -4.507  -2.642  0.00  0.00    -0.075 A 
ATOM      6  C7  UNL d   1       1.085  -3.932  -2.185  0.00  0.00     0.076 C 
ATOM      7  C8  UNL d   1       2.969  -4.067  -3.841  0.00  0.00     0.001 A 
ENDROOT
BRANCH   1   8
ATOM      8  C1  UNL d   1       4.801  -4.106  -5.580  0.00  0.00     0.053 C 
ATOM      9  C   UNL d   1       5.990  -4.955  -6.000  0.00  0.00     0.018 C 
ENDBRANCH   1   8
TORSDOF 1
ENDMDL
