MODEL 1
REMARK minimizedAffinity 10.5725737
REMARK minimizedRMSD -1
REMARK  1 active torsions:
REMARK  status: ('A' for Active; 'I' for Inactive)
REMARK    1  A    between atoms: C1_2  and  C2_3 
ROOT
ATOM      1  C2  UNL d   1      -1.285  -0.098   2.556  0.00  0.00    -0.073 A 
ATOM      2  C3  UNL d   1      -0.033  -0.580   2.956  0.00  0.00    -0.002 A 
ATOM      3  C4  UNL d   1       1.039  -0.583   2.063  0.00  0.00     0.004 A 
ATOM      4  C5  UNL d   1       0.873  -0.098   0.765  0.00  0.00    -0.004 A 
ATOM      5  C6  UNL d   1      -0.367   0.400   0.351  0.00  0.00    -0.075 A 
ATOM      6  C7  UNL d   1      -0.562   0.923  -1.041  0.00  0.00     0.076 C 
ATOM      7  C8  UNL d   1      -1.439   0.396   1.253  0.00  0.00     0.001 A 
ENDROOT
BRANCH   1   8
ATOM      8  C1  UNL d   1      -2.444  -0.087   3.519  0.00  0.00     0.053 C 
ATOM      9  C   UNL d   1      -2.590  -1.412   4.250  0.00  0.00     0.018 C 
ENDBRANCH   1   8
TORSDOF 1
ENDMDL
