MODEL 1
REMARK minimizedAffinity 7.22744322
REMARK minimizedRMSD -1
REMARK  1 active torsions:
REMARK  status: ('A' for Active; 'I' for Inactive)
REMARK    1  A    between atoms: C1_2  and  C2_3 
ROOT
ATOM      1  C2  UNL d   1       5.570  -3.387  -2.826  0.00  0.00    -0.073 A 
ATOM      2  C3  UNL d   1       4.758  -2.449  -3.474  0.00  0.00    -0.002 A 
ATOM      3  C4  UNL d   1       4.358  -2.657  -4.794  0.00  0.00     0.004 A 
ATOM      4  C5  UNL d   1       4.758  -3.805  -5.477  0.00  0.00    -0.004 A 
ATOM      5  C6  UNL d   1       5.559  -4.760  -4.843  0.00  0.00    -0.075 A 
ATOM      6  C7  UNL d   1       6.000  -6.000  -5.564  0.00  0.00     0.076 C 
ATOM      7  C8  UNL d   1       5.960  -4.543  -3.517  0.00  0.00     0.001 A 
ENDROOT
BRANCH   1   8
ATOM      8  C1  UNL d   1       6.000  -3.171  -1.398  0.00  0.00     0.053 C 
ATOM      9  C   UNL d   1       5.976  -1.701  -1.012  0.00  0.00     0.018 C 
ENDBRANCH   1   8
TORSDOF 1
ENDMDL
