MODEL 1
REMARK minimizedAffinity 5.25130415
REMARK minimizedRMSD -1
REMARK  1 active torsions:
REMARK  status: ('A' for Active; 'I' for Inactive)
REMARK    1  A    between atoms: C1_2  and  C2_3 
ROOT
ATOM      1  C2  UNL d   1      -1.862  -3.617  -1.712  0.00  0.00    -0.073 A 
ATOM      2  C3  UNL d   1      -2.060  -4.962  -2.043  0.00  0.00    -0.002 A 
ATOM      3  C4  UNL d   1      -3.184  -5.645  -1.575  0.00  0.00     0.004 A 
ATOM      4  C5  UNL d   1      -4.123  -4.989  -0.779  0.00  0.00    -0.004 A 
ATOM      5  C6  UNL d   1      -3.948  -3.641  -0.448  0.00  0.00    -0.075 A 
ATOM      6  C7  UNL d   1      -4.948  -2.922   0.410  0.00  0.00     0.076 C 
ATOM      7  C8  UNL d   1      -2.816  -2.964  -0.919  0.00  0.00     0.001 A 
ENDROOT
BRANCH   1   8
ATOM      8  C1  UNL d   1      -0.654  -2.874  -2.221  0.00  0.00     0.053 C 
ATOM      9  C   UNL d   1      -0.322  -1.667  -1.358  0.00  0.00     0.018 C 
ENDBRANCH   1   8
TORSDOF 1
ENDMDL
