MODEL 1
REMARK minimizedAffinity -4.01363516
REMARK minimizedRMSD -1
REMARK  1 active torsions:
REMARK  status: ('A' for Active; 'I' for Inactive)
REMARK    1  A    between atoms: N_2  and  C1_3 
ROOT
ATOM      1  C1  UNL d   1       0.908  -0.044   2.784  0.00  0.00     0.143 A 
ATOM      2  C2  UNL d   1      -0.380   0.466   2.977  0.00  0.00    -0.057 A 
ATOM      3  C3  UNL d   1      -0.712   1.768   2.584  0.00  0.00     0.033 A 
ATOM      4  C4  UNL d   1       0.250   2.596   2.016  0.00  0.00    -0.042 A 
ATOM      5  C5  UNL d   1       1.544   2.119   1.837  0.00  0.00     0.033 A 
ATOM      6  C6  UNL d   1       1.867   0.816   2.225  0.00  0.00    -0.057 A 
ENDROOT
BRANCH   1   7
ATOM      7  N   UNL d   1       1.326  -1.295   3.242  0.00  0.00    -0.732 N 
ATOM      8  C   UNL d   1       1.197  -1.650   4.640  0.00  0.00     0.284 C 
ATOM      9  H3  UNL d   1       1.084  -2.046   2.599  0.00  0.00     0.395 HD
ENDBRANCH   1   7
TORSDOF 1
ENDMDL
