MODEL 1
REMARK minimizedAffinity -1.92789674
REMARK minimizedRMSD -1
REMARK  1 active torsions:
REMARK  status: ('A' for Active; 'I' for Inactive)
REMARK    1  A    between atoms: N_2  and  C1_3 
ROOT
ATOM      1  C1  UNL d   1       0.755   0.311   0.429  0.00  0.00     0.143 A 
ATOM      2  C2  UNL d   1       0.125  -0.549  -0.477  0.00  0.00    -0.057 A 
ATOM      3  C3  UNL d   1      -1.266  -0.708  -0.481  0.00  0.00     0.033 A 
ATOM      4  C4  UNL d   1      -2.052  -0.029   0.444  0.00  0.00    -0.042 A 
ATOM      5  C5  UNL d   1      -1.446   0.812   1.370  0.00  0.00     0.033 A 
ATOM      6  C6  UNL d   1      -0.057   0.971   1.365  0.00  0.00    -0.057 A 
ENDROOT
BRANCH   1   7
ATOM      7  N   UNL d   1       2.141   0.436   0.548  0.00  0.00    -0.732 N 
ATOM      8  C   UNL d   1       2.958  -0.709   0.886  0.00  0.00     0.284 C 
ATOM      9  H3  UNL d   1       2.540   1.034  -0.173  0.00  0.00     0.395 HD
ENDBRANCH   1   7
TORSDOF 1
ENDMDL
