MODEL 1
REMARK minimizedAffinity -4.47493792
REMARK minimizedRMSD -1
REMARK  0 active torsions:
REMARK  status: ('A' for Active; 'I' for Inactive)
ROOT
ATOM      1  N1  IND d   1      -0.647   1.137   0.635  0.00  0.00    -0.196 N 
ATOM      2  C2  IND d   1       0.176   0.103   0.986  0.00  0.00     0.054 A 
ATOM      3  C3  IND d   1       0.500  -0.631  -0.102  0.00  0.00    -0.031 A 
ATOM      4  C4  IND d   1      -0.124  -0.257  -2.572  0.00  0.00     0.051 A 
ATOM      5  C5  IND d   1      -0.888   0.536  -3.382  0.00  0.00    -0.031 A 
ATOM      6  C6  IND d   1      -1.623   1.593  -2.885  0.00  0.00     0.015 A 
ATOM      7  C7  IND d   1      -1.613   1.904  -1.554  0.00  0.00    -0.016 A 
ATOM      8  C8  IND d   1      -0.844   1.097  -0.728  0.00  0.00    -0.047 A 
ATOM      9  C9  IND d   1      -0.129  -0.003  -1.221  0.00  0.00    -0.096 A 
ATOM     10  HN1 IND d   1      -0.985   1.715   1.175  0.00  0.00     0.298 HD
ENDROOT
TORSDOF 0
ENDMDL
