MODEL 1
REMARK minimizedAffinity -6.28640699
REMARK minimizedRMSD -1
REMARK  0 active torsions:
REMARK  status: ('A' for Active; 'I' for Inactive)
ROOT
ATOM      1  N1  IND d   1      -0.723   0.231   1.154  0.00  0.00    -0.196 N 
ATOM      2  C2  IND d   1      -0.214   0.630  -0.050  0.00  0.00     0.054 A 
ATOM      3  C3  IND d   1       0.590  -0.328  -0.562  0.00  0.00    -0.031 A 
ATOM      4  C4  IND d   1       1.133  -2.671   0.357  0.00  0.00     0.051 A 
ATOM      5  C5  IND d   1       0.932  -3.474   1.445  0.00  0.00    -0.031 A 
ATOM      6  C6  IND d   1       0.152  -3.077   2.511  0.00  0.00     0.015 A 
ATOM      7  C7  IND d   1      -0.469  -1.860   2.525  0.00  0.00    -0.016 A 
ATOM      8  C8  IND d   1      -0.262  -1.039   1.426  0.00  0.00    -0.047 A 
ATOM      9  C9  IND d   1       0.563  -1.419   0.360  0.00  0.00    -0.096 A 
ATOM     10  HN1 IND d   1      -1.244   0.695   1.658  0.00  0.00     0.298 HD
ENDROOT
TORSDOF 0
ENDMDL
