MODEL 1
REMARK minimizedAffinity -5.30550098
REMARK minimizedRMSD -1
REMARK  0 active torsions:
REMARK  status: ('A' for Active; 'I' for Inactive)
ROOT
ATOM      1  N1  IND d   1      -0.708   0.669   0.729  0.00  0.00    -0.196 N 
ATOM      2  C2  IND d   1      -0.384   0.696  -0.599  0.00  0.00     0.054 A 
ATOM      3  C3  IND d   1       0.141  -0.491  -0.979  0.00  0.00    -0.031 A 
ATOM      4  C4  IND d   1       0.465  -2.648   0.388  0.00  0.00     0.051 A 
ATOM      5  C5  IND d   1       0.352  -3.149   1.654  0.00  0.00    -0.031 A 
ATOM      6  C6  IND d   1      -0.134  -2.387   2.698  0.00  0.00     0.015 A 
ATOM      7  C7  IND d   1      -0.536  -1.095   2.510  0.00  0.00    -0.016 A 
ATOM      8  C8  IND d   1      -0.415  -0.582   1.227  0.00  0.00    -0.047 A 
ATOM      9  C9  IND d   1       0.117  -1.336   0.173  0.00  0.00    -0.096 A 
ATOM     10  HN1 IND d   1      -1.040   1.323   1.178  0.00  0.00     0.298 HD
ENDROOT
TORSDOF 0
ENDMDL
