MODEL 1
REMARK minimizedAffinity -1.18323052
REMARK minimizedRMSD -1
REMARK  0 active torsions:
REMARK  status: ('A' for Active; 'I' for Inactive)
ROOT
ATOM      1  N1  IND d   1       0.581  -1.265   2.155  0.00  0.00    -0.196 N 
ATOM      2  C2  IND d   1       1.736  -1.981   2.000  0.00  0.00     0.054 A 
ATOM      3  C3  IND d   1       2.257  -1.773   0.770  0.00  0.00    -0.031 A 
ATOM      4  C4  IND d   1       1.438  -0.219  -1.112  0.00  0.00     0.051 A 
ATOM      5  C5  IND d   1       0.407   0.612  -1.451  0.00  0.00    -0.031 A 
ATOM      6  C6  IND d   1      -0.639   0.866  -0.587  0.00  0.00     0.015 A 
ATOM      7  C7  IND d   1      -0.686   0.306   0.658  0.00  0.00    -0.016 A 
ATOM      8  C8  IND d   1       0.356  -0.543   1.003  0.00  0.00    -0.047 A 
ATOM      9  C9  IND d   1       1.398  -0.838   0.115  0.00  0.00    -0.096 A 
ATOM     10  HN1 IND d   1       0.081  -1.265   2.854  0.00  0.00     0.298 HD
ENDROOT
TORSDOF 0
ENDMDL
