MODEL 1
REMARK minimizedAffinity -4.71739292
REMARK minimizedRMSD -1
REMARK  0 active torsions:
REMARK  status: ('A' for Active; 'I' for Inactive)
ROOT
ATOM      1  N1  IND d   1       0.248   0.597  -1.537  0.00  0.00    -0.196 N 
ATOM      2  C2  IND d   1      -0.746   1.179  -0.802  0.00  0.00     0.054 A 
ATOM      3  C3  IND d   1      -0.962   0.479   0.335  0.00  0.00    -0.031 A 
ATOM      4  C4  IND d   1       0.268  -1.594   1.238  0.00  0.00     0.051 A 
ATOM      5  C5  IND d   1       1.226  -2.509   0.903  0.00  0.00    -0.031 A 
ATOM      6  C6  IND d   1       1.922  -2.434  -0.286  0.00  0.00     0.015 A 
ATOM      7  C7  IND d   1       1.694  -1.428  -1.182  0.00  0.00    -0.016 A 
ATOM      8  C8  IND d   1       0.718  -0.500  -0.848  0.00  0.00    -0.047 A 
ATOM      9  C9  IND d   1      -0.022  -0.596   0.337  0.00  0.00    -0.096 A 
ATOM     10  HN1 IND d   1       0.533   0.869  -2.301  0.00  0.00     0.298 HD
ENDROOT
TORSDOF 0
ENDMDL
