MODEL 1
REMARK minimizedAffinity -1.43681049
REMARK minimizedRMSD -1
REMARK  0 active torsions:
REMARK  status: ('A' for Active; 'I' for Inactive)
ROOT
ATOM      1  N1  IND d   1      -0.494  -0.924   2.985  0.00  0.00    -0.196 N 
ATOM      2  C2  IND d   1       0.419  -1.624   3.722  0.00  0.00     0.054 A 
ATOM      3  C3  IND d   1       1.520  -1.887   2.983  0.00  0.00    -0.031 A 
ATOM      4  C4  IND d   1       2.079  -1.175   0.573  0.00  0.00     0.051 A 
ATOM      5  C5  IND d   1       1.541  -0.553  -0.519  0.00  0.00    -0.031 A 
ATOM      6  C6  IND d   1       0.273  -0.009  -0.497  0.00  0.00     0.015 A 
ATOM      7  C7  IND d   1      -0.504  -0.058   0.626  0.00  0.00    -0.016 A 
ATOM      8  C8  IND d   1       0.036  -0.695   1.734  0.00  0.00    -0.047 A 
ATOM      9  C9  IND d   1       1.306  -1.286   1.705  0.00  0.00    -0.096 A 
ATOM     10  HN1 IND d   1      -1.269  -0.668   3.256  0.00  0.00     0.298 HD
ENDROOT
TORSDOF 0
ENDMDL
