MODEL 1
REMARK minimizedAffinity -3.94761562
REMARK minimizedRMSD -1
REMARK  0 active torsions:
REMARK  status: ('A' for Active; 'I' for Inactive)
ROOT
ATOM      1  N1  IND d   1      -0.942   1.294   0.913  0.00  0.00    -0.196 N 
ATOM      2  C2  IND d   1      -1.708   0.689   1.870  0.00  0.00     0.054 A 
ATOM      3  C3  IND d   1      -1.243  -0.555   2.127  0.00  0.00    -0.031 A 
ATOM      4  C4  IND d   1       0.820  -1.760   1.168  0.00  0.00     0.051 A 
ATOM      5  C5  IND d   1       1.810  -1.625   0.236  0.00  0.00    -0.031 A 
ATOM      6  C6  IND d   1       1.937  -0.485  -0.532  0.00  0.00     0.015 A 
ATOM      7  C7  IND d   1       1.082   0.570  -0.387  0.00  0.00    -0.016 A 
ATOM      8  C8  IND d   1       0.072   0.434   0.553  0.00  0.00    -0.047 A 
ATOM      9  C9  IND d   1      -0.089  -0.737   1.306  0.00  0.00    -0.096 A 
ATOM     10  HN1 IND d   1      -1.072   2.080   0.590  0.00  0.00     0.298 HD
ENDROOT
TORSDOF 0
ENDMDL
