MODEL 1
REMARK minimizedAffinity -1.60542607
REMARK minimizedRMSD -1
REMARK  0 active torsions:
REMARK  status: ('A' for Active; 'I' for Inactive)
ROOT
ATOM      1  N1  IND d   1      -0.942  -0.811  -0.467  0.00  0.00    -0.196 N 
ATOM      2  C2  IND d   1      -0.924   0.498  -0.862  0.00  0.00     0.054 A 
ATOM      3  C3  IND d   1       0.324   1.006  -0.748  0.00  0.00    -0.031 A 
ATOM      4  C4  IND d   1       2.505  -0.159  -0.033  0.00  0.00     0.051 A 
ATOM      5  C5  IND d   1       2.985  -1.342   0.454  0.00  0.00    -0.031 A 
ATOM      6  C6  IND d   1       2.164  -2.432   0.660  0.00  0.00     0.015 A 
ATOM      7  C7  IND d   1       0.829  -2.382   0.375  0.00  0.00    -0.016 A 
ATOM      8  C8  IND d   1       0.337  -1.180  -0.113  0.00  0.00    -0.047 A 
ATOM      9  C9  IND d   1       1.157  -0.057  -0.284  0.00  0.00    -0.096 A 
ATOM     10  HN1 IND d   1      -1.636  -1.318  -0.445  0.00  0.00     0.298 HD
ENDROOT
TORSDOF 0
ENDMDL
