MODEL 1
REMARK minimizedAffinity -3.3580699
REMARK minimizedRMSD -1
REMARK  0 active torsions:
REMARK  status: ('A' for Active; 'I' for Inactive)
ROOT
ATOM      1  N1  IND d   1       0.035  -2.364   1.235  0.00  0.00    -0.196 N 
ATOM      2  C2  IND d   1       1.356  -2.716   1.253  0.00  0.00     0.054 A 
ATOM      3  C3  IND d   1       2.089  -1.833   0.538  0.00  0.00    -0.031 A 
ATOM      4  C4  IND d   1       1.343   0.319  -0.662  0.00  0.00     0.051 A 
ATOM      5  C5  IND d   1       0.228   1.038  -0.989  0.00  0.00    -0.031 A 
ATOM      6  C6  IND d   1      -1.033   0.655  -0.581  0.00  0.00     0.015 A 
ATOM      7  C7  IND d   1      -1.226  -0.462   0.183  0.00  0.00    -0.016 A 
ATOM      8  C8  IND d   1      -0.097  -1.199   0.510  0.00  0.00    -0.047 A 
ATOM      9  C9  IND d   1       1.180  -0.838   0.063  0.00  0.00    -0.096 A 
ATOM     10  HN1 IND d   1      -0.605  -2.796   1.612  0.00  0.00     0.298 HD
ENDROOT
TORSDOF 0
ENDMDL
