MODEL 1
REMARK minimizedAffinity -2.84811425
REMARK minimizedRMSD -1
REMARK  0 active torsions:
REMARK  status: ('A' for Active; 'I' for Inactive)
ROOT
ATOM      1  N1  IND d   1      -1.011  -0.266   1.689  0.00  0.00    -0.196 N 
ATOM      2  C2  IND d   1      -1.423   0.894   1.095  0.00  0.00     0.054 A 
ATOM      3  C3  IND d   1      -0.555   1.259   0.124  0.00  0.00    -0.031 A 
ATOM      4  C4  IND d   1       1.551   0.048  -0.727  0.00  0.00     0.051 A 
ATOM      5  C5  IND d   1       2.352  -1.030  -0.470  0.00  0.00    -0.031 A 
ATOM      6  C6  IND d   1       2.065  -1.927   0.538  0.00  0.00     0.015 A 
ATOM      7  C7  IND d   1       0.956  -1.786   1.323  0.00  0.00    -0.016 A 
ATOM      8  C8  IND d   1       0.145  -0.689   1.070  0.00  0.00    -0.047 A 
ATOM      9  C9  IND d   1       0.453   0.248   0.076  0.00  0.00    -0.096 A 
ATOM     10  HN1 IND d   1      -1.407  -0.664   2.341  0.00  0.00     0.298 HD
ENDROOT
TORSDOF 0
ENDMDL
