MODEL 1
REMARK minimizedAffinity -1.78593445
REMARK minimizedRMSD -1
REMARK  0 active torsions:
REMARK  status: ('A' for Active; 'I' for Inactive)
ROOT
ATOM      1  N1  IND d   1       1.849   0.244   0.874  0.00  0.00    -0.196 N 
ATOM      2  C2  IND d   1       2.234  -1.027   0.551  0.00  0.00     0.054 A 
ATOM      3  C3  IND d   1       1.356  -1.579  -0.316  0.00  0.00    -0.031 A 
ATOM      4  C4  IND d   1      -0.727  -0.541  -1.416  0.00  0.00     0.051 A 
ATOM      5  C5  IND d   1      -1.504   0.583  -1.405  0.00  0.00    -0.031 A 
ATOM      6  C6  IND d   1      -1.195   1.675  -0.619  0.00  0.00     0.015 A 
ATOM      7  C7  IND d   1      -0.087   1.688   0.179  0.00  0.00    -0.016 A 
ATOM      8  C8  IND d   1       0.701   0.545   0.175  0.00  0.00    -0.047 A 
ATOM      9  C9  IND d   1       0.369  -0.583  -0.587  0.00  0.00    -0.096 A 
ATOM     10  HN1 IND d   1       2.256   0.768   1.422  0.00  0.00     0.298 HD
ENDROOT
TORSDOF 0
ENDMDL
