MODEL 1
REMARK minimizedAffinity 1.0390451
REMARK minimizedRMSD -1
REMARK  0 active torsions:
REMARK  status: ('A' for Active; 'I' for Inactive)
ROOT
ATOM      1  N1  IND d   1       2.172   0.004   0.580  0.00  0.00    -0.196 N 
ATOM      2  C2  IND d   1       1.837  -1.296   0.836  0.00  0.00     0.054 A 
ATOM      3  C3  IND d   1       0.527  -1.504   0.577  0.00  0.00    -0.031 A 
ATOM      4  C4  IND d   1      -1.231   0.121  -0.370  0.00  0.00     0.051 A 
ATOM      5  C5  IND d   1      -1.408   1.429  -0.726  0.00  0.00    -0.031 A 
ATOM      6  C6  IND d   1      -0.379   2.346  -0.666  0.00  0.00     0.015 A 
ATOM      7  C7  IND d   1       0.874   1.986  -0.257  0.00  0.00    -0.016 A 
ATOM      8  C8  IND d   1       1.055   0.661   0.112  0.00  0.00    -0.047 A 
ATOM      9  C9  IND d   1       0.004  -0.265   0.094  0.00  0.00    -0.096 A 
ATOM     10  HN1 IND d   1       2.950   0.354   0.693  0.00  0.00     0.298 HD
ENDROOT
TORSDOF 0
ENDMDL
