MODEL 1
REMARK minimizedAffinity -2.44734216
REMARK minimizedRMSD -1
REMARK  0 active torsions:
REMARK  status: ('A' for Active; 'I' for Inactive)
ROOT
ATOM      1  N1  IND d   1      -1.950   2.562  -1.770  0.00  0.00    -0.196 N 
ATOM      2  C2  IND d   1      -2.356   2.117  -2.997  0.00  0.00     0.054 A 
ATOM      3  C3  IND d   1      -1.951   0.842  -3.193  0.00  0.00    -0.031 A 
ATOM      4  C4  IND d   1      -0.698  -0.740  -1.595  0.00  0.00     0.051 A 
ATOM      5  C5  IND d   1      -0.083  -0.773  -0.375  0.00  0.00    -0.031 A 
ATOM      6  C6  IND d   1      -0.061   0.325   0.460  0.00  0.00     0.015 A 
ATOM      7  C7  IND d   1      -0.665   1.499   0.110  0.00  0.00    -0.016 A 
ATOM      8  C8  IND d   1      -1.285   1.539  -1.131  0.00  0.00    -0.047 A 
ATOM      9  C9  IND d   1      -1.274   0.441  -2.001  0.00  0.00    -0.096 A 
ATOM     10  HN1 IND d   1      -2.087   3.349  -1.451  0.00  0.00     0.298 HD
ENDROOT
TORSDOF 0
ENDMDL
