MODEL 1
REMARK minimizedAffinity -2.28578162
REMARK minimizedRMSD -1
REMARK  0 active torsions:
REMARK  status: ('A' for Active; 'I' for Inactive)
ROOT
ATOM      1  C1  DEN d   1      -0.272   1.391   0.314  0.00  0.00     0.130 A 
ATOM      2  C2  DEN d   1       0.475   2.480   0.938  0.00  0.00    -0.031 A 
ATOM      3  C3  DEN d   1       1.861   2.017   1.155  0.00  0.00     0.027 A 
ATOM      4  C4  DEN d   1       2.917  -0.266   0.584  0.00  0.00     0.027 A 
ATOM      5  C5  DEN d   1       2.673  -1.515   0.055  0.00  0.00    -0.003 A 
ATOM      6  C6  DEN d   1       1.434  -1.890  -0.390  0.00  0.00     0.001 A 
ATOM      7  C7  DEN d   1       0.399  -0.993  -0.356  0.00  0.00     0.017 A 
ATOM      8  C8  DEN d   1       0.635   0.265   0.183  0.00  0.00    -0.094 A 
ATOM      9  C9  DEN d   1       1.898   0.630   0.617  0.00  0.00    -0.072 A 
ENDROOT
TORSDOF 0
ENDMDL
