MODEL 1
REMARK minimizedAffinity -4.4699173
REMARK minimizedRMSD -1
REMARK  0 active torsions:
REMARK  status: ('A' for Active; 'I' for Inactive)
ROOT
ATOM      1  C1  DEN d   1      -0.507   1.427  -0.399  0.00  0.00     0.130 A 
ATOM      2  C2  DEN d   1      -1.600   0.496  -0.665  0.00  0.00    -0.031 A 
ATOM      3  C3  DEN d   1      -1.086  -0.876  -0.478  0.00  0.00     0.027 A 
ATOM      4  C4  DEN d   1       1.282  -1.644   0.199  0.00  0.00     0.027 A 
ATOM      5  C5  DEN d   1       2.551  -1.217   0.520  0.00  0.00    -0.003 A 
ATOM      6  C6  DEN d   1       2.897   0.109   0.523  0.00  0.00     0.001 A 
ATOM      7  C7  DEN d   1       1.949   1.058   0.244  0.00  0.00     0.017 A 
ATOM      8  C8  DEN d   1       0.669   0.635  -0.087  0.00  0.00    -0.094 A 
ATOM      9  C9  DEN d   1       0.336  -0.709  -0.073  0.00  0.00    -0.072 A 
ENDROOT
TORSDOF 0
ENDMDL
