MODEL 1
REMARK minimizedAffinity -1.64230335
REMARK minimizedRMSD -1
REMARK  0 active torsions:
REMARK  status: ('A' for Active; 'I' for Inactive)
ROOT
ATOM      1  C1  DEN d   1       2.119   0.033  -0.688  0.00  0.00     0.130 A 
ATOM      2  C2  DEN d   1       2.582   0.110   0.695  0.00  0.00    -0.031 A 
ATOM      3  C3  DEN d   1       1.395   0.124   1.573  0.00  0.00     0.027 A 
ATOM      4  C4  DEN d   1      -1.101   0.029   0.931  0.00  0.00     0.027 A 
ATOM      5  C5  DEN d   1      -1.987  -0.031  -0.122  0.00  0.00    -0.003 A 
ATOM      6  C6  DEN d   1      -1.572  -0.040  -1.427  0.00  0.00     0.001 A 
ATOM      7  C7  DEN d   1      -0.232  -0.033  -1.713  0.00  0.00     0.017 A 
ATOM      8  C8  DEN d   1       0.668   0.035  -0.657  0.00  0.00    -0.094 A 
ATOM      9  C9  DEN d   1       0.228   0.031   0.656  0.00  0.00    -0.072 A 
ENDROOT
TORSDOF 0
ENDMDL
