MODEL 1
REMARK minimizedAffinity -3.62984252
REMARK minimizedRMSD -1
REMARK  0 active torsions:
REMARK  status: ('A' for Active; 'I' for Inactive)
ROOT
ATOM      1  C1  DEN d   1       1.707   1.173   0.080  0.00  0.00     0.130 A 
ATOM      2  C2  DEN d   1       2.942   0.416   0.269  0.00  0.00    -0.031 A 
ATOM      3  C3  DEN d   1       2.579  -0.943   0.720  0.00  0.00     0.027 A 
ATOM      4  C4  DEN d   1       0.239  -1.944   1.135  0.00  0.00     0.027 A 
ATOM      5  C5  DEN d   1      -1.113  -1.682   1.120  0.00  0.00    -0.003 A 
ATOM      6  C6  DEN d   1      -1.614  -0.450   0.793  0.00  0.00     0.001 A 
ATOM      7  C7  DEN d   1      -0.759   0.554   0.423  0.00  0.00     0.017 A 
ATOM      8  C8  DEN d   1       0.606   0.299   0.443  0.00  0.00    -0.094 A 
ATOM      9  C9  DEN d   1       1.092  -0.956   0.765  0.00  0.00    -0.072 A 
ENDROOT
TORSDOF 0
ENDMDL
