MODEL 1
REMARK minimizedAffinity -6.13420057
REMARK minimizedRMSD -1
REMARK  0 active torsions:
REMARK  status: ('A' for Active; 'I' for Inactive)
ROOT
ATOM      1  C1  DEN d   1       0.267  -2.280   1.494  0.00  0.00     0.130 A 
ATOM      2  C2  DEN d   1       1.614  -2.601   1.958  0.00  0.00    -0.031 A 
ATOM      3  C3  DEN d   1       2.461  -1.408   1.760  0.00  0.00     0.027 A 
ATOM      4  C4  DEN d   1       1.821   0.894   0.790  0.00  0.00     0.027 A 
ATOM      5  C5  DEN d   1       0.797   1.639   0.250  0.00  0.00    -0.003 A 
ATOM      6  C6  DEN d   1      -0.457   1.124   0.056  0.00  0.00     0.001 A 
ATOM      7  C7  DEN d   1      -0.731  -0.160   0.448  0.00  0.00     0.017 A 
ATOM      8  C8  DEN d   1       0.299  -0.920   0.987  0.00  0.00    -0.094 A 
ATOM      9  C9  DEN d   1       1.557  -0.377   1.186  0.00  0.00    -0.072 A 
ENDROOT
TORSDOF 0
ENDMDL
