MODEL 1
REMARK minimizedAffinity 18.3631287
REMARK minimizedRMSD -1
REMARK  0 active torsions:
REMARK  status: ('A' for Active; 'I' for Inactive)
ROOT
ATOM      1  C1  DEN d   1      -5.999   2.256  -1.002  0.00  0.00     0.130 A 
ATOM      2  C2  DEN d   1      -5.036   1.285  -1.514  0.00  0.00    -0.031 A 
ATOM      3  C3  DEN d   1      -3.884   2.030  -2.061  0.00  0.00     0.027 A 
ATOM      4  C4  DEN d   1      -3.498   4.578  -2.160  0.00  0.00     0.027 A 
ATOM      5  C5  DEN d   1      -4.041   5.808  -1.859  0.00  0.00    -0.003 A 
ATOM      6  C6  DEN d   1      -5.279   5.941  -1.288  0.00  0.00     0.001 A 
ATOM      7  C7  DEN d   1      -5.996   4.822  -0.957  0.00  0.00     0.017 A 
ATOM      8  C8  DEN d   1      -5.459   3.578  -1.264  0.00  0.00    -0.094 A 
ATOM      9  C9  DEN d   1      -4.201   3.465  -1.830  0.00  0.00    -0.072 A 
ENDROOT
TORSDOF 0
ENDMDL
