MODEL 1
REMARK minimizedAffinity -0.452207297
REMARK minimizedRMSD -1
REMARK  0 active torsions:
REMARK  status: ('A' for Active; 'I' for Inactive)
ROOT
ATOM      1  C   UNL d   1      -1.520   1.358  -3.557  0.00  0.00     0.020 A 
ATOM      2  C1  UNL d   1      -2.388   2.291  -2.991  0.00  0.00     0.020 A 
ATOM      3  C2  UNL d   1      -2.380   2.505  -1.611  0.00  0.00     0.034 A 
ATOM      4  C3  UNL d   1      -1.502   1.785  -0.792  0.00  0.00     0.017 A 
ATOM      5  C4  UNL d   1      -0.631   0.849  -1.361  0.00  0.00     0.017 A 
ATOM      6  C5  UNL d   1      -0.644   0.639  -2.743  0.00  0.00     0.034 A 
ATOM      7 Cl   UNL d   1       0.480  -0.077  -0.416  0.00  0.00    -0.070 Cl
ATOM      8 Cl1  UNL d   1      -1.546   2.101   0.906  0.00  0.00    -0.070 Cl
ENDROOT
TORSDOF 0
ENDMDL
