MODEL 1
REMARK minimizedAffinity -2.47508311
REMARK minimizedRMSD -1
REMARK  0 active torsions:
REMARK  status: ('A' for Active; 'I' for Inactive)
ROOT
ATOM      1  C   UNL d   1       0.525  -2.030   2.862  0.00  0.00     0.020 A 
ATOM      2  C1  UNL d   1      -0.554  -1.149   2.917  0.00  0.00     0.020 A 
ATOM      3  C2  UNL d   1      -0.805  -0.284   1.850  0.00  0.00     0.034 A 
ATOM      4  C3  UNL d   1       0.024  -0.298   0.723  0.00  0.00     0.017 A 
ATOM      5  C4  UNL d   1       1.107  -1.183   0.668  0.00  0.00     0.017 A 
ATOM      6  C5  UNL d   1       1.353  -2.047   1.739  0.00  0.00     0.034 A 
ATOM      7 Cl   UNL d   1       2.174  -1.259  -0.690  0.00  0.00    -0.070 Cl
ATOM      8 Cl1  UNL d   1      -0.345   0.799  -0.560  0.00  0.00    -0.070 Cl
ENDROOT
TORSDOF 0
ENDMDL
