MODEL 1
REMARK minimizedAffinity -0.0525247604
REMARK minimizedRMSD -1
REMARK  0 active torsions:
REMARK  status: ('A' for Active; 'I' for Inactive)
ROOT
ATOM      1  C   UNL d   1      -0.981   1.515  -0.173  0.00  0.00     0.020 A 
ATOM      2  C1  UNL d   1       0.189   1.247  -0.883  0.00  0.00     0.020 A 
ATOM      3  C2  UNL d   1       1.042   0.225  -0.462  0.00  0.00     0.034 A 
ATOM      4  C3  UNL d   1       0.727  -0.534   0.671  0.00  0.00     0.017 A 
ATOM      5  C4  UNL d   1      -0.447  -0.265   1.383  0.00  0.00     0.017 A 
ATOM      6  C5  UNL d   1      -1.298   0.760   0.957  0.00  0.00     0.034 A 
ATOM      7 Cl   UNL d   1      -0.904  -1.158   2.790  0.00  0.00    -0.070 Cl
ATOM      8 Cl1  UNL d   1       1.828  -1.783   1.133  0.00  0.00    -0.070 Cl
ENDROOT
TORSDOF 0
ENDMDL
