MODEL 1
REMARK minimizedAffinity -3.9509871
REMARK minimizedRMSD -1
REMARK  0 active torsions:
REMARK  status: ('A' for Active; 'I' for Inactive)
ROOT
ATOM      1  C   UNL d   1       2.104  -1.481   0.249  0.00  0.00     0.020 A 
ATOM      2  C1  UNL d   1       1.935  -2.280   1.379  0.00  0.00     0.020 A 
ATOM      3  C2  UNL d   1       0.829  -2.088   2.210  0.00  0.00     0.034 A 
ATOM      4  C3  UNL d   1      -0.111  -1.094   1.912  0.00  0.00     0.017 A 
ATOM      5  C4  UNL d   1       0.060  -0.293   0.778  0.00  0.00     0.017 A 
ATOM      6  C5  UNL d   1       1.169  -0.490  -0.051  0.00  0.00     0.034 A 
ATOM      7 Cl   UNL d   1      -1.058   0.952   0.345  0.00  0.00    -0.070 Cl
ATOM      8 Cl1  UNL d   1      -1.454  -0.913   2.984  0.00  0.00    -0.070 Cl
ENDROOT
TORSDOF 0
ENDMDL
