MODEL 1
REMARK minimizedAffinity -4.31009865
REMARK minimizedRMSD -1
REMARK  0 active torsions:
REMARK  status: ('A' for Active; 'I' for Inactive)
ROOT
ATOM      1  C   UNL d   1       0.063  -1.533   2.476  0.00  0.00     0.020 A 
ATOM      2  C1  UNL d   1       1.299  -2.021   2.053  0.00  0.00     0.020 A 
ATOM      3  C2  UNL d   1       1.827  -1.614   0.826  0.00  0.00     0.034 A 
ATOM      4  C3  UNL d   1       1.118  -0.718   0.017  0.00  0.00     0.017 A 
ATOM      5  C4  UNL d   1      -0.122  -0.230   0.443  0.00  0.00     0.017 A 
ATOM      6  C5  UNL d   1      -0.646  -0.640   1.672  0.00  0.00     0.034 A 
ATOM      7 Cl   UNL d   1      -1.055   0.879  -0.500  0.00  0.00    -0.070 Cl
ATOM      8 Cl1  UNL d   1       1.831  -0.258  -1.488  0.00  0.00    -0.070 Cl
ENDROOT
TORSDOF 0
ENDMDL
