MODEL 1
REMARK minimizedAffinity -2.87890911
REMARK minimizedRMSD -1
REMARK  0 active torsions:
REMARK  status: ('A' for Active; 'I' for Inactive)
ROOT
ATOM      1  C   UNL d   1       2.337  -1.234   0.450  0.00  0.00     0.020 A 
ATOM      2  C1  UNL d   1       2.287  -0.314  -0.597  0.00  0.00     0.020 A 
ATOM      3  C2  UNL d   1       1.171   0.511  -0.749  0.00  0.00     0.034 A 
ATOM      4  C3  UNL d   1       0.100   0.419   0.148  0.00  0.00     0.017 A 
ATOM      5  C4  UNL d   1       0.151  -0.505   1.198  0.00  0.00     0.017 A 
ATOM      6  C5  UNL d   1       1.271  -1.329   1.346  0.00  0.00     0.034 A 
ATOM      7 Cl   UNL d   1      -1.131  -0.677   2.344  0.00  0.00    -0.070 Cl
ATOM      8 Cl1  UNL d   1      -1.248   1.471  -0.100  0.00  0.00    -0.070 Cl
ENDROOT
TORSDOF 0
ENDMDL
