MODEL 1
REMARK minimizedAffinity -2.14342666
REMARK minimizedRMSD -1
REMARK  0 active torsions:
REMARK  status: ('A' for Active; 'I' for Inactive)
ROOT
ATOM      1  C   UNL d   1      -1.749   2.732  -3.359  0.00  0.00     0.020 A 
ATOM      2  C1  UNL d   1      -1.999   1.566  -4.082  0.00  0.00     0.020 A 
ATOM      3  C2  UNL d   1      -2.017   0.331  -3.430  0.00  0.00     0.034 A 
ATOM      4  C3  UNL d   1      -1.785   0.259  -2.051  0.00  0.00     0.017 A 
ATOM      5  C4  UNL d   1      -1.534   1.430  -1.327  0.00  0.00     0.017 A 
ATOM      6  C5  UNL d   1      -1.517   2.664  -1.985  0.00  0.00     0.034 A 
ATOM      7 Cl   UNL d   1      -1.239   1.421   0.376  0.00  0.00    -0.070 Cl
ATOM      8 Cl1  UNL d   1      -1.823  -1.301  -1.310  0.00  0.00    -0.070 Cl
ENDROOT
TORSDOF 0
ENDMDL
