MODEL 1
REMARK minimizedAffinity -1.50985861
REMARK minimizedRMSD -1
REMARK  0 active torsions:
REMARK  status: ('A' for Active; 'I' for Inactive)
ROOT
ATOM      1  C   UNL d   1       0.113   1.272  -0.967  0.00  0.00     0.020 A 
ATOM      2  C1  UNL d   1      -0.967   1.525  -0.122  0.00  0.00     0.020 A 
ATOM      3  C2  UNL d   1      -1.148   0.755   1.029  0.00  0.00     0.034 A 
ATOM      4  C3  UNL d   1      -0.248  -0.271   1.338  0.00  0.00     0.017 A 
ATOM      5  C4  UNL d   1       0.836  -0.524   0.489  0.00  0.00     0.017 A 
ATOM      6  C5  UNL d   1       1.012   0.250  -0.662  0.00  0.00     0.034 A 
ATOM      7 Cl   UNL d   1       1.988  -1.773   0.804  0.00  0.00    -0.070 Cl
ATOM      8 Cl1  UNL d   1      -0.533  -1.183   2.777  0.00  0.00    -0.070 Cl
ENDROOT
TORSDOF 0
ENDMDL
