MODEL 1
REMARK minimizedAffinity -1.76890361
REMARK minimizedRMSD -1
REMARK  0 active torsions:
REMARK  status: ('A' for Active; 'I' for Inactive)
ROOT
ATOM      1  C   UNL d   1       1.510  -1.713   1.428  0.00  0.00     0.020 A 
ATOM      2  C1  UNL d   1       1.898  -1.400   0.126  0.00  0.00     0.020 A 
ATOM      3  C2  UNL d   1       1.124  -0.528  -0.643  0.00  0.00     0.034 A 
ATOM      4  C3  UNL d   1      -0.041   0.034  -0.110  0.00  0.00     0.017 A 
ATOM      5  C4  UNL d   1      -0.430  -0.280   1.197  0.00  0.00     0.017 A 
ATOM      6  C5  UNL d   1       0.349  -1.154   1.963  0.00  0.00     0.034 A 
ATOM      7 Cl   UNL d   1      -1.855   0.374   1.924  0.00  0.00    -0.070 Cl
ATOM      8 Cl1  UNL d   1      -0.950   1.105  -1.117  0.00  0.00    -0.070 Cl
ENDROOT
TORSDOF 0
ENDMDL
