MODEL 1
REMARK minimizedAffinity 4.12297821
REMARK minimizedRMSD -1
REMARK  0 active torsions:
REMARK  status: ('A' for Active; 'I' for Inactive)
ROOT
ATOM      1  C   UNL d   1       0.106  -1.868   2.146  0.00  0.00     0.020 A 
ATOM      2  C1  UNL d   1       0.533  -3.034   1.512  0.00  0.00     0.020 A 
ATOM      3  C2  UNL d   1       1.509  -2.969   0.516  0.00  0.00     0.034 A 
ATOM      4  C3  UNL d   1       2.061  -1.736   0.151  0.00  0.00     0.017 A 
ATOM      5  C4  UNL d   1       1.632  -0.566   0.788  0.00  0.00     0.017 A 
ATOM      6  C5  UNL d   1       0.654  -0.637   1.785  0.00  0.00     0.034 A 
ATOM      7 Cl   UNL d   1       2.267   0.992   0.392  0.00  0.00    -0.070 Cl
ATOM      8 Cl1  UNL d   1       3.265  -1.730  -1.089  0.00  0.00    -0.070 Cl
ENDROOT
TORSDOF 0
ENDMDL
