MODEL 1
REMARK minimizedAffinity 0.559767842
REMARK minimizedRMSD -1
REMARK  0 active torsions:
REMARK  status: ('A' for Active; 'I' for Inactive)
ROOT
ATOM      1  C   UNL d   1      -2.631   1.890  -2.591  0.00  0.00     0.020 A 
ATOM      2  C1  UNL d   1      -1.490   1.589  -3.335  0.00  0.00     0.020 A 
ATOM      3  C2  UNL d   1      -0.306   1.235  -2.684  0.00  0.00     0.034 A 
ATOM      4  C3  UNL d   1      -0.260   1.182  -1.287  0.00  0.00     0.017 A 
ATOM      5  C4  UNL d   1      -1.405   1.485  -0.541  0.00  0.00     0.017 A 
ATOM      6  C5  UNL d   1      -2.588   1.838  -1.197  0.00  0.00     0.034 A 
ATOM      7 Cl   UNL d   1      -1.425   1.441   1.187  0.00  0.00    -0.070 Cl
ATOM      8 Cl1  UNL d   1       1.238   0.736  -0.549  0.00  0.00    -0.070 Cl
ENDROOT
TORSDOF 0
ENDMDL
