MODEL 1
REMARK minimizedAffinity -1.60007679
REMARK minimizedRMSD -1
REMARK  0 active torsions:
REMARK  status: ('A' for Active; 'I' for Inactive)
ROOT
ATOM      1  C   UNL d   1      -2.925   1.904  -2.778  0.00  0.00     0.020 A 
ATOM      2  C1  UNL d   1      -1.845   1.293  -3.413  0.00  0.00     0.020 A 
ATOM      3  C2  UNL d   1      -0.799   0.761  -2.655  0.00  0.00     0.034 A 
ATOM      4  C3  UNL d   1      -0.832   0.839  -1.258  0.00  0.00     0.017 A 
ATOM      5  C4  UNL d   1      -1.917   1.453  -0.622  0.00  0.00     0.017 A 
ATOM      6  C5  UNL d   1      -2.961   1.984  -1.385  0.00  0.00     0.034 A 
ATOM      7 Cl   UNL d   1      -2.028   1.588   1.098  0.00  0.00    -0.070 Cl
ATOM      8 Cl1  UNL d   1       0.495   0.160  -0.384  0.00  0.00    -0.070 Cl
ENDROOT
TORSDOF 0
ENDMDL
