MODEL 1
REMARK minimizedAffinity -0.2484373
REMARK minimizedRMSD -1
REMARK  0 active torsions:
REMARK  status: ('A' for Active; 'I' for Inactive)
ROOT
ATOM      1  C   UNL d   1      -1.041   3.216  -2.612  0.00  0.00     0.020 A 
ATOM      2  C1  UNL d   1      -2.084   2.916  -3.488  0.00  0.00     0.020 A 
ATOM      3  C2  UNL d   1      -3.023   1.941  -3.147  0.00  0.00     0.034 A 
ATOM      4  C3  UNL d   1      -2.922   1.262  -1.928  0.00  0.00     0.017 A 
ATOM      5  C4  UNL d   1      -1.875   1.563  -1.049  0.00  0.00     0.017 A 
ATOM      6  C5  UNL d   1      -0.938   2.541  -1.395  0.00  0.00     0.034 A 
ATOM      7 Cl   UNL d   1      -1.685   0.768   0.474  0.00  0.00    -0.070 Cl
ATOM      8 Cl1  UNL d   1      -4.119   0.068  -1.571  0.00  0.00    -0.070 Cl
ENDROOT
TORSDOF 0
ENDMDL
