MODEL 1
REMARK minimizedAffinity -4.11350298
REMARK minimizedRMSD -1
REMARK  0 active torsions:
REMARK  status: ('A' for Active; 'I' for Inactive)
ROOT
ATOM      1  C   UNL d   1      -0.700  -1.570   2.844  0.00  0.00     0.020 A 
ATOM      2  C1  UNL d   1       0.578  -2.086   3.051  0.00  0.00     0.020 A 
ATOM      3  C2  UNL d   1       1.569  -1.908   2.083  0.00  0.00     0.034 A 
ATOM      4  C3  UNL d   1       1.283  -1.211   0.904  0.00  0.00     0.017 A 
ATOM      5  C4  UNL d   1      -0.001  -0.692   0.697  0.00  0.00     0.017 A 
ATOM      6  C5  UNL d   1      -0.989  -0.874   1.670  0.00  0.00     0.034 A 
ATOM      7 Cl   UNL d   1      -0.429   0.179  -0.733  0.00  0.00    -0.070 Cl
ATOM      8 Cl1  UNL d   1       2.556  -1.027  -0.250  0.00  0.00    -0.070 Cl
ENDROOT
TORSDOF 0
ENDMDL
