MODEL 1
REMARK minimizedAffinity 1.63660586
REMARK minimizedRMSD -1
REMARK  0 active torsions:
REMARK  status: ('A' for Active; 'I' for Inactive)
ROOT
ATOM      1  C   UNL d   1      -2.295   1.952  -1.888  0.00  0.00     0.020 A 
ATOM      2  C1  UNL d   1      -1.114   2.289  -2.548  0.00  0.00     0.020 A 
ATOM      3  C2  UNL d   1       0.110   1.807  -2.080  0.00  0.00     0.034 A 
ATOM      4  C3  UNL d   1       0.156   0.985  -0.948  0.00  0.00     0.017 A 
ATOM      5  C4  UNL d   1      -1.030   0.647  -0.286  0.00  0.00     0.017 A 
ATOM      6  C5  UNL d   1      -2.253   1.132  -0.759  0.00  0.00     0.034 A 
ATOM      7 Cl   UNL d   1      -1.053  -0.363   1.117  0.00  0.00    -0.070 Cl
ATOM      8 Cl1  UNL d   1       1.704   0.424  -0.424  0.00  0.00    -0.070 Cl
ENDROOT
TORSDOF 0
ENDMDL
