MODEL 1
REMARK minimizedAffinity -3.08357167
REMARK minimizedRMSD -1
REMARK  0 active torsions:
REMARK  status: ('A' for Active; 'I' for Inactive)
ROOT
ATOM      1  C   UNL d   1       1.380  -0.086  -0.702  0.00  0.00     0.020 A 
ATOM      2  C1  UNL d   1       2.220  -1.008  -0.080  0.00  0.00     0.020 A 
ATOM      3  C2  UNL d   1       1.860  -1.562   1.150  0.00  0.00     0.034 A 
ATOM      4  C3  UNL d   1       0.656  -1.194   1.762  0.00  0.00     0.017 A 
ATOM      5  C4  UNL d   1      -0.187  -0.267   1.137  0.00  0.00     0.017 A 
ATOM      6  C5  UNL d   1       0.179   0.284  -0.095  0.00  0.00     0.034 A 
ATOM      7 Cl   UNL d   1      -1.688   0.236   1.830  0.00  0.00    -0.070 Cl
ATOM      8 Cl1  UNL d   1       0.273  -1.918   3.283  0.00  0.00    -0.070 Cl
ENDROOT
TORSDOF 0
ENDMDL
