MODEL 1
REMARK minimizedAffinity -4.95969915
REMARK minimizedRMSD -1
REMARK  0 active torsions:
REMARK  status: ('A' for Active; 'I' for Inactive)
ROOT
ATOM      1  C   UNL d   1       0.105  -1.798   2.690  0.00  0.00     0.020 A 
ATOM      2  C1  UNL d   1       1.409  -2.141   2.336  0.00  0.00     0.020 A 
ATOM      3  C2  UNL d   1       1.983  -1.608   1.180  0.00  0.00     0.034 A 
ATOM      4  C3  UNL d   1       1.252  -0.728   0.374  0.00  0.00     0.017 A 
ATOM      5  C4  UNL d   1      -0.057  -0.384   0.729  0.00  0.00     0.017 A 
ATOM      6  C5  UNL d   1      -0.627  -0.921   1.888  0.00  0.00     0.034 A 
ATOM      7 Cl   UNL d   1      -1.021   0.696  -0.216  0.00  0.00    -0.070 Cl
ATOM      8 Cl1  UNL d   1       2.024  -0.106  -1.041  0.00  0.00    -0.070 Cl
ENDROOT
TORSDOF 0
ENDMDL
