MODEL 1
REMARK minimizedAffinity -0.575336099
REMARK minimizedRMSD -1
REMARK  0 active torsions:
REMARK  status: ('A' for Active; 'I' for Inactive)
ROOT
ATOM      1  C   UNL d   1       0.160   1.488  -1.721  0.00  0.00     0.020 A 
ATOM      2  C1  UNL d   1      -1.086   1.594  -1.105  0.00  0.00     0.020 A 
ATOM      3  C2  UNL d   1      -1.363   0.851   0.044  0.00  0.00     0.034 A 
ATOM      4  C3  UNL d   1      -0.391  -0.003   0.581  0.00  0.00     0.017 A 
ATOM      5  C4  UNL d   1       0.859  -0.108  -0.038  0.00  0.00     0.017 A 
ATOM      6  C5  UNL d   1       1.131   0.639  -1.189  0.00  0.00     0.034 A 
ATOM      7 Cl   UNL d   1       2.108  -1.140   0.566  0.00  0.00    -0.070 Cl
ATOM      8 Cl1  UNL d   1      -0.802  -0.892   2.004  0.00  0.00    -0.070 Cl
ENDROOT
TORSDOF 0
ENDMDL
