MODEL 1
REMARK minimizedAffinity -2.68716002
REMARK minimizedRMSD -1
REMARK  0 active torsions:
REMARK  status: ('A' for Active; 'I' for Inactive)
ROOT
ATOM      1  C1  DEN d   1      -4.800   5.984  -3.292  0.00  0.00     0.130 A 
ATOM      2  C2  DEN d   1      -5.126   5.999  -4.715  0.00  0.00    -0.031 A 
ATOM      3  C3  DEN d   1      -3.860   5.965  -5.474  0.00  0.00     0.027 A 
ATOM      4  C4  DEN d   1      -1.439   5.885  -4.588  0.00  0.00     0.027 A 
ATOM      5  C5  DEN d   1      -0.659   5.869  -3.453  0.00  0.00    -0.003 A 
ATOM      6  C6  DEN d   1      -1.199   5.924  -2.195  0.00  0.00     0.001 A 
ATOM      7  C7  DEN d   1      -2.560   5.952  -2.041  0.00  0.00     0.017 A 
ATOM      8  C8  DEN d   1      -3.353   5.976  -3.181  0.00  0.00    -0.094 A 
ATOM      9  C9  DEN d   1      -2.788   5.908  -4.444  0.00  0.00    -0.072 A 
ENDROOT
TORSDOF 0
ENDMDL
