MODEL 1
REMARK minimizedAffinity 8.97099209
REMARK minimizedRMSD -1
REMARK  0 active torsions:
REMARK  status: ('A' for Active; 'I' for Inactive)
ROOT
ATOM      1  C1  DEN d   1      -2.848   0.136   1.876  0.00  0.00     0.130 A 
ATOM      2  C2  DEN d   1      -1.733  -0.637   1.335  0.00  0.00    -0.031 A 
ATOM      3  C3  DEN d   1      -1.967  -0.824  -0.111  0.00  0.00     0.027 A 
ATOM      4  C4  DEN d   1      -3.934   0.009  -1.557  0.00  0.00     0.027 A 
ATOM      5  C5  DEN d   1      -5.127   0.697  -1.541  0.00  0.00    -0.003 A 
ATOM      6  C6  DEN d   1      -5.656   1.213  -0.388  0.00  0.00     0.001 A 
ATOM      7  C7  DEN d   1      -4.969   1.088   0.790  0.00  0.00     0.017 A 
ATOM      8  C8  DEN d   1      -3.769   0.389   0.783  0.00  0.00    -0.094 A 
ATOM      9  C9  DEN d   1      -3.244  -0.115  -0.395  0.00  0.00    -0.072 A 
ENDROOT
TORSDOF 0
ENDMDL
