MODEL 1
REMARK minimizedAffinity 12.2221565
REMARK minimizedRMSD -1
REMARK  0 active torsions:
REMARK  status: ('A' for Active; 'I' for Inactive)
ROOT
ATOM      1  C1  DEN d   1      -0.024  -2.827   1.766  0.00  0.00     0.130 A 
ATOM      2  C2  DEN d   1       0.835  -2.522   2.907  0.00  0.00    -0.031 A 
ATOM      3  C3  DEN d   1       0.355  -1.266   3.517  0.00  0.00     0.027 A 
ATOM      4  C4  DEN d   1      -1.628   0.226   2.814  0.00  0.00     0.027 A 
ATOM      5  C5  DEN d   1      -2.645   0.383   1.898  0.00  0.00    -0.003 A 
ATOM      6  C6  DEN d   1      -2.837  -0.493   0.863  0.00  0.00     0.001 A 
ATOM      7  C7  DEN d   1      -2.027  -1.592   0.744  0.00  0.00     0.017 A 
ATOM      8  C8  DEN d   1      -0.995  -1.753   1.659  0.00  0.00    -0.094 A 
ATOM      9  C9  DEN d   1      -0.825  -0.863   2.706  0.00  0.00    -0.072 A 
ENDROOT
TORSDOF 0
ENDMDL
