MODEL 1
REMARK minimizedAffinity 14.700182
REMARK minimizedRMSD -1
REMARK  0 active torsions:
REMARK  status: ('A' for Active; 'I' for Inactive)
ROOT
ATOM      1  C1  DEN d   1      -2.366  -6.000  -6.000  0.00  0.00     0.130 A 
ATOM      2  C2  DEN d   1      -3.697  -5.419  -5.845  0.00  0.00    -0.031 A 
ATOM      3  C3  DEN d   1      -3.589  -4.266  -4.929  0.00  0.00     0.027 A 
ATOM      4  C4  DEN d   1      -1.499  -3.325  -3.746  0.00  0.00     0.027 A 
ATOM      5  C5  DEN d   1      -0.144  -3.490  -3.560  0.00  0.00    -0.003 A 
ATOM      6  C6  DEN d   1       0.553  -4.515  -4.143  0.00  0.00     0.001 A 
ATOM      7  C7  DEN d   1      -0.094  -5.389  -4.976  0.00  0.00     0.017 A 
ATOM      8  C8  DEN d   1      -1.462  -5.233  -5.162  0.00  0.00    -0.094 A 
ATOM      9  C9  DEN d   1      -2.146  -4.183  -4.574  0.00  0.00    -0.072 A 
ENDROOT
TORSDOF 0
ENDMDL
