MODEL 1
REMARK minimizedAffinity 5.38899899
REMARK minimizedRMSD -1
REMARK  0 active torsions:
REMARK  status: ('A' for Active; 'I' for Inactive)
ROOT
ATOM      1  C1  DEN d   1      -5.785  -3.597   5.200  0.00  0.00     0.130 A 
ATOM      2  C2  DEN d   1      -5.985  -4.804   5.997  0.00  0.00    -0.031 A 
ATOM      3  C3  DEN d   1      -5.999  -5.961   5.079  0.00  0.00     0.027 A 
ATOM      4  C4  DEN d   1      -5.726  -6.000   2.514  0.00  0.00     0.027 A 
ATOM      5  C5  DEN d   1      -5.544  -5.221   1.393  0.00  0.00    -0.003 A 
ATOM      6  C6  DEN d   1      -5.463  -3.856   1.458  0.00  0.00     0.001 A 
ATOM      7  C7  DEN d   1      -5.520  -3.229   2.674  0.00  0.00     0.017 A 
ATOM      8  C8  DEN d   1      -5.712  -4.007   3.809  0.00  0.00    -0.094 A 
ATOM      9  C9  DEN d   1      -5.779  -5.387   3.724  0.00  0.00    -0.072 A 
ENDROOT
TORSDOF 0
ENDMDL
