MODEL 1
REMARK minimizedAffinity 7.91711712
REMARK minimizedRMSD -1
REMARK  0 active torsions:
REMARK  status: ('A' for Active; 'I' for Inactive)
ROOT
ATOM      1  C1  DEN d   1      -1.653   5.684  -4.681  0.00  0.00     0.130 A 
ATOM      2  C2  DEN d   1      -2.264   5.839  -5.999  0.00  0.00    -0.031 A 
ATOM      3  C3  DEN d   1      -3.721   5.989  -5.813  0.00  0.00     0.027 A 
ATOM      4  C4  DEN d   1      -5.084   5.999  -3.623  0.00  0.00     0.027 A 
ATOM      5  C5  DEN d   1      -5.007   5.888  -2.252  0.00  0.00    -0.003 A 
ATOM      6  C6  DEN d   1      -3.821   5.669  -1.603  0.00  0.00     0.001 A 
ATOM      7  C7  DEN d   1      -2.657   5.599  -2.321  0.00  0.00     0.017 A 
ATOM      8  C8  DEN d   1      -2.727   5.702  -3.704  0.00  0.00    -0.094 A 
ATOM      9  C9  DEN d   1      -3.934   5.936  -4.341  0.00  0.00    -0.072 A 
ENDROOT
TORSDOF 0
ENDMDL
