MODEL 1
REMARK minimizedAffinity 13.3303347
REMARK minimizedRMSD -1
REMARK  0 active torsions:
REMARK  status: ('A' for Active; 'I' for Inactive)
ROOT
ATOM      1  C1  DEN d   1      -4.679   0.442  -0.298  0.00  0.00     0.130 A 
ATOM      2  C2  DEN d   1      -5.523   1.602  -0.022  0.00  0.00    -0.031 A 
ATOM      3  C3  DEN d   1      -5.079   2.196   1.255  0.00  0.00     0.027 A 
ATOM      4  C4  DEN d   1      -3.174   1.440   2.821  0.00  0.00     0.027 A 
ATOM      5  C5  DEN d   1      -2.186   0.500   3.014  0.00  0.00    -0.003 A 
ATOM      6  C6  DEN d   1      -1.983  -0.536   2.141  0.00  0.00     0.001 A 
ATOM      7  C7  DEN d   1      -2.751  -0.632   1.011  0.00  0.00     0.017 A 
ATOM      8  C8  DEN d   1      -3.754   0.308   0.813  0.00  0.00    -0.094 A 
ATOM      9  C9  DEN d   1      -3.935   1.355   1.701  0.00  0.00    -0.072 A 
ENDROOT
TORSDOF 0
ENDMDL
