MODEL 1
REMARK minimizedAffinity 6.32005548
REMARK minimizedRMSD -1
REMARK  0 active torsions:
REMARK  status: ('A' for Active; 'I' for Inactive)
ROOT
ATOM      1  C1  DEN d   1      -1.606   5.902  -2.141  0.00  0.00     0.130 A 
ATOM      2  C2  DEN d   1      -2.842   5.916  -1.364  0.00  0.00    -0.031 A 
ATOM      3  C3  DEN d   1      -3.976   5.948  -2.311  0.00  0.00     0.027 A 
ATOM      4  C4  DEN d   1      -3.936   5.973  -4.890  0.00  0.00     0.027 A 
ATOM      5  C5  DEN d   1      -3.120   5.982  -6.000  0.00  0.00    -0.003 A 
ATOM      6  C6  DEN d   1      -1.754   6.000  -5.902  0.00  0.00     0.001 A 
ATOM      7  C7  DEN d   1      -1.161   5.963  -4.667  0.00  0.00     0.017 A 
ATOM      8  C8  DEN d   1      -1.977   5.961  -3.543  0.00  0.00    -0.094 A 
ATOM      9  C9  DEN d   1      -3.356   5.931  -3.663  0.00  0.00    -0.072 A 
ENDROOT
TORSDOF 0
ENDMDL
