MODEL 1
REMARK minimizedAffinity 15.1870794
REMARK minimizedRMSD -1
REMARK  0 active torsions:
REMARK  status: ('A' for Active; 'I' for Inactive)
ROOT
ATOM      1  C1  DEN d   1       3.736   5.398  -1.878  0.00  0.00     0.130 A 
ATOM      2  C2  DEN d   1       5.044   6.000  -1.634  0.00  0.00    -0.031 A 
ATOM      3  C3  DEN d   1       5.976   5.500  -2.664  0.00  0.00     0.027 A 
ATOM      4  C4  DEN d   1       5.522   3.866  -4.607  0.00  0.00     0.027 A 
ATOM      5  C5  DEN d   1       4.566   3.082  -5.214  0.00  0.00    -0.003 A 
ATOM      6  C6  DEN d   1       3.286   2.989  -4.736  0.00  0.00     0.001 A 
ATOM      7  C7  DEN d   1       2.914   3.728  -3.644  0.00  0.00     0.017 A 
ATOM      8  C8  DEN d   1       3.874   4.515  -3.022  0.00  0.00    -0.094 A 
ATOM      9  C9  DEN d   1       5.160   4.605  -3.528  0.00  0.00    -0.072 A 
ENDROOT
TORSDOF 0
ENDMDL
