MODEL 1
REMARK minimizedAffinity 11.7048759
REMARK minimizedRMSD -1
REMARK  0 active torsions:
REMARK  status: ('A' for Active; 'I' for Inactive)
ROOT
ATOM      1  C1  DEN d   1       4.856   5.749  -2.259  0.00  0.00     0.130 A 
ATOM      2  C2  DEN d   1       5.994   5.999  -3.139  0.00  0.00    -0.031 A 
ATOM      3  C3  DEN d   1       5.926   5.038  -4.258  0.00  0.00     0.027 A 
ATOM      4  C4  DEN d   1       4.175   3.199  -4.712  0.00  0.00     0.027 A 
ATOM      5  C5  DEN d   1       3.030   2.598  -4.239  0.00  0.00    -0.003 A 
ATOM      6  C6  DEN d   1       2.437   2.979  -3.064  0.00  0.00     0.001 A 
ATOM      7  C7  DEN d   1       2.962   4.020  -2.346  0.00  0.00     0.017 A 
ATOM      8  C8  DEN d   1       4.121   4.627  -2.813  0.00  0.00    -0.094 A 
ATOM      9  C9  DEN d   1       4.698   4.235  -4.009  0.00  0.00    -0.072 A 
ENDROOT
TORSDOF 0
ENDMDL
