MODEL 1
REMARK minimizedAffinity 11.1419888
REMARK minimizedRMSD -1
REMARK  0 active torsions:
REMARK  status: ('A' for Active; 'I' for Inactive)
ROOT
ATOM      1  C1  DEN d   1      -1.567  -2.097   0.427  0.00  0.00     0.130 A 
ATOM      2  C2  DEN d   1      -0.317  -2.316   1.148  0.00  0.00    -0.031 A 
ATOM      3  C3  DEN d   1      -0.230  -1.310   2.226  0.00  0.00     0.027 A 
ATOM      4  C4  DEN d   1      -1.904   0.550   2.849  0.00  0.00     0.027 A 
ATOM      5  C5  DEN d   1      -3.106   1.136   2.517  0.00  0.00    -0.003 A 
ATOM      6  C6  DEN d   1      -3.856   0.710   1.453  0.00  0.00     0.001 A 
ATOM      7  C7  DEN d   1      -3.435  -0.360   0.710  0.00  0.00     0.017 A 
ATOM      8  C8  DEN d   1      -2.220  -0.951   1.034  0.00  0.00    -0.094 A 
ATOM      9  C9  DEN d   1      -1.482  -0.514   2.121  0.00  0.00    -0.072 A 
ENDROOT
TORSDOF 0
ENDMDL
