MODEL 1
REMARK minimizedAffinity 7.82638884
REMARK minimizedRMSD -1
REMARK  0 active torsions:
REMARK  status: ('A' for Active; 'I' for Inactive)
ROOT
ATOM      1  C1  DEN d   1       2.021   2.414   0.772  0.00  0.00     0.130 A 
ATOM      2  C2  DEN d   1       1.903   1.722  -0.509  0.00  0.00    -0.031 A 
ATOM      3  C3  DEN d   1       3.216   1.779  -1.182  0.00  0.00     0.027 A 
ATOM      4  C4  DEN d   1       5.411   2.862  -0.367  0.00  0.00     0.027 A 
ATOM      5  C5  DEN d   1       5.999   3.577   0.653  0.00  0.00    -0.003 A 
ATOM      6  C6  DEN d   1       5.300   3.980   1.759  0.00  0.00     0.001 A 
ATOM      7  C7  DEN d   1       3.981   3.633   1.893  0.00  0.00     0.017 A 
ATOM      8  C8  DEN d   1       3.380   2.918   0.865  0.00  0.00    -0.094 A 
ATOM      9  C9  DEN d   1       4.107   2.509  -0.240  0.00  0.00    -0.072 A 
ENDROOT
TORSDOF 0
ENDMDL
