MODEL 1
REMARK minimizedAffinity 13.1658182
REMARK minimizedRMSD -1
REMARK  0 active torsions:
REMARK  status: ('A' for Active; 'I' for Inactive)
ROOT
ATOM      1  C1  DEN d   1       3.282   4.592  -2.309  0.00  0.00     0.130 A 
ATOM      2  C2  DEN d   1       2.130   3.737  -2.577  0.00  0.00    -0.031 A 
ATOM      3  C3  DEN d   1       2.312   3.130  -3.911  0.00  0.00     0.027 A 
ATOM      4  C4  DEN d   1       4.260   3.426  -5.575  0.00  0.00     0.027 A 
ATOM      5  C5  DEN d   1       5.461   4.062  -5.796  0.00  0.00    -0.003 A 
ATOM      6  C6  DEN d   1       6.000   4.938  -4.891  0.00  0.00     0.001 A 
ATOM      7  C7  DEN d   1       5.357   5.168  -3.703  0.00  0.00     0.017 A 
ATOM      8  C8  DEN d   1       4.142   4.536  -3.477  0.00  0.00    -0.094 A 
ATOM      9  C9  DEN d   1       3.620   3.644  -4.399  0.00  0.00    -0.072 A 
ENDROOT
TORSDOF 0
ENDMDL
