MODEL 1
REMARK minimizedAffinity 9.17930412
REMARK minimizedRMSD -1
REMARK  0 active torsions:
REMARK  status: ('A' for Active; 'I' for Inactive)
ROOT
ATOM      1  C1  DEN d   1      -2.199  -2.080   1.130  0.00  0.00     0.130 A 
ATOM      2  C2  DEN d   1      -0.874  -2.237   1.723  0.00  0.00    -0.031 A 
ATOM      3  C3  DEN d   1      -0.686  -1.157   2.713  0.00  0.00     0.027 A 
ATOM      4  C4  DEN d   1      -2.312   0.730   3.383  0.00  0.00     0.027 A 
ATOM      5  C5  DEN d   1      -3.551   1.281   3.145  0.00  0.00    -0.003 A 
ATOM      6  C6  DEN d   1      -4.406   0.775   2.202  0.00  0.00     0.001 A 
ATOM      7  C7  DEN d   1      -4.051  -0.343   1.494  0.00  0.00     0.017 A 
ATOM      8  C8  DEN d   1      -2.800  -0.899   1.723  0.00  0.00    -0.094 A 
ATOM      9  C9  DEN d   1      -1.955  -0.380   2.689  0.00  0.00    -0.072 A 
ENDROOT
TORSDOF 0
ENDMDL
