MODEL 1
REMARK minimizedAffinity 6.73195696
REMARK minimizedRMSD -1
REMARK  0 active torsions:
REMARK  status: ('A' for Active; 'I' for Inactive)
ROOT
ATOM      1  C1  DEN d   1       2.321   3.646  -3.100  0.00  0.00     0.130 A 
ATOM      2  C2  DEN d   1       1.297   4.635  -2.778  0.00  0.00    -0.031 A 
ATOM      3  C3  DEN d   1       0.805   4.356  -1.415  0.00  0.00     0.027 A 
ATOM      4  C4  DEN d   1       1.529   2.499   0.223  0.00  0.00     0.027 A 
ATOM      5  C5  DEN d   1       2.358   1.412   0.392  0.00  0.00    -0.003 A 
ATOM      6  C6  DEN d   1       3.201   0.976  -0.595  0.00  0.00     0.001 A 
ATOM      7  C7  DEN d   1       3.268   1.659  -1.781  0.00  0.00     0.017 A 
ATOM      8  C8  DEN d   1       2.430   2.751  -1.962  0.00  0.00    -0.094 A 
ATOM      9  C9  DEN d   1       1.593   3.184  -0.947  0.00  0.00    -0.072 A 
ENDROOT
TORSDOF 0
ENDMDL
