MODEL 1
REMARK minimizedAffinity -4.71086359
REMARK minimizedRMSD -1
REMARK  0 active torsions:
REMARK  status: ('A' for Active; 'I' for Inactive)
ROOT
ATOM      1  C1  DEN d   1      -0.296   4.624  -1.666  0.00  0.00     0.130 A 
ATOM      2  C2  DEN d   1      -0.570   5.178  -0.343  0.00  0.00    -0.031 A 
ATOM      3  C3  DEN d   1       0.420   4.619   0.600  0.00  0.00     0.027 A 
ATOM      4  C4  DEN d   1       2.343   2.963   0.140  0.00  0.00     0.027 A 
ATOM      5  C5  DEN d   1       2.965   2.205  -0.828  0.00  0.00    -0.003 A 
ATOM      6  C6  DEN d   1       2.526   2.174  -2.125  0.00  0.00     0.001 A 
ATOM      7  C7  DEN d   1       1.461   2.951  -2.500  0.00  0.00     0.017 A 
ATOM      8  C8  DEN d   1       0.825   3.712  -1.528  0.00  0.00    -0.094 A 
ATOM      9  C9  DEN d   1       1.291   3.739  -0.225  0.00  0.00    -0.072 A 
ENDROOT
TORSDOF 0
ENDMDL
