MODEL 1
REMARK minimizedAffinity -4.56842804
REMARK minimizedRMSD -1
REMARK  2 active torsions:
REMARK  status: ('A' for Active; 'I' for Inactive)
REMARK    1  A    between atoms: C1_2  and  C2_3 
REMARK    2  A    between atoms: C2_3  and  C3_4 
ROOT
ATOM      1  C3  UNL d   1       0.024   0.506  -0.248  0.00  0.00    -0.075 A 
ATOM      2  C4  UNL d   1      -0.261  -0.862  -0.371  0.00  0.00     0.002 A 
ATOM      3  C5  UNL d   1      -1.341  -1.425   0.309  0.00  0.00     0.002 A 
ATOM      4  C6  UNL d   1      -2.143  -0.632   1.127  0.00  0.00    -0.004 A 
ATOM      5  C7  UNL d   1      -1.860   0.725   1.270  0.00  0.00     0.002 A 
ATOM      6  C8  UNL d   1      -0.782   1.291   0.587  0.00  0.00     0.002 A 
ENDROOT
BRANCH   1   7
ATOM      7  C2  UNL d   1       1.174   1.127  -1.004  0.00  0.00     0.056 C 
BRANCH   7   8
ATOM      8  C1  UNL d   1       0.766   1.797  -2.320  0.00  0.00     0.007 C 
ATOM      9  C   UNL d   1       1.878   1.806  -3.360  0.00  0.00     0.009 C 
ENDBRANCH   7   8
ENDBRANCH   1   7
TORSDOF 2
ENDMDL
