MODEL 1
REMARK minimizedAffinity -4.90011501
REMARK minimizedRMSD -1
REMARK  2 active torsions:
REMARK  status: ('A' for Active; 'I' for Inactive)
REMARK    1  A    between atoms: C1_2  and  C2_3 
REMARK    2  A    between atoms: C2_3  and  C3_4 
ROOT
ATOM      1  C3  UNL d   1      -0.275   0.035   0.235  0.00  0.00    -0.075 A 
ATOM      2  C4  UNL d   1      -1.654  -0.130   0.424  0.00  0.00     0.002 A 
ATOM      3  C5  UNL d   1      -2.175  -1.369   0.800  0.00  0.00     0.002 A 
ATOM      4  C6  UNL d   1      -1.325  -2.459   0.981  0.00  0.00    -0.004 A 
ATOM      5  C7  UNL d   1       0.045  -2.310   0.780  0.00  0.00     0.002 A 
ATOM      6  C8  UNL d   1       0.569  -1.071   0.408  0.00  0.00     0.002 A 
ENDROOT
BRANCH   1   7
ATOM      7  C2  UNL d   1       0.298   1.380  -0.142  0.00  0.00     0.056 C 
BRANCH   7   8
ATOM      8  C1  UNL d   1       1.230   1.343  -1.358  0.00  0.00     0.007 C 
ATOM      9  C   UNL d   1       0.640   2.022  -2.588  0.00  0.00     0.009 C 
ENDBRANCH   7   8
ENDBRANCH   1   7
TORSDOF 2
ENDMDL
