MODEL 1
REMARK minimizedAffinity -2.36778569
REMARK minimizedRMSD -1
REMARK  2 active torsions:
REMARK  status: ('A' for Active; 'I' for Inactive)
REMARK    1  A    between atoms: C1_2  and  C2_3 
REMARK    2  A    between atoms: C2_3  and  C3_4 
ROOT
ATOM      1  C3  UNL d   1       0.226   0.974  -0.261  0.00  0.00    -0.075 A 
ATOM      2  C4  UNL d   1       0.395  -0.413  -0.150  0.00  0.00     0.002 A 
ATOM      3  C5  UNL d   1      -0.538  -1.188   0.539  0.00  0.00     0.002 A 
ATOM      4  C6  UNL d   1      -1.645  -0.585   1.134  0.00  0.00    -0.004 A 
ATOM      5  C7  UNL d   1      -1.814   0.795   1.044  0.00  0.00     0.002 A 
ATOM      6  C8  UNL d   1      -0.884   1.571   0.351  0.00  0.00     0.002 A 
ENDROOT
BRANCH   1   7
ATOM      7  C2  UNL d   1       1.217   1.814  -1.031  0.00  0.00     0.056 C 
BRANCH   7   8
ATOM      8  C1  UNL d   1       0.947   1.873  -2.538  0.00  0.00     0.007 C 
ATOM      9  C   UNL d   1       2.104   1.347  -3.377  0.00  0.00     0.009 C 
ENDBRANCH   7   8
ENDBRANCH   1   7
TORSDOF 2
ENDMDL
