MODEL 1
REMARK minimizedAffinity -3.84392214
REMARK minimizedRMSD -1
REMARK  2 active torsions:
REMARK  status: ('A' for Active; 'I' for Inactive)
REMARK    1  A    between atoms: C1_2  and  C2_3 
REMARK    2  A    between atoms: C2_3  and  C3_4 
ROOT
ATOM      1  C3  UNL d   1      -0.823  -0.494   0.111  0.00  0.00    -0.075 A 
ATOM      2  C4  UNL d   1      -1.553   0.555   0.689  0.00  0.00     0.002 A 
ATOM      3  C5  UNL d   1      -1.021   1.843   0.743  0.00  0.00     0.002 A 
ATOM      4  C6  UNL d   1       0.250   2.098   0.231  0.00  0.00    -0.004 A 
ATOM      5  C7  UNL d   1       0.991   1.060  -0.330  0.00  0.00     0.002 A 
ATOM      6  C8  UNL d   1       0.459  -0.229  -0.390  0.00  0.00     0.002 A 
ENDROOT
BRANCH   1   7
ATOM      7  C2  UNL d   1      -1.405  -1.884   0.023  0.00  0.00     0.056 C 
BRANCH   7   8
ATOM      8  C1  UNL d   1      -1.416  -2.641   1.355  0.00  0.00     0.007 C 
ATOM      9  C   UNL d   1      -0.112  -2.510   2.130  0.00  0.00     0.009 C 
ENDBRANCH   7   8
ENDBRANCH   1   7
TORSDOF 2
ENDMDL
