MODEL 1
REMARK minimizedAffinity -1.56851637
REMARK minimizedRMSD -1
REMARK  2 active torsions:
REMARK  status: ('A' for Active; 'I' for Inactive)
REMARK    1  A    between atoms: C1_2  and  C2_3 
REMARK    2  A    between atoms: C2_3  and  C3_4 
ROOT
ATOM      1  C3  UNL d   1       0.185   1.862  -1.353  0.00  0.00    -0.075 A 
ATOM      2  C4  UNL d   1      -0.848   2.423  -2.117  0.00  0.00     0.002 A 
ATOM      3  C5  UNL d   1      -0.581   2.978  -3.370  0.00  0.00     0.002 A 
ATOM      4  C6  UNL d   1       0.720   2.987  -3.868  0.00  0.00    -0.004 A 
ATOM      5  C7  UNL d   1       1.756   2.447  -3.109  0.00  0.00     0.002 A 
ATOM      6  C8  UNL d   1       1.492   1.888  -1.858  0.00  0.00     0.002 A 
ENDROOT
BRANCH   1   7
ATOM      7  C2  UNL d   1      -0.102   1.234  -0.010  0.00  0.00     0.056 C 
BRANCH   7   8
ATOM      8  C1  UNL d   1      -0.189  -0.296  -0.042  0.00  0.00     0.007 C 
ATOM      9  C   UNL d   1       0.936  -0.978   0.725  0.00  0.00     0.009 C 
ENDBRANCH   7   8
ENDBRANCH   1   7
TORSDOF 2
ENDMDL
