MODEL 1
REMARK minimizedAffinity 0.285271645
REMARK minimizedRMSD -1
REMARK  2 active torsions:
REMARK  status: ('A' for Active; 'I' for Inactive)
REMARK    1  A    between atoms: C1_2  and  C2_3 
REMARK    2  A    between atoms: C2_3  and  C3_4 
ROOT
ATOM      1  C3  UNL d   1      -1.188  -0.854   0.108  0.00  0.00    -0.075 A 
ATOM      2  C4  UNL d   1      -2.111  -1.892   0.302  0.00  0.00     0.002 A 
ATOM      3  C5  UNL d   1      -1.766  -3.016   1.053  0.00  0.00     0.002 A 
ATOM      4  C6  UNL d   1      -0.494  -3.122   1.610  0.00  0.00    -0.004 A 
ATOM      5  C7  UNL d   1       0.437  -2.104   1.411  0.00  0.00     0.002 A 
ATOM      6  C8  UNL d   1       0.093  -0.977   0.664  0.00  0.00     0.002 A 
ENDROOT
BRANCH   1   7
ATOM      7  C2  UNL d   1      -1.565   0.378  -0.679  0.00  0.00     0.056 C 
BRANCH   7   8
ATOM      8  C1  UNL d   1      -2.075   1.537   0.184  0.00  0.00     0.007 C 
ATOM      9  C   UNL d   1      -3.316   1.182   0.993  0.00  0.00     0.009 C 
ENDBRANCH   7   8
ENDBRANCH   1   7
TORSDOF 2
ENDMDL
