MODEL 1
REMARK minimizedAffinity -6.15422153
REMARK minimizedRMSD -1
REMARK  2 active torsions:
REMARK  status: ('A' for Active; 'I' for Inactive)
REMARK    1  A    between atoms: C1_2  and  C2_3 
REMARK    2  A    between atoms: C2_3  and  C3_4 
ROOT
ATOM      1  C3  UNL d   1      -0.247  -0.534  -0.479  0.00  0.00    -0.075 A 
ATOM      2  C4  UNL d   1      -1.096  -0.204   0.588  0.00  0.00     0.002 A 
ATOM      3  C5  UNL d   1      -1.711  -1.204   1.340  0.00  0.00     0.002 A 
ATOM      4  C6  UNL d   1      -1.495  -2.545   1.030  0.00  0.00    -0.004 A 
ATOM      5  C7  UNL d   1      -0.667  -2.885  -0.038  0.00  0.00     0.002 A 
ATOM      6  C8  UNL d   1      -0.046  -1.886  -0.789  0.00  0.00     0.002 A 
ENDROOT
BRANCH   1   7
ATOM      7  C2  UNL d   1       0.446   0.543  -1.278  0.00  0.00     0.056 C 
BRANCH   7   8
ATOM      8  C1  UNL d   1       0.087   0.543  -2.768  0.00  0.00     0.007 C 
ATOM      9  C   UNL d   1       0.610   1.765  -3.511  0.00  0.00     0.009 C 
ENDBRANCH   7   8
ENDBRANCH   1   7
TORSDOF 2
ENDMDL
