MODEL 1
REMARK minimizedAffinity -5.36477613
REMARK minimizedRMSD -1
REMARK  2 active torsions:
REMARK  status: ('A' for Active; 'I' for Inactive)
REMARK    1  A    between atoms: C1_2  and  C2_3 
REMARK    2  A    between atoms: C2_3  and  C3_4 
ROOT
ATOM      1  C3  UNL d   1       0.096   0.625  -0.875  0.00  0.00    -0.075 A 
ATOM      2  C4  UNL d   1       0.113   2.026  -0.833  0.00  0.00     0.002 A 
ATOM      3  C5  UNL d   1       0.630   2.761  -1.901  0.00  0.00     0.002 A 
ATOM      4  C6  UNL d   1       1.144   2.105  -3.017  0.00  0.00    -0.004 A 
ATOM      5  C7  UNL d   1       1.148   0.713  -3.063  0.00  0.00     0.002 A 
ATOM      6  C8  UNL d   1       0.627  -0.025  -1.998  0.00  0.00     0.002 A 
ENDROOT
BRANCH   1   7
ATOM      7  C2  UNL d   1      -0.489  -0.175   0.264  0.00  0.00     0.056 C 
BRANCH   7   8
ATOM      8  C1  UNL d   1       0.037  -1.612   0.353  0.00  0.00     0.007 C 
ATOM      9  C   UNL d   1      -0.887  -2.543   1.125  0.00  0.00     0.009 C 
ENDBRANCH   7   8
ENDBRANCH   1   7
TORSDOF 2
ENDMDL
