MODEL 1
REMARK minimizedAffinity -5.00297737
REMARK minimizedRMSD -1
REMARK  2 active torsions:
REMARK  status: ('A' for Active; 'I' for Inactive)
REMARK    1  A    between atoms: C1_2  and  C2_3 
REMARK    2  A    between atoms: C2_3  and  C3_4 
ROOT
ATOM      1  C3  UNL d   1      -0.081  -0.930   0.004  0.00  0.00    -0.075 A 
ATOM      2  C4  UNL d   1      -1.356  -0.689   0.536  0.00  0.00     0.002 A 
ATOM      3  C5  UNL d   1      -2.080  -1.720   1.135  0.00  0.00     0.002 A 
ATOM      4  C6  UNL d   1      -1.544  -3.005   1.202  0.00  0.00    -0.004 A 
ATOM      5  C7  UNL d   1      -0.285  -3.259   0.662  0.00  0.00     0.002 A 
ATOM      6  C8  UNL d   1       0.443  -2.228   0.065  0.00  0.00     0.002 A 
ENDROOT
BRANCH   1   7
ATOM      7  C2  UNL d   1       0.720   0.188  -0.620  0.00  0.00     0.056 C 
BRANCH   7   8
ATOM      8  C1  UNL d   1      -0.079   1.476  -0.844  0.00  0.00     0.007 C 
ATOM      9  C   UNL d   1      -0.126   1.907  -2.305  0.00  0.00     0.009 C 
ENDBRANCH   7   8
ENDBRANCH   1   7
TORSDOF 2
ENDMDL
