MODEL 1
REMARK minimizedAffinity -4.58724928
REMARK minimizedRMSD -1
REMARK  2 active torsions:
REMARK  status: ('A' for Active; 'I' for Inactive)
REMARK    1  A    between atoms: C1_2  and  C2_3 
REMARK    2  A    between atoms: C2_3  and  C3_4 
ROOT
ATOM      1  C3  UNL d   1      -0.028   0.143   0.349  0.00  0.00    -0.075 A 
ATOM      2  C4  UNL d   1       0.678  -1.064   0.468  0.00  0.00     0.002 A 
ATOM      3  C5  UNL d   1       0.014  -2.241   0.815  0.00  0.00     0.002 A 
ATOM      4  C6  UNL d   1      -1.358  -2.226   1.057  0.00  0.00    -0.004 A 
ATOM      5  C7  UNL d   1      -2.066  -1.030   0.957  0.00  0.00     0.002 A 
ATOM      6  C8  UNL d   1      -1.405   0.149   0.606  0.00  0.00     0.002 A 
ENDROOT
BRANCH   1   7
ATOM      7  C2  UNL d   1       0.680   1.414  -0.055  0.00  0.00     0.056 C 
BRANCH   7   8
ATOM      8  C1  UNL d   1       1.082   1.462  -1.533  0.00  0.00     0.007 C 
ATOM      9  C   UNL d   1       2.401   2.184  -1.773  0.00  0.00     0.009 C 
ENDBRANCH   7   8
ENDBRANCH   1   7
TORSDOF 2
ENDMDL
