MODEL 1
REMARK minimizedAffinity -0.786838472
REMARK minimizedRMSD -1
REMARK  2 active torsions:
REMARK  status: ('A' for Active; 'I' for Inactive)
REMARK    1  A    between atoms: C1_2  and  C2_3 
REMARK    2  A    between atoms: C2_3  and  C3_4 
ROOT
ATOM      1  C3  UNL d   1       0.449   1.033  -0.971  0.00  0.00    -0.075 A 
ATOM      2  C4  UNL d   1      -0.613   1.517  -1.749  0.00  0.00     0.002 A 
ATOM      3  C5  UNL d   1      -0.367   2.158  -2.964  0.00  0.00     0.002 A 
ATOM      4  C6  UNL d   1       0.940   2.333  -3.410  0.00  0.00    -0.004 A 
ATOM      5  C7  UNL d   1       2.004   1.872  -2.638  0.00  0.00     0.002 A 
ATOM      6  C8  UNL d   1       1.761   1.226  -1.424  0.00  0.00     0.002 A 
ENDROOT
BRANCH   1   7
ATOM      7  C2  UNL d   1       0.188   0.312   0.329  0.00  0.00     0.056 C 
BRANCH   7   8
ATOM      8  C1  UNL d   1       0.735  -1.119   0.370  0.00  0.00     0.007 C 
ATOM      9  C   UNL d   1      -0.127  -2.068   1.192  0.00  0.00     0.009 C 
ENDBRANCH   7   8
ENDBRANCH   1   7
TORSDOF 2
ENDMDL
