MODEL 1
REMARK minimizedAffinity 4.85840988
REMARK minimizedRMSD -1
REMARK  3 active torsions:
REMARK  status: ('A' for Active; 'I' for Inactive)
REMARK    1  A    between atoms: C3'_2  and  C2'_3 
REMARK    2  A    between atoms: C2'_3  and  C1'_4 
REMARK    3  A    between atoms: C1'_4  and  C1_5 
ROOT
ATOM      1  C1  N4B d   1       4.462   3.545   4.588  0.00  0.00    -0.075 A 
ATOM      2  C2  N4B d   1       5.726   4.175   4.607  0.00  0.00     0.002 A 
ATOM      3  C3  N4B d   1       5.904   5.337   5.318  0.00  0.00     0.002 A 
ATOM      4  C4  N4B d   1       4.833   5.894   6.000  0.00  0.00    -0.004 A 
ATOM      5  C5  N4B d   1       3.622   5.266   5.998  0.00  0.00     0.002 A 
ATOM      6  C6  N4B d   1       3.430   4.096   5.290  0.00  0.00     0.002 A 
ENDROOT
BRANCH   1   7
ATOM      7  C1' N4B d   1       4.197   2.321   3.755  0.00  0.00     0.057 C 
BRANCH   7   8
ATOM      8  C2' N4B d   1       4.551   2.618   2.301  0.00  0.00     0.009 C 
BRANCH   8   9
ATOM      9  C3' N4B d   1       3.325   2.980   1.481  0.00  0.00     0.004 C 
ATOM     10  C4' N4B d   1       3.597   2.995   0.006  0.00  0.00     0.003 C 
ENDBRANCH   8   9
ENDBRANCH   7   8
ENDBRANCH   1   7
TORSDOF 3
ENDMDL
