MODEL 1
REMARK minimizedAffinity 10.1689777
REMARK minimizedRMSD -1
REMARK  3 active torsions:
REMARK  status: ('A' for Active; 'I' for Inactive)
REMARK    1  A    between atoms: C3'_2  and  C2'_3 
REMARK    2  A    between atoms: C2'_3  and  C1'_4 
REMARK    3  A    between atoms: C1'_4  and  C1_5 
ROOT
ATOM      1  C1  N4B d   1       4.779   3.508   4.798  0.00  0.00    -0.075 A 
ATOM      2  C2  N4B d   1       5.997   4.095   5.206  0.00  0.00     0.002 A 
ATOM      3  C3  N4B d   1       5.997   5.328   5.811  0.00  0.00     0.002 A 
ATOM      4  C4  N4B d   1       4.798   5.999   5.999  0.00  0.00    -0.004 A 
ATOM      5  C5  N4B d   1       3.623   5.414   5.624  0.00  0.00     0.002 A 
ATOM      6  C6  N4B d   1       3.609   4.173   5.020  0.00  0.00     0.002 A 
ENDROOT
BRANCH   1   7
ATOM      7  C1' N4B d   1       4.737   2.200   4.056  0.00  0.00     0.057 C 
BRANCH   7   8
ATOM      8  C2' N4B d   1       5.355   2.388   2.674  0.00  0.00     0.009 C 
BRANCH   8   9
ATOM      9  C3' N4B d   1       4.363   2.087   1.563  0.00  0.00     0.004 C 
ATOM     10  C4' N4B d   1       4.513   3.005   0.386  0.00  0.00     0.003 C 
ENDBRANCH   8   9
ENDBRANCH   7   8
ENDBRANCH   1   7
TORSDOF 3
ENDMDL
