MODEL 1
REMARK minimizedAffinity 24.6931095
REMARK minimizedRMSD -1
REMARK  3 active torsions:
REMARK  status: ('A' for Active; 'I' for Inactive)
REMARK    1  A    between atoms: C3'_2  and  C2'_3 
REMARK    2  A    between atoms: C2'_3  and  C1'_4 
REMARK    3  A    between atoms: C1'_4  and  C1_5 
ROOT
ATOM      1  C1  N4B d   1       1.150  -0.443  -1.779  0.00  0.00    -0.075 A 
ATOM      2  C2  N4B d   1       0.484  -0.735  -0.569  0.00  0.00     0.002 A 
ATOM      3  C3  N4B d   1      -0.701  -1.428  -0.587  0.00  0.00     0.002 A 
ATOM      4  C4  N4B d   1      -1.247  -1.822  -1.800  0.00  0.00    -0.004 A 
ATOM      5  C5  N4B d   1      -0.585  -1.558  -2.963  0.00  0.00     0.002 A 
ATOM      6  C6  N4B d   1       0.610  -0.866  -2.959  0.00  0.00     0.002 A 
ENDROOT
BRANCH   1   7
ATOM      7  C1' N4B d   1       2.404   0.386  -1.815  0.00  0.00     0.057 C 
BRANCH   7   8
ATOM      8  C2' N4B d   1       3.617  -0.540  -1.846  0.00  0.00     0.009 C 
BRANCH   8   9
ATOM      9  C3' N4B d   1       4.147  -0.734  -3.256  0.00  0.00     0.004 C 
ATOM     10  C4' N4B d   1       5.612  -0.432  -3.372  0.00  0.00     0.003 C 
ENDBRANCH   8   9
ENDBRANCH   7   8
ENDBRANCH   1   7
TORSDOF 3
ENDMDL
