MODEL 1
REMARK minimizedAffinity 8.10707283
REMARK minimizedRMSD -1
REMARK  3 active torsions:
REMARK  status: ('A' for Active; 'I' for Inactive)
REMARK    1  A    between atoms: C3'_2  and  C2'_3 
REMARK    2  A    between atoms: C2'_3  and  C1'_4 
REMARK    3  A    between atoms: C1'_4  and  C1_5 
ROOT
ATOM      1  C1  N4B d   1       1.036  -0.366  -1.486  0.00  0.00    -0.075 A 
ATOM      2  C2  N4B d   1       0.502  -0.835  -2.707  0.00  0.00     0.002 A 
ATOM      3  C3  N4B d   1      -0.778  -1.330  -2.751  0.00  0.00     0.002 A 
ATOM      4  C4  N4B d   1      -1.533  -1.382  -1.589  0.00  0.00    -0.004 A 
ATOM      5  C5  N4B d   1      -1.019  -0.904  -0.419  0.00  0.00     0.002 A 
ATOM      6  C6  N4B d   1       0.264  -0.400  -0.361  0.00  0.00     0.002 A 
ENDROOT
BRANCH   1   7
ATOM      7  C1' N4B d   1       2.461   0.104  -1.371  0.00  0.00     0.057 C 
BRANCH   7   8
ATOM      8  C2' N4B d   1       2.496   1.626  -1.478  0.00  0.00     0.009 C 
BRANCH   8   9
ATOM      9  C3' N4B d   1       2.534   2.291  -0.113  0.00  0.00     0.004 C 
ATOM     10  C4' N4B d   1       3.888   2.838   0.229  0.00  0.00     0.003 C 
ENDBRANCH   8   9
ENDBRANCH   7   8
ENDBRANCH   1   7
TORSDOF 3
ENDMDL
