MODEL 1
REMARK minimizedAffinity 13.7239246
REMARK minimizedRMSD -1
REMARK  3 active torsions:
REMARK  status: ('A' for Active; 'I' for Inactive)
REMARK    1  A    between atoms: C3'_2  and  C2'_3 
REMARK    2  A    between atoms: C2'_3  and  C1'_4 
REMARK    3  A    between atoms: C1'_4  and  C1_5 
ROOT
ATOM      1  C1  N4B d   1       5.333   3.600   3.758  0.00  0.00    -0.075 A 
ATOM      2  C2  N4B d   1       5.999   4.845   3.761  0.00  0.00     0.002 A 
ATOM      3  C3  N4B d   1       5.967   5.638   4.881  0.00  0.00     0.002 A 
ATOM      4  C4  N4B d   1       5.262   5.217   5.999  0.00  0.00    -0.004 A 
ATOM      5  C5  N4B d   1       4.643   4.001   5.997  0.00  0.00     0.002 A 
ATOM      6  C6  N4B d   1       4.670   3.192   4.879  0.00  0.00     0.002 A 
ENDROOT
BRANCH   1   7
ATOM      7  C1' N4B d   1       5.268   2.737   2.527  0.00  0.00     0.057 C 
BRANCH   7   8
ATOM      8  C2' N4B d   1       4.665   3.544   1.381  0.00  0.00     0.009 C 
BRANCH   8   9
ATOM      9  C3' N4B d   1       4.490   2.705   0.126  0.00  0.00     0.004 C 
ATOM     10  C4' N4B d   1       3.080   2.713  -0.385  0.00  0.00     0.003 C 
ENDBRANCH   8   9
ENDBRANCH   7   8
ENDBRANCH   1   7
TORSDOF 3
ENDMDL
