MODEL 1
REMARK minimizedAffinity 14.5260668
REMARK minimizedRMSD -1
REMARK  3 active torsions:
REMARK  status: ('A' for Active; 'I' for Inactive)
REMARK    1  A    between atoms: C3'_2  and  C2'_3 
REMARK    2  A    between atoms: C2'_3  and  C1'_4 
REMARK    3  A    between atoms: C1'_4  and  C1_5 
ROOT
ATOM      1  C1  N4B d   1       5.107   3.676   4.908  0.00  0.00    -0.075 A 
ATOM      2  C2  N4B d   1       5.617   4.911   5.367  0.00  0.00     0.002 A 
ATOM      3  C3  N4B d   1       4.770   5.842   5.916  0.00  0.00     0.002 A 
ATOM      4  C4  N4B d   1       3.412   5.569   5.999  0.00  0.00    -0.004 A 
ATOM      5  C5  N4B d   1       2.932   4.365   5.577  0.00  0.00     0.002 A 
ATOM      6  C6  N4B d   1       3.772   3.418   5.026  0.00  0.00     0.002 A 
ENDROOT
BRANCH   1   7
ATOM      7  C1' N4B d   1       5.981   2.662   4.222  0.00  0.00     0.057 C 
BRANCH   7   8
ATOM      8  C2' N4B d   1       5.278   2.165   2.962  0.00  0.00     0.009 C 
BRANCH   8   9
ATOM      9  C3' N4B d   1       6.000   0.985   2.336  0.00  0.00     0.004 C 
ATOM     10  C4' N4B d   1       5.947  -0.247   3.189  0.00  0.00     0.003 C 
ENDBRANCH   8   9
ENDBRANCH   7   8
ENDBRANCH   1   7
TORSDOF 3
ENDMDL
