MODEL 1
REMARK minimizedAffinity 5.9122529
REMARK minimizedRMSD -1
REMARK  3 active torsions:
REMARK  status: ('A' for Active; 'I' for Inactive)
REMARK    1  A    between atoms: C3'_2  and  C2'_3 
REMARK    2  A    between atoms: C2'_3  and  C1'_4 
REMARK    3  A    between atoms: C1'_4  and  C1_5 
ROOT
ATOM      1  C1  N4B d   1       4.250   3.527   5.108  0.00  0.00    -0.075 A 
ATOM      2  C2  N4B d   1       3.394   4.649   5.057  0.00  0.00     0.002 A 
ATOM      3  C3  N4B d   1       3.844   5.876   5.480  0.00  0.00     0.002 A 
ATOM      4  C4  N4B d   1       5.134   6.000   5.974  0.00  0.00    -0.004 A 
ATOM      5  C5  N4B d   1       5.963   4.916   5.997  0.00  0.00     0.002 A 
ATOM      6  C6  N4B d   1       5.525   3.678   5.571  0.00  0.00     0.002 A 
ENDROOT
BRANCH   1   7
ATOM      7  C1' N4B d   1       3.775   2.149   4.737  0.00  0.00     0.057 C 
BRANCH   7   8
ATOM      8  C2' N4B d   1       3.330   1.415   5.999  0.00  0.00     0.009 C 
BRANCH   8   9
ATOM      9  C3' N4B d   1       2.558   0.147   5.677  0.00  0.00     0.004 C 
ATOM     10  C4' N4B d   1       3.181  -0.647   4.568  0.00  0.00     0.003 C 
ENDBRANCH   8   9
ENDBRANCH   7   8
ENDBRANCH   1   7
TORSDOF 3
ENDMDL
