MODEL 1
REMARK minimizedAffinity 8.55222416
REMARK minimizedRMSD -1
REMARK  3 active torsions:
REMARK  status: ('A' for Active; 'I' for Inactive)
REMARK    1  A    between atoms: C3'_2  and  C2'_3 
REMARK    2  A    between atoms: C2'_3  and  C1'_4 
REMARK    3  A    between atoms: C1'_4  and  C1_5 
ROOT
ATOM      1  C1  N4B d   1      -1.467  -1.455  -0.080  0.00  0.00    -0.075 A 
ATOM      2  C2  N4B d   1      -2.799  -1.309   0.365  0.00  0.00     0.002 A 
ATOM      3  C3  N4B d   1      -3.287  -2.129   1.353  0.00  0.00     0.002 A 
ATOM      4  C4  N4B d   1      -2.471  -3.111   1.894  0.00  0.00    -0.004 A 
ATOM      5  C5  N4B d   1      -1.178  -3.230   1.476  0.00  0.00     0.002 A 
ATOM      6  C6  N4B d   1      -0.673  -2.409   0.487  0.00  0.00     0.002 A 
ENDROOT
BRANCH   1   7
ATOM      7  C1' N4B d   1      -0.916  -0.639  -1.217  0.00  0.00     0.057 C 
BRANCH   7   8
ATOM      8  C2' N4B d   1      -1.862  -0.737  -2.409  0.00  0.00     0.009 C 
BRANCH   8   9
ATOM      9  C3' N4B d   1      -1.455  -1.841  -3.370  0.00  0.00     0.004 C 
ATOM     10  C4' N4B d   1      -0.010  -1.762  -3.765  0.00  0.00     0.003 C 
ENDBRANCH   8   9
ENDBRANCH   7   8
ENDBRANCH   1   7
TORSDOF 3
ENDMDL
