MODEL 1
REMARK minimizedAffinity 13.4559193
REMARK minimizedRMSD -1
REMARK  3 active torsions:
REMARK  status: ('A' for Active; 'I' for Inactive)
REMARK    1  A    between atoms: C3'_2  and  C2'_3 
REMARK    2  A    between atoms: C2'_3  and  C1'_4 
REMARK    3  A    between atoms: C1'_4  and  C1_5 
ROOT
ATOM      1  C1  N4B d   1      -2.588  -1.331  -1.480  0.00  0.00    -0.075 A 
ATOM      2  C2  N4B d   1      -2.777  -2.452  -2.317  0.00  0.00     0.002 A 
ATOM      3  C3  N4B d   1      -1.959  -3.549  -2.189  0.00  0.00     0.002 A 
ATOM      4  C4  N4B d   1      -0.939  -3.539  -1.250  0.00  0.00    -0.004 A 
ATOM      5  C5  N4B d   1      -0.780  -2.461  -0.428  0.00  0.00     0.002 A 
ATOM      6  C6  N4B d   1      -1.597  -1.354  -0.542  0.00  0.00     0.002 A 
ENDROOT
BRANCH   1   7
ATOM      7  C1' N4B d   1      -3.402  -0.075  -1.639  0.00  0.00     0.057 C 
BRANCH   7   8
ATOM      8  C2' N4B d   1      -3.504   0.270  -3.122  0.00  0.00     0.009 C 
BRANCH   8   9
ATOM      9  C3' N4B d   1      -2.654   1.475  -3.485  0.00  0.00     0.004 C 
ATOM     10  C4' N4B d   1      -3.107   2.147  -4.746  0.00  0.00     0.003 C 
ENDBRANCH   8   9
ENDBRANCH   7   8
ENDBRANCH   1   7
TORSDOF 3
ENDMDL
