MODEL 1
REMARK minimizedAffinity -2.30846524
REMARK minimizedRMSD -1
REMARK  0 active torsions:
REMARK  status: ('A' for Active; 'I' for Inactive)
ROOT
ATOM      1  C1  BNZ d   1      -1.985  -6.000  -3.723  0.00  0.00     0.000 A 
ATOM      2  C2  BNZ d   1      -1.885  -6.000  -5.089  0.00  0.00     0.000 A 
ATOM      3  C3  BNZ d   1      -0.716  -5.650  -5.705  0.00  0.00     0.000 A 
ATOM      4  C4  BNZ d   1       0.337  -5.263  -4.957  0.00  0.00     0.000 A 
ATOM      5  C5  BNZ d   1       0.249  -5.248  -3.579  0.00  0.00     0.000 A 
ATOM      6  C6  BNZ d   1      -0.917  -5.639  -2.961  0.00  0.00     0.000 A 
ENDROOT
TORSDOF 0
ENDMDL
