MODEL 1
REMARK minimizedAffinity -0.62597388
REMARK minimizedRMSD -1
REMARK  0 active torsions:
REMARK  status: ('A' for Active; 'I' for Inactive)
ROOT
ATOM      1  C1  BNZ d   1      -0.762  -5.997  -3.612  0.00  0.00     0.000 A 
ATOM      2  C2  BNZ d   1      -1.454  -5.965  -4.793  0.00  0.00     0.000 A 
ATOM      3  C3  BNZ d   1      -0.796  -5.885  -5.989  0.00  0.00     0.000 A 
ATOM      4  C4  BNZ d   1       0.550  -5.797  -6.000  0.00  0.00     0.000 A 
ATOM      5  C5  BNZ d   1       1.262  -5.819  -4.817  0.00  0.00     0.000 A 
ATOM      6  C6  BNZ d   1       0.598  -5.938  -3.618  0.00  0.00     0.000 A 
ENDROOT
TORSDOF 0
ENDMDL
