MODEL 1
REMARK minimizedAffinity -2.46886253
REMARK minimizedRMSD -1
REMARK  0 active torsions:
REMARK  status: ('A' for Active; 'I' for Inactive)
ROOT
ATOM      1  C1  BNZ d   1       1.204  -5.617  -3.992  0.00  0.00     0.000 A 
ATOM      2  C2  BNZ d   1       0.016  -5.551  -3.313  0.00  0.00     0.000 A 
ATOM      3  C3  BNZ d   1      -1.172  -5.733  -3.963  0.00  0.00     0.000 A 
ATOM      4  C4  BNZ d   1      -1.174  -5.940  -5.296  0.00  0.00     0.000 A 
ATOM      5  C5  BNZ d   1       0.014  -6.000  -5.996  0.00  0.00     0.000 A 
ATOM      6  C6  BNZ d   1       1.211  -5.855  -5.332  0.00  0.00     0.000 A 
ENDROOT
TORSDOF 0
ENDMDL
