MODEL 1
REMARK minimizedAffinity -1.64893305
REMARK minimizedRMSD -1
REMARK  0 active torsions:
REMARK  status: ('A' for Active; 'I' for Inactive)
ROOT
ATOM      1  C1  BNZ d   1       1.649  -5.962  -4.405  0.00  0.00     0.000 A 
ATOM      2  C2  BNZ d   1       0.730  -5.953  -3.389  0.00  0.00     0.000 A 
ATOM      3  C3  BNZ d   1      -0.609  -5.992  -3.657  0.00  0.00     0.000 A 
ATOM      4  C4  BNZ d   1      -1.029  -6.000  -4.939  0.00  0.00     0.000 A 
ATOM      5  C5  BNZ d   1      -0.116  -6.000  -5.974  0.00  0.00     0.000 A 
ATOM      6  C6  BNZ d   1       1.233  -6.000  -5.700  0.00  0.00     0.000 A 
ENDROOT
TORSDOF 0
ENDMDL
