MODEL 1
REMARK minimizedAffinity 0.983026922
REMARK minimizedRMSD -1
REMARK  0 active torsions:
REMARK  status: ('A' for Active; 'I' for Inactive)
ROOT
ATOM      1  C1  BNZ d   1       0.042  -5.992  -3.571  0.00  0.00     0.000 A 
ATOM      2  C2  BNZ d   1      -0.741  -5.999  -4.694  0.00  0.00     0.000 A 
ATOM      3  C3  BNZ d   1      -0.223  -5.652  -5.911  0.00  0.00     0.000 A 
ATOM      4  C4  BNZ d   1       1.065  -5.259  -5.995  0.00  0.00     0.000 A 
ATOM      5  C5  BNZ d   1       1.865  -5.238  -4.870  0.00  0.00     0.000 A 
ATOM      6  C6  BNZ d   1       1.351  -5.626  -3.654  0.00  0.00     0.000 A 
ENDROOT
TORSDOF 0
ENDMDL
