MODEL 1
REMARK minimizedAffinity 0.143036917
REMARK minimizedRMSD -1
REMARK  0 active torsions:
REMARK  status: ('A' for Active; 'I' for Inactive)
ROOT
ATOM      1  C1  BNZ d   1       0.669  -5.995  -3.565  0.00  0.00     0.000 A 
ATOM      2  C2  BNZ d   1       1.220  -5.961  -4.818  0.00  0.00     0.000 A 
ATOM      3  C3  BNZ d   1       0.426  -5.920  -5.930  0.00  0.00     0.000 A 
ATOM      4  C4  BNZ d   1      -0.915  -5.954  -5.790  0.00  0.00     0.000 A 
ATOM      5  C5  BNZ d   1      -1.485  -5.998  -4.533  0.00  0.00     0.000 A 
ATOM      6  C6  BNZ d   1      -0.683  -6.000  -3.415  0.00  0.00     0.000 A 
ENDROOT
TORSDOF 0
ENDMDL
