MODEL 1
REMARK minimizedAffinity -0.866658092
REMARK minimizedRMSD -1
REMARK  0 active torsions:
REMARK  status: ('A' for Active; 'I' for Inactive)
ROOT
ATOM      1  C1  BNZ d   1      -0.078  -6.000  -3.071  0.00  0.00     0.000 A 
ATOM      2  C2  BNZ d   1       0.572  -5.982  -4.275  0.00  0.00     0.000 A 
ATOM      3  C3  BNZ d   1      -0.128  -5.948  -5.449  0.00  0.00     0.000 A 
ATOM      4  C4  BNZ d   1      -1.476  -5.973  -5.417  0.00  0.00     0.000 A 
ATOM      5  C5  BNZ d   1      -2.147  -6.000  -4.211  0.00  0.00     0.000 A 
ATOM      6  C6  BNZ d   1      -1.439  -5.995  -3.031  0.00  0.00     0.000 A 
ENDROOT
TORSDOF 0
ENDMDL
