MODEL 1
REMARK minimizedAffinity -2.59923649
REMARK minimizedRMSD -1
REMARK  0 active torsions:
REMARK  status: ('A' for Active; 'I' for Inactive)
ROOT
ATOM      1  C1  BNZ d   1       0.006  -5.253  -4.115  0.00  0.00     0.000 A 
ATOM      2  C2  BNZ d   1      -0.750  -5.245  -2.973  0.00  0.00     0.000 A 
ATOM      3  C3  BNZ d   1      -2.060  -5.635  -2.999  0.00  0.00     0.000 A 
ATOM      4  C4  BNZ d   1      -2.622  -5.995  -4.171  0.00  0.00     0.000 A 
ATOM      5  C5  BNZ d   1      -1.875  -6.000  -5.332  0.00  0.00     0.000 A 
ATOM      6  C6  BNZ d   1      -0.547  -5.643  -5.296  0.00  0.00     0.000 A 
ENDROOT
TORSDOF 0
ENDMDL
