MODEL 1
REMARK minimizedAffinity -3.07618475
REMARK minimizedRMSD -1
REMARK  0 active torsions:
REMARK  status: ('A' for Active; 'I' for Inactive)
ROOT
ATOM      1  C1  BNZ d   1       0.061  -5.784  -3.736  0.00  0.00     0.000 A 
ATOM      2  C2  BNZ d   1       0.308  -5.537  -5.060  0.00  0.00     0.000 A 
ATOM      3  C3  BNZ d   1      -0.714  -5.492  -5.966  0.00  0.00     0.000 A 
ATOM      4  C4  BNZ d   1      -1.976  -5.733  -5.555  0.00  0.00     0.000 A 
ATOM      5  C5  BNZ d   1      -2.240  -5.992  -4.225  0.00  0.00     0.000 A 
ATOM      6  C6  BNZ d   1      -1.213  -5.998  -3.309  0.00  0.00     0.000 A 
ENDROOT
TORSDOF 0
ENDMDL
