MODEL 1
REMARK minimizedAffinity -1.75251377
REMARK minimizedRMSD -1
REMARK  0 active torsions:
REMARK  status: ('A' for Active; 'I' for Inactive)
ROOT
ATOM      1  C1  BNZ d   1       0.757  -5.946  -5.031  0.00  0.00     0.000 A 
ATOM      2  C2  BNZ d   1       0.394  -5.974  -3.710  0.00  0.00     0.000 A 
ATOM      3  C3  BNZ d   1      -0.924  -6.000  -3.347  0.00  0.00     0.000 A 
ATOM      4  C4  BNZ d   1      -1.876  -5.958  -4.302  0.00  0.00     0.000 A 
ATOM      5  C5  BNZ d   1      -1.526  -5.920  -5.637  0.00  0.00     0.000 A 
ATOM      6  C6  BNZ d   1      -0.199  -5.933  -6.000  0.00  0.00     0.000 A 
ENDROOT
TORSDOF 0
ENDMDL
