MODEL 1
REMARK minimizedAffinity 2.02007079
REMARK minimizedRMSD -1
REMARK  0 active torsions:
REMARK  status: ('A' for Active; 'I' for Inactive)
ROOT
ATOM      1  C1  BNZ d   1       1.222  -5.909  -3.642  0.00  0.00     0.000 A 
ATOM      2  C2  BNZ d   1      -0.144  -5.999  -3.639  0.00  0.00     0.000 A 
ATOM      3  C3  BNZ d   1      -0.849  -6.000  -4.810  0.00  0.00     0.000 A 
ATOM      4  C4  BNZ d   1      -0.190  -5.870  -5.980  0.00  0.00     0.000 A 
ATOM      5  C5  BNZ d   1       1.186  -5.769  -6.000  0.00  0.00     0.000 A 
ATOM      6  C6  BNZ d   1       1.895  -5.808  -4.821  0.00  0.00     0.000 A 
ENDROOT
TORSDOF 0
ENDMDL
