MODEL 1
REMARK minimizedAffinity -3.14763355
REMARK minimizedRMSD -1
REMARK  0 active torsions:
REMARK  status: ('A' for Active; 'I' for Inactive)
ROOT
ATOM      1  C1  BNZ d   1       1.391  -5.320  -5.543  0.00  0.00     0.000 A 
ATOM      2  C2  BNZ d   1       0.133  -5.668  -5.957  0.00  0.00     0.000 A 
ATOM      3  C3  BNZ d   1      -0.838  -5.989  -5.051  0.00  0.00     0.000 A 
ATOM      4  C4  BNZ d   1      -0.540  -6.000  -3.735  0.00  0.00     0.000 A 
ATOM      5  C5  BNZ d   1       0.726  -5.660  -3.303  0.00  0.00     0.000 A 
ATOM      6  C6  BNZ d   1       1.691  -5.300  -4.216  0.00  0.00     0.000 A 
ENDROOT
TORSDOF 0
ENDMDL
