MODEL 1
REMARK minimizedAffinity 1.47368205
REMARK minimizedRMSD -1
REMARK  0 active torsions:
REMARK  status: ('A' for Active; 'I' for Inactive)
ROOT
ATOM      1  C1  BNZ d   1      -0.545  -5.813  -5.905  0.00  0.00     0.000 A 
ATOM      2  C2  BNZ d   1       0.822  -5.818  -5.995  0.00  0.00     0.000 A 
ATOM      3  C3  BNZ d   1       1.596  -5.931  -4.874  0.00  0.00     0.000 A 
ATOM      4  C4  BNZ d   1       1.005  -5.999  -3.664  0.00  0.00     0.000 A 
ATOM      5  C5  BNZ d   1      -0.371  -5.986  -3.556  0.00  0.00     0.000 A 
ATOM      6  C6  BNZ d   1      -1.148  -5.911  -4.690  0.00  0.00     0.000 A 
ENDROOT
TORSDOF 0
ENDMDL
