MODEL 1
REMARK minimizedAffinity -1.60870326
REMARK minimizedRMSD -1
REMARK  0 active torsions:
REMARK  status: ('A' for Active; 'I' for Inactive)
ROOT
ATOM      1  C1  BNZ d   1      -0.172  -5.998  -3.232  0.00  0.00     0.000 A 
ATOM      2  C2  BNZ d   1       1.147  -5.984  -3.597  0.00  0.00     0.000 A 
ATOM      3  C3  BNZ d   1       1.509  -5.953  -4.915  0.00  0.00     0.000 A 
ATOM      4  C4  BNZ d   1       0.552  -5.977  -5.866  0.00  0.00     0.000 A 
ATOM      5  C5  BNZ d   1      -0.783  -6.000  -5.514  0.00  0.00     0.000 A 
ATOM      6  C6  BNZ d   1      -1.143  -5.991  -4.186  0.00  0.00     0.000 A 
ENDROOT
TORSDOF 0
ENDMDL
