MODEL 1
REMARK minimizedAffinity 1.14858806
REMARK minimizedRMSD -1
REMARK  0 active torsions:
REMARK  status: ('A' for Active; 'I' for Inactive)
ROOT
ATOM      1  C1  BNZ d   1      -0.951  -5.995  -3.653  0.00  0.00     0.000 A 
ATOM      2  C2  BNZ d   1       0.411  -5.997  -3.507  0.00  0.00     0.000 A 
ATOM      3  C3  BNZ d   1       1.232  -5.972  -4.599  0.00  0.00     0.000 A 
ATOM      4  C4  BNZ d   1       0.693  -5.986  -5.835  0.00  0.00     0.000 A 
ATOM      5  C5  BNZ d   1      -0.678  -5.993  -5.999  0.00  0.00     0.000 A 
ATOM      6  C6  BNZ d   1      -1.502  -5.979  -4.897  0.00  0.00     0.000 A 
ENDROOT
TORSDOF 0
ENDMDL
