MODEL 1
REMARK minimizedAffinity -0.765848398
REMARK minimizedRMSD -1
REMARK  0 active torsions:
REMARK  status: ('A' for Active; 'I' for Inactive)
ROOT
ATOM      1  C1  BNZ d   1      -0.855  -6.000  -3.620  0.00  0.00     0.000 A 
ATOM      2  C2  BNZ d   1      -1.535  -5.991  -4.809  0.00  0.00     0.000 A 
ATOM      3  C3  BNZ d   1      -0.863  -5.989  -6.000  0.00  0.00     0.000 A 
ATOM      4  C4  BNZ d   1       0.485  -5.955  -6.000  0.00  0.00     0.000 A 
ATOM      5  C5  BNZ d   1       1.184  -5.954  -4.810  0.00  0.00     0.000 A 
ATOM      6  C6  BNZ d   1       0.505  -5.995  -3.614  0.00  0.00     0.000 A 
ENDROOT
TORSDOF 0
ENDMDL
