MODEL 1
REMARK minimizedAffinity 3.37827539
REMARK minimizedRMSD -1
REMARK  1 active torsions:
REMARK  status: ('A' for Active; 'I' for Inactive)
REMARK    1  A    between atoms: C1_2  and  C2_3 
ROOT
ATOM      1  C2  UNL d   1      -1.111   0.401   1.240  0.00  0.00    -0.076 A 
ATOM      2  C3  UNL d   1       0.252   0.372   1.582  0.00  0.00     0.004 A 
ATOM      3  C4  UNL d   1       1.227   0.105   0.623  0.00  0.00    -0.003 A 
ATOM      4  C5  UNL d   1       0.854  -0.137  -0.695  0.00  0.00     0.000 A 
ATOM      5  C6  UNL d   1      -0.492  -0.095  -1.056  0.00  0.00     0.000 A 
ATOM      6  C7  UNL d   1      -1.486   0.189  -0.104  0.00  0.00    -0.073 A 
ATOM      7  C8  UNL d   1      -2.924   0.216  -0.547  0.00  0.00     0.078 C 
ENDROOT
BRANCH   1   8
ATOM      8  C1  UNL d   1      -2.126   0.669   2.329  0.00  0.00     0.053 C 
ATOM      9  C   UNL d   1      -2.836  -0.595   2.788  0.00  0.00     0.018 C 
ENDBRANCH   1   8
TORSDOF 1
ENDMDL
