MODEL 1
REMARK minimizedAffinity 7.64564037
REMARK minimizedRMSD -1
REMARK  1 active torsions:
REMARK  status: ('A' for Active; 'I' for Inactive)
REMARK    1  A    between atoms: C1_2  and  C2_3 
ROOT
ATOM      1  C2  UNL d   1      -1.081   0.068   1.079  0.00  0.00    -0.076 A 
ATOM      2  C3  UNL d   1       0.305   0.073   1.311  0.00  0.00     0.004 A 
ATOM      3  C4  UNL d   1       1.198  -0.355   0.330  0.00  0.00    -0.003 A 
ATOM      4  C5  UNL d   1       0.719  -0.794  -0.899  0.00  0.00     0.000 A 
ATOM      5  C6  UNL d   1      -0.652  -0.789  -1.153  0.00  0.00     0.000 A 
ATOM      6  C7  UNL d   1      -1.565  -0.346  -0.181  0.00  0.00    -0.073 A 
ATOM      7  C8  UNL d   1      -3.033  -0.368  -0.506  0.00  0.00     0.078 C 
ENDROOT
BRANCH   1   8
ATOM      8  C1  UNL d   1      -2.003   0.517   2.190  0.00  0.00     0.053 C 
ATOM      9  C   UNL d   1      -2.036  -0.464   3.352  0.00  0.00     0.018 C 
ENDBRANCH   1   8
TORSDOF 1
ENDMDL
