MODEL 1
REMARK minimizedAffinity 5.01882029
REMARK minimizedRMSD -1
REMARK  1 active torsions:
REMARK  status: ('A' for Active; 'I' for Inactive)
REMARK    1  A    between atoms: C1_2  and  C2_3 
ROOT
ATOM      1  C2  UNL d   1       0.087  -0.023   1.299  0.00  0.00    -0.076 A 
ATOM      2  C3  UNL d   1      -0.744   0.594   0.348  0.00  0.00     0.004 A 
ATOM      3  C4  UNL d   1      -2.068   0.911   0.650  0.00  0.00    -0.003 A 
ATOM      4  C5  UNL d   1      -2.581   0.617   1.908  0.00  0.00     0.000 A 
ATOM      5  C6  UNL d   1      -1.765   0.021   2.870  0.00  0.00     0.000 A 
ATOM      6  C7  UNL d   1      -0.424  -0.290   2.587  0.00  0.00    -0.073 A 
ATOM      7  C8  UNL d   1       0.408  -0.938   3.659  0.00  0.00     0.078 C 
ENDROOT
BRANCH   1   8
ATOM      8  C1  UNL d   1       1.506  -0.367   0.906  0.00  0.00     0.053 C 
ATOM      9  C   UNL d   1       2.082   0.606  -0.111  0.00  0.00     0.018 C 
ENDBRANCH   1   8
TORSDOF 1
ENDMDL
