MODEL 1
REMARK minimizedAffinity 4.68416452
REMARK minimizedRMSD -1
REMARK  1 active torsions:
REMARK  status: ('A' for Active; 'I' for Inactive)
REMARK    1  A    between atoms: C1_2  and  C2_3 
ROOT
ATOM      1  C2  UNL d   1      -0.425   0.054   2.023  0.00  0.00    -0.076 A 
ATOM      2  C3  UNL d   1      -1.205   0.634   1.007  0.00  0.00     0.004 A 
ATOM      3  C4  UNL d   1      -2.597   0.636   1.084  0.00  0.00    -0.003 A 
ATOM      4  C5  UNL d   1      -3.231   0.060   2.180  0.00  0.00     0.000 A 
ATOM      5  C6  UNL d   1      -2.472  -0.504   3.205  0.00  0.00     0.000 A 
ATOM      6  C7  UNL d   1      -1.068  -0.500   3.150  0.00  0.00    -0.073 A 
ATOM      7  C8  UNL d   1      -0.299  -1.127   4.281  0.00  0.00     0.078 C 
ENDROOT
BRANCH   1   8
ATOM      8  C1  UNL d   1       1.080   0.057   1.871  0.00  0.00     0.053 C 
ATOM      9  C   UNL d   1       1.518   0.127   0.416  0.00  0.00     0.018 C 
ENDBRANCH   1   8
TORSDOF 1
ENDMDL
