MODEL 1
REMARK minimizedAffinity -1.16987801
REMARK minimizedRMSD -1
REMARK  1 active torsions:
REMARK  status: ('A' for Active; 'I' for Inactive)
REMARK    1  A    between atoms: C1_2  and  C2_3 
ROOT
ATOM      1  C2  UNL d   1      -1.344  -0.416   0.954  0.00  0.00    -0.076 A 
ATOM      2  C3  UNL d   1      -1.420  -0.690   2.331  0.00  0.00     0.004 A 
ATOM      3  C4  UNL d   1      -1.096   0.283   3.275  0.00  0.00    -0.003 A 
ATOM      4  C5  UNL d   1      -0.691   1.546   2.857  0.00  0.00     0.000 A 
ATOM      5  C6  UNL d   1      -0.627   1.841   1.496  0.00  0.00     0.000 A 
ATOM      6  C7  UNL d   1      -0.966   0.876   0.531  0.00  0.00    -0.073 A 
ATOM      7  C8  UNL d   1      -0.873   1.246  -0.924  0.00  0.00     0.078 C 
ENDROOT
BRANCH   1   8
ATOM      8  C1  UNL d   1      -1.681  -1.519  -0.023  0.00  0.00     0.053 C 
ATOM      9  C   UNL d   1      -3.180  -1.678  -0.229  0.00  0.00     0.018 C 
ENDBRANCH   1   8
TORSDOF 1
ENDMDL
