MODEL 1
REMARK minimizedAffinity -4.55437231
REMARK minimizedRMSD -1
REMARK  1 active torsions:
REMARK  status: ('A' for Active; 'I' for Inactive)
REMARK    1  A    between atoms: C1_2  and  C2_3 
ROOT
ATOM      1  C2  UNL d   1      -0.259   0.522   2.239  0.00  0.00    -0.076 A 
ATOM      2  C3  UNL d   1      -1.534  -0.067   2.301  0.00  0.00     0.004 A 
ATOM      3  C4  UNL d   1      -2.156  -0.554   1.153  0.00  0.00    -0.003 A 
ATOM      4  C5  UNL d   1      -1.514  -0.462  -0.076  0.00  0.00     0.000 A 
ATOM      5  C6  UNL d   1      -0.241   0.103  -0.154  0.00  0.00     0.000 A 
ATOM      6  C7  UNL d   1       0.407   0.585   0.996  0.00  0.00    -0.073 A 
ATOM      7  C8  UNL d   1       1.777   1.190   0.853  0.00  0.00     0.078 C 
ENDROOT
BRANCH   1   8
ATOM      8  C1  UNL d   1       0.355   1.057   3.512  0.00  0.00     0.053 C 
ATOM      9  C   UNL d   1      -0.116   2.467   3.838  0.00  0.00     0.018 C 
ENDBRANCH   1   8
TORSDOF 1
ENDMDL
