MODEL 1
REMARK minimizedAffinity 4.28023386
REMARK minimizedRMSD -1
REMARK  1 active torsions:
REMARK  status: ('A' for Active; 'I' for Inactive)
REMARK    1  A    between atoms: C1_2  and  C2_3 
ROOT
ATOM      1  C2  UNL d   1       0.402   0.088   1.608  0.00  0.00    -0.076 A 
ATOM      2  C3  UNL d   1      -0.562   0.678   0.772  0.00  0.00     0.004 A 
ATOM      3  C4  UNL d   1      -1.909   0.691   1.130  0.00  0.00    -0.003 A 
ATOM      4  C5  UNL d   1      -2.314   0.115   2.329  0.00  0.00     0.000 A 
ATOM      5  C6  UNL d   1      -1.368  -0.459   3.178  0.00  0.00     0.000 A 
ATOM      6  C7  UNL d   1      -0.004  -0.466   2.841  0.00  0.00    -0.073 A 
ATOM      7  C8  UNL d   1       0.972  -1.103   3.791  0.00  0.00     0.078 C 
ENDROOT
BRANCH   1   8
ATOM      8  C1  UNL d   1       1.845   0.080   1.155  0.00  0.00     0.053 C 
ATOM      9  C   UNL d   1       2.449   1.475   1.110  0.00  0.00     0.018 C 
ENDBRANCH   1   8
TORSDOF 1
ENDMDL
