MODEL 1
REMARK minimizedAffinity 5.58084965
REMARK minimizedRMSD -1
REMARK  1 active torsions:
REMARK  status: ('A' for Active; 'I' for Inactive)
REMARK    1  A    between atoms: N_2  and  C1_3 
ROOT
ATOM      1  C1  UNL d   1       0.369  -3.022   1.750  0.00  0.00     0.143 A 
ATOM      2  C2  UNL d   1       0.415  -2.984   3.148  0.00  0.00    -0.057 A 
ATOM      3  C3  UNL d   1       1.130  -1.988   3.824  0.00  0.00     0.033 A 
ATOM      4  C4  UNL d   1       1.838  -1.026   3.111  0.00  0.00    -0.042 A 
ATOM      5  C5  UNL d   1       1.827  -1.060   1.721  0.00  0.00     0.033 A 
ATOM      6  C6  UNL d   1       1.106  -2.053   1.052  0.00  0.00    -0.057 A 
ENDROOT
BRANCH   1   7
ATOM      7  N   UNL d   1      -0.242  -4.044   1.020  0.00  0.00    -0.732 N 
ATOM      8  C   UNL d   1       0.461  -4.699  -0.062  0.00  0.00     0.284 C 
ATOM      9  H3  UNL d   1      -0.778  -4.676   1.610  0.00  0.00     0.395 HD
ENDBRANCH   1   7
TORSDOF 1
ENDMDL
