MODEL 1
REMARK minimizedAffinity 1.0013603
REMARK minimizedRMSD -1
REMARK  1 active torsions:
REMARK  status: ('A' for Active; 'I' for Inactive)
REMARK    1  A    between atoms: N_2  and  C1_3 
ROOT
ATOM      1  C1  UNL d   1      -4.809  -5.400  -3.837  0.00  0.00     0.143 A 
ATOM      2  C2  UNL d   1      -4.058  -5.847  -2.745  0.00  0.00    -0.057 A 
ATOM      3  C3  UNL d   1      -4.049  -5.145  -1.534  0.00  0.00     0.033 A 
ATOM      4  C4  UNL d   1      -4.772  -3.963  -1.402  0.00  0.00    -0.042 A 
ATOM      5  C5  UNL d   1      -5.506  -3.487  -2.483  0.00  0.00     0.033 A 
ATOM      6  C6  UNL d   1      -5.516  -4.196  -3.688  0.00  0.00    -0.057 A 
ENDROOT
BRANCH   1   7
ATOM      7  N   UNL d   1      -4.781  -6.000  -5.099  0.00  0.00    -0.732 N 
ATOM      8  C   UNL d   1      -5.906  -5.875  -6.000  0.00  0.00     0.284 C 
ATOM      9  H3  UNL d   1      -3.874  -5.911  -5.551  0.00  0.00     0.395 HD
ENDBRANCH   1   7
TORSDOF 1
ENDMDL
