MODEL 1
REMARK minimizedAffinity 0.406154484
REMARK minimizedRMSD -1
REMARK  1 active torsions:
REMARK  status: ('A' for Active; 'I' for Inactive)
REMARK    1  A    between atoms: N_2  and  C1_3 
ROOT
ATOM      1  C1  UNL d   1       2.809  -1.466   3.445  0.00  0.00     0.143 A 
ATOM      2  C2  UNL d   1       2.433  -0.140   3.687  0.00  0.00    -0.057 A 
ATOM      3  C3  UNL d   1       2.720   0.875   2.767  0.00  0.00     0.033 A 
ATOM      4  C4  UNL d   1       3.417   0.587   1.598  0.00  0.00    -0.042 A 
ATOM      5  C5  UNL d   1       3.822  -0.720   1.348  0.00  0.00     0.033 A 
ATOM      6  C6  UNL d   1       3.526  -1.731   2.268  0.00  0.00    -0.057 A 
ENDROOT
BRANCH   1   7
ATOM      7  N   UNL d   1       2.639  -2.503   4.365  0.00  0.00    -0.732 N 
ATOM      8  C   UNL d   1       3.486  -2.596   5.535  0.00  0.00     0.284 C 
ATOM      9  H3  UNL d   1       1.659  -2.707   4.545  0.00  0.00     0.395 HD
ENDBRANCH   1   7
TORSDOF 1
ENDMDL
