MODEL 1
REMARK minimizedAffinity -1.5133791
REMARK minimizedRMSD -1
REMARK  1 active torsions:
REMARK  status: ('A' for Active; 'I' for Inactive)
REMARK    1  A    between atoms: N_2  and  C1_3 
ROOT
ATOM      1  C1  UNL d   1      -5.505  -4.527  -3.962  0.00  0.00     0.143 A 
ATOM      2  C2  UNL d   1      -5.784  -3.453  -3.111  0.00  0.00    -0.057 A 
ATOM      3  C3  UNL d   1      -5.396  -3.473  -1.765  0.00  0.00     0.033 A 
ATOM      4  C4  UNL d   1      -4.745  -4.584  -1.239  0.00  0.00    -0.042 A 
ATOM      5  C5  UNL d   1      -4.480  -5.674  -2.061  0.00  0.00     0.033 A 
ATOM      6  C6  UNL d   1      -4.864  -5.645  -3.405  0.00  0.00    -0.057 A 
ENDROOT
BRANCH   1   7
ATOM      7  N   UNL d   1      -5.951  -4.609  -5.284  0.00  0.00    -0.732 N 
ATOM      8  C   UNL d   1      -5.924  -5.869  -5.995  0.00  0.00     0.284 C 
ATOM      9  H3  UNL d   1      -6.792  -4.059  -5.444  0.00  0.00     0.395 HD
ENDBRANCH   1   7
TORSDOF 1
ENDMDL
