MODEL 1
REMARK minimizedAffinity -3.36957598
REMARK minimizedRMSD -1
REMARK  1 active torsions:
REMARK  status: ('A' for Active; 'I' for Inactive)
REMARK    1  A    between atoms: N_2  and  C1_3 
ROOT
ATOM      1  C1  UNL d   1      -5.642  -4.740  -3.201  0.00  0.00     0.143 A 
ATOM      2  C2  UNL d   1      -5.787  -3.583  -3.975  0.00  0.00    -0.057 A 
ATOM      3  C3  UNL d   1      -5.602  -3.611  -5.363  0.00  0.00     0.033 A 
ATOM      4  C4  UNL d   1      -5.240  -4.794  -5.999  0.00  0.00    -0.042 A 
ATOM      5  C5  UNL d   1      -5.066  -5.950  -5.246  0.00  0.00     0.033 A 
ATOM      6  C6  UNL d   1      -5.258  -5.917  -3.862  0.00  0.00    -0.057 A 
ENDROOT
BRANCH   1   7
ATOM      7  N   UNL d   1      -5.715  -4.756  -1.806  0.00  0.00    -0.732 N 
ATOM      8  C   UNL d   1      -5.600  -6.000  -1.076  0.00  0.00     0.284 C 
ATOM      9  H3  UNL d   1      -5.216  -3.977  -1.382  0.00  0.00     0.395 HD
ENDBRANCH   1   7
TORSDOF 1
ENDMDL
