MODEL 1
REMARK minimizedAffinity 8.59118748
REMARK minimizedRMSD -1
REMARK  1 active torsions:
REMARK  status: ('A' for Active; 'I' for Inactive)
REMARK    1  A    between atoms: N_2  and  C1_3 
ROOT
ATOM      1  C1  UNL d   1       3.111  -3.274   3.937  0.00  0.00     0.143 A 
ATOM      2  C2  UNL d   1       2.232  -4.317   3.627  0.00  0.00    -0.057 A 
ATOM      3  C3  UNL d   1       1.092  -4.097   2.844  0.00  0.00     0.033 A 
ATOM      4  C4  UNL d   1       0.795  -2.820   2.380  0.00  0.00    -0.042 A 
ATOM      5  C5  UNL d   1       1.641  -1.763   2.697  0.00  0.00     0.033 A 
ATOM      6  C6  UNL d   1       2.782  -1.990   3.473  0.00  0.00    -0.057 A 
ENDROOT
BRANCH   1   7
ATOM      7  N   UNL d   1       4.207  -3.409   4.792  0.00  0.00    -0.732 N 
ATOM      8  C   UNL d   1       5.557  -3.360   4.273  0.00  0.00     0.284 C 
ATOM      9  H3  UNL d   1       4.080  -2.908   5.669  0.00  0.00     0.395 HD
ENDBRANCH   1   7
TORSDOF 1
ENDMDL
