MODEL 1
REMARK minimizedAffinity -2.72718477
REMARK minimizedRMSD -1
REMARK  1 active torsions:
REMARK  status: ('A' for Active; 'I' for Inactive)
REMARK    1  A    between atoms: N_2  and  C1_3 
ROOT
ATOM      1  C1  UNL d   1      -4.887  -5.219  -3.368  0.00  0.00     0.143 A 
ATOM      2  C2  UNL d   1      -4.525  -6.000  -4.471  0.00  0.00    -0.057 A 
ATOM      3  C3  UNL d   1      -4.868  -5.619  -5.774  0.00  0.00     0.033 A 
ATOM      4  C4  UNL d   1      -5.607  -4.461  -5.995  0.00  0.00    -0.042 A 
ATOM      5  C5  UNL d   1      -5.999  -3.683  -4.911  0.00  0.00     0.033 A 
ATOM      6  C6  UNL d   1      -5.647  -4.065  -3.613  0.00  0.00    -0.057 A 
ENDROOT
BRANCH   1   7
ATOM      7  N   UNL d   1      -4.661  -5.595  -2.042  0.00  0.00    -0.732 N 
ATOM      8  C   UNL d   1      -5.761  -6.000  -1.192  0.00  0.00     0.284 C 
ATOM      9  H3  UNL d   1      -3.824  -6.163  -1.936  0.00  0.00     0.395 HD
ENDBRANCH   1   7
TORSDOF 1
ENDMDL
