MODEL 1
REMARK minimizedAffinity -3.05441236
REMARK minimizedRMSD -1
REMARK  1 active torsions:
REMARK  status: ('A' for Active; 'I' for Inactive)
REMARK    1  A    between atoms: N_2  and  C1_3 
ROOT
ATOM      1  C1  UNL d   1      -5.780  -3.932  -4.117  0.00  0.00     0.143 A 
ATOM      2  C2  UNL d   1      -5.332  -5.257  -4.153  0.00  0.00    -0.057 A 
ATOM      3  C3  UNL d   1      -5.151  -5.995  -2.976  0.00  0.00     0.033 A 
ATOM      4  C4  UNL d   1      -5.389  -5.409  -1.737  0.00  0.00    -0.042 A 
ATOM      5  C5  UNL d   1      -5.811  -4.085  -1.677  0.00  0.00     0.033 A 
ATOM      6  C6  UNL d   1      -5.995  -3.356  -2.855  0.00  0.00    -0.057 A 
ENDROOT
BRANCH   1   7
ATOM      7  N   UNL d   1      -5.884  -3.116  -5.246  0.00  0.00    -0.732 N 
ATOM      8  C   UNL d   1      -4.705  -2.747  -6.000  0.00  0.00     0.284 C 
ATOM      9  H3  UNL d   1      -6.690  -3.350  -5.822  0.00  0.00     0.395 HD
ENDBRANCH   1   7
TORSDOF 1
ENDMDL
