MODEL 1
REMARK minimizedAffinity -3.03036308
REMARK minimizedRMSD -1
REMARK  1 active torsions:
REMARK  status: ('A' for Active; 'I' for Inactive)
REMARK    1  A    between atoms: N_2  and  C1_3 
ROOT
ATOM      1  C1  UNL d   1      -5.513  -4.838  -3.256  0.00  0.00     0.143 A 
ATOM      2  C2  UNL d   1      -5.846  -3.891  -4.231  0.00  0.00    -0.057 A 
ATOM      3  C3  UNL d   1      -5.378  -4.007  -5.546  0.00  0.00     0.033 A 
ATOM      4  C4  UNL d   1      -4.543  -5.060  -5.903  0.00  0.00    -0.042 A 
ATOM      5  C5  UNL d   1      -4.179  -5.999  -4.945  0.00  0.00     0.033 A 
ATOM      6  C6  UNL d   1      -4.655  -5.882  -3.635  0.00  0.00    -0.057 A 
ENDROOT
BRANCH   1   7
ATOM      7  N   UNL d   1      -5.865  -4.724  -1.909  0.00  0.00    -0.732 N 
ATOM      8  C   UNL d   1      -6.000  -3.424  -1.289  0.00  0.00     0.284 C 
ATOM      9  H3  UNL d   1      -6.586  -5.390  -1.639  0.00  0.00     0.395 HD
ENDBRANCH   1   7
TORSDOF 1
ENDMDL
