MODEL 1
REMARK minimizedAffinity -4.15734148
REMARK minimizedRMSD -1
REMARK  2 active torsions:
REMARK  status: ('A' for Active; 'I' for Inactive)
REMARK    1  A    between atoms: C2'_3  and  C1'_4 
REMARK    2  A    between atoms: C1'_4  and  C1_5 
ROOT
ATOM      1  C1  I4B d   1      -0.515   1.194   0.796  0.00  0.00    -0.075 A 
ATOM      2  C2  I4B d   1      -0.663   1.584  -0.512  0.00  0.00     0.003 A 
ATOM      3  C3  I4B d   1      -1.232   2.844  -0.820  0.00  0.00     0.002 A 
ATOM      4  C4  I4B d   1      -1.681   3.655   0.202  0.00  0.00    -0.004 A 
ATOM      5  C5  I4B d   1      -1.509   3.268   1.528  0.00  0.00     0.002 A 
ATOM      6  C6  I4B d   1      -0.911   2.035   1.828  0.00  0.00     0.003 A 
ENDROOT
BRANCH   1   7
ATOM      7  C1' I4B d   1       0.059  -0.157   1.085  0.00  0.00     0.060 C 
BRANCH   7   8
ATOM      8  C2' I4B d   1       1.569  -0.046   1.020  0.00  0.00    -0.013 C 
ATOM      9  C4' I4B d   1       2.210  -0.591   2.269  0.00  0.00     0.013 C 
ATOM     10  C3' I4B d   1       2.036  -0.788  -0.197  0.00  0.00     0.013 C 
ENDBRANCH   7   8
ENDBRANCH   1   7
TORSDOF 2
ENDMDL
