MODEL 1
REMARK minimizedAffinity -2.28771615
REMARK minimizedRMSD -1
REMARK  2 active torsions:
REMARK  status: ('A' for Active; 'I' for Inactive)
REMARK    1  A    between atoms: C2'_3  and  C1'_4 
REMARK    2  A    between atoms: C1'_4  and  C1_5 
ROOT
ATOM      1  C1  I4B d   1       0.252  -0.149  -0.366  0.00  0.00    -0.075 A 
ATOM      2  C2  I4B d   1      -0.649   0.866  -0.570  0.00  0.00     0.003 A 
ATOM      3  C3  I4B d   1      -0.910   1.804   0.458  0.00  0.00     0.002 A 
ATOM      4  C4  I4B d   1      -0.290   1.661   1.682  0.00  0.00    -0.004 A 
ATOM      5  C5  I4B d   1       0.640   0.644   1.879  0.00  0.00     0.002 A 
ATOM      6  C6  I4B d   1       0.923  -0.259   0.845  0.00  0.00     0.003 A 
ENDROOT
BRANCH   1   7
ATOM      7  C1' I4B d   1       0.479  -1.142  -1.462  0.00  0.00     0.060 C 
BRANCH   7   8
ATOM      8  C2' I4B d   1      -0.283  -2.404  -1.114  0.00  0.00    -0.013 C 
ATOM      9  C4' I4B d   1      -1.345  -2.700  -2.140  0.00  0.00     0.013 C 
ATOM     10  C3' I4B d   1       0.704  -3.529  -1.016  0.00  0.00     0.013 C 
ENDBRANCH   7   8
ENDBRANCH   1   7
TORSDOF 2
ENDMDL
