MODEL 1
REMARK minimizedAffinity -5.13322067
REMARK minimizedRMSD -1
REMARK  2 active torsions:
REMARK  status: ('A' for Active; 'I' for Inactive)
REMARK    1  A    between atoms: C2'_3  and  C1'_4 
REMARK    2  A    between atoms: C1'_4  and  C1_5 
ROOT
ATOM      1  C1  I4B d   1      -0.457   1.010   0.337  0.00  0.00    -0.075 A 
ATOM      2  C2  I4B d   1      -0.972   1.441   1.534  0.00  0.00     0.003 A 
ATOM      3  C3  I4B d   1      -1.553   2.728   1.638  0.00  0.00     0.002 A 
ATOM      4  C4  I4B d   1      -1.552   3.565   0.540  0.00  0.00    -0.004 A 
ATOM      5  C5  I4B d   1      -1.051   3.117  -0.678  0.00  0.00     0.002 A 
ATOM      6  C6  I4B d   1      -0.511   1.827  -0.784  0.00  0.00     0.003 A 
ENDROOT
BRANCH   1   7
ATOM      7  C1' I4B d   1       0.178  -0.343   0.272  0.00  0.00     0.060 C 
BRANCH   7   8
ATOM      8  C2' I4B d   1       0.129  -0.813  -1.168  0.00  0.00    -0.013 C 
ATOM      9  C4' I4B d   1       1.488  -0.737  -1.813  0.00  0.00     0.013 C 
ATOM     10  C3' I4B d   1      -0.398  -2.216  -1.179  0.00  0.00     0.013 C 
ENDBRANCH   7   8
ENDBRANCH   1   7
TORSDOF 2
ENDMDL
