MODEL 1
REMARK minimizedAffinity -5.1522522
REMARK minimizedRMSD -1
REMARK  2 active torsions:
REMARK  status: ('A' for Active; 'I' for Inactive)
REMARK    1  A    between atoms: C2'_3  and  C1'_4 
REMARK    2  A    between atoms: C1'_4  and  C1_5 
ROOT
ATOM      1  C1  I4B d   1      -0.130   0.586   0.803  0.00  0.00    -0.075 A 
ATOM      2  C2  I4B d   1       0.333   1.262   1.905  0.00  0.00     0.003 A 
ATOM      3  C3  I4B d   1      -0.186   2.539   2.229  0.00  0.00     0.002 A 
ATOM      4  C4  I4B d   1      -1.125   3.121   1.401  0.00  0.00    -0.004 A 
ATOM      5  C5  I4B d   1      -1.610   2.424   0.297  0.00  0.00     0.002 A 
ATOM      6  C6  I4B d   1      -1.119   1.144   0.003  0.00  0.00     0.003 A 
ENDROOT
BRANCH   1   7
ATOM      7  C1' I4B d   1       0.464  -0.746   0.473  0.00  0.00     0.060 C 
BRANCH   7   8
ATOM      8  C2' I4B d   1       0.136  -1.057  -0.973  0.00  0.00    -0.013 C 
ATOM      9  C4' I4B d   1       1.016  -0.276  -1.913  0.00  0.00     0.013 C 
ATOM     10  C3' I4B d   1       0.301  -2.534  -1.178  0.00  0.00     0.013 C 
ENDBRANCH   7   8
ENDBRANCH   1   7
TORSDOF 2
ENDMDL
