MODEL 1
REMARK minimizedAffinity -4.98986244
REMARK minimizedRMSD -1
REMARK  2 active torsions:
REMARK  status: ('A' for Active; 'I' for Inactive)
REMARK    1  A    between atoms: C2'_3  and  C1'_4 
REMARK    2  A    between atoms: C1'_4  and  C1_5 
ROOT
ATOM      1  C1  I4B d   1      -0.806   1.050   0.294  0.00  0.00    -0.075 A 
ATOM      2  C2  I4B d   1      -0.859   1.661   1.522  0.00  0.00     0.003 A 
ATOM      3  C3  I4B d   1      -0.796   3.072   1.619  0.00  0.00     0.002 A 
ATOM      4  C4  I4B d   1      -0.630   3.826   0.475  0.00  0.00    -0.004 A 
ATOM      5  C5  I4B d   1      -0.600   3.206  -0.771  0.00  0.00     0.002 A 
ATOM      6  C6  I4B d   1      -0.701   1.810  -0.863  0.00  0.00     0.003 A 
ENDROOT
BRANCH   1   7
ATOM      7  C1' I4B d   1      -0.843  -0.444   0.230  0.00  0.00     0.060 C 
BRANCH   7   8
ATOM      8  C2' I4B d   1       0.106  -0.888  -0.864  0.00  0.00    -0.013 C 
ATOM      9  C4' I4B d   1       1.492  -0.343  -0.638  0.00  0.00     0.013 C 
ATOM     10  C3' I4B d   1       0.112  -2.387  -0.893  0.00  0.00     0.013 C 
ENDBRANCH   7   8
ENDBRANCH   1   7
TORSDOF 2
ENDMDL
