MODEL 1
REMARK minimizedAffinity -3.31426692
REMARK minimizedRMSD -1
REMARK  2 active torsions:
REMARK  status: ('A' for Active; 'I' for Inactive)
REMARK    1  A    between atoms: C2'_3  and  C1'_4 
REMARK    2  A    between atoms: C1'_4  and  C1_5 
ROOT
ATOM      1  C1  I4B d   1      -0.160   0.294  -0.048  0.00  0.00    -0.075 A 
ATOM      2  C2  I4B d   1      -0.528   0.576   1.244  0.00  0.00     0.003 A 
ATOM      3  C3  I4B d   1      -1.011   1.863   1.583  0.00  0.00     0.002 A 
ATOM      4  C4  I4B d   1      -1.063   2.846   0.615  0.00  0.00    -0.004 A 
ATOM      5  C5  I4B d   1      -0.711   2.552  -0.699  0.00  0.00     0.002 A 
ATOM      6  C6  I4B d   1      -0.268   1.264  -1.036  0.00  0.00     0.003 A 
ENDROOT
BRANCH   1   7
ATOM      7  C1' I4B d   1       0.378  -1.066  -0.363  0.00  0.00     0.060 C 
BRANCH   7   8
ATOM      8  C2' I4B d   1      -0.778  -2.044  -0.331  0.00  0.00    -0.013 C 
ATOM      9  C4' I4B d   1      -1.505  -2.072  -1.650  0.00  0.00     0.013 C 
ATOM     10  C3' I4B d   1      -0.231  -3.397   0.014  0.00  0.00     0.013 C 
ENDBRANCH   7   8
ENDBRANCH   1   7
TORSDOF 2
ENDMDL
