MODEL 1
REMARK minimizedAffinity 9.93948936
REMARK minimizedRMSD -1
REMARK  0 active torsions:
REMARK  status: ('A' for Active; 'I' for Inactive)
ROOT
ATOM      1  C   UNL d   1       6.000  -1.077   0.340  0.00  0.00     0.023 A 
ATOM      2  C1  UNL d   1       6.000  -0.264  -0.793  0.00  0.00     0.003 A 
ATOM      3  C2  UNL d   1       5.869   1.120  -0.660  0.00  0.00     0.048 A 
ATOM      4  C3  UNL d   1       5.740   1.684   0.608  0.00  0.00     0.023 A 
ATOM      5  C4  UNL d   1       5.741   0.874   1.745  0.00  0.00     0.048 A 
ATOM      6  C5  UNL d   1       5.871  -0.509   1.607  0.00  0.00     0.003 A 
ATOM      7  I   UNL d   1       5.546   3.744   0.809  0.00  0.00    -0.146 I 
ENDROOT
TORSDOF 0
ENDMDL
