MODEL 1
REMARK minimizedAffinity 7.97835779
REMARK minimizedRMSD -1
REMARK  0 active torsions:
REMARK  status: ('A' for Active; 'I' for Inactive)
ROOT
ATOM      1  C   UNL d   1      -5.625  -5.229  -1.998  0.00  0.00     0.023 A 
ATOM      2  C1  UNL d   1      -4.481  -6.000  -2.204  0.00  0.00     0.003 A 
ATOM      3  C2  UNL d   1      -3.708  -5.813  -3.352  0.00  0.00     0.048 A 
ATOM      4  C3  UNL d   1      -4.085  -4.853  -4.290  0.00  0.00     0.023 A 
ATOM      5  C4  UNL d   1      -5.229  -4.078  -4.088  0.00  0.00     0.048 A 
ATOM      6  C5  UNL d   1      -5.999  -4.269  -2.939  0.00  0.00     0.003 A 
ATOM      7  I   UNL d   1      -2.937  -4.573  -6.000  0.00  0.00    -0.146 I 
ENDROOT
TORSDOF 0
ENDMDL
