MODEL 1
REMARK minimizedAffinity 0.408447146
REMARK minimizedRMSD -1
REMARK  0 active torsions:
REMARK  status: ('A' for Active; 'I' for Inactive)
ROOT
ATOM      1  C   UNL d   1      -5.696  -5.247  -2.227  0.00  0.00     0.023 A 
ATOM      2  C1  UNL d   1      -6.000  -4.520  -3.378  0.00  0.00     0.003 A 
ATOM      3  C2  UNL d   1      -5.119  -4.525  -4.461  0.00  0.00     0.048 A 
ATOM      4  C3  UNL d   1      -3.936  -5.260  -4.388  0.00  0.00     0.023 A 
ATOM      5  C4  UNL d   1      -3.628  -5.990  -3.239  0.00  0.00     0.048 A 
ATOM      6  C5  UNL d   1      -4.511  -5.981  -2.157  0.00  0.00     0.003 A 
ATOM      7  I   UNL d   1      -2.624  -5.268  -5.999  0.00  0.00    -0.146 I 
ENDROOT
TORSDOF 0
ENDMDL
