MODEL 1
REMARK minimizedAffinity 3.66261554
REMARK minimizedRMSD -1
REMARK  0 active torsions:
REMARK  status: ('A' for Active; 'I' for Inactive)
ROOT
ATOM      1  C   UNL d   1       6.000   0.787   0.581  0.00  0.00     0.023 A 
ATOM      2  C1  UNL d   1       5.643  -0.418   1.188  0.00  0.00     0.003 A 
ATOM      3  C2  UNL d   1       4.299  -0.783   1.282  0.00  0.00     0.048 A 
ATOM      4  C3  UNL d   1       3.316   0.060   0.765  0.00  0.00     0.023 A 
ATOM      5  C4  UNL d   1       3.668   1.266   0.156  0.00  0.00     0.048 A 
ATOM      6  C5  UNL d   1       5.013   1.627   0.066  0.00  0.00     0.003 A 
ATOM      7  I   UNL d   1       1.314  -0.482   0.903  0.00  0.00    -0.146 I 
ENDROOT
TORSDOF 0
ENDMDL
