MODEL 1
REMARK minimizedAffinity 12.0509777
REMARK minimizedRMSD -1
REMARK  0 active torsions:
REMARK  status: ('A' for Active; 'I' for Inactive)
ROOT
ATOM      1  C   UNL d   1      -5.998  -5.460  -2.658  0.00  0.00     0.023 A 
ATOM      2  C1  UNL d   1      -5.881  -4.163  -3.156  0.00  0.00     0.003 A 
ATOM      3  C2  UNL d   1      -4.747  -3.401  -2.864  0.00  0.00     0.048 A 
ATOM      4  C3  UNL d   1      -3.734  -3.944  -2.074  0.00  0.00     0.023 A 
ATOM      5  C4  UNL d   1      -3.847  -5.243  -1.575  0.00  0.00     0.048 A 
ATOM      6  C5  UNL d   1      -4.983  -6.000  -1.869  0.00  0.00     0.003 A 
ATOM      7  I   UNL d   1      -2.046  -2.813  -1.639  0.00  0.00    -0.146 I 
ENDROOT
TORSDOF 0
ENDMDL
