MODEL 1
REMARK minimizedAffinity 2.59050822
REMARK minimizedRMSD -1
REMARK  0 active torsions:
REMARK  status: ('A' for Active; 'I' for Inactive)
ROOT
ATOM      1  C   UNL d   1      -5.518  -5.293  -2.469  0.00  0.00     0.023 A 
ATOM      2  C1  UNL d   1      -5.780  -4.385  -3.495  0.00  0.00     0.003 A 
ATOM      3  C2  UNL d   1      -4.838  -4.180  -4.506  0.00  0.00     0.048 A 
ATOM      4  C3  UNL d   1      -3.637  -4.888  -4.485  0.00  0.00     0.023 A 
ATOM      5  C4  UNL d   1      -3.371  -5.798  -3.461  0.00  0.00     0.048 A 
ATOM      6  C5  UNL d   1      -4.315  -5.999  -2.452  0.00  0.00     0.003 A 
ATOM      7  I   UNL d   1      -2.234  -4.585  -5.988  0.00  0.00    -0.146 I 
ENDROOT
TORSDOF 0
ENDMDL
