MODEL 1
REMARK minimizedAffinity 7.70531654
REMARK minimizedRMSD -1
REMARK  0 active torsions:
REMARK  status: ('A' for Active; 'I' for Inactive)
ROOT
ATOM      1  C   UNL d   1       1.687   0.092   3.024  0.00  0.00     0.023 A 
ATOM      2  C1  UNL d   1       2.666  -0.773   3.513  0.00  0.00     0.003 A 
ATOM      3  C2  UNL d   1       3.904  -0.861   2.874  0.00  0.00     0.048 A 
ATOM      4  C3  UNL d   1       4.157  -0.080   1.747  0.00  0.00     0.023 A 
ATOM      5  C4  UNL d   1       3.181   0.788   1.254  0.00  0.00     0.048 A 
ATOM      6  C5  UNL d   1       1.944   0.872   1.896  0.00  0.00     0.003 A 
ATOM      7  I   UNL d   1       6.000  -0.209   0.794  0.00  0.00    -0.146 I 
ENDROOT
TORSDOF 0
ENDMDL
