MODEL 1
REMARK minimizedAffinity -0.345499158
REMARK minimizedRMSD -1
REMARK  0 active torsions:
REMARK  status: ('A' for Active; 'I' for Inactive)
ROOT
ATOM      1  C   UNL d   1      -5.132  -5.979  -1.917  0.00  0.00     0.023 A 
ATOM      2  C1  UNL d   1      -3.739  -6.000  -1.979  0.00  0.00     0.003 A 
ATOM      3  C2  UNL d   1      -3.085  -5.610  -3.150  0.00  0.00     0.048 A 
ATOM      4  C3  UNL d   1      -3.830  -5.200  -4.255  0.00  0.00     0.023 A 
ATOM      5  C4  UNL d   1      -5.225  -5.177  -4.197  0.00  0.00     0.048 A 
ATOM      6  C5  UNL d   1      -5.874  -5.568  -3.024  0.00  0.00     0.003 A 
ATOM      7  I   UNL d   1      -2.860  -4.620  -5.998  0.00  0.00    -0.146 I 
ENDROOT
TORSDOF 0
ENDMDL
