MODEL 1
REMARK minimizedAffinity -1.25870407
REMARK minimizedRMSD -1
REMARK  0 active torsions:
REMARK  status: ('A' for Active; 'I' for Inactive)
ROOT
ATOM      1  C   UNL d   1      -2.052  -3.941  -2.322  0.00  0.00     0.023 A 
ATOM      2  C1  UNL d   1      -1.211  -4.509  -1.364  0.00  0.00     0.003 A 
ATOM      3  C2  UNL d   1      -0.778  -3.750  -0.275  0.00  0.00     0.048 A 
ATOM      4  C3  UNL d   1      -1.190  -2.423  -0.150  0.00  0.00     0.023 A 
ATOM      5  C4  UNL d   1      -2.032  -1.851  -1.105  0.00  0.00     0.048 A 
ATOM      6  C5  UNL d   1      -2.461  -2.614  -2.192  0.00  0.00     0.003 A 
ATOM      7  I   UNL d   1      -0.547  -1.291   1.470  0.00  0.00    -0.146 I 
ENDROOT
TORSDOF 0
ENDMDL
