MODEL 1
REMARK minimizedAffinity 7.59180975
REMARK minimizedRMSD -1
REMARK  0 active torsions:
REMARK  status: ('A' for Active; 'I' for Inactive)
ROOT
ATOM      1  C   UNL d   1      -4.946   4.900   5.224  0.00  0.00     0.023 A 
ATOM      2  C1  UNL d   1      -4.504   3.878   4.383  0.00  0.00     0.003 A 
ATOM      3  C2  UNL d   1      -4.806   3.913   3.020  0.00  0.00     0.048 A 
ATOM      4  C3  UNL d   1      -5.549   4.974   2.504  0.00  0.00     0.023 A 
ATOM      5  C4  UNL d   1      -5.992   6.000   3.341  0.00  0.00     0.048 A 
ATOM      6  C5  UNL d   1      -5.689   5.959   4.703  0.00  0.00     0.003 A 
ATOM      7  I   UNL d   1      -5.999   5.029   0.476  0.00  0.00    -0.146 I 
ENDROOT
TORSDOF 0
ENDMDL
