MODEL 1
REMARK minimizedAffinity 14.238657
REMARK minimizedRMSD -1
REMARK  0 active torsions:
REMARK  status: ('A' for Active; 'I' for Inactive)
ROOT
ATOM      1  C   UNL d   1       5.164   0.148   0.836  0.00  0.00     0.023 A 
ATOM      2  C1  UNL d   1       4.395  -0.678   1.655  0.00  0.00     0.003 A 
ATOM      3  C2  UNL d   1       3.095  -0.304   2.001  0.00  0.00     0.048 A 
ATOM      4  C3  UNL d   1       2.570   0.896   1.523  0.00  0.00     0.023 A 
ATOM      5  C4  UNL d   1       3.336   1.724   0.701  0.00  0.00     0.048 A 
ATOM      6  C5  UNL d   1       4.636   1.347   0.359  0.00  0.00     0.003 A 
ATOM      7  I   UNL d   1       0.635   1.454   2.036  0.00  0.00    -0.146 I 
ENDROOT
TORSDOF 0
ENDMDL
