MODEL 1
REMARK minimizedAffinity 5.7954483
REMARK minimizedRMSD -1
REMARK  0 active torsions:
REMARK  status: ('A' for Active; 'I' for Inactive)
ROOT
ATOM      1  C   UNL d   1      -5.976  -5.810  -2.507  0.00  0.00     0.023 A 
ATOM      2  C1  UNL d   1      -5.832  -5.340  -3.813  0.00  0.00     0.003 A 
ATOM      3  C2  UNL d   1      -4.751  -4.523  -4.147  0.00  0.00     0.048 A 
ATOM      4  C3  UNL d   1      -3.816  -4.179  -3.171  0.00  0.00     0.023 A 
ATOM      5  C4  UNL d   1      -3.956  -4.647  -1.864  0.00  0.00     0.048 A 
ATOM      6  C5  UNL d   1      -5.039  -5.463  -1.534  0.00  0.00     0.003 A 
ATOM      7  I   UNL d   1      -2.206  -2.962  -3.666  0.00  0.00    -0.146 I 
ENDROOT
TORSDOF 0
ENDMDL
