MODEL 1
REMARK minimizedAffinity 6.63818359
REMARK minimizedRMSD -1
REMARK  0 active torsions:
REMARK  status: ('A' for Active; 'I' for Inactive)
ROOT
ATOM      1  C   UNL d   1       2.704  -2.555  -5.986  0.00  0.00     0.023 A 
ATOM      2  C1  UNL d   1       1.606  -1.695  -5.987  0.00  0.00     0.003 A 
ATOM      3  C2  UNL d   1       0.310  -2.214  -5.991  0.00  0.00     0.048 A 
ATOM      4  C3  UNL d   1       0.119  -3.596  -5.993  0.00  0.00     0.023 A 
ATOM      5  C4  UNL d   1       1.214  -4.461  -5.991  0.00  0.00     0.048 A 
ATOM      6  C5  UNL d   1       2.509  -3.937  -5.988  0.00  0.00     0.003 A 
ATOM      7  I   UNL d   1      -1.809  -4.371  -6.000  0.00  0.00    -0.146 I 
ENDROOT
TORSDOF 0
ENDMDL
