MODEL 1
REMARK minimizedAffinity 2.62806487
REMARK minimizedRMSD -1
REMARK  0 active torsions:
REMARK  status: ('A' for Active; 'I' for Inactive)
ROOT
ATOM      1  C   UNL d   1      -4.904  -4.810  -2.178  0.00  0.00     0.023 A 
ATOM      2  C1  UNL d   1      -3.619  -4.380  -1.849  0.00  0.00     0.003 A 
ATOM      3  C2  UNL d   1      -2.773  -3.880  -2.841  0.00  0.00     0.048 A 
ATOM      4  C3  UNL d   1      -3.219  -3.812  -4.161  0.00  0.00     0.023 A 
ATOM      5  C4  UNL d   1      -4.505  -4.241  -4.495  0.00  0.00     0.048 A 
ATOM      6  C5  UNL d   1      -5.347  -4.741  -3.499  0.00  0.00     0.003 A 
ATOM      7  I   UNL d   1      -1.962  -3.068  -5.639  0.00  0.00    -0.146 I 
ENDROOT
TORSDOF 0
ENDMDL
