MODEL 1
REMARK minimizedAffinity -3.57446861
REMARK minimizedRMSD -1
REMARK  0 active torsions:
REMARK  status: ('A' for Active; 'I' for Inactive)
ROOT
ATOM      1  C   UNL d   1       4.866   4.156   1.608  0.00  0.00     0.023 A 
ATOM      2  C1  UNL d   1       5.667   3.416   2.477  0.00  0.00     0.003 A 
ATOM      3  C2  UNL d   1       5.994   3.928   3.734  0.00  0.00     0.048 A 
ATOM      4  C3  UNL d   1       5.515   5.180   4.117  0.00  0.00     0.023 A 
ATOM      5  C4  UNL d   1       4.712   5.924   3.251  0.00  0.00     0.048 A 
ATOM      6  C5  UNL d   1       4.389   5.409   1.994  0.00  0.00     0.003 A 
ATOM      7  I   UNL d   1       6.000   5.945   5.988  0.00  0.00    -0.146 I 
ENDROOT
TORSDOF 0
ENDMDL
