MODEL 1
REMARK minimizedAffinity 5.02625895
REMARK minimizedRMSD -1
REMARK  0 active torsions:
REMARK  status: ('A' for Active; 'I' for Inactive)
ROOT
ATOM      1  C   UNL d   1       3.006  -3.044  -5.652  0.00  0.00     0.023 A 
ATOM      2  C1  UNL d   1       2.346  -1.840  -5.897  0.00  0.00     0.003 A 
ATOM      3  C2  UNL d   1       0.953  -1.813  -5.998  0.00  0.00     0.048 A 
ATOM      4  C3  UNL d   1       0.227  -2.994  -5.850  0.00  0.00     0.023 A 
ATOM      5  C4  UNL d   1       0.882  -4.201  -5.603  0.00  0.00     0.048 A 
ATOM      6  C5  UNL d   1       2.275  -4.223  -5.505  0.00  0.00     0.003 A 
ATOM      7  I   UNL d   1      -1.846  -2.956  -5.999  0.00  0.00    -0.146 I 
ENDROOT
TORSDOF 0
ENDMDL
