MODEL 1
REMARK minimizedAffinity -1.63732564
REMARK minimizedRMSD -1
REMARK  0 active torsions:
REMARK  status: ('A' for Active; 'I' for Inactive)
ROOT
ATOM      1  C   UNL d   1      -5.613  -5.796  -2.659  0.00  0.00     0.023 A 
ATOM      2  C1  UNL d   1      -6.000  -5.312  -3.909  0.00  0.00     0.003 A 
ATOM      3  C2  UNL d   1      -5.034  -5.001  -4.868  0.00  0.00     0.048 A 
ATOM      4  C3  UNL d   1      -3.683  -5.178  -4.571  0.00  0.00     0.023 A 
ATOM      5  C4  UNL d   1      -3.291  -5.662  -3.322  0.00  0.00     0.048 A 
ATOM      6  C5  UNL d   1      -4.260  -5.970  -2.366  0.00  0.00     0.003 A 
ATOM      7  I   UNL d   1      -2.244  -4.716  -5.998  0.00  0.00    -0.146 I 
ENDROOT
TORSDOF 0
ENDMDL
