MODEL 1
REMARK minimizedAffinity -3.36170626
REMARK minimizedRMSD -1
REMARK  2 active torsions:
REMARK  status: ('A' for Active; 'I' for Inactive)
REMARK    1  A    between atoms: C1_2  and  C2_3 
REMARK    2  A    between atoms: C2_3  and  C3_4 
ROOT
ATOM      1  C3  UNL d   1       1.016  -1.035  -0.441  0.00  0.00    -0.075 A 
ATOM      2  C4  UNL d   1       0.928  -1.370   0.918  0.00  0.00     0.002 A 
ATOM      3  C5  UNL d   1      -0.067  -0.812   1.721  0.00  0.00     0.002 A 
ATOM      4  C6  UNL d   1      -0.977   0.094   1.181  0.00  0.00    -0.004 A 
ATOM      5  C7  UNL d   1      -0.888   0.447  -0.164  0.00  0.00     0.002 A 
ATOM      6  C8  UNL d   1       0.103  -0.113  -0.972  0.00  0.00     0.002 A 
ENDROOT
BRANCH   1   7
ATOM      7  C2  UNL d   1       2.071  -1.658  -1.324  0.00  0.00     0.056 C 
BRANCH   7   8
ATOM      8  C1  UNL d   1       1.736  -1.622  -2.818  0.00  0.00     0.007 C 
ATOM      9  C   UNL d   1       2.486  -0.534  -3.576  0.00  0.00     0.009 C 
ENDBRANCH   7   8
ENDBRANCH   1   7
TORSDOF 2
ENDMDL
