MODEL 1
REMARK minimizedAffinity -4.25582933
REMARK minimizedRMSD -1
REMARK  2 active torsions:
REMARK  status: ('A' for Active; 'I' for Inactive)
REMARK    1  A    between atoms: C1_2  and  C2_3 
REMARK    2  A    between atoms: C2_3  and  C3_4 
ROOT
ATOM      1  C3  UNL d   1      -0.321  -0.126   0.053  0.00  0.00    -0.075 A 
ATOM      2  C4  UNL d   1       0.488   0.136  -1.062  0.00  0.00     0.002 A 
ATOM      3  C5  UNL d   1       1.626  -0.633  -1.308  0.00  0.00     0.002 A 
ATOM      4  C6  UNL d   1       1.975  -1.664  -0.438  0.00  0.00    -0.004 A 
ATOM      5  C7  UNL d   1       1.188  -1.922   0.682  0.00  0.00     0.002 A 
ATOM      6  C8  UNL d   1       0.046  -1.158   0.928  0.00  0.00     0.002 A 
ENDROOT
BRANCH   1   7
ATOM      7  C2  UNL d   1      -1.571   0.683   0.308  0.00  0.00     0.056 C 
BRANCH   7   8
ATOM      8  C1  UNL d   1      -2.156   0.500   1.713  0.00  0.00     0.007 C 
ATOM      9  C   UNL d   1      -1.954   1.714   2.610  0.00  0.00     0.009 C 
ENDBRANCH   7   8
ENDBRANCH   1   7
TORSDOF 2
ENDMDL
