MODEL 1
REMARK minimizedAffinity -4.75049019
REMARK minimizedRMSD -1
REMARK  2 active torsions:
REMARK  status: ('A' for Active; 'I' for Inactive)
REMARK    1  A    between atoms: C1_2  and  C2_3 
REMARK    2  A    between atoms: C2_3  and  C3_4 
ROOT
ATOM      1  C3  UNL d   1       1.161   0.131  -0.865  0.00  0.00    -0.075 A 
ATOM      2  C4  UNL d   1       0.646   1.334  -1.371  0.00  0.00     0.002 A 
ATOM      3  C5  UNL d   1       1.142   1.871  -2.560  0.00  0.00     0.002 A 
ATOM      4  C6  UNL d   1       2.163   1.221  -3.249  0.00  0.00    -0.004 A 
ATOM      5  C7  UNL d   1       2.693   0.035  -2.747  0.00  0.00     0.002 A 
ATOM      6  C8  UNL d   1       2.195  -0.508  -1.560  0.00  0.00     0.002 A 
ENDROOT
BRANCH   1   7
ATOM      7  C2  UNL d   1       0.608  -0.471   0.405  0.00  0.00     0.056 C 
BRANCH   7   8
ATOM      8  C1  UNL d   1      -0.900  -0.737   0.364  0.00  0.00     0.007 C 
ATOM      9  C   UNL d   1      -1.696   0.170   1.293  0.00  0.00     0.009 C 
ENDBRANCH   7   8
ENDBRANCH   1   7
TORSDOF 2
ENDMDL
