MODEL 1
REMARK minimizedAffinity -2.44904971
REMARK minimizedRMSD -1
REMARK  2 active torsions:
REMARK  status: ('A' for Active; 'I' for Inactive)
REMARK    1  A    between atoms: C1_2  and  C2_3 
REMARK    2  A    between atoms: C2_3  and  C3_4 
ROOT
ATOM      1  C3  UNL d   1      -0.579  -0.074   0.031  0.00  0.00    -0.075 A 
ATOM      2  C4  UNL d   1       0.535   0.531  -0.571  0.00  0.00     0.002 A 
ATOM      3  C5  UNL d   1       1.609  -0.243  -1.010  0.00  0.00     0.002 A 
ATOM      4  C6  UNL d   1       1.590  -1.626  -0.845  0.00  0.00    -0.004 A 
ATOM      5  C7  UNL d   1       0.496  -2.236  -0.234  0.00  0.00     0.002 A 
ATOM      6  C8  UNL d   1      -0.582  -1.465   0.203  0.00  0.00     0.002 A 
ENDROOT
BRANCH   1   7
ATOM      7  C2  UNL d   1      -1.758   0.754   0.482  0.00  0.00     0.056 C 
BRANCH   7   8
ATOM      8  C1  UNL d   1      -2.409   0.259   1.778  0.00  0.00     0.007 C 
ATOM      9  C   UNL d   1      -2.247   1.230   2.940  0.00  0.00     0.009 C 
ENDBRANCH   7   8
ENDBRANCH   1   7
TORSDOF 2
ENDMDL
