MODEL 1
REMARK minimizedAffinity -4.15423393
REMARK minimizedRMSD -1
REMARK  2 active torsions:
REMARK  status: ('A' for Active; 'I' for Inactive)
REMARK    1  A    between atoms: C1_2  and  C2_3 
REMARK    2  A    between atoms: C2_3  and  C3_4 
ROOT
ATOM      1  C3  UNL d   1      -0.207  -0.214   0.483  0.00  0.00    -0.075 A 
ATOM      2  C4  UNL d   1      -0.372  -1.042  -0.637  0.00  0.00     0.002 A 
ATOM      3  C5  UNL d   1       0.644  -1.914  -1.029  0.00  0.00     0.002 A 
ATOM      4  C6  UNL d   1       1.839  -1.961  -0.315  0.00  0.00    -0.004 A 
ATOM      5  C7  UNL d   1       2.020  -1.131   0.789  0.00  0.00     0.002 A 
ATOM      6  C8  UNL d   1       1.003  -0.261   1.186  0.00  0.00     0.002 A 
ENDROOT
BRANCH   1   7
ATOM      7  C2  UNL d   1      -1.315   0.710   0.930  0.00  0.00     0.056 C 
BRANCH   7   8
ATOM      8  C1  UNL d   1      -1.161   1.219   2.367  0.00  0.00     0.007 C 
ATOM      9  C   UNL d   1      -2.223   0.676   3.313  0.00  0.00     0.009 C 
ENDBRANCH   7   8
ENDBRANCH   1   7
TORSDOF 2
ENDMDL
