MODEL 1
REMARK minimizedAffinity 1.71568775
REMARK minimizedRMSD -1
REMARK  2 active torsions:
REMARK  status: ('A' for Active; 'I' for Inactive)
REMARK    1  A    between atoms: C1_2  and  C2_3 
REMARK    2  A    between atoms: C2_3  and  C3_4 
ROOT
ATOM      1  C3  UNL d   1       0.182  -0.339   1.392  0.00  0.00    -0.075 A 
ATOM      2  C4  UNL d   1      -0.517  -0.295   0.177  0.00  0.00     0.002 A 
ATOM      3  C5  UNL d   1      -0.450  -1.363  -0.718  0.00  0.00     0.002 A 
ATOM      4  C6  UNL d   1       0.324  -2.482  -0.416  0.00  0.00    -0.004 A 
ATOM      5  C7  UNL d   1       1.035  -2.529   0.781  0.00  0.00     0.002 A 
ATOM      6  C8  UNL d   1       0.966  -1.464   1.680  0.00  0.00     0.002 A 
ENDROOT
BRANCH   1   7
ATOM      7  C2  UNL d   1       0.090   0.801   2.378  0.00  0.00     0.056 C 
BRANCH   7   8
ATOM      8  C1  UNL d   1      -1.291   0.956   3.024  0.00  0.00     0.007 C 
ATOM      9  C   UNL d   1      -1.742  -0.285   3.783  0.00  0.00     0.009 C 
ENDBRANCH   7   8
ENDBRANCH   1   7
TORSDOF 2
ENDMDL
