MODEL 1
REMARK minimizedAffinity -3.73898029
REMARK minimizedRMSD -1
REMARK  2 active torsions:
REMARK  status: ('A' for Active; 'I' for Inactive)
REMARK    1  A    between atoms: C1_2  and  C2_3 
REMARK    2  A    between atoms: C2_3  and  C3_4 
ROOT
ATOM      1  C3  UNL d   1       0.828  -0.125  -0.604  0.00  0.00    -0.075 A 
ATOM      2  C4  UNL d   1       0.687   1.046  -1.361  0.00  0.00     0.002 A 
ATOM      3  C5  UNL d   1       1.455   1.245  -2.509  0.00  0.00     0.002 A 
ATOM      4  C6  UNL d   1       2.379   0.281  -2.908  0.00  0.00    -0.004 A 
ATOM      5  C7  UNL d   1       2.539  -0.879  -2.153  0.00  0.00     0.002 A 
ATOM      6  C8  UNL d   1       1.769  -1.082  -1.007  0.00  0.00     0.002 A 
ENDROOT
BRANCH   1   7
ATOM      7  C2  UNL d   1      -0.021  -0.359   0.623  0.00  0.00     0.056 C 
BRANCH   7   8
ATOM      8  C1  UNL d   1      -1.321   0.453   0.646  0.00  0.00     0.007 C 
ATOM      9  C   UNL d   1      -1.987   0.480   2.015  0.00  0.00     0.009 C 
ENDBRANCH   7   8
ENDBRANCH   1   7
TORSDOF 2
ENDMDL
