MODEL 1
REMARK minimizedAffinity -2.14953136
REMARK minimizedRMSD -1
REMARK  2 active torsions:
REMARK  status: ('A' for Active; 'I' for Inactive)
REMARK    1  A    between atoms: C1_2  and  C2_3 
REMARK    2  A    between atoms: C2_3  and  C3_4 
ROOT
ATOM      1  C3  UNL d   1      -0.809  -0.167   0.370  0.00  0.00    -0.075 A 
ATOM      2  C4  UNL d   1      -1.028  -1.216  -0.536  0.00  0.00     0.002 A 
ATOM      3  C5  UNL d   1       0.029  -2.029  -0.946  0.00  0.00     0.002 A 
ATOM      4  C6  UNL d   1       1.316  -1.800  -0.465  0.00  0.00    -0.004 A 
ATOM      5  C7  UNL d   1       1.548  -0.751   0.422  0.00  0.00     0.002 A 
ATOM      6  C8  UNL d   1       0.492   0.062   0.837  0.00  0.00     0.002 A 
ENDROOT
BRANCH   1   7
ATOM      7  C2  UNL d   1      -1.953   0.698   0.841  0.00  0.00     0.056 C 
BRANCH   7   8
ATOM      8  C1  UNL d   1      -2.380   0.435   2.289  0.00  0.00     0.007 C 
ATOM      9  C   UNL d   1      -2.209   1.646   3.195  0.00  0.00     0.009 C 
ENDBRANCH   7   8
ENDBRANCH   1   7
TORSDOF 2
ENDMDL
