MODEL 1
REMARK minimizedAffinity -4.44457912
REMARK minimizedRMSD -1
REMARK  2 active torsions:
REMARK  status: ('A' for Active; 'I' for Inactive)
REMARK    1  A    between atoms: C1_2  and  C2_3 
REMARK    2  A    between atoms: C2_3  and  C3_4 
ROOT
ATOM      1  C3  UNL d   1       0.842   0.274  -0.390  0.00  0.00    -0.075 A 
ATOM      2  C4  UNL d   1       1.554  -0.842  -0.852  0.00  0.00     0.002 A 
ATOM      3  C5  UNL d   1       2.231  -0.795  -2.071  0.00  0.00     0.002 A 
ATOM      4  C6  UNL d   1       2.197   0.361  -2.847  0.00  0.00    -0.004 A 
ATOM      5  C7  UNL d   1       1.479   1.471  -2.405  0.00  0.00     0.002 A 
ATOM      6  C8  UNL d   1       0.804   1.428  -1.184  0.00  0.00     0.002 A 
ENDROOT
BRANCH   1   7
ATOM      7  C2  UNL d   1       0.132   0.240   0.942  0.00  0.00     0.056 C 
BRANCH   7   8
ATOM      8  C1  UNL d   1      -1.395   0.316   0.837  0.00  0.00     0.007 C 
ATOM      9  C   UNL d   1      -2.072   0.652   2.159  0.00  0.00     0.009 C 
ENDBRANCH   7   8
ENDBRANCH   1   7
TORSDOF 2
ENDMDL
