MODEL 1
REMARK minimizedAffinity -2.77027678
REMARK minimizedRMSD -1
REMARK  2 active torsions:
REMARK  status: ('A' for Active; 'I' for Inactive)
REMARK    1  A    between atoms: C1_2  and  C2_3 
REMARK    2  A    between atoms: C2_3  and  C3_4 
ROOT
ATOM      1  C3  UNL d   1      -1.542   0.293   1.074  0.00  0.00    -0.075 A 
ATOM      2  C4  UNL d   1      -2.865   0.492   1.493  0.00  0.00     0.002 A 
ATOM      3  C5  UNL d   1      -3.147   0.811   2.822  0.00  0.00     0.002 A 
ATOM      4  C6  UNL d   1      -2.113   0.925   3.748  0.00  0.00    -0.004 A 
ATOM      5  C7  UNL d   1      -0.796   0.714   3.346  0.00  0.00     0.002 A 
ATOM      6  C8  UNL d   1      -0.511   0.399   2.016  0.00  0.00     0.002 A 
ENDROOT
BRANCH   1   7
ATOM      7  C2  UNL d   1      -1.228  -0.023  -0.369  0.00  0.00     0.056 C 
BRANCH   7   8
ATOM      8  C1  UNL d   1       0.266   0.017  -0.706  0.00  0.00     0.007 C 
ATOM      9  C   UNL d   1       0.616   1.054  -1.765  0.00  0.00     0.009 C 
ENDBRANCH   7   8
ENDBRANCH   1   7
TORSDOF 2
ENDMDL
