MODEL 1
REMARK minimizedAffinity -2.74455047
REMARK minimizedRMSD -1
REMARK  2 active torsions:
REMARK  status: ('A' for Active; 'I' for Inactive)
REMARK    1  A    between atoms: C1_2  and  C2_3 
REMARK    2  A    between atoms: C2_3  and  C3_4 
ROOT
ATOM      1  C3  UNL d   1       1.142  -0.568  -1.149  0.00  0.00    -0.075 A 
ATOM      2  C4  UNL d   1      -0.166  -0.110  -0.938  0.00  0.00     0.002 A 
ATOM      3  C5  UNL d   1      -0.724  -0.124   0.340  0.00  0.00     0.002 A 
ATOM      4  C6  UNL d   1       0.013  -0.605   1.420  0.00  0.00    -0.004 A 
ATOM      5  C7  UNL d   1       1.308  -1.078   1.220  0.00  0.00     0.002 A 
ATOM      6  C8  UNL d   1       1.871  -1.061  -0.058  0.00  0.00     0.002 A 
ENDROOT
BRANCH   1   7
ATOM      7  C2  UNL d   1       1.763  -0.528  -2.525  0.00  0.00     0.056 C 
BRANCH   7   8
ATOM      8  C1  UNL d   1       2.303   0.849  -2.926  0.00  0.00     0.007 C 
ATOM      9  C   UNL d   1       1.227   1.926  -2.971  0.00  0.00     0.009 C 
ENDBRANCH   7   8
ENDBRANCH   1   7
TORSDOF 2
ENDMDL
