MODEL 1
REMARK minimizedAffinity -2.92647767
REMARK minimizedRMSD -1
REMARK  1 active torsions:
REMARK  status: ('A' for Active; 'I' for Inactive)
REMARK    1  A    between atoms: C1_2  and  C2_3 
ROOT
ATOM      1  C2  UNL d   1      -1.444   0.303  -0.215  0.00  0.00    -0.081 A 
ATOM      2  C3  UNL d   1      -0.310   1.102  -0.408  0.00  0.00     0.006 A 
ATOM      3  C4  UNL d   1       0.964   0.529  -0.427  0.00  0.00     0.002 A 
ATOM      4  C5  UNL d   1       1.125  -0.851  -0.263  0.00  0.00    -0.080 A 
ATOM      5  C6  UNL d   1       2.484  -1.482  -0.312  0.00  0.00     0.076 C 
ATOM      6  C7  UNL d   1      -0.007  -1.646  -0.053  0.00  0.00     0.002 A 
ATOM      7  C8  UNL d   1      -1.281  -1.074  -0.032  0.00  0.00     0.006 A 
ENDROOT
BRANCH   1   8
ATOM      8  C1  UNL d   1      -2.824   0.909  -0.258  0.00  0.00     0.054 C 
ATOM      9  C   UNL d   1      -3.444   0.972   1.131  0.00  0.00     0.018 C 
ENDBRANCH   1   8
TORSDOF 1
ENDMDL
