MODEL 1
REMARK minimizedAffinity -3.67256379
REMARK minimizedRMSD -1
REMARK  1 active torsions:
REMARK  status: ('A' for Active; 'I' for Inactive)
REMARK    1  A    between atoms: C1_2  and  C2_3 
ROOT
ATOM      1  C2  UNL d   1      -0.625   0.825  -0.310  0.00  0.00    -0.081 A 
ATOM      2  C3  UNL d   1       0.571   1.530  -0.127  0.00  0.00     0.006 A 
ATOM      3  C4  UNL d   1       1.783   0.846   0.002  0.00  0.00     0.002 A 
ATOM      4  C5  UNL d   1       1.820  -0.551  -0.057  0.00  0.00    -0.080 A 
ATOM      5  C6  UNL d   1       3.117  -1.296   0.050  0.00  0.00     0.076 C 
ATOM      6  C7  UNL d   1       0.622  -1.256  -0.223  0.00  0.00     0.002 A 
ATOM      7  C8  UNL d   1      -0.589  -0.573  -0.351  0.00  0.00     0.006 A 
ENDROOT
BRANCH   1   8
ATOM      8  C1  UNL d   1      -1.924   1.562  -0.515  0.00  0.00     0.054 C 
ATOM      9  C   UNL d   1      -3.082   0.837   0.156  0.00  0.00     0.018 C 
ENDBRANCH   1   8
TORSDOF 1
ENDMDL
