MODEL 1
REMARK minimizedAffinity -2.17361236
REMARK minimizedRMSD -1
REMARK  1 active torsions:
REMARK  status: ('A' for Active; 'I' for Inactive)
REMARK    1  A    between atoms: C1_2  and  C2_3 
ROOT
ATOM      1  C2  UNL d   1      -1.571   0.348   0.260  0.00  0.00    -0.081 A 
ATOM      2  C3  UNL d   1      -0.483   0.966  -0.369  0.00  0.00     0.006 A 
ATOM      3  C4  UNL d   1       0.659   0.231  -0.693  0.00  0.00     0.002 A 
ATOM      4  C5  UNL d   1       0.730  -1.136  -0.402  0.00  0.00    -0.080 A 
ATOM      5  C6  UNL d   1       1.938  -1.944  -0.772  0.00  0.00     0.076 C 
ATOM      6  C7  UNL d   1      -0.350  -1.750   0.242  0.00  0.00     0.002 A 
ATOM      7  C8  UNL d   1      -1.492  -1.015   0.567  0.00  0.00     0.006 A 
ENDROOT
BRANCH   1   8
ATOM      8  C1  UNL d   1      -2.830   1.124   0.552  0.00  0.00     0.054 C 
ATOM      9  C   UNL d   1      -3.605   0.506   1.706  0.00  0.00     0.018 C 
ENDBRANCH   1   8
TORSDOF 1
ENDMDL
