MODEL 1
REMARK minimizedAffinity -0.950621247
REMARK minimizedRMSD -1
REMARK  1 active torsions:
REMARK  status: ('A' for Active; 'I' for Inactive)
REMARK    1  A    between atoms: C1_2  and  C2_3 
ROOT
ATOM      1  C2  UNL d   1      -1.598   0.466  -0.327  0.00  0.00    -0.081 A 
ATOM      2  C3  UNL d   1      -1.592  -0.842  -0.825  0.00  0.00     0.006 A 
ATOM      3  C4  UNL d   1      -0.391  -1.542  -0.962  0.00  0.00     0.002 A 
ATOM      4  C5  UNL d   1       0.822  -0.949  -0.596  0.00  0.00    -0.080 A 
ATOM      5  C6  UNL d   1       2.115  -1.700  -0.710  0.00  0.00     0.076 C 
ATOM      6  C7  UNL d   1       0.818   0.365  -0.115  0.00  0.00     0.002 A 
ATOM      7  C8  UNL d   1      -0.383   1.065   0.021  0.00  0.00     0.006 A 
ENDROOT
BRANCH   1   8
ATOM      8  C1  UNL d   1      -2.898   1.200  -0.117  0.00  0.00     0.054 C 
ATOM      9  C   UNL d   1      -3.976   0.273   0.426  0.00  0.00     0.018 C 
ENDBRANCH   1   8
TORSDOF 1
ENDMDL
