MODEL 1
REMARK minimizedAffinity -2.11771512
REMARK minimizedRMSD -1
REMARK  1 active torsions:
REMARK  status: ('A' for Active; 'I' for Inactive)
REMARK    1  A    between atoms: C1_2  and  C2_3 
ROOT
ATOM      1  C2  UNL d   1      -0.286   0.580  -0.422  0.00  0.00    -0.081 A 
ATOM      2  C3  UNL d   1       0.627   1.632  -0.282  0.00  0.00     0.006 A 
ATOM      3  C4  UNL d   1       2.001   1.383  -0.288  0.00  0.00     0.002 A 
ATOM      4  C5  UNL d   1       2.486   0.080  -0.442  0.00  0.00    -0.080 A 
ATOM      5  C6  UNL d   1       3.959  -0.197  -0.481  0.00  0.00     0.076 C 
ATOM      6  C7  UNL d   1       1.574  -0.974  -0.564  0.00  0.00     0.002 A 
ATOM      7  C8  UNL d   1       0.199  -0.725  -0.558  0.00  0.00     0.006 A 
ENDROOT
BRANCH   1   8
ATOM      8  C1  UNL d   1      -1.767   0.853  -0.481  0.00  0.00     0.054 C 
ATOM      9  C   UNL d   1      -2.434   0.579   0.860  0.00  0.00     0.018 C 
ENDBRANCH   1   8
TORSDOF 1
ENDMDL
