MODEL 1
REMARK minimizedAffinity -3.34615636
REMARK minimizedRMSD -1
REMARK  1 active torsions:
REMARK  status: ('A' for Active; 'I' for Inactive)
REMARK    1  A    between atoms: C1_2  and  C2_3 
ROOT
ATOM      1  C2  UNL d   1      -1.605   0.154   0.152  0.00  0.00    -0.081 A 
ATOM      2  C3  UNL d   1      -1.369  -1.203   0.401  0.00  0.00     0.006 A 
ATOM      3  C4  UNL d   1      -0.092  -1.743   0.231  0.00  0.00     0.002 A 
ATOM      4  C5  UNL d   1       0.972  -0.933  -0.182  0.00  0.00    -0.080 A 
ATOM      5  C6  UNL d   1       2.354  -1.493  -0.338  0.00  0.00     0.076 C 
ATOM      6  C7  UNL d   1       0.733   0.420  -0.447  0.00  0.00     0.002 A 
ATOM      7  C8  UNL d   1      -0.544   0.959  -0.278  0.00  0.00     0.006 A 
ENDROOT
BRANCH   1   8
ATOM      8  C1  UNL d   1      -2.966   0.753   0.396  0.00  0.00     0.054 C 
ATOM      9  C   UNL d   1      -3.680   0.055   1.546  0.00  0.00     0.018 C 
ENDBRANCH   1   8
TORSDOF 1
ENDMDL
