MODEL 1
REMARK minimizedAffinity 1.36628783
REMARK minimizedRMSD -1
REMARK  1 active torsions:
REMARK  status: ('A' for Active; 'I' for Inactive)
REMARK    1  A    between atoms: C1_2  and  C2_3 
ROOT
ATOM      1  C2  UNL d   1       0.201  -0.498  -0.499  0.00  0.00    -0.081 A 
ATOM      2  C3  UNL d   1      -0.164   0.404  -1.506  0.00  0.00     0.006 A 
ATOM      3  C4  UNL d   1      -0.044   1.781  -1.301  0.00  0.00     0.002 A 
ATOM      4  C5  UNL d   1       0.450   2.277  -0.090  0.00  0.00    -0.080 A 
ATOM      5  C6  UNL d   1       0.612   3.752   0.132  0.00  0.00     0.076 C 
ATOM      6  C7  UNL d   1       0.798   1.377   0.923  0.00  0.00     0.002 A 
ATOM      7  C8  UNL d   1       0.678   0.000   0.718  0.00  0.00     0.006 A 
ENDROOT
BRANCH   1   8
ATOM      8  C1  UNL d   1       0.134  -1.984  -0.741  0.00  0.00     0.054 C 
ATOM      9  C   UNL d   1       1.524  -2.581  -0.906  0.00  0.00     0.018 C 
ENDBRANCH   1   8
TORSDOF 1
ENDMDL
