MODEL 1
REMARK minimizedAffinity -5.53601646
REMARK minimizedRMSD -1
REMARK  0 active torsions:
REMARK  status: ('A' for Active; 'I' for Inactive)
ROOT
ATOM      1  C1  DEN d   1       1.954  -1.844   2.527  0.00  0.00     0.130 A 
ATOM      2  C2  DEN d   1       2.912  -2.201   1.485  0.00  0.00    -0.031 A 
ATOM      3  C3  DEN d   1       2.387  -1.712   0.195  0.00  0.00     0.027 A 
ATOM      4  C4  DEN d   1       0.196  -0.438  -0.287  0.00  0.00     0.027 A 
ATOM      5  C5  DEN d   1      -0.947   0.082   0.278  0.00  0.00    -0.003 A 
ATOM      6  C6  DEN d   1      -1.218  -0.032   1.615  0.00  0.00     0.001 A 
ATOM      7  C7  DEN d   1      -0.312  -0.643   2.442  0.00  0.00     0.017 A 
ATOM      8  C8  DEN d   1       0.840  -1.176   1.878  0.00  0.00    -0.094 A 
ATOM      9  C9  DEN d   1       1.101  -1.040   0.526  0.00  0.00    -0.072 A 
ENDROOT
TORSDOF 0
ENDMDL
