MODEL 1
REMARK minimizedAffinity -3.84347463
REMARK minimizedRMSD -1
REMARK  0 active torsions:
REMARK  status: ('A' for Active; 'I' for Inactive)
ROOT
ATOM      1  C1  DEN d   1       1.012  -0.454  -0.965  0.00  0.00     0.130 A 
ATOM      2  C2  DEN d   1      -0.323  -0.318  -1.540  0.00  0.00    -0.031 A 
ATOM      3  C3  DEN d   1      -1.290  -0.209  -0.429  0.00  0.00     0.027 A 
ATOM      4  C4  DEN d   1      -0.851  -0.232   2.112  0.00  0.00     0.027 A 
ATOM      5  C5  DEN d   1       0.120  -0.339   3.083  0.00  0.00    -0.003 A 
ATOM      6  C6  DEN d   1       1.442  -0.524   2.775  0.00  0.00     0.001 A 
ATOM      7  C7  DEN d   1       1.835  -0.563   1.463  0.00  0.00     0.017 A 
ATOM      8  C8  DEN d   1       0.860  -0.464   0.479  0.00  0.00    -0.094 A 
ATOM      9  C9  DEN d   1      -0.470  -0.265   0.810  0.00  0.00    -0.072 A 
ENDROOT
TORSDOF 0
ENDMDL
