MODEL 1
REMARK minimizedAffinity -1.93818319
REMARK minimizedRMSD -1
REMARK  0 active torsions:
REMARK  status: ('A' for Active; 'I' for Inactive)
ROOT
ATOM      1  C1  DEN d   1       1.050  -0.022  -1.189  0.00  0.00     0.130 A 
ATOM      2  C2  DEN d   1       0.090   0.450  -2.183  0.00  0.00    -0.031 A 
ATOM      3  C3  DEN d   1      -1.234   0.536  -1.534  0.00  0.00     0.027 A 
ATOM      4  C4  DEN d   1      -1.886  -0.010   0.901  0.00  0.00     0.027 A 
ATOM      5  C5  DEN d   1      -1.415  -0.457   2.116  0.00  0.00    -0.003 A 
ATOM      6  C6  DEN d   1      -0.108  -0.820   2.304  0.00  0.00     0.001 A 
ATOM      7  C7  DEN d   1       0.785  -0.699   1.272  0.00  0.00     0.017 A 
ATOM      8  C8  DEN d   1       0.316  -0.256   0.042  0.00  0.00    -0.094 A 
ATOM      9  C9  DEN d   1      -1.006   0.117  -0.125  0.00  0.00    -0.072 A 
ENDROOT
TORSDOF 0
ENDMDL
