MODEL 1
REMARK minimizedAffinity 1.21418786
REMARK minimizedRMSD -1
REMARK  0 active torsions:
REMARK  status: ('A' for Active; 'I' for Inactive)
ROOT
ATOM      1  C1  DEN d   1      -2.919   1.836  -1.875  0.00  0.00     0.130 A 
ATOM      2  C2  DEN d   1      -3.173   3.243  -2.172  0.00  0.00    -0.031 A 
ATOM      3  C3  DEN d   1      -1.939   3.820  -2.741  0.00  0.00     0.027 A 
ATOM      4  C4  DEN d   1       0.328   2.676  -3.193  0.00  0.00     0.027 A 
ATOM      5  C5  DEN d   1       1.029   1.494  -3.094  0.00  0.00    -0.003 A 
ATOM      6  C6  DEN d   1       0.478   0.362  -2.556  0.00  0.00     0.001 A 
ATOM      7  C7  DEN d   1      -0.826   0.375  -2.136  0.00  0.00     0.017 A 
ATOM      8  C8  DEN d   1      -1.536   1.565  -2.225  0.00  0.00    -0.094 A 
ATOM      9  C9  DEN d   1      -0.966   2.696  -2.784  0.00  0.00    -0.072 A 
ENDROOT
TORSDOF 0
ENDMDL
