MODEL 1
REMARK minimizedAffinity -3.47621155
REMARK minimizedRMSD -1
REMARK  0 active torsions:
REMARK  status: ('A' for Active; 'I' for Inactive)
ROOT
ATOM      1  C1  DEN d   1       0.494  -0.274  -0.907  0.00  0.00     0.130 A 
ATOM      2  C2  DEN d   1      -0.790   0.323  -0.548  0.00  0.00    -0.031 A 
ATOM      3  C3  DEN d   1      -0.986   0.145   0.905  0.00  0.00     0.027 A 
ATOM      4  C4  DEN d   1       0.567  -0.987   2.625  0.00  0.00     0.027 A 
ATOM      5  C5  DEN d   1       1.762  -1.651   2.792  0.00  0.00    -0.003 A 
ATOM      6  C6  DEN d   1       2.595  -1.931   1.742  0.00  0.00     0.001 A 
ATOM      7  C7  DEN d   1       2.266  -1.505   0.482  0.00  0.00     0.017 A 
ATOM      8  C8  DEN d   1       1.059  -0.840   0.305  0.00  0.00    -0.094 A 
ATOM      9  C9  DEN d   1       0.237  -0.556   1.381  0.00  0.00    -0.072 A 
ENDROOT
TORSDOF 0
ENDMDL
