MODEL 1
REMARK minimizedAffinity -4.89649439
REMARK minimizedRMSD -1
REMARK  0 active torsions:
REMARK  status: ('A' for Active; 'I' for Inactive)
ROOT
ATOM      1  C1  DEN d   1       0.465   0.340  -1.340  0.00  0.00     0.130 A 
ATOM      2  C2  DEN d   1      -0.982   0.323  -1.534  0.00  0.00    -0.031 A 
ATOM      3  C3  DEN d   1      -1.613   0.017  -0.235  0.00  0.00     0.027 A 
ATOM      4  C4  DEN d   1      -0.497  -0.426   2.047  0.00  0.00     0.027 A 
ATOM      5  C5  DEN d   1       0.708  -0.531   2.706  0.00  0.00    -0.003 A 
ATOM      6  C6  DEN d   1       1.908  -0.387   2.061  0.00  0.00     0.001 A 
ATOM      7  C7  DEN d   1       1.928  -0.086   0.725  0.00  0.00     0.017 A 
ATOM      8  C8  DEN d   1       0.717   0.014   0.052  0.00  0.00    -0.094 A 
ATOM      9  C9  DEN d   1      -0.485  -0.123   0.725  0.00  0.00    -0.072 A 
ENDROOT
TORSDOF 0
ENDMDL
