MODEL 1
REMARK minimizedAffinity -1.31910777
REMARK minimizedRMSD -1
REMARK  1 active torsions:
REMARK  status: ('A' for Active; 'I' for Inactive)
REMARK    1  A    between atoms: C1_2  and  C2_3 
ROOT
ATOM      1  C2  UNL d   1       0.106  -0.050  -0.259  0.00  0.00    -0.073 A 
ATOM      2  C3  UNL d   1       0.364   1.319  -0.118  0.00  0.00    -0.002 A 
ATOM      3  C4  UNL d   1       1.170   1.983  -1.043  0.00  0.00     0.004 A 
ATOM      4  C5  UNL d   1       1.721   1.289  -2.120  0.00  0.00    -0.004 A 
ATOM      5  C6  UNL d   1       1.466  -0.076  -2.284  0.00  0.00    -0.075 A 
ATOM      6  C7  UNL d   1       2.053  -0.838  -3.436  0.00  0.00     0.076 C 
ATOM      7  C8  UNL d   1       0.657  -0.737  -1.350  0.00  0.00     0.001 A 
ENDROOT
BRANCH   1   8
ATOM      8  C1  UNL d   1      -0.769  -0.770   0.734  0.00  0.00     0.053 C 
ATOM      9  C   UNL d   1      -1.756   0.169   1.410  0.00  0.00     0.018 C 
ENDBRANCH   1   8
TORSDOF 1
ENDMDL
