MODEL 1
REMARK minimizedAffinity -5.43500948
REMARK minimizedRMSD -1
REMARK  1 active torsions:
REMARK  status: ('A' for Active; 'I' for Inactive)
REMARK    1  A    between atoms: C1_2  and  C2_3 
ROOT
ATOM      1  C2  UNL d   1      -1.361   0.435   1.426  0.00  0.00    -0.073 A 
ATOM      2  C3  UNL d   1      -2.561  -0.188   1.066  0.00  0.00    -0.002 A 
ATOM      3  C4  UNL d   1      -3.785   0.394   1.398  0.00  0.00     0.004 A 
ATOM      4  C5  UNL d   1      -3.822   1.606   2.087  0.00  0.00    -0.004 A 
ATOM      5  C6  UNL d   1      -2.634   2.250   2.445  0.00  0.00    -0.075 A 
ATOM      6  C7  UNL d   1      -2.657   3.554   3.189  0.00  0.00     0.076 C 
ATOM      7  C8  UNL d   1      -1.409   1.658   2.110  0.00  0.00     0.001 A 
ENDROOT
BRANCH   1   8
ATOM      8  C1  UNL d   1      -0.037  -0.186   1.063  0.00  0.00     0.053 C 
ATOM      9  C   UNL d   1       0.712   0.634   0.024  0.00  0.00     0.018 C 
ENDBRANCH   1   8
TORSDOF 1
ENDMDL
