MODEL 1
REMARK minimizedAffinity -2.72548032
REMARK minimizedRMSD -1
REMARK  1 active torsions:
REMARK  status: ('A' for Active; 'I' for Inactive)
REMARK    1  A    between atoms: C1_2  and  C2_3 
ROOT
ATOM      1  C2  UNL d   1      -1.513   0.688   0.496  0.00  0.00    -0.073 A 
ATOM      2  C3  UNL d   1      -0.773  -0.027   1.444  0.00  0.00    -0.002 A 
ATOM      3  C4  UNL d   1       0.352  -0.755   1.057  0.00  0.00     0.004 A 
ATOM      4  C5  UNL d   1       0.753  -0.770  -0.279  0.00  0.00    -0.004 A 
ATOM      5  C6  UNL d   1       0.034  -0.051  -1.239  0.00  0.00    -0.075 A 
ATOM      6  C7  UNL d   1       0.451  -0.058  -2.681  0.00  0.00     0.076 C 
ATOM      7  C8  UNL d   1      -1.097   0.676  -0.843  0.00  0.00     0.001 A 
ENDROOT
BRANCH   1   8
ATOM      8  C1  UNL d   1      -2.726   1.481   0.911  0.00  0.00     0.053 C 
ATOM      9  C   UNL d   1      -3.793   0.602   1.543  0.00  0.00     0.018 C 
ENDBRANCH   1   8
TORSDOF 1
ENDMDL
