MODEL 1
REMARK minimizedAffinity -2.74394131
REMARK minimizedRMSD -1
REMARK  1 active torsions:
REMARK  status: ('A' for Active; 'I' for Inactive)
REMARK    1  A    between atoms: C1_2  and  C2_3 
ROOT
ATOM      1  C2  UNL d   1      -0.075  -0.060  -0.467  0.00  0.00    -0.073 A 
ATOM      2  C3  UNL d   1      -0.539  -0.317  -1.762  0.00  0.00    -0.002 A 
ATOM      3  C4  UNL d   1       0.327  -0.227  -2.853  0.00  0.00     0.004 A 
ATOM      4  C5  UNL d   1       1.666   0.113  -2.660  0.00  0.00    -0.004 A 
ATOM      5  C6  UNL d   1       2.152   0.362  -1.372  0.00  0.00    -0.075 A 
ATOM      6  C7  UNL d   1       3.588   0.732  -1.147  0.00  0.00     0.076 C 
ATOM      7  C8  UNL d   1       1.275   0.273  -0.282  0.00  0.00     0.001 A 
ENDROOT
BRANCH   1   8
ATOM      8  C1  UNL d   1      -1.005  -0.162   0.714  0.00  0.00     0.053 C 
ATOM      9  C   UNL d   1      -0.248  -0.308   2.024  0.00  0.00     0.018 C 
ENDBRANCH   1   8
TORSDOF 1
ENDMDL
