MODEL 1
REMARK minimizedAffinity -3.35964465
REMARK minimizedRMSD -1
REMARK  1 active torsions:
REMARK  status: ('A' for Active; 'I' for Inactive)
REMARK    1  A    between atoms: C1_2  and  C2_3 
ROOT
ATOM      1  C2  UNL d   1       1.376   0.044  -1.270  0.00  0.00    -0.073 A 
ATOM      2  C3  UNL d   1       0.979   1.030  -0.360  0.00  0.00    -0.002 A 
ATOM      3  C4  UNL d   1       0.307   0.678   0.811  0.00  0.00     0.004 A 
ATOM      4  C5  UNL d   1       0.031  -0.661   1.087  0.00  0.00    -0.004 A 
ATOM      5  C6  UNL d   1       0.430  -1.662   0.195  0.00  0.00    -0.075 A 
ATOM      6  C7  UNL d   1       0.139  -3.107   0.476  0.00  0.00     0.076 C 
ATOM      7  C8  UNL d   1       1.103  -1.300  -0.980  0.00  0.00     0.001 A 
ENDROOT
BRANCH   1   8
ATOM      8  C1  UNL d   1       2.108   0.419  -2.533  0.00  0.00     0.053 C 
ATOM      9  C   UNL d   1       2.248  -0.761  -3.482  0.00  0.00     0.018 C 
ENDBRANCH   1   8
TORSDOF 1
ENDMDL
