MODEL 1
REMARK minimizedAffinity -3.56930518
REMARK minimizedRMSD -1
REMARK  1 active torsions:
REMARK  status: ('A' for Active; 'I' for Inactive)
REMARK    1  A    between atoms: C1_2  and  C2_3 
ROOT
ATOM      1  C2  UNL d   1       0.191  -0.163  -0.783  0.00  0.00    -0.073 A 
ATOM      2  C3  UNL d   1       0.889  -1.213  -0.175  0.00  0.00    -0.002 A 
ATOM      3  C4  UNL d   1       0.510  -1.674   1.087  0.00  0.00     0.004 A 
ATOM      4  C5  UNL d   1      -0.573  -1.097   1.749  0.00  0.00    -0.004 A 
ATOM      5  C6  UNL d   1      -1.291  -0.055   1.153  0.00  0.00    -0.075 A 
ATOM      6  C7  UNL d   1      -2.457   0.578   1.853  0.00  0.00     0.076 C 
ATOM      7  C8  UNL d   1      -0.903   0.404  -0.113  0.00  0.00     0.001 A 
ENDROOT
BRANCH   1   8
ATOM      8  C1  UNL d   1       0.592   0.334  -2.147  0.00  0.00     0.053 C 
ATOM      9  C   UNL d   1       1.904  -0.277  -2.613  0.00  0.00     0.018 C 
ENDBRANCH   1   8
TORSDOF 1
ENDMDL
