MODEL 1
REMARK minimizedAffinity -3.93841267
REMARK minimizedRMSD -1
REMARK  1 active torsions:
REMARK  status: ('A' for Active; 'I' for Inactive)
REMARK    1  A    between atoms: C1_2  and  C2_3 
ROOT
ATOM      1  C2  UNL d   1       0.359  -0.227  -0.662  0.00  0.00    -0.073 A 
ATOM      2  C3  UNL d   1       0.198  -0.922  -1.867  0.00  0.00    -0.002 A 
ATOM      3  C4  UNL d   1       1.157  -0.818  -2.875  0.00  0.00     0.004 A 
ATOM      4  C5  UNL d   1       2.290  -0.026  -2.687  0.00  0.00    -0.004 A 
ATOM      5  C6  UNL d   1       2.475   0.667  -1.486  0.00  0.00    -0.075 A 
ATOM      6  C7  UNL d   1       3.686   1.525  -1.269  0.00  0.00     0.076 C 
ATOM      7  C8  UNL d   1       1.506   0.560  -0.480  0.00  0.00     0.001 A 
ENDROOT
BRANCH   1   8
ATOM      8  C1  UNL d   1      -0.671  -0.341   0.431  0.00  0.00     0.053 C 
ATOM      9  C   UNL d   1      -0.043  -0.277   1.815  0.00  0.00     0.018 C 
ENDBRANCH   1   8
TORSDOF 1
ENDMDL
