MODEL 1
REMARK minimizedAffinity -3.46743369
REMARK minimizedRMSD -1
REMARK  1 active torsions:
REMARK  status: ('A' for Active; 'I' for Inactive)
REMARK    1  A    between atoms: C1_2  and  C2_3 
ROOT
ATOM      1  C2  UNL d   1       0.069  -0.453   0.567  0.00  0.00    -0.073 A 
ATOM      2  C3  UNL d   1       0.202  -1.842   0.464  0.00  0.00    -0.002 A 
ATOM      3  C4  UNL d   1       1.141  -2.397  -0.407  0.00  0.00     0.004 A 
ATOM      4  C5  UNL d   1       1.959  -1.571  -1.176  0.00  0.00    -0.004 A 
ATOM      5  C6  UNL d   1       1.850  -0.180  -1.079  0.00  0.00    -0.075 A 
ATOM      6  C7  UNL d   1       2.721   0.722  -1.901  0.00  0.00     0.076 C 
ATOM      7  C8  UNL d   1       0.903   0.370  -0.204  0.00  0.00     0.001 A 
ENDROOT
BRANCH   1   8
ATOM      8  C1  UNL d   1      -0.939   0.152   1.510  0.00  0.00     0.053 C 
ATOM      9  C   UNL d   1      -2.356   0.054   0.969  0.00  0.00     0.018 C 
ENDBRANCH   1   8
TORSDOF 1
ENDMDL
