MODEL 1
REMARK minimizedAffinity -4.23910999
REMARK minimizedRMSD -1
REMARK  1 active torsions:
REMARK  status: ('A' for Active; 'I' for Inactive)
REMARK    1  A    between atoms: C1_2  and  C2_3 
ROOT
ATOM      1  C2  UNL d   1      -0.014  -0.104  -0.247  0.00  0.00    -0.073 A 
ATOM      2  C3  UNL d   1       0.709   1.005   0.205  0.00  0.00    -0.002 A 
ATOM      3  C4  UNL d   1       1.829   1.451  -0.498  0.00  0.00     0.004 A 
ATOM      4  C5  UNL d   1       2.232   0.798  -1.662  0.00  0.00    -0.004 A 
ATOM      5  C6  UNL d   1       1.515  -0.306  -2.137  0.00  0.00    -0.075 A 
ATOM      6  C7  UNL d   1       1.938  -1.021  -3.387  0.00  0.00     0.076 C 
ATOM      7  C8  UNL d   1       0.394  -0.749  -1.424  0.00  0.00     0.001 A 
ENDROOT
BRANCH   1   8
ATOM      8  C1  UNL d   1      -1.228  -0.586   0.506  0.00  0.00     0.053 C 
ATOM      9  C   UNL d   1      -1.758   0.468   1.465  0.00  0.00     0.018 C 
ENDBRANCH   1   8
TORSDOF 1
ENDMDL
