MODEL 1
REMARK minimizedAffinity -4.08939075
REMARK minimizedRMSD -1
REMARK  1 active torsions:
REMARK  status: ('A' for Active; 'I' for Inactive)
REMARK    1  A    between atoms: C1_2  and  C2_3 
ROOT
ATOM      1  C2  UNL d   1      -5.253   3.430  -5.491  0.00  0.00    -0.073 A 
ATOM      2  C3  UNL d   1      -5.947   4.634  -5.656  0.00  0.00    -0.002 A 
ATOM      3  C4  UNL d   1      -5.253   5.823  -5.883  0.00  0.00     0.004 A 
ATOM      4  C5  UNL d   1      -3.860   5.819  -5.956  0.00  0.00    -0.004 A 
ATOM      5  C6  UNL d   1      -3.149   4.624  -5.806  0.00  0.00    -0.075 A 
ATOM      6  C7  UNL d   1      -1.650   4.604  -5.879  0.00  0.00     0.076 C 
ATOM      7  C8  UNL d   1      -3.853   3.435  -5.575  0.00  0.00     0.001 A 
ENDROOT
BRANCH   1   8
ATOM      8  C1  UNL d   1      -5.998   2.143  -5.252  0.00  0.00     0.053 C 
ATOM      9  C   UNL d   1      -5.309   0.955  -5.904  0.00  0.00     0.018 C 
ENDBRANCH   1   8
TORSDOF 1
ENDMDL
