MODEL 1
REMARK minimizedAffinity -2.01929855
REMARK minimizedRMSD -1
REMARK  1 active torsions:
REMARK  status: ('A' for Active; 'I' for Inactive)
REMARK    1  A    between atoms: C1_2  and  C2_3 
ROOT
ATOM      1  C2  UNL d   1       2.088   0.674  -1.104  0.00  0.00    -0.073 A 
ATOM      2  C3  UNL d   1       0.879   0.779  -0.407  0.00  0.00    -0.002 A 
ATOM      3  C4  UNL d   1      -0.111  -0.192  -0.565  0.00  0.00     0.004 A 
ATOM      4  C5  UNL d   1       0.099  -1.278  -1.414  0.00  0.00    -0.004 A 
ATOM      5  C6  UNL d   1       1.306  -1.407  -2.109  0.00  0.00    -0.075 A 
ATOM      6  C7  UNL d   1       1.547  -2.569  -3.027  0.00  0.00     0.076 C 
ATOM      7  C8  UNL d   1       2.295  -0.427  -1.947  0.00  0.00     0.001 A 
ENDROOT
BRANCH   1   8
ATOM      8  C1  UNL d   1       3.163   1.716  -0.931  0.00  0.00     0.053 C 
ATOM      9  C   UNL d   1       4.483   1.105  -0.487  0.00  0.00     0.018 C 
ENDBRANCH   1   8
TORSDOF 1
ENDMDL
