MODEL 1
REMARK minimizedAffinity -4.51690292
REMARK minimizedRMSD -1
REMARK  1 active torsions:
REMARK  status: ('A' for Active; 'I' for Inactive)
REMARK    1  A    between atoms: C1_2  and  C2_3 
ROOT
ATOM      1  C2  UNL d   1      -2.977   2.334   2.812  0.00  0.00    -0.073 A 
ATOM      2  C3  UNL d   1      -4.237   2.046   2.274  0.00  0.00    -0.002 A 
ATOM      3  C4  UNL d   1      -4.494   0.795   1.711  0.00  0.00     0.004 A 
ATOM      4  C5  UNL d   1      -3.498  -0.182   1.687  0.00  0.00    -0.004 A 
ATOM      5  C6  UNL d   1      -2.237   0.083   2.230  0.00  0.00    -0.075 A 
ATOM      6  C7  UNL d   1      -1.154  -0.956   2.210  0.00  0.00     0.076 C 
ATOM      7  C8  UNL d   1      -1.986   1.343   2.791  0.00  0.00     0.001 A 
ENDROOT
BRANCH   1   8
ATOM      8  C1  UNL d   1      -2.697   3.681   3.426  0.00  0.00     0.053 C 
ATOM      9  C   UNL d   1      -1.886   3.566   4.706  0.00  0.00     0.018 C 
ENDBRANCH   1   8
TORSDOF 1
ENDMDL
