MODEL 1
REMARK minimizedAffinity -5.20933056
REMARK minimizedRMSD -1
REMARK  1 active torsions:
REMARK  status: ('A' for Active; 'I' for Inactive)
REMARK    1  A    between atoms: C1_2  and  C2_3 
ROOT
ATOM      1  C2  UNL d   1      -0.033  -0.408  -0.329  0.00  0.00    -0.073 A 
ATOM      2  C3  UNL d   1      -0.144  -1.787  -0.119  0.00  0.00    -0.002 A 
ATOM      3  C4  UNL d   1       0.615  -2.679  -0.877  0.00  0.00     0.004 A 
ATOM      4  C5  UNL d   1       1.497  -2.203  -1.847  0.00  0.00    -0.004 A 
ATOM      5  C6  UNL d   1       1.631  -0.828  -2.064  0.00  0.00    -0.075 A 
ATOM      6  C7  UNL d   1       2.573  -0.299  -3.105  0.00  0.00     0.076 C 
ATOM      7  C8  UNL d   1       0.863   0.062  -1.300  0.00  0.00     0.001 A 
ENDROOT
BRANCH   1   8
ATOM      8  C1  UNL d   1      -0.846   0.560   0.491  0.00  0.00     0.053 C 
ATOM      9  C   UNL d   1      -1.290  -0.047   1.813  0.00  0.00     0.018 C 
ENDBRANCH   1   8
TORSDOF 1
ENDMDL
