MODEL 1
REMARK minimizedAffinity 0.189463392
REMARK minimizedRMSD -1
REMARK  0 active torsions:
REMARK  status: ('A' for Active; 'I' for Inactive)
ROOT
ATOM      1  C   UNL d   1      -1.111  -0.721   2.613  0.00  0.00     0.023 A 
ATOM      2  C1  UNL d   1      -1.473  -0.261   1.347  0.00  0.00     0.003 A 
ATOM      3  C2  UNL d   1      -0.530  -0.231   0.317  0.00  0.00     0.048 A 
ATOM      4  C3  UNL d   1       0.773  -0.663   0.561  0.00  0.00     0.023 A 
ATOM      5  C4  UNL d   1       1.140  -1.125   1.826  0.00  0.00     0.048 A 
ATOM      6  C5  UNL d   1       0.193  -1.152   2.852  0.00  0.00     0.003 A 
ATOM      7  I   UNL d   1       2.179  -0.619  -0.969  0.00  0.00    -0.146 I 
ENDROOT
TORSDOF 0
ENDMDL
