MODEL 1
REMARK minimizedAffinity 2.22205663
REMARK minimizedRMSD -1
REMARK  0 active torsions:
REMARK  status: ('A' for Active; 'I' for Inactive)
ROOT
ATOM      1  C   UNL d   1       2.787  -0.152   1.297  0.00  0.00     0.023 A 
ATOM      2  C1  UNL d   1       2.567  -0.124   2.675  0.00  0.00     0.003 A 
ATOM      3  C2  UNL d   1       1.427  -0.724   3.213  0.00  0.00     0.048 A 
ATOM      4  C3  UNL d   1       0.511  -1.351   2.369  0.00  0.00     0.023 A 
ATOM      5  C4  UNL d   1       0.728  -1.382   0.990  0.00  0.00     0.048 A 
ATOM      6  C5  UNL d   1       1.869  -0.780   0.456  0.00  0.00     0.003 A 
ATOM      7  I   UNL d   1      -1.186  -2.244   3.168  0.00  0.00    -0.146 I 
ENDROOT
TORSDOF 0
ENDMDL
