MODEL 1
REMARK minimizedAffinity -3.25734615
REMARK minimizedRMSD -1
REMARK  0 active torsions:
REMARK  status: ('A' for Active; 'I' for Inactive)
ROOT
ATOM      1  C   UNL d   1       1.944  -1.222   0.087  0.00  0.00     0.023 A 
ATOM      2  C1  UNL d   1       0.997  -0.620  -0.743  0.00  0.00     0.003 A 
ATOM      3  C2  UNL d   1      -0.196  -0.133  -0.205  0.00  0.00     0.048 A 
ATOM      4  C3  UNL d   1      -0.436  -0.250   1.164  0.00  0.00     0.023 A 
ATOM      5  C4  UNL d   1       0.509  -0.849   1.998  0.00  0.00     0.048 A 
ATOM      6  C5  UNL d   1       1.700  -1.336   1.456  0.00  0.00     0.003 A 
ATOM      7  I   UNL d   1      -2.210   0.475   1.967  0.00  0.00    -0.146 I 
ENDROOT
TORSDOF 0
ENDMDL
