MODEL 1
REMARK minimizedAffinity -1.39564002
REMARK minimizedRMSD -1
REMARK  0 active torsions:
REMARK  status: ('A' for Active; 'I' for Inactive)
ROOT
ATOM      1  C   UNL d   1      -1.306   3.626  -2.949  0.00  0.00     0.023 A 
ATOM      2  C1  UNL d   1       0.063   3.420  -3.121  0.00  0.00     0.003 A 
ATOM      3  C2  UNL d   1       0.668   2.272  -2.604  0.00  0.00     0.048 A 
ATOM      4  C3  UNL d   1      -0.102   1.334  -1.918  0.00  0.00     0.023 A 
ATOM      5  C4  UNL d   1      -1.473   1.535  -1.745  0.00  0.00     0.048 A 
ATOM      6  C5  UNL d   1      -2.073   2.684  -2.262  0.00  0.00     0.003 A 
ATOM      7  I   UNL d   1       0.796  -0.375  -1.149  0.00  0.00    -0.146 I 
ENDROOT
TORSDOF 0
ENDMDL
