MODEL 1
REMARK minimizedAffinity -2.73036218
REMARK minimizedRMSD -1
REMARK  0 active torsions:
REMARK  status: ('A' for Active; 'I' for Inactive)
ROOT
ATOM      1  C   UNL d   1       0.434  -1.107   1.196  0.00  0.00     0.023 A 
ATOM      2  C1  UNL d   1      -0.515  -0.104   1.390  0.00  0.00     0.003 A 
ATOM      3  C2  UNL d   1      -0.755   0.836   0.386  0.00  0.00     0.048 A 
ATOM      4  C3  UNL d   1      -0.042   0.767  -0.810  0.00  0.00     0.023 A 
ATOM      5  C4  UNL d   1       0.908  -0.235  -1.010  0.00  0.00     0.048 A 
ATOM      6  C5  UNL d   1       1.145  -1.173  -0.003  0.00  0.00     0.003 A 
ATOM      7  I   UNL d   1      -0.397   2.166  -2.306  0.00  0.00    -0.146 I 
ENDROOT
TORSDOF 0
ENDMDL
