MODEL 1
REMARK minimizedAffinity -3.50327253
REMARK minimizedRMSD -1
REMARK  0 active torsions:
REMARK  status: ('A' for Active; 'I' for Inactive)
ROOT
ATOM      1  C   UNL d   1      -1.361  -0.474   1.115  0.00  0.00     0.023 A 
ATOM      2  C1  UNL d   1      -2.423   0.172   0.482  0.00  0.00     0.003 A 
ATOM      3  C2  UNL d   1      -2.182   1.012  -0.607  0.00  0.00     0.048 A 
ATOM      4  C3  UNL d   1      -0.877   1.201  -1.059  0.00  0.00     0.023 A 
ATOM      5  C4  UNL d   1       0.189   0.555  -0.430  0.00  0.00     0.048 A 
ATOM      6  C5  UNL d   1      -0.056  -0.283   0.659  0.00  0.00     0.003 A 
ATOM      7  I   UNL d   1      -0.516   2.450  -2.681  0.00  0.00    -0.146 I 
ENDROOT
TORSDOF 0
ENDMDL
