MODEL 1
REMARK minimizedAffinity 11.4788904
REMARK minimizedRMSD -1
REMARK  3 active torsions:
REMARK  status: ('A' for Active; 'I' for Inactive)
REMARK    1  A    between atoms: C3'_2  and  C2'_3 
REMARK    2  A    between atoms: C2'_3  and  C1'_4 
REMARK    3  A    between atoms: C1'_4  and  C1_5 
ROOT
ATOM      1  C1  N4B d   1      -4.901   4.824   1.392  0.00  0.00    -0.075 A 
ATOM      2  C2  N4B d   1      -4.308   3.619   0.955  0.00  0.00     0.002 A 
ATOM      3  C3  N4B d   1      -3.398   3.635  -0.074  0.00  0.00     0.002 A 
ATOM      4  C4  N4B d   1      -3.083   4.836  -0.691  0.00  0.00    -0.004 A 
ATOM      5  C5  N4B d   1      -3.642   5.999  -0.247  0.00  0.00     0.002 A 
ATOM      6  C6  N4B d   1      -4.554   5.998   0.789  0.00  0.00     0.002 A 
ENDROOT
BRANCH   1   7
ATOM      7  C1' N4B d   1      -5.965   4.845   2.455  0.00  0.00     0.057 C 
BRANCH   7   8
ATOM      8  C2' N4B d   1      -5.677   5.985   3.428  0.00  0.00     0.009 C 
BRANCH   8   9
ATOM      9  C3' N4B d   1      -5.976   5.595   4.865  0.00  0.00     0.004 C 
ATOM     10  C4' N4B d   1      -4.885   5.992   5.814  0.00  0.00     0.003 C 
ENDBRANCH   8   9
ENDBRANCH   7   8
ENDBRANCH   1   7
TORSDOF 3
ENDMDL
