MODEL 1
REMARK minimizedAffinity 15.2448101
REMARK minimizedRMSD -1
REMARK  3 active torsions:
REMARK  status: ('A' for Active; 'I' for Inactive)
REMARK    1  A    between atoms: C3'_2  and  C2'_3 
REMARK    2  A    between atoms: C2'_3  and  C1'_4 
REMARK    3  A    between atoms: C1'_4  and  C1_5 
ROOT
ATOM      1  C1  N4B d   1       3.185   0.087   0.617  0.00  0.00    -0.075 A 
ATOM      2  C2  N4B d   1       4.135   1.113   0.417  0.00  0.00     0.002 A 
ATOM      3  C3  N4B d   1       4.325   1.637  -0.838  0.00  0.00     0.002 A 
ATOM      4  C4  N4B d   1       3.594   1.140  -1.907  0.00  0.00    -0.004 A 
ATOM      5  C5  N4B d   1       2.660   0.167  -1.700  0.00  0.00     0.002 A 
ATOM      6  C6  N4B d   1       2.456  -0.366  -0.444  0.00  0.00     0.002 A 
ENDROOT
BRANCH   1   7
ATOM      7  C1' N4B d   1       3.003  -0.577   1.955  0.00  0.00     0.057 C 
BRANCH   7   8
ATOM      8  C2' N4B d   1       4.276  -1.336   2.315  0.00  0.00     0.009 C 
BRANCH   8   9
ATOM      9  C3' N4B d   1       4.520  -1.359   3.814  0.00  0.00     0.004 C 
ATOM     10  C4' N4B d   1       5.977  -1.411   4.165  0.00  0.00     0.003 C 
ENDBRANCH   8   9
ENDBRANCH   7   8
ENDBRANCH   1   7
TORSDOF 3
ENDMDL
