MODEL 1
REMARK minimizedAffinity 2.88966298
REMARK minimizedRMSD -1
REMARK  3 active torsions:
REMARK  status: ('A' for Active; 'I' for Inactive)
REMARK    1  A    between atoms: C3'_2  and  C2'_3 
REMARK    2  A    between atoms: C2'_3  and  C1'_4 
REMARK    3  A    between atoms: C1'_4  and  C1_5 
ROOT
ATOM      1  C1  N4B d   1       3.564   0.490  -1.703  0.00  0.00    -0.075 A 
ATOM      2  C2  N4B d   1       2.910   0.172  -0.493  0.00  0.00     0.002 A 
ATOM      3  C3  N4B d   1       3.289   0.788   0.675  0.00  0.00     0.002 A 
ATOM      4  C4  N4B d   1       4.328   1.706   0.660  0.00  0.00    -0.004 A 
ATOM      5  C5  N4B d   1       4.938   2.026  -0.518  0.00  0.00     0.002 A 
ATOM      6  C6  N4B d   1       4.565   1.418  -1.699  0.00  0.00     0.002 A 
ENDROOT
BRANCH   1   7
ATOM      7  C1' N4B d   1       3.243  -0.220  -2.990  0.00  0.00     0.057 C 
BRANCH   7   8
ATOM      8  C2' N4B d   1       4.140   0.321  -4.098  0.00  0.00     0.009 C 
BRANCH   8   9
ATOM      9  C3' N4B d   1       4.932  -0.784  -4.778  0.00  0.00     0.004 C 
ATOM     10  C4' N4B d   1       5.992  -0.256  -5.698  0.00  0.00     0.003 C 
ENDBRANCH   8   9
ENDBRANCH   7   8
ENDBRANCH   1   7
TORSDOF 3
ENDMDL
