MODEL 1
REMARK minimizedAffinity 11.9119978
REMARK minimizedRMSD -1
REMARK  3 active torsions:
REMARK  status: ('A' for Active; 'I' for Inactive)
REMARK    1  A    between atoms: C3'_2  and  C2'_3 
REMARK    2  A    between atoms: C2'_3  and  C1'_4 
REMARK    3  A    between atoms: C1'_4  and  C1_5 
ROOT
ATOM      1  C1  N4B d   1       3.515  -0.541   3.521  0.00  0.00    -0.075 A 
ATOM      2  C2  N4B d   1       3.168   0.009   4.774  0.00  0.00     0.002 A 
ATOM      3  C3  N4B d   1       3.999  -0.165   5.854  0.00  0.00     0.002 A 
ATOM      4  C4  N4B d   1       5.167  -0.899   5.710  0.00  0.00    -0.004 A 
ATOM      5  C5  N4B d   1       5.506  -1.406   4.489  0.00  0.00     0.002 A 
ATOM      6  C6  N4B d   1       4.683  -1.235   3.395  0.00  0.00     0.002 A 
ENDROOT
BRANCH   1   7
ATOM      7  C1' N4B d   1       2.597  -0.450   2.333  0.00  0.00     0.057 C 
BRANCH   7   8
ATOM      8  C2' N4B d   1       3.074   0.674   1.417  0.00  0.00     0.009 C 
BRANCH   8   9
ATOM      9  C3' N4B d   1       2.898   0.324  -0.051  0.00  0.00     0.004 C 
ATOM     10  C4' N4B d   1       1.492   0.527  -0.532  0.00  0.00     0.003 C 
ENDBRANCH   8   9
ENDBRANCH   7   8
ENDBRANCH   1   7
TORSDOF 3
ENDMDL
