MODEL 1
REMARK minimizedAffinity 10.4872208
REMARK minimizedRMSD -1
REMARK  3 active torsions:
REMARK  status: ('A' for Active; 'I' for Inactive)
REMARK    1  A    between atoms: C3'_2  and  C2'_3 
REMARK    2  A    between atoms: C2'_3  and  C1'_4 
REMARK    3  A    between atoms: C1'_4  and  C1_5 
ROOT
ATOM      1  C1  N4B d   1       3.806   1.226  -0.915  0.00  0.00    -0.075 A 
ATOM      2  C2  N4B d   1       4.671   1.884  -0.013  0.00  0.00     0.002 A 
ATOM      3  C3  N4B d   1       5.753   2.584  -0.487  0.00  0.00     0.002 A 
ATOM      4  C4  N4B d   1       6.000   2.625  -1.851  0.00  0.00    -0.004 A 
ATOM      5  C5  N4B d   1       5.145   2.009  -2.717  0.00  0.00     0.002 A 
ATOM      6  C6  N4B d   1       4.051   1.305  -2.255  0.00  0.00     0.002 A 
ENDROOT
BRANCH   1   7
ATOM      7  C1' N4B d   1       2.659   0.377  -0.439  0.00  0.00     0.057 C 
BRANCH   7   8
ATOM      8  C2' N4B d   1       2.683   0.312   1.086  0.00  0.00     0.009 C 
BRANCH   8   9
ATOM      9  C3' N4B d   1       2.960  -1.094   1.590  0.00  0.00     0.004 C 
ATOM     10  C4' N4B d   1       3.971  -1.126   2.697  0.00  0.00     0.003 C 
ENDBRANCH   8   9
ENDBRANCH   7   8
ENDBRANCH   1   7
TORSDOF 3
ENDMDL
