MODEL 1
REMARK minimizedAffinity 7.59888601
REMARK minimizedRMSD -1
REMARK  3 active torsions:
REMARK  status: ('A' for Active; 'I' for Inactive)
REMARK    1  A    between atoms: C3'_2  and  C2'_3 
REMARK    2  A    between atoms: C2'_3  and  C1'_4 
REMARK    3  A    between atoms: C1'_4  and  C1_5 
ROOT
ATOM      1  C1  N4B d   1       3.858   1.270  -0.396  0.00  0.00    -0.075 A 
ATOM      2  C2  N4B d   1       4.757   1.869   0.514  0.00  0.00     0.002 A 
ATOM      3  C3  N4B d   1       5.813   2.613   0.046  0.00  0.00     0.002 A 
ATOM      4  C4  N4B d   1       6.000   2.755  -1.321  0.00  0.00    -0.004 A 
ATOM      5  C5  N4B d   1       5.113   2.194  -2.192  0.00  0.00     0.002 A 
ATOM      6  C6  N4B d   1       4.045   1.447  -1.736  0.00  0.00     0.002 A 
ENDROOT
BRANCH   1   7
ATOM      7  C1' N4B d   1       2.739   0.377   0.065  0.00  0.00     0.057 C 
BRANCH   7   8
ATOM      8  C2' N4B d   1       2.756   0.299   1.589  0.00  0.00     0.009 C 
BRANCH   8   9
ATOM      9  C3' N4B d   1       3.088  -1.099   2.083  0.00  0.00     0.004 C 
ATOM     10  C4' N4B d   1       4.295  -1.130   2.972  0.00  0.00     0.003 C 
ENDBRANCH   8   9
ENDBRANCH   7   8
ENDBRANCH   1   7
TORSDOF 3
ENDMDL
