MODEL 1
REMARK minimizedAffinity -4.05240202
REMARK minimizedRMSD -1
REMARK  1 active torsions:
REMARK  status: ('A' for Active; 'I' for Inactive)
REMARK    1  A    between atoms: C1_2  and  C2_3 
ROOT
ATOM      1  C2  UNL d   1      -0.259   0.217   1.153  0.00  0.00    -0.073 A 
ATOM      2  C3  UNL d   1      -1.555   0.318   0.634  0.00  0.00    -0.002 A 
ATOM      3  C4  UNL d   1      -1.755   0.702  -0.693  0.00  0.00     0.004 A 
ATOM      4  C5  UNL d   1      -0.663   0.982  -1.515  0.00  0.00    -0.004 A 
ATOM      5  C6  UNL d   1       0.640   0.876  -1.017  0.00  0.00    -0.075 A 
ATOM      6  C7  UNL d   1       1.825   1.177  -1.888  0.00  0.00     0.076 C 
ATOM      7  C8  UNL d   1       0.832   0.492   0.317  0.00  0.00     0.001 A 
ENDROOT
BRANCH   1   8
ATOM      8  C1  UNL d   1      -0.038  -0.203   2.583  0.00  0.00     0.053 C 
ATOM      9  C   UNL d   1       0.067   0.990   3.519  0.00  0.00     0.018 C 
ENDBRANCH   1   8
TORSDOF 1
ENDMDL
