MODEL 1
REMARK minimizedAffinity -3.66308713
REMARK minimizedRMSD -1
REMARK  1 active torsions:
REMARK  status: ('A' for Active; 'I' for Inactive)
REMARK    1  A    between atoms: C1_2  and  C2_3 
ROOT
ATOM      1  C2  UNL d   1      -0.167  -0.548   0.235  0.00  0.00    -0.073 A 
ATOM      2  C3  UNL d   1      -1.203   0.318  -0.132  0.00  0.00    -0.002 A 
ATOM      3  C4  UNL d   1      -1.404   0.647  -1.473  0.00  0.00     0.004 A 
ATOM      4  C5  UNL d   1      -0.578   0.109  -2.460  0.00  0.00    -0.004 A 
ATOM      5  C6  UNL d   1       0.455  -0.769  -2.114  0.00  0.00    -0.075 A 
ATOM      6  C7  UNL d   1       1.354  -1.355  -3.163  0.00  0.00     0.076 C 
ATOM      7  C8  UNL d   1       0.652  -1.092  -0.764  0.00  0.00     0.001 A 
ENDROOT
BRANCH   1   8
ATOM      8  C1  UNL d   1       0.050  -0.912   1.682  0.00  0.00     0.053 C 
ATOM      9  C   UNL d   1       0.411   0.300   2.526  0.00  0.00     0.018 C 
ENDBRANCH   1   8
TORSDOF 1
ENDMDL
