MODEL 1
REMARK minimizedAffinity -3.74190569
REMARK minimizedRMSD -1
REMARK  1 active torsions:
REMARK  status: ('A' for Active; 'I' for Inactive)
REMARK    1  A    between atoms: C1_2  and  C2_3 
ROOT
ATOM      1  C2  UNL d   1       2.816  -0.055  -3.714  0.00  0.00    -0.073 A 
ATOM      2  C3  UNL d   1       1.803   0.601  -3.006  0.00  0.00    -0.002 A 
ATOM      3  C4  UNL d   1       0.641  -0.081  -2.643  0.00  0.00     0.004 A 
ATOM      4  C5  UNL d   1       0.483  -1.426  -2.977  0.00  0.00    -0.004 A 
ATOM      5  C6  UNL d   1       1.490  -2.102  -3.675  0.00  0.00    -0.075 A 
ATOM      6  C7  UNL d   1       1.335  -3.548  -4.044  0.00  0.00     0.076 C 
ATOM      7  C8  UNL d   1       2.652  -1.409  -4.038  0.00  0.00     0.001 A 
ENDROOT
BRANCH   1   8
ATOM      8  C1  UNL d   1       4.075   0.677  -4.103  0.00  0.00     0.053 C 
ATOM      9  C   UNL d   1       3.788   2.090  -4.584  0.00  0.00     0.018 C 
ENDBRANCH   1   8
TORSDOF 1
ENDMDL
