MODEL 1
REMARK minimizedAffinity -4.10050964
REMARK minimizedRMSD -1
REMARK  1 active torsions:
REMARK  status: ('A' for Active; 'I' for Inactive)
REMARK    1  A    between atoms: C1_2  and  C2_3 
ROOT
ATOM      1  C2  UNL d   1      -0.869   0.002   0.916  0.00  0.00    -0.073 A 
ATOM      2  C3  UNL d   1      -2.145   0.314   0.432  0.00  0.00    -0.002 A 
ATOM      3  C4  UNL d   1      -2.310   0.762  -0.879  0.00  0.00     0.004 A 
ATOM      4  C5  UNL d   1      -1.206   0.897  -1.720  0.00  0.00    -0.004 A 
ATOM      5  C6  UNL d   1       0.075   0.579  -1.258  0.00  0.00    -0.075 A 
ATOM      6  C7  UNL d   1       1.274   0.720  -2.150  0.00  0.00     0.076 C 
ATOM      7  C8  UNL d   1       0.234   0.132   0.060  0.00  0.00     0.001 A 
ENDROOT
BRANCH   1   8
ATOM      8  C1  UNL d   1      -0.686  -0.488   2.329  0.00  0.00     0.053 C 
ATOM      9  C   UNL d   1      -0.418   0.652   3.298  0.00  0.00     0.018 C 
ENDBRANCH   1   8
TORSDOF 1
ENDMDL
