MODEL 1
REMARK minimizedAffinity -4.22351837
REMARK minimizedRMSD -1
REMARK  1 active torsions:
REMARK  status: ('A' for Active; 'I' for Inactive)
REMARK    1  A    between atoms: C1_2  and  C2_3 
ROOT
ATOM      1  C2  UNL d   1       0.462   1.135  -1.269  0.00  0.00    -0.073 A 
ATOM      2  C3  UNL d   1      -0.854   1.302  -1.714  0.00  0.00    -0.002 A 
ATOM      3  C4  UNL d   1      -1.917   1.248  -0.811  0.00  0.00     0.004 A 
ATOM      4  C5  UNL d   1      -1.674   1.034   0.546  0.00  0.00    -0.004 A 
ATOM      5  C6  UNL d   1      -0.365   0.876   1.012  0.00  0.00    -0.075 A 
ATOM      6  C7  UNL d   1      -0.087   0.643   2.468  0.00  0.00     0.076 C 
ATOM      7  C8  UNL d   1       0.696   0.930   0.098  0.00  0.00     0.001 A 
ENDROOT
BRANCH   1   8
ATOM      8  C1  UNL d   1       1.612   1.200  -2.240  0.00  0.00     0.053 C 
ATOM      9  C   UNL d   1       1.632   0.005  -3.180  0.00  0.00     0.018 C 
ENDBRANCH   1   8
TORSDOF 1
ENDMDL
