MODEL 1
REMARK minimizedAffinity 3.71452332
REMARK minimizedRMSD -1
REMARK  1 active torsions:
REMARK  status: ('A' for Active; 'I' for Inactive)
REMARK    1  A    between atoms: C1_2  and  C2_3 
ROOT
ATOM      1  C2  UNL d   1      -3.684   1.052   2.382  0.00  0.00    -0.073 A 
ATOM      2  C3  UNL d   1      -4.307  -0.201   2.403  0.00  0.00    -0.002 A 
ATOM      3  C4  UNL d   1      -4.385  -0.968   1.240  0.00  0.00     0.004 A 
ATOM      4  C5  UNL d   1      -3.837  -0.494   0.048  0.00  0.00    -0.004 A 
ATOM      5  C6  UNL d   1      -3.200   0.750   0.010  0.00  0.00    -0.075 A 
ATOM      6  C7  UNL d   1      -2.607   1.275  -1.265  0.00  0.00     0.076 C 
ATOM      7  C8  UNL d   1      -3.128   1.516   1.181  0.00  0.00     0.001 A 
ENDROOT
BRANCH   1   8
ATOM      8  C1  UNL d   1      -3.591   1.882   3.637  0.00  0.00     0.053 C 
ATOM      9  C   UNL d   1      -3.152   3.308   3.346  0.00  0.00     0.018 C 
ENDBRANCH   1   8
TORSDOF 1
ENDMDL
