MODEL 1
REMARK minimizedAffinity -2.95955706
REMARK minimizedRMSD -1
REMARK  1 active torsions:
REMARK  status: ('A' for Active; 'I' for Inactive)
REMARK    1  A    between atoms: C1_2  and  C2_3 
ROOT
ATOM      1  C2  UNL d   1       0.046   0.084  -0.101  0.00  0.00    -0.073 A 
ATOM      2  C3  UNL d   1       1.285   0.610   0.280  0.00  0.00    -0.002 A 
ATOM      3  C4  UNL d   1       1.656   0.639   1.625  0.00  0.00     0.004 A 
ATOM      4  C5  UNL d   1       0.795   0.136   2.601  0.00  0.00    -0.004 A 
ATOM      5  C6  UNL d   1      -0.443  -0.404   2.239  0.00  0.00    -0.075 A 
ATOM      6  C7  UNL d   1      -1.381  -0.947   3.277  0.00  0.00     0.076 C 
ATOM      7  C8  UNL d   1      -0.809  -0.427   0.886  0.00  0.00     0.001 A 
ENDROOT
BRANCH   1   8
ATOM      8  C1  UNL d   1      -0.355   0.045  -1.553  0.00  0.00     0.053 C 
ATOM      9  C   UNL d   1       0.599  -0.796  -2.386  0.00  0.00     0.018 C 
ENDBRANCH   1   8
TORSDOF 1
ENDMDL
