MODEL 1
REMARK minimizedAffinity -5.39416361
REMARK minimizedRMSD -1
REMARK  1 active torsions:
REMARK  status: ('A' for Active; 'I' for Inactive)
REMARK    1  A    between atoms: C1_2  and  C2_3 
ROOT
ATOM      1  C2  UNL d   1      -0.503   0.015   0.555  0.00  0.00    -0.073 A 
ATOM      2  C3  UNL d   1      -1.336  -0.321   1.628  0.00  0.00    -0.002 A 
ATOM      3  C4  UNL d   1      -0.810  -0.454   2.914  0.00  0.00     0.004 A 
ATOM      4  C5  UNL d   1       0.550  -0.246   3.141  0.00  0.00    -0.004 A 
ATOM      5  C6  UNL d   1       1.397   0.103   2.084  0.00  0.00    -0.075 A 
ATOM      6  C7  UNL d   1       2.863   0.329   2.312  0.00  0.00     0.076 C 
ATOM      7  C8  UNL d   1       0.862   0.232   0.795  0.00  0.00     0.001 A 
ENDROOT
BRANCH   1   8
ATOM      8  C1  UNL d   1      -1.067   0.166  -0.834  0.00  0.00     0.053 C 
ATOM      9  C   UNL d   1      -2.188   1.192  -0.885  0.00  0.00     0.018 C 
ENDBRANCH   1   8
TORSDOF 1
ENDMDL
