MODEL 1
REMARK minimizedAffinity -4.32913876
REMARK minimizedRMSD -1
REMARK  1 active torsions:
REMARK  status: ('A' for Active; 'I' for Inactive)
REMARK    1  A    between atoms: C1_2  and  C2_3 
ROOT
ATOM      1  C2  UNL d   1       0.783  -0.093  -0.218  0.00  0.00    -0.073 A 
ATOM      2  C3  UNL d   1       1.976   0.424   0.301  0.00  0.00    -0.002 A 
ATOM      3  C4  UNL d   1       2.167   0.506   1.681  0.00  0.00     0.004 A 
ATOM      4  C5  UNL d   1       1.172   0.067   2.555  0.00  0.00    -0.004 A 
ATOM      5  C6  UNL d   1      -0.022  -0.463   2.055  0.00  0.00    -0.075 A 
ATOM      6  C7  UNL d   1      -1.103  -0.938   2.982  0.00  0.00     0.076 C 
ATOM      7  C8  UNL d   1      -0.207  -0.540   0.668  0.00  0.00     0.001 A 
ENDROOT
BRANCH   1   8
ATOM      8  C1  UNL d   1       0.575  -0.190  -1.707  0.00  0.00     0.053 C 
ATOM      9  C   UNL d   1       0.897  -1.578  -2.238  0.00  0.00     0.018 C 
ENDBRANCH   1   8
TORSDOF 1
ENDMDL
