MODEL 1
REMARK minimizedAffinity -5.01096153
REMARK minimizedRMSD -1
REMARK  1 active torsions:
REMARK  status: ('A' for Active; 'I' for Inactive)
REMARK    1  A    between atoms: C1_2  and  C2_3 
ROOT
ATOM      1  C2  UNL d   1       1.774   0.572  -2.718  0.00  0.00    -0.073 A 
ATOM      2  C3  UNL d   1       1.866  -0.665  -3.366  0.00  0.00    -0.002 A 
ATOM      3  C4  UNL d   1       2.848  -0.884  -4.332  0.00  0.00     0.004 A 
ATOM      4  C5  UNL d   1       3.752   0.128  -4.656  0.00  0.00    -0.004 A 
ATOM      5  C6  UNL d   1       3.684   1.367  -4.011  0.00  0.00    -0.075 A 
ATOM      6  C7  UNL d   1       4.648   2.467  -4.350  0.00  0.00     0.076 C 
ATOM      7  C8  UNL d   1       2.693   1.580  -3.044  0.00  0.00     0.001 A 
ENDROOT
BRANCH   1   8
ATOM      8  C1  UNL d   1       0.719   0.811  -1.670  0.00  0.00     0.053 C 
ATOM      9  C   UNL d   1      -0.578   0.085  -1.990  0.00  0.00     0.018 C 
ENDBRANCH   1   8
TORSDOF 1
ENDMDL
