MODEL 1
REMARK minimizedAffinity -4.83852673
REMARK minimizedRMSD -1
REMARK  1 active torsions:
REMARK  status: ('A' for Active; 'I' for Inactive)
REMARK    1  A    between atoms: C1_2  and  C2_3 
ROOT
ATOM      1  C2  UNL d   1       0.899   0.410   1.571  0.00  0.00    -0.073 A 
ATOM      2  C3  UNL d   1       0.523  -0.372   0.472  0.00  0.00    -0.002 A 
ATOM      3  C4  UNL d   1      -0.561   0.002  -0.322  0.00  0.00     0.004 A 
ATOM      4  C5  UNL d   1      -1.276   1.164  -0.031  0.00  0.00    -0.004 A 
ATOM      5  C6  UNL d   1      -0.909   1.965   1.055  0.00  0.00    -0.075 A 
ATOM      6  C7  UNL d   1      -1.669   3.217   1.382  0.00  0.00     0.076 C 
ATOM      7  C8  UNL d   1       0.179   1.581   1.849  0.00  0.00     0.001 A 
ENDROOT
BRANCH   1   8
ATOM      8  C1  UNL d   1       2.073   0.013   2.427  0.00  0.00     0.053 C 
ATOM      9  C   UNL d   1       3.294  -0.339   1.593  0.00  0.00     0.018 C 
ENDBRANCH   1   8
TORSDOF 1
ENDMDL
