MODEL 1
REMARK minimizedAffinity -1.84739697
REMARK minimizedRMSD -1
REMARK  1 active torsions:
REMARK  status: ('A' for Active; 'I' for Inactive)
REMARK    1  A    between atoms: C1_2  and  C2_3 
ROOT
ATOM      1  C2  UNL d   1      -0.008  -0.102  -0.520  0.00  0.00    -0.073 A 
ATOM      2  C3  UNL d   1      -0.053   0.586  -1.738  0.00  0.00    -0.002 A 
ATOM      3  C4  UNL d   1      -0.356   1.948  -1.767  0.00  0.00     0.004 A 
ATOM      4  C5  UNL d   1      -0.609   2.636  -0.581  0.00  0.00    -0.004 A 
ATOM      5  C6  UNL d   1      -0.556   1.969   0.647  0.00  0.00    -0.075 A 
ATOM      6  C7  UNL d   1      -0.828   2.695   1.932  0.00  0.00     0.076 C 
ATOM      7  C8  UNL d   1      -0.255   0.601   0.668  0.00  0.00     0.001 A 
ENDROOT
BRANCH   1   8
ATOM      8  C1  UNL d   1       0.325  -1.572  -0.482  0.00  0.00     0.053 C 
ATOM      9  C   UNL d   1      -0.406  -2.349  -1.565  0.00  0.00     0.018 C 
ENDBRANCH   1   8
TORSDOF 1
ENDMDL
