MODEL 1
REMARK minimizedAffinity -4.18608713
REMARK minimizedRMSD -1
REMARK  1 active torsions:
REMARK  status: ('A' for Active; 'I' for Inactive)
REMARK    1  A    between atoms: C1_2  and  C2_3 
ROOT
ATOM      1  C2  UNL d   1       1.014   0.130   0.716  0.00  0.00    -0.073 A 
ATOM      2  C3  UNL d   1       1.080   0.097  -0.681  0.00  0.00    -0.002 A 
ATOM      3  C4  UNL d   1       0.198   0.861  -1.447  0.00  0.00     0.004 A 
ATOM      4  C5  UNL d   1      -0.752   1.671  -0.824  0.00  0.00    -0.004 A 
ATOM      5  C6  UNL d   1      -0.825   1.727   0.571  0.00  0.00    -0.075 A 
ATOM      6  C7  UNL d   1      -1.843   2.591   1.257  0.00  0.00     0.076 C 
ATOM      7  C8  UNL d   1       0.062   0.954   1.333  0.00  0.00     0.001 A 
ENDROOT
BRANCH   1   8
ATOM      8  C1  UNL d   1       1.968  -0.688   1.547  0.00  0.00     0.053 C 
ATOM      9  C   UNL d   1       3.205  -1.093   0.762  0.00  0.00     0.018 C 
ENDBRANCH   1   8
TORSDOF 1
ENDMDL
