MODEL 1
REMARK minimizedAffinity -0.614185154
REMARK minimizedRMSD -1
REMARK  1 active torsions:
REMARK  status: ('A' for Active; 'I' for Inactive)
REMARK    1  A    between atoms: C1_2  and  C2_3 
ROOT
ATOM      1  C2  UNL d   1      -0.140   0.998   0.228  0.00  0.00    -0.073 A 
ATOM      2  C3  UNL d   1       0.702   0.571   1.261  0.00  0.00    -0.002 A 
ATOM      3  C4  UNL d   1       0.668   1.203   2.505  0.00  0.00     0.004 A 
ATOM      4  C5  UNL d   1      -0.211   2.262   2.730  0.00  0.00    -0.004 A 
ATOM      5  C6  UNL d   1      -1.068   2.696   1.714  0.00  0.00    -0.075 A 
ATOM      6  C7  UNL d   1      -2.018   3.835   1.940  0.00  0.00     0.076 C 
ATOM      7  C8  UNL d   1      -1.027   2.057   0.467  0.00  0.00     0.001 A 
ENDROOT
BRANCH   1   8
ATOM      8  C1  UNL d   1      -0.112   0.314  -1.115  0.00  0.00     0.053 C 
ATOM      9  C   UNL d   1       0.095   1.301  -2.253  0.00  0.00     0.018 C 
ENDBRANCH   1   8
TORSDOF 1
ENDMDL
