MODEL 1
REMARK minimizedAffinity -4.65225601
REMARK minimizedRMSD -1
REMARK  1 active torsions:
REMARK  status: ('A' for Active; 'I' for Inactive)
REMARK    1  A    between atoms: N_2  and  C1_3 
ROOT
ATOM      1  C1  UNL d   1       0.302   0.001   0.964  0.00  0.00     0.143 A 
ATOM      2  C2  UNL d   1       1.426   0.209   1.771  0.00  0.00    -0.057 A 
ATOM      3  C3  UNL d   1       1.308   0.757   3.054  0.00  0.00     0.033 A 
ATOM      4  C4  UNL d   1       0.062   1.136   3.543  0.00  0.00    -0.042 A 
ATOM      5  C5  UNL d   1      -1.066   0.962   2.749  0.00  0.00     0.033 A 
ATOM      6  C6  UNL d   1      -0.942   0.408   1.471  0.00  0.00    -0.057 A 
ENDROOT
BRANCH   1   7
ATOM      7  N   UNL d   1       0.366  -0.448  -0.357  0.00  0.00    -0.732 N 
ATOM      8  C   UNL d   1      -0.757  -1.139  -0.955  0.00  0.00     0.284 C 
ATOM      9  H3  UNL d   1       0.818   0.223  -0.974  0.00  0.00     0.395 HD
ENDBRANCH   1   7
TORSDOF 1
ENDMDL
