MODEL 1
REMARK minimizedAffinity -3.21442199
REMARK minimizedRMSD -1
REMARK  1 active torsions:
REMARK  status: ('A' for Active; 'I' for Inactive)
REMARK    1  A    between atoms: N_2  and  C1_3 
ROOT
ATOM      1  C1  UNL d   1       0.322   0.780   1.529  0.00  0.00     0.143 A 
ATOM      2  C2  UNL d   1      -0.445   0.464   0.402  0.00  0.00    -0.057 A 
ATOM      3  C3  UNL d   1       0.005  -0.462  -0.547  0.00  0.00     0.033 A 
ATOM      4  C4  UNL d   1       1.248  -1.069  -0.400  0.00  0.00    -0.042 A 
ATOM      5  C5  UNL d   1       2.038  -0.751   0.699  0.00  0.00     0.033 A 
ATOM      6  C6  UNL d   1       1.580   0.169   1.646  0.00  0.00    -0.057 A 
ENDROOT
BRANCH   1   7
ATOM      7  N   UNL d   1      -0.027   1.765   2.456  0.00  0.00    -0.732 N 
ATOM      8  C   UNL d   1      -0.769   1.423   3.650  0.00  0.00     0.284 C 
ATOM      9  H3  UNL d   1       0.722   2.436   2.610  0.00  0.00     0.395 HD
ENDBRANCH   1   7
TORSDOF 1
ENDMDL
