MODEL 1
REMARK minimizedAffinity -5.09064531
REMARK minimizedRMSD -1
REMARK  1 active torsions:
REMARK  status: ('A' for Active; 'I' for Inactive)
REMARK    1  A    between atoms: N_2  and  C1_3 
ROOT
ATOM      1  C1  UNL d   1       0.576   0.370   0.995  0.00  0.00     0.143 A 
ATOM      2  C2  UNL d   1      -0.659   0.929   1.340  0.00  0.00    -0.057 A 
ATOM      3  C3  UNL d   1      -1.013   1.138   2.678  0.00  0.00     0.033 A 
ATOM      4  C4  UNL d   1      -0.146   0.764   3.700  0.00  0.00    -0.042 A 
ATOM      5  C5  UNL d   1       1.076   0.184   3.381  0.00  0.00     0.033 A 
ATOM      6  C6  UNL d   1       1.427  -0.017   2.042  0.00  0.00    -0.057 A 
ENDROOT
BRANCH   1   7
ATOM      7  N   UNL d   1       0.945   0.045  -0.313  0.00  0.00    -0.732 N 
ATOM      8  C   UNL d   1      -0.049  -0.375  -1.277  0.00  0.00     0.284 C 
ATOM      9  H3  UNL d   1       1.644   0.682  -0.688  0.00  0.00     0.395 HD
ENDBRANCH   1   7
TORSDOF 1
ENDMDL
