MODEL 1
REMARK minimizedAffinity -4.69072104
REMARK minimizedRMSD -1
REMARK  1 active torsions:
REMARK  status: ('A' for Active; 'I' for Inactive)
REMARK    1  A    between atoms: N_2  and  C1_3 
ROOT
ATOM      1  C1  UNL d   1       0.042  -0.421   0.343  0.00  0.00     0.143 A 
ATOM      2  C2  UNL d   1      -1.276  -0.488   0.809  0.00  0.00    -0.057 A 
ATOM      3  C3  UNL d   1      -1.692   0.257   1.919  0.00  0.00     0.033 A 
ATOM      4  C4  UNL d   1      -0.787   1.062   2.602  0.00  0.00    -0.042 A 
ATOM      5  C5  UNL d   1       0.534   1.125   2.172  0.00  0.00     0.033 A 
ATOM      6  C6  UNL d   1       0.942   0.384   1.059  0.00  0.00    -0.057 A 
ENDROOT
BRANCH   1   7
ATOM      7  N   UNL d   1       0.541  -1.212  -0.695  0.00  0.00    -0.732 N 
ATOM      8  C   UNL d   1       0.286  -0.863  -2.076  0.00  0.00     0.284 C 
ATOM      9  H3  UNL d   1       1.489  -1.534  -0.516  0.00  0.00     0.395 HD
ENDBRANCH   1   7
TORSDOF 1
ENDMDL
