MODEL 1
REMARK minimizedAffinity -3.93342304
REMARK minimizedRMSD -1
REMARK  1 active torsions:
REMARK  status: ('A' for Active; 'I' for Inactive)
REMARK    1  A    between atoms: N_2  and  C1_3 
ROOT
ATOM      1  C1  UNL d   1      -0.233   0.043   0.345  0.00  0.00     0.143 A 
ATOM      2  C2  UNL d   1       0.267   1.334   0.548  0.00  0.00    -0.057 A 
ATOM      3  C3  UNL d   1      -0.107   2.090   1.666  0.00  0.00     0.033 A 
ATOM      4  C4  UNL d   1      -1.013   1.577   2.588  0.00  0.00    -0.042 A 
ATOM      5  C5  UNL d   1      -1.542   0.306   2.394  0.00  0.00     0.033 A 
ATOM      6  C6  UNL d   1      -1.160  -0.446   1.279  0.00  0.00    -0.057 A 
ENDROOT
BRANCH   1   7
ATOM      7  N   UNL d   1       0.024  -0.720  -0.796  0.00  0.00    -0.732 N 
ATOM      8  C   UNL d   1      -0.146  -2.157  -0.776  0.00  0.00     0.284 C 
ATOM      9  H3  UNL d   1      -0.313  -0.274  -1.646  0.00  0.00     0.395 HD
ENDBRANCH   1   7
TORSDOF 1
ENDMDL
