MODEL 1
REMARK minimizedAffinity -4.00167751
REMARK minimizedRMSD -1
REMARK  1 active torsions:
REMARK  status: ('A' for Active; 'I' for Inactive)
REMARK    1  A    between atoms: N_2  and  C1_3 
ROOT
ATOM      1  C1  UNL d   1       0.005  -0.349   0.231  0.00  0.00     0.143 A 
ATOM      2  C2  UNL d   1       1.153  -0.303   1.029  0.00  0.00    -0.057 A 
ATOM      3  C3  UNL d   1       1.128   0.276   2.304  0.00  0.00     0.033 A 
ATOM      4  C4  UNL d   1      -0.043   0.846   2.793  0.00  0.00    -0.042 A 
ATOM      5  C5  UNL d   1      -1.190   0.834   2.006  0.00  0.00     0.033 A 
ATOM      6  C6  UNL d   1      -1.160   0.249   0.737  0.00  0.00    -0.057 A 
ENDROOT
BRANCH   1   7
ATOM      7  N   UNL d   1      -0.010  -0.822  -1.084  0.00  0.00    -0.732 N 
ATOM      8  C   UNL d   1       0.605  -0.059  -2.149  0.00  0.00     0.284 C 
ATOM      9  H3  UNL d   1       0.161  -1.823  -1.138  0.00  0.00     0.395 HD
ENDBRANCH   1   7
TORSDOF 1
ENDMDL
