MODEL 1
REMARK minimizedAffinity -0.151617274
REMARK minimizedRMSD -1
REMARK  1 active torsions:
REMARK  status: ('A' for Active; 'I' for Inactive)
REMARK    1  A    between atoms: N_2  and  C1_3 
ROOT
ATOM      1  C1  UNL d   1      -0.009  -0.464  -4.092  0.00  0.00     0.143 A 
ATOM      2  C2  UNL d   1      -0.612   0.102  -5.221  0.00  0.00    -0.057 A 
ATOM      3  C3  UNL d   1      -1.522  -0.625  -5.999  0.00  0.00     0.033 A 
ATOM      4  C4  UNL d   1      -1.822  -1.945  -5.677  0.00  0.00    -0.042 A 
ATOM      5  C5  UNL d   1      -1.215  -2.535  -4.575  0.00  0.00     0.033 A 
ATOM      6  C6  UNL d   1      -0.313  -1.802  -3.798  0.00  0.00    -0.057 A 
ENDROOT
BRANCH   1   7
ATOM      7  N   UNL d   1       0.978   0.174  -3.336  0.00  0.00    -0.732 N 
ATOM      8  C   UNL d   1       2.049   0.900  -3.983  0.00  0.00     0.284 C 
ATOM      9  H3  UNL d   1       0.597   0.639  -2.515  0.00  0.00     0.395 HD
ENDBRANCH   1   7
TORSDOF 1
ENDMDL
