MODEL 1
REMARK minimizedAffinity -4.10168028
REMARK minimizedRMSD -1
REMARK  0 active torsions:
REMARK  status: ('A' for Active; 'I' for Inactive)
ROOT
ATOM      1  C   UNL d   1      -0.094  -0.787   1.307  0.00  0.00     0.124 A 
ATOM      2  C1  UNL d   1      -0.233  -2.114   0.925  0.00  0.00     0.062 A 
ATOM      3  C2  UNL d   1      -0.088  -2.477  -0.411  0.00  0.00     0.162 A 
ATOM      4  C3  UNL d   1       0.199  -1.511  -1.375  0.00  0.00    -0.034 A 
ATOM      5  C4  UNL d   1       0.336  -0.178  -0.984  0.00  0.00     0.162 A 
ATOM      6  C5  UNL d   1       0.190   0.180   0.352  0.00  0.00     0.062 A 
ATOM      7  F   UNL d   1       0.325   1.462   0.720  0.00  0.00    -0.097 F 
ATOM      8  F1  UNL d   1       0.612   0.776  -1.885  0.00  0.00    -0.096 F 
ATOM      9  I   UNL d   1       0.417  -2.050  -3.374  0.00  0.00    -0.060 I 
ATOM     10  F2  UNL d   1      -0.227  -3.767  -0.751  0.00  0.00    -0.096 F 
ATOM     11  F3  UNL d   1      -0.509  -3.050   1.845  0.00  0.00    -0.097 F 
ATOM     12  F4  UNL d   1      -0.236  -0.440   2.593  0.00  0.00    -0.092 F 
ENDROOT
TORSDOF 0
ENDMDL
