MODEL 1
REMARK minimizedAffinity -2.82534933
REMARK minimizedRMSD -1
REMARK  0 active torsions:
REMARK  status: ('A' for Active; 'I' for Inactive)
ROOT
ATOM      1  C   UNL d   1       0.777   2.073  -0.506  0.00  0.00     0.124 A 
ATOM      2  C1  UNL d   1       0.214   1.261  -1.480  0.00  0.00     0.062 A 
ATOM      3  C2  UNL d   1      -0.019  -0.086  -1.219  0.00  0.00     0.162 A 
ATOM      4  C3  UNL d   1       0.310  -0.630   0.022  0.00  0.00    -0.034 A 
ATOM      5  C4  UNL d   1       0.877   0.193   0.997  0.00  0.00     0.162 A 
ATOM      6  C5  UNL d   1       1.108   1.539   0.732  0.00  0.00     0.062 A 
ATOM      7  F   UNL d   1       1.651   2.323   1.675  0.00  0.00    -0.097 F 
ATOM      8  F1  UNL d   1       1.205  -0.297   2.202  0.00  0.00    -0.096 F 
ATOM      9  I   UNL d   1      -0.037  -2.644   0.416  0.00  0.00    -0.060 I 
ATOM     10  F2  UNL d   1      -0.564  -0.848  -2.180  0.00  0.00    -0.096 F 
ATOM     11  F3  UNL d   1      -0.105   1.775  -2.677  0.00  0.00    -0.097 F 
ATOM     12  F4  UNL d   1       1.001   3.369  -0.759  0.00  0.00    -0.092 F 
ENDROOT
TORSDOF 0
ENDMDL
