MODEL 1
REMARK minimizedAffinity -1.95925891
REMARK minimizedRMSD -1
REMARK  0 active torsions:
REMARK  status: ('A' for Active; 'I' for Inactive)
ROOT
ATOM      1  C   UNL d   1      -1.156  -1.918   0.724  0.00  0.00     0.124 A 
ATOM      2  C1  UNL d   1      -1.753  -0.666   0.762  0.00  0.00     0.062 A 
ATOM      3  C2  UNL d   1      -1.044   0.461   0.356  0.00  0.00     0.162 A 
ATOM      4  C3  UNL d   1       0.272   0.341  -0.092  0.00  0.00    -0.034 A 
ATOM      5  C4  UNL d   1       0.866  -0.922  -0.126  0.00  0.00     0.162 A 
ATOM      6  C5  UNL d   1       0.153  -2.045   0.280  0.00  0.00     0.062 A 
ATOM      7  F   UNL d   1       0.731  -3.254   0.242  0.00  0.00    -0.097 F 
ATOM      8  F1  UNL d   1       2.129  -1.074  -0.552  0.00  0.00    -0.096 F 
ATOM      9  I   UNL d   1       1.336   2.023  -0.699  0.00  0.00    -0.060 I 
ATOM     10  F2  UNL d   1      -1.646   1.659   0.404  0.00  0.00    -0.096 F 
ATOM     11  F3  UNL d   1      -3.017  -0.540   1.191  0.00  0.00    -0.097 F 
ATOM     12  F4  UNL d   1      -1.841  -3.000   1.115  0.00  0.00    -0.092 F 
ENDROOT
TORSDOF 0
ENDMDL
