MODEL 1
REMARK minimizedAffinity -0.706283808
REMARK minimizedRMSD -1
REMARK  0 active torsions:
REMARK  status: ('A' for Active; 'I' for Inactive)
ROOT
ATOM      1  C   UNL d   1      -0.630   1.534  -0.270  0.00  0.00     0.124 A 
ATOM      2  C1  UNL d   1      -1.244   0.839   0.762  0.00  0.00     0.062 A 
ATOM      3  C2  UNL d   1      -1.083  -0.540   0.871  0.00  0.00     0.162 A 
ATOM      4  C3  UNL d   1      -0.303  -1.232  -0.055  0.00  0.00    -0.034 A 
ATOM      5  C4  UNL d   1       0.311  -0.526  -1.092  0.00  0.00     0.162 A 
ATOM      6  C5  UNL d   1       0.147   0.851  -1.196  0.00  0.00     0.062 A 
ATOM      7  F   UNL d   1       0.741   1.521  -2.194  0.00  0.00    -0.097 F 
ATOM      8  F1  UNL d   1       1.067  -1.161  -1.999  0.00  0.00    -0.096 F 
ATOM      9  I   UNL d   1      -0.059  -3.293   0.104  0.00  0.00    -0.060 I 
ATOM     10  F2  UNL d   1      -1.688  -1.186   1.879  0.00  0.00    -0.096 F 
ATOM     11  F3  UNL d   1      -1.995   1.496   1.657  0.00  0.00    -0.097 F 
ATOM     12  F4  UNL d   1      -0.787   2.860  -0.373  0.00  0.00    -0.092 F 
ENDROOT
TORSDOF 0
ENDMDL
