MODEL 1
REMARK minimizedAffinity -1.6825273
REMARK minimizedRMSD -1
REMARK  0 active torsions:
REMARK  status: ('A' for Active; 'I' for Inactive)
ROOT
ATOM      1  C   UNL d   1      -0.549  -2.003  -0.314  0.00  0.00     0.124 A 
ATOM      2  C1  UNL d   1       0.036  -1.232  -1.309  0.00  0.00     0.062 A 
ATOM      3  C2  UNL d   1       0.400   0.086  -1.050  0.00  0.00     0.162 A 
ATOM      4  C3  UNL d   1       0.180   0.642   0.210  0.00  0.00    -0.034 A 
ATOM      5  C4  UNL d   1      -0.410  -0.139   1.205  0.00  0.00     0.162 A 
ATOM      6  C5  UNL d   1      -0.772  -1.456   0.941  0.00  0.00     0.062 A 
ATOM      7  F   UNL d   1      -1.337  -2.199   1.904  0.00  0.00    -0.097 F 
ATOM      8  F1  UNL d   1      -0.636   0.364   2.428  0.00  0.00    -0.096 F 
ATOM      9  I   UNL d   1       0.722   2.613   0.601  0.00  0.00    -0.060 I 
ATOM     10  F2  UNL d   1       0.964   0.807  -2.030  0.00  0.00    -0.096 F 
ATOM     11  F3  UNL d   1       0.252  -1.759  -2.523  0.00  0.00    -0.097 F 
ATOM     12  F4  UNL d   1      -0.899  -3.271  -0.566  0.00  0.00    -0.092 F 
ENDROOT
TORSDOF 0
ENDMDL
