MODEL 1
REMARK minimizedAffinity -0.490373701
REMARK minimizedRMSD -1
REMARK  0 active torsions:
REMARK  status: ('A' for Active; 'I' for Inactive)
ROOT
ATOM      1  C   UNL d   1      -1.005  -1.594   1.877  0.00  0.00     0.124 A 
ATOM      2  C1  UNL d   1      -0.290  -2.073   0.788  0.00  0.00     0.062 A 
ATOM      3  C2  UNL d   1       0.256  -1.186  -0.135  0.00  0.00     0.162 A 
ATOM      4  C3  UNL d   1       0.090   0.190   0.027  0.00  0.00    -0.034 A 
ATOM      5  C4  UNL d   1      -0.632   0.663   1.125  0.00  0.00     0.162 A 
ATOM      6  C5  UNL d   1      -1.175  -0.227   2.044  0.00  0.00     0.062 A 
ATOM      7  F   UNL d   1      -1.866   0.237   3.096  0.00  0.00    -0.097 F 
ATOM      8  F1  UNL d   1      -0.810   1.980   1.311  0.00  0.00    -0.096 F 
ATOM      9  I   UNL d   1       0.905   1.519  -1.351  0.00  0.00    -0.060 I 
ATOM     10  F2  UNL d   1       0.943  -1.676  -1.177  0.00  0.00    -0.096 F 
ATOM     11  F3  UNL d   1      -0.125  -3.393   0.624  0.00  0.00    -0.097 F 
ATOM     12  F4  UNL d   1      -1.530  -2.450   2.764  0.00  0.00    -0.092 F 
ENDROOT
TORSDOF 0
ENDMDL
