MODEL 1
REMARK minimizedAffinity -5.09372234
REMARK minimizedRMSD -1
REMARK  0 active torsions:
REMARK  status: ('A' for Active; 'I' for Inactive)
ROOT
ATOM      1  C   UNL d   1       1.341   2.240   0.268  0.00  0.00     0.124 A 
ATOM      2  C1  UNL d   1       2.110   1.305   0.947  0.00  0.00     0.062 A 
ATOM      3  C2  UNL d   1       1.605   0.031   1.194  0.00  0.00     0.162 A 
ATOM      4  C3  UNL d   1       0.325  -0.315   0.760  0.00  0.00    -0.034 A 
ATOM      5  C4  UNL d   1      -0.442   0.632   0.079  0.00  0.00     0.162 A 
ATOM      6  C5  UNL d   1       0.067   1.903  -0.165  0.00  0.00     0.062 A 
ATOM      7  F   UNL d   1      -0.677   2.806  -0.820  0.00  0.00    -0.097 F 
ATOM      8  F1  UNL d   1      -1.677   0.332  -0.351  0.00  0.00    -0.096 F 
ATOM      9  I   UNL d   1      -0.433  -2.218   1.127  0.00  0.00    -0.060 I 
ATOM     10  F2  UNL d   1       2.370  -0.853   1.851  0.00  0.00    -0.096 F 
ATOM     11  F3  UNL d   1       3.341   1.628   1.367  0.00  0.00    -0.097 F 
ATOM     12  F4  UNL d   1       1.829   3.465   0.033  0.00  0.00    -0.092 F 
ENDROOT
TORSDOF 0
ENDMDL
