MODEL 1
REMARK minimizedAffinity -2.99863267
REMARK minimizedRMSD -1
REMARK  0 active torsions:
REMARK  status: ('A' for Active; 'I' for Inactive)
ROOT
ATOM      1  C   UNL d   1      -1.608  -0.109   0.963  0.00  0.00     0.124 A 
ATOM      2  C1  UNL d   1      -1.187   0.422  -0.249  0.00  0.00     0.062 A 
ATOM      3  C2  UNL d   1      -0.424  -0.347  -1.123  0.00  0.00     0.162 A 
ATOM      4  C3  UNL d   1      -0.077  -1.656  -0.789  0.00  0.00    -0.034 A 
ATOM      5  C4  UNL d   1      -0.504  -2.183   0.432  0.00  0.00     0.162 A 
ATOM      6  C5  UNL d   1      -1.266  -1.410   1.302  0.00  0.00     0.062 A 
ATOM      7  F   UNL d   1      -1.671  -1.925   2.472  0.00  0.00    -0.097 F 
ATOM      8  F1  UNL d   1      -0.188  -3.438   0.784  0.00  0.00    -0.096 F 
ATOM      9  I   UNL d   1       1.063  -2.809  -2.093  0.00  0.00    -0.060 I 
ATOM     10  F2  UNL d   1      -0.031   0.192  -2.287  0.00  0.00    -0.096 F 
ATOM     11  F3  UNL d   1      -1.515   1.680  -0.578  0.00  0.00    -0.097 F 
ATOM     12  F4  UNL d   1      -2.341   0.634   1.802  0.00  0.00    -0.092 F 
ENDROOT
TORSDOF 0
ENDMDL
