MODEL 1
REMARK minimizedAffinity -3.18044686
REMARK minimizedRMSD -1
REMARK  0 active torsions:
REMARK  status: ('A' for Active; 'I' for Inactive)
ROOT
ATOM      1  C   UNL d   1      -0.360  -1.931   0.085  0.00  0.00     0.124 A 
ATOM      2  C1  UNL d   1       0.050  -1.173  -1.003  0.00  0.00     0.062 A 
ATOM      3  C2  UNL d   1       0.198   0.206  -0.880  0.00  0.00     0.162 A 
ATOM      4  C3  UNL d   1      -0.064   0.836   0.337  0.00  0.00    -0.034 A 
ATOM      5  C4  UNL d   1      -0.477   0.067   1.426  0.00  0.00     0.162 A 
ATOM      6  C5  UNL d   1      -0.623  -1.310   1.298  0.00  0.00     0.062 A 
ATOM      7  F   UNL d   1      -1.020  -2.041   2.350  0.00  0.00    -0.097 F 
ATOM      8  F1  UNL d   1      -0.738   0.641   2.610  0.00  0.00    -0.096 F 
ATOM      9  I   UNL d   1       0.155   2.897   0.525  0.00  0.00    -0.060 I 
ATOM     10  F2  UNL d   1       0.596   0.913  -1.948  0.00  0.00    -0.096 F 
ATOM     11  F3  UNL d   1       0.305  -1.770  -2.176  0.00  0.00    -0.097 F 
ATOM     12  F4  UNL d   1      -0.502  -3.257  -0.036  0.00  0.00    -0.092 F 
ENDROOT
TORSDOF 0
ENDMDL
