MODEL 1
REMARK minimizedAffinity -1.81719744
REMARK minimizedRMSD -1
REMARK  0 active torsions:
REMARK  status: ('A' for Active; 'I' for Inactive)
ROOT
ATOM      1  C   UNL d   1       0.204   1.480  -0.994  0.00  0.00     0.124 A 
ATOM      2  C1  UNL d   1       0.294   0.398  -1.858  0.00  0.00     0.062 A 
ATOM      3  C2  UNL d   1       0.109  -0.897  -1.381  0.00  0.00     0.162 A 
ATOM      4  C3  UNL d   1      -0.169  -1.116  -0.032  0.00  0.00    -0.034 A 
ATOM      5  C4  UNL d   1      -0.257  -0.022   0.832  0.00  0.00     0.162 A 
ATOM      6  C5  UNL d   1      -0.071   1.269   0.350  0.00  0.00     0.062 A 
ATOM      7  F   UNL d   1      -0.158   2.314   1.186  0.00  0.00    -0.097 F 
ATOM      8  F1  UNL d   1      -0.522  -0.197   2.135  0.00  0.00    -0.096 F 
ATOM      9  I   UNL d   1      -0.446  -3.050   0.686  0.00  0.00    -0.060 I 
ATOM     10  F2  UNL d   1       0.201  -1.924  -2.239  0.00  0.00    -0.096 F 
ATOM     11  F3  UNL d   1       0.560   0.599  -3.157  0.00  0.00    -0.097 F 
ATOM     12  F4  UNL d   1       0.383   2.724  -1.456  0.00  0.00    -0.092 F 
ENDROOT
TORSDOF 0
ENDMDL
