MODEL 1
REMARK minimizedAffinity 0.640885353
REMARK minimizedRMSD -1
REMARK  0 active torsions:
REMARK  status: ('A' for Active; 'I' for Inactive)
ROOT
ATOM      1  C   UNL d   1      -0.139  -2.442   0.301  0.00  0.00     0.124 A 
ATOM      2  C1  UNL d   1       0.823  -1.759  -0.430  0.00  0.00     0.062 A 
ATOM      3  C2  UNL d   1       1.069  -0.412  -0.178  0.00  0.00     0.162 A 
ATOM      4  C3  UNL d   1       0.351   0.261   0.811  0.00  0.00    -0.034 A 
ATOM      5  C4  UNL d   1      -0.616  -0.432   1.541  0.00  0.00     0.162 A 
ATOM      6  C5  UNL d   1      -0.858  -1.778   1.285  0.00  0.00     0.062 A 
ATOM      7  F   UNL d   1      -1.788  -2.436   1.992  0.00  0.00    -0.097 F 
ATOM      8  F1  UNL d   1      -1.324   0.185   2.499  0.00  0.00    -0.096 F 
ATOM      9  I   UNL d   1       0.716   2.275   1.191  0.00  0.00    -0.060 I 
ATOM     10  F2  UNL d   1       2.005   0.222  -0.899  0.00  0.00    -0.096 F 
ATOM     11  F3  UNL d   1       1.518  -2.398  -1.382  0.00  0.00    -0.097 F 
ATOM     12  F4  UNL d   1      -0.374  -3.737   0.056  0.00  0.00    -0.092 F 
ENDROOT
TORSDOF 0
ENDMDL
