MODEL 1
REMARK minimizedAffinity -4.57990026
REMARK minimizedRMSD -1
REMARK  0 active torsions:
REMARK  status: ('A' for Active; 'I' for Inactive)
ROOT
ATOM      1  C   UNL d   1      -0.147  -2.461  -0.059  0.00  0.00     0.124 A 
ATOM      2  C1  UNL d   1       0.522  -1.905  -1.140  0.00  0.00     0.062 A 
ATOM      3  C2  UNL d   1       0.703  -0.527  -1.218  0.00  0.00     0.162 A 
ATOM      4  C3  UNL d   1       0.214   0.305  -0.210  0.00  0.00    -0.034 A 
ATOM      5  C4  UNL d   1      -0.459  -0.262   0.874  0.00  0.00     0.162 A 
ATOM      6  C5  UNL d   1      -0.636  -1.640   0.947  0.00  0.00     0.062 A 
ATOM      7  F   UNL d   1      -1.283  -2.176   1.992  0.00  0.00    -0.097 F 
ATOM      8  F1  UNL d   1      -0.941   0.508   1.860  0.00  0.00    -0.096 F 
ATOM      9  I   UNL d   1       0.481   2.366  -0.322  0.00  0.00    -0.060 I 
ATOM     10  F2  UNL d   1       1.353  -0.016  -2.274  0.00  0.00    -0.096 F 
ATOM     11  F3  UNL d   1       0.995  -2.696  -2.114  0.00  0.00    -0.097 F 
ATOM     12  F4  UNL d   1      -0.320  -3.787   0.013  0.00  0.00    -0.092 F 
ENDROOT
TORSDOF 0
ENDMDL
