MODEL 1
REMARK minimizedAffinity -2.2698853
REMARK minimizedRMSD -1
REMARK  0 active torsions:
REMARK  status: ('A' for Active; 'I' for Inactive)
ROOT
ATOM      1  C   UNL d   1       0.238  -0.689  -1.232  0.00  0.00     0.124 A 
ATOM      2  C1  UNL d   1       0.488  -0.970   0.104  0.00  0.00     0.062 A 
ATOM      3  C2  UNL d   1       0.908   0.041   0.964  0.00  0.00     0.162 A 
ATOM      4  C3  UNL d   1       1.079   1.342   0.492  0.00  0.00    -0.034 A 
ATOM      5  C4  UNL d   1       0.826   1.616  -0.853  0.00  0.00     0.162 A 
ATOM      6  C5  UNL d   1       0.407   0.603  -1.709  0.00  0.00     0.062 A 
ATOM      7  F   UNL d   1       0.166   0.876  -3.000  0.00  0.00    -0.097 F 
ATOM      8  F1  UNL d   1       0.980   2.856  -1.340  0.00  0.00    -0.096 F 
ATOM      9  I   UNL d   1       1.706   2.855   1.776  0.00  0.00    -0.060 I 
ATOM     10  F2  UNL d   1       1.142  -0.259   2.251  0.00  0.00    -0.096 F 
ATOM     11  F3  UNL d   1       0.327  -2.217   0.567  0.00  0.00    -0.097 F 
ATOM     12  F4  UNL d   1      -0.165  -1.663  -2.059  0.00  0.00    -0.092 F 
ENDROOT
TORSDOF 0
ENDMDL
