MODEL 1
REMARK minimizedAffinity -1.31741869
REMARK minimizedRMSD -1
REMARK  0 active torsions:
REMARK  status: ('A' for Active; 'I' for Inactive)
ROOT
ATOM      1  C4' PXY d   1       2.370   1.472   0.682  0.00  0.00     0.077 C 
ATOM      2  C1' PXY d   1      -2.504  -1.213  -0.884  0.00  0.00     0.077 C 
ATOM      3  C1  PXY d   1      -1.226  -0.514  -0.461  0.00  0.00    -0.082 A 
ATOM      4  C2  PXY d   1      -0.867   0.610  -1.060  0.00  0.00     0.003 A 
ATOM      5  C3  PXY d   1       0.302   1.237  -0.712  0.00  0.00     0.003 A 
ATOM      6  C4  PXY d   1       1.084   0.738   0.295  0.00  0.00    -0.082 A 
ATOM      7  C5  PXY d   1       0.718  -0.403   0.918  0.00  0.00     0.003 A 
ATOM      8  C6  PXY d   1      -0.451  -1.047   0.522  0.00  0.00     0.003 A 
ENDROOT
TORSDOF 0
ENDMDL
