MODEL 1
REMARK minimizedAffinity -2.23491096
REMARK minimizedRMSD -1
REMARK  0 active torsions:
REMARK  status: ('A' for Active; 'I' for Inactive)
ROOT
ATOM      1  C4' PXY d   1       2.285   0.347   0.432  0.00  0.00     0.077 C 
ATOM      2  C1' PXY d   1      -3.248  -0.728  -0.850  0.00  0.00     0.077 C 
ATOM      3  C1  PXY d   1      -1.800  -0.448  -0.501  0.00  0.00    -0.082 A 
ATOM      4  C2  PXY d   1      -1.045   0.239  -1.344  0.00  0.00     0.003 A 
ATOM      5  C3  PXY d   1       0.275   0.474  -1.058  0.00  0.00     0.003 A 
ATOM      6  C4  PXY d   1       0.814   0.048   0.126  0.00  0.00    -0.082 A 
ATOM      7  C5  PXY d   1       0.048  -0.644   0.995  0.00  0.00     0.003 A 
ATOM      8  C6  PXY d   1      -1.279  -0.908   0.668  0.00  0.00     0.003 A 
ENDROOT
TORSDOF 0
ENDMDL
