MODEL 1
REMARK minimizedAffinity -0.887267768
REMARK minimizedRMSD -1
REMARK  0 active torsions:
REMARK  status: ('A' for Active; 'I' for Inactive)
ROOT
ATOM      1  C4' PXY d   1      -1.567   0.742  -2.608  0.00  0.00     0.077 C 
ATOM      2  C1' PXY d   1       0.252  -2.393   1.895  0.00  0.00     0.077 C 
ATOM      3  C1  PXY d   1      -0.230  -1.581   0.709  0.00  0.00    -0.082 A 
ATOM      4  C2  PXY d   1       0.375  -0.445   0.404  0.00  0.00     0.003 A 
ATOM      5  C3  PXY d   1      -0.068   0.317  -0.646  0.00  0.00     0.003 A 
ATOM      6  C4  PXY d   1      -1.108  -0.115  -1.425  0.00  0.00    -0.082 A 
ATOM      7  C5  PXY d   1      -1.724  -1.278  -1.127  0.00  0.00     0.003 A 
ATOM      8  C6  PXY d   1      -1.285  -2.017  -0.032  0.00  0.00     0.003 A 
ENDROOT
TORSDOF 0
ENDMDL
