MODEL 1
REMARK minimizedAffinity -1.44543993
REMARK minimizedRMSD -1
REMARK  0 active torsions:
REMARK  status: ('A' for Active; 'I' for Inactive)
ROOT
ATOM      1  C4' PXY d   1       2.100   1.072   0.001  0.00  0.00     0.077 C 
ATOM      2  C1' PXY d   1      -3.019  -1.466  -0.876  0.00  0.00     0.077 C 
ATOM      3  C1  PXY d   1      -1.678  -0.803  -0.633  0.00  0.00    -0.082 A 
ATOM      4  C2  PXY d   1      -1.211   0.069  -1.513  0.00  0.00     0.003 A 
ATOM      5  C3  PXY d   1       0.015   0.654  -1.325  0.00  0.00     0.003 A 
ATOM      6  C4  PXY d   1       0.746   0.385  -0.199  0.00  0.00    -0.082 A 
ATOM      7  C5  PXY d   1       0.271  -0.495   0.708  0.00  0.00     0.003 A 
ATOM      8  C6  PXY d   1      -0.956  -1.110   0.479  0.00  0.00     0.003 A 
ENDROOT
TORSDOF 0
ENDMDL
