MODEL 1
REMARK minimizedAffinity -3.87510014
REMARK minimizedRMSD -1
REMARK  0 active torsions:
REMARK  status: ('A' for Active; 'I' for Inactive)
ROOT
ATOM      1  C4' PXY d   1       3.041   2.936   1.191  0.00  0.00     0.077 C 
ATOM      2  C1' PXY d   1      -1.024  -0.648  -0.821  0.00  0.00     0.077 C 
ATOM      3  C1  PXY d   1       0.050   0.282  -0.290  0.00  0.00    -0.082 A 
ATOM      4  C2  PXY d   1      -0.278   1.501   0.104  0.00  0.00     0.003 A 
ATOM      5  C3  PXY d   1       0.685   2.366   0.557  0.00  0.00     0.003 A 
ATOM      6  C4  PXY d   1       1.989   1.960   0.657  0.00  0.00    -0.082 A 
ATOM      7  C5  PXY d   1       2.329   0.714   0.267  0.00  0.00     0.003 A 
ATOM      8  C6  PXY d   1       1.344  -0.135  -0.229  0.00  0.00     0.003 A 
ENDROOT
TORSDOF 0
ENDMDL
