MODEL 1
REMARK minimizedAffinity 0.897442937
REMARK minimizedRMSD -1
REMARK  0 active torsions:
REMARK  status: ('A' for Active; 'I' for Inactive)
ROOT
ATOM      1  C4' PXY d   1       1.447   2.945   0.542  0.00  0.00     0.077 C 
ATOM      2  C1' PXY d   1       0.006  -2.348   2.367  0.00  0.00     0.077 C 
ATOM      3  C1  PXY d   1       0.387  -0.965   1.877  0.00  0.00    -0.082 A 
ATOM      4  C2  PXY d   1       0.753  -0.039   2.749  0.00  0.00     0.003 A 
ATOM      5  C3  PXY d   1       1.070   1.226   2.326  0.00  0.00     0.003 A 
ATOM      6  C4  PXY d   1       1.063   1.532   0.991  0.00  0.00    -0.082 A 
ATOM      7  C5  PXY d   1       0.701   0.590   0.094  0.00  0.00     0.003 A 
ATOM      8  C6  PXY d   1       0.343  -0.676   0.548  0.00  0.00     0.003 A 
ENDROOT
TORSDOF 0
ENDMDL
