MODEL 1
REMARK minimizedAffinity -1.83033502
REMARK minimizedRMSD -1
REMARK  0 active torsions:
REMARK  status: ('A' for Active; 'I' for Inactive)
ROOT
ATOM      1  C4' PXY d   1       2.671   3.257   1.057  0.00  0.00     0.077 C 
ATOM      2  C1' PXY d   1      -0.477  -1.588   1.251  0.00  0.00     0.077 C 
ATOM      3  C1  PXY d   1       0.356  -0.322   1.190  0.00  0.00    -0.082 A 
ATOM      4  C2  PXY d   1       0.464   0.442   2.265  0.00  0.00     0.003 A 
ATOM      5  C3  PXY d   1       1.186   1.606   2.219  0.00  0.00     0.003 A 
ATOM      6  C4  PXY d   1       1.849   1.965   1.075  0.00  0.00    -0.082 A 
ATOM      7  C5  PXY d   1       1.752   1.186  -0.022  0.00  0.00     0.003 A 
ATOM      8  C6  PXY d   1       0.980   0.029   0.033  0.00  0.00     0.003 A 
ENDROOT
TORSDOF 0
ENDMDL
