MODEL 1
REMARK minimizedAffinity 0.787042379
REMARK minimizedRMSD -1
REMARK  0 active torsions:
REMARK  status: ('A' for Active; 'I' for Inactive)
ROOT
ATOM      1  C4' PXY d   1       2.488   1.220   0.736  0.00  0.00     0.077 C 
ATOM      2  C1' PXY d   1      -2.473  -0.460  -1.711  0.00  0.00     0.077 C 
ATOM      3  C1  PXY d   1      -1.165  -0.027  -1.077  0.00  0.00    -0.082 A 
ATOM      4  C2  PXY d   1      -1.167   0.474   0.147  0.00  0.00     0.003 A 
ATOM      5  C3  PXY d   1       0.003   0.900   0.724  0.00  0.00     0.003 A 
ATOM      6  C4  PXY d   1       1.192   0.762   0.060  0.00  0.00    -0.082 A 
ATOM      7  C5  PXY d   1       1.203   0.241  -1.185  0.00  0.00     0.003 A 
ATOM      8  C6  PXY d   1       0.000  -0.147  -1.768  0.00  0.00     0.003 A 
ENDROOT
TORSDOF 0
ENDMDL
