MODEL 1
REMARK minimizedAffinity -3.99914908
REMARK minimizedRMSD -1
REMARK  0 active torsions:
REMARK  status: ('A' for Active; 'I' for Inactive)
ROOT
ATOM      1  C4' PXY d   1       2.770   1.610   0.457  0.00  0.00     0.077 C 
ATOM      2  C1' PXY d   1      -1.943  -1.016  -1.618  0.00  0.00     0.077 C 
ATOM      3  C1  PXY d   1      -0.709  -0.333  -1.063  0.00  0.00    -0.082 A 
ATOM      4  C2  PXY d   1      -0.263   0.775  -1.632  0.00  0.00     0.003 A 
ATOM      5  C3  PXY d   1       0.870   1.388  -1.162  0.00  0.00     0.003 A 
ATOM      6  C4  PXY d   1       1.522   0.892  -0.065  0.00  0.00    -0.082 A 
ATOM      7  C5  PXY d   1       1.067  -0.232   0.528  0.00  0.00     0.003 A 
ATOM      8  C6  PXY d   1      -0.061  -0.862   0.010  0.00  0.00     0.003 A 
ENDROOT
TORSDOF 0
ENDMDL
