MODEL 1
REMARK minimizedAffinity -2.33511114
REMARK minimizedRMSD -1
REMARK  0 active torsions:
REMARK  status: ('A' for Active; 'I' for Inactive)
ROOT
ATOM      1  C4' PXY d   1       2.326   1.976   1.414  0.00  0.00     0.077 C 
ATOM      2  C1' PXY d   1      -1.917  -0.662  -1.494  0.00  0.00     0.077 C 
ATOM      3  C1  PXY d   1      -0.798   0.018  -0.729  0.00  0.00    -0.082 A 
ATOM      4  C2  PXY d   1      -1.013   1.197  -0.167  0.00  0.00     0.003 A 
ATOM      5  C3  PXY d   1      -0.003   1.841   0.501  0.00  0.00     0.003 A 
ATOM      6  C4  PXY d   1       1.223   1.248   0.641  0.00  0.00    -0.082 A 
ATOM      7  C5  PXY d   1       1.447   0.041   0.079  0.00  0.00     0.003 A 
ATOM      8  C6  PXY d   1       0.421  -0.577  -0.630  0.00  0.00     0.003 A 
ENDROOT
TORSDOF 0
ENDMDL
