MODEL 1
REMARK minimizedAffinity -2.88630414
REMARK minimizedRMSD -1
REMARK  0 active torsions:
REMARK  status: ('A' for Active; 'I' for Inactive)
ROOT
ATOM      1  C4' PXY d   1      -0.661  -2.054   1.747  0.00  0.00     0.077 C 
ATOM      2  C1' PXY d   1       0.020   0.786  -3.242  0.00  0.00     0.077 C 
ATOM      3  C1  PXY d   1      -0.146   0.041  -1.932  0.00  0.00    -0.082 A 
ATOM      4  C2  PXY d   1      -1.247  -0.659  -1.713  0.00  0.00     0.003 A 
ATOM      5  C3  PXY d   1      -1.427  -1.313  -0.521  0.00  0.00     0.003 A 
ATOM      6  C4  PXY d   1      -0.447  -1.293   0.435  0.00  0.00    -0.082 A 
ATOM      7  C5  PXY d   1       0.684  -0.590   0.214  0.00  0.00     0.003 A 
ATOM      8  C6  PXY d   1       0.830   0.101  -0.985  0.00  0.00     0.003 A 
ENDROOT
TORSDOF 0
ENDMDL
