MODEL 1
REMARK minimizedAffinity -2.63976216
REMARK minimizedRMSD -1
REMARK  0 active torsions:
REMARK  status: ('A' for Active; 'I' for Inactive)
ROOT
ATOM      1  C4' PXY d   1      -2.641  -1.418  -1.291  0.00  0.00     0.077 C 
ATOM      2  C1' PXY d   1       2.468   0.817   0.235  0.00  0.00     0.077 C 
ATOM      3  C1  PXY d   1       1.131   0.220  -0.158  0.00  0.00    -0.082 A 
ATOM      4  C2  PXY d   1       0.536   0.622  -1.270  0.00  0.00     0.003 A 
ATOM      5  C3  PXY d   1      -0.688   0.117  -1.624  0.00  0.00     0.003 A 
ATOM      6  C4  PXY d   1      -1.286  -0.850  -0.860  0.00  0.00    -0.082 A 
ATOM      7  C5  PXY d   1      -0.681  -1.273   0.270  0.00  0.00     0.003 A 
ATOM      8  C6  PXY d   1       0.543  -0.717   0.633  0.00  0.00     0.003 A 
ENDROOT
TORSDOF 0
ENDMDL
