MODEL 1
REMARK minimizedAffinity -1.34610808
REMARK minimizedRMSD -1
REMARK  0 active torsions:
REMARK  status: ('A' for Active; 'I' for Inactive)
ROOT
ATOM      1  C4' PXY d   1       2.597   1.348   0.425  0.00  0.00     0.077 C 
ATOM      2  C1' PXY d   1      -2.354  -1.065  -1.329  0.00  0.00     0.077 C 
ATOM      3  C1  PXY d   1      -1.059  -0.435  -0.857  0.00  0.00    -0.082 A 
ATOM      4  C2  PXY d   1      -0.465   0.480  -1.606  0.00  0.00     0.003 A 
ATOM      5  C3  PXY d   1       0.724   1.036  -1.209  0.00  0.00     0.003 A 
ATOM      6  C4  PXY d   1       1.283   0.692  -0.008  0.00  0.00    -0.082 A 
ATOM      7  C5  PXY d   1       0.678  -0.233   0.767  0.00  0.00     0.003 A 
ATOM      8  C6  PXY d   1      -0.507  -0.816   0.327  0.00  0.00     0.003 A 
ENDROOT
TORSDOF 0
ENDMDL
