MODEL 1
REMARK minimizedAffinity 1.53625298
REMARK minimizedRMSD -1
REMARK  0 active torsions:
REMARK  status: ('A' for Active; 'I' for Inactive)
ROOT
ATOM      1  C4' PXY d   1       3.728   2.280   5.169  0.00  0.00     0.077 C 
ATOM      2  C1' PXY d   1       2.303   3.968  -0.173  0.00  0.00     0.077 C 
ATOM      3  C1  PXY d   1       2.673   3.513   1.225  0.00  0.00    -0.082 A 
ATOM      4  C2  PXY d   1       2.711   4.395   2.211  0.00  0.00     0.003 A 
ATOM      5  C3  PXY d   1       3.075   4.007   3.475  0.00  0.00     0.003 A 
ATOM      6  C4  PXY d   1       3.350   2.693   3.743  0.00  0.00    -0.082 A 
ATOM      7  C5  PXY d   1       3.303   1.785   2.745  0.00  0.00     0.003 A 
ATOM      8  C6  PXY d   1       2.972   2.207   1.461  0.00  0.00     0.003 A 
ENDROOT
TORSDOF 0
ENDMDL
