MODEL 1
REMARK minimizedAffinity 1.10993755
REMARK minimizedRMSD -1
REMARK  0 active torsions:
REMARK  status: ('A' for Active; 'I' for Inactive)
ROOT
ATOM      1  C4' PXY d   1      -1.664  -0.138   3.055  0.00  0.00     0.077 C 
ATOM      2  C1' PXY d   1      -0.986   0.307  -2.669  0.00  0.00     0.077 C 
ATOM      3  C1  PXY d   1      -1.169   0.202  -1.168  0.00  0.00    -0.082 A 
ATOM      4  C2  PXY d   1      -0.366  -0.579  -0.463  0.00  0.00     0.003 A 
ATOM      5  C3  PXY d   1      -0.539  -0.710   0.891  0.00  0.00     0.003 A 
ATOM      6  C4  PXY d   1      -1.510   0.006   1.538  0.00  0.00    -0.082 A 
ATOM      7  C5  PXY d   1      -2.326   0.813   0.828  0.00  0.00     0.003 A 
ATOM      8  C6  PXY d   1      -2.161   0.901  -0.551  0.00  0.00     0.003 A 
ENDROOT
TORSDOF 0
ENDMDL
