MODEL 1
REMARK minimizedAffinity -4.88916874
REMARK minimizedRMSD -1
REMARK  0 active torsions:
REMARK  status: ('A' for Active; 'I' for Inactive)
ROOT
ATOM      1  C4' PXY d   1       2.476   1.239   0.541  0.00  0.00     0.077 C 
ATOM      2  C1' PXY d   1      -1.587  -2.867   0.753  0.00  0.00     0.077 C 
ATOM      3  C1  PXY d   1      -0.525  -1.787   0.685  0.00  0.00    -0.082 A 
ATOM      4  C2  PXY d   1       0.542  -1.869   1.463  0.00  0.00     0.003 A 
ATOM      5  C3  PXY d   1       1.496  -0.885   1.438  0.00  0.00     0.003 A 
ATOM      6  C4  PXY d   1       1.383   0.167   0.569  0.00  0.00    -0.082 A 
ATOM      7  C5  PXY d   1       0.303   0.253  -0.236  0.00  0.00     0.003 A 
ATOM      8  C6  PXY d   1      -0.675  -0.735  -0.165  0.00  0.00     0.003 A 
ENDROOT
TORSDOF 0
ENDMDL
