MODEL 1
REMARK minimizedAffinity -2.98812389
REMARK minimizedRMSD -1
REMARK  0 active torsions:
REMARK  status: ('A' for Active; 'I' for Inactive)
ROOT
ATOM      1  C4' PXY d   1       2.220   1.576   0.405  0.00  0.00     0.077 C 
ATOM      2  C1' PXY d   1      -2.562  -1.046  -1.513  0.00  0.00     0.077 C 
ATOM      3  C1  PXY d   1      -1.310  -0.364  -0.998  0.00  0.00    -0.082 A 
ATOM      4  C2  PXY d   1      -0.875   0.738  -1.588  0.00  0.00     0.003 A 
ATOM      5  C3  PXY d   1       0.273   1.349  -1.156  0.00  0.00     0.003 A 
ATOM      6  C4  PXY d   1       0.955   0.858  -0.075  0.00  0.00    -0.082 A 
ATOM      7  C5  PXY d   1       0.512  -0.259   0.540  0.00  0.00     0.003 A 
ATOM      8  C6  PXY d   1      -0.633  -0.888   0.060  0.00  0.00     0.003 A 
ENDROOT
TORSDOF 0
ENDMDL
