MODEL 1
REMARK minimizedAffinity 2.12278271
REMARK minimizedRMSD -1
REMARK  0 active torsions:
REMARK  status: ('A' for Active; 'I' for Inactive)
ROOT
ATOM      1  C4' PXY d   1       2.596   1.368   0.039  0.00  0.00     0.077 C 
ATOM      2  C1' PXY d   1      -2.465  -1.230  -0.989  0.00  0.00     0.077 C 
ATOM      3  C1  PXY d   1      -1.139  -0.551  -0.706  0.00  0.00    -0.082 A 
ATOM      4  C2  PXY d   1      -0.658   0.328  -1.570  0.00  0.00     0.003 A 
ATOM      5  C3  PXY d   1       0.555   0.928  -1.346  0.00  0.00     0.003 A 
ATOM      6  C4  PXY d   1       1.257   0.665  -0.200  0.00  0.00    -0.082 A 
ATOM      7  C5  PXY d   1       0.767  -0.223   0.691  0.00  0.00     0.003 A 
ATOM      8  C6  PXY d   1      -0.446  -0.852   0.425  0.00  0.00     0.003 A 
ENDROOT
TORSDOF 0
ENDMDL
