MODEL 1
REMARK minimizedAffinity -4.00800085
REMARK minimizedRMSD -1
REMARK  0 active torsions:
REMARK  status: ('A' for Active; 'I' for Inactive)
ROOT
ATOM      1  C4' PXY d   1       2.242   2.061   0.636  0.00  0.00     0.077 C 
ATOM      2  C1' PXY d   1      -2.408  -0.734  -1.360  0.00  0.00     0.077 C 
ATOM      3  C1  PXY d   1      -1.189  -0.008  -0.826  0.00  0.00    -0.082 A 
ATOM      4  C2  PXY d   1      -0.895   1.199  -1.280  0.00  0.00     0.003 A 
ATOM      5  C3  PXY d   1       0.221   1.857  -0.831  0.00  0.00     0.003 A 
ATOM      6  C4  PXY d   1       1.016   1.295   0.132  0.00  0.00    -0.082 A 
ATOM      7  C5  PXY d   1       0.717   0.068   0.609  0.00  0.00     0.003 A 
ATOM      8  C6  PXY d   1      -0.398  -0.600   0.110  0.00  0.00     0.003 A 
ENDROOT
TORSDOF 0
ENDMDL
