MODEL 1
REMARK minimizedAffinity -0.560477793
REMARK minimizedRMSD -1
REMARK  0 active torsions:
REMARK  status: ('A' for Active; 'I' for Inactive)
ROOT
ATOM      1  C4' PXY d   1       2.602   0.918   0.702  0.00  0.00     0.077 C 
ATOM      2  C1' PXY d   1      -2.480  -0.875  -1.390  0.00  0.00     0.077 C 
ATOM      3  C1  PXY d   1      -1.151  -0.406  -0.829  0.00  0.00    -0.082 A 
ATOM      4  C2  PXY d   1      -0.352   0.337  -1.577  0.00  0.00     0.003 A 
ATOM      5  C3  PXY d   1       0.867   0.743  -1.097  0.00  0.00     0.003 A 
ATOM      6  C4  PXY d   1       1.248   0.430   0.180  0.00  0.00    -0.082 A 
ATOM      7  C5  PXY d   1       0.433  -0.320   0.953  0.00  0.00     0.003 A 
ATOM      8  C6  PXY d   1      -0.782  -0.756   0.432  0.00  0.00     0.003 A 
ENDROOT
TORSDOF 0
ENDMDL
