MODEL 1
REMARK minimizedAffinity 0.60736084
REMARK minimizedRMSD -1
REMARK  0 active torsions:
REMARK  status: ('A' for Active; 'I' for Inactive)
ROOT
ATOM      1  C   UNL d   1      -0.457   0.746  -0.637  0.00  0.00     0.077 C 
ATOM      2  C1  UNL d   1      -0.755   1.820  -1.640  0.00  0.00    -0.074 A 
ATOM      3  C2  UNL d   1       0.272   2.422  -2.376  0.00  0.00    -0.005 A 
ATOM      4  C3  UNL d   1      -0.022   3.412  -3.312  0.00  0.00     0.006 A 
ATOM      5  C4  UNL d   1      -1.342   3.811  -3.523  0.00  0.00    -0.005 A 
ATOM      6  C5  UNL d   1      -2.382   3.220  -2.798  0.00  0.00    -0.074 A 
ATOM      7  C6  UNL d   1      -3.807   3.630  -3.020  0.00  0.00     0.077 C 
ATOM      8  C7  UNL d   1      -2.080   2.220  -1.864  0.00  0.00    -0.001 A 
ENDROOT
TORSDOF 0
ENDMDL
