MODEL 1
REMARK minimizedAffinity -4.56690121
REMARK minimizedRMSD -1
REMARK  0 active torsions:
REMARK  status: ('A' for Active; 'I' for Inactive)
ROOT
ATOM      1  C   UNL d   1       1.493  -0.157   2.635  0.00  0.00     0.077 C 
ATOM      2  C1  UNL d   1       1.327  -0.414   1.167  0.00  0.00    -0.074 A 
ATOM      3  C2  UNL d   1       2.305  -1.103   0.442  0.00  0.00    -0.005 A 
ATOM      4  C3  UNL d   1       2.132  -1.343  -0.921  0.00  0.00     0.006 A 
ATOM      5  C4  UNL d   1       0.980  -0.898  -1.572  0.00  0.00    -0.005 A 
ATOM      6  C5  UNL d   1      -0.009  -0.209  -0.863  0.00  0.00    -0.074 A 
ATOM      7  C6  UNL d   1      -1.257   0.268  -1.545  0.00  0.00     0.077 C 
ATOM      8  C7  UNL d   1       0.169   0.022   0.508  0.00  0.00    -0.001 A 
ENDROOT
TORSDOF 0
ENDMDL
