MODEL 1
REMARK minimizedAffinity -5.32915258
REMARK minimizedRMSD -1
REMARK  0 active torsions:
REMARK  status: ('A' for Active; 'I' for Inactive)
ROOT
ATOM      1  C   UNL d   1       0.280   0.017   1.653  0.00  0.00     0.077 C 
ATOM      2  C1  UNL d   1      -0.629  -0.161   0.473  0.00  0.00    -0.074 A 
ATOM      3  C2  UNL d   1      -0.256   0.291  -0.797  0.00  0.00    -0.005 A 
ATOM      4  C3  UNL d   1      -1.108   0.110  -1.886  0.00  0.00     0.006 A 
ATOM      5  C4  UNL d   1      -2.339  -0.523  -1.717  0.00  0.00    -0.005 A 
ATOM      6  C5  UNL d   1      -2.729  -0.983  -0.456  0.00  0.00    -0.074 A 
ATOM      7  C6  UNL d   1      -4.045  -1.675  -0.259  0.00  0.00     0.077 C 
ATOM      8  C7  UNL d   1      -1.865  -0.804   0.633  0.00  0.00    -0.001 A 
ENDROOT
TORSDOF 0
ENDMDL
