MODEL 1
REMARK minimizedAffinity -4.9246316
REMARK minimizedRMSD -1
REMARK  0 active torsions:
REMARK  status: ('A' for Active; 'I' for Inactive)
ROOT
ATOM      1  C   UNL d   1      -2.256  -0.750  -0.752  0.00  0.00     0.077 C 
ATOM      2  C1  UNL d   1      -0.834  -0.628  -0.293  0.00  0.00    -0.074 A 
ATOM      3  C2  UNL d   1      -0.521  -0.005   0.920  0.00  0.00    -0.005 A 
ATOM      4  C3  UNL d   1       0.805   0.093   1.338  0.00  0.00     0.006 A 
ATOM      5  C4  UNL d   1       1.831  -0.430   0.551  0.00  0.00    -0.005 A 
ATOM      6  C5  UNL d   1       1.538  -1.058  -0.664  0.00  0.00    -0.074 A 
ATOM      7  C6  UNL d   1       2.628  -1.635  -1.518  0.00  0.00     0.077 C 
ATOM      8  C7  UNL d   1       0.202  -1.159  -1.075  0.00  0.00    -0.001 A 
ENDROOT
TORSDOF 0
ENDMDL
