MODEL 1
REMARK minimizedAffinity -1.9151721
REMARK minimizedRMSD -1
REMARK  0 active torsions:
REMARK  status: ('A' for Active; 'I' for Inactive)
ROOT
ATOM      1  C   UNL d   1       0.759  -0.408   2.513  0.00  0.00     0.077 C 
ATOM      2  C1  UNL d   1       0.068  -0.261   1.190  0.00  0.00    -0.074 A 
ATOM      3  C2  UNL d   1       0.692   0.393   0.123  0.00  0.00    -0.005 A 
ATOM      4  C3  UNL d   1       0.041   0.513  -1.105  0.00  0.00     0.006 A 
ATOM      5  C4  UNL d   1      -1.237  -0.018  -1.278  0.00  0.00    -0.005 A 
ATOM      6  C5  UNL d   1      -1.876  -0.676  -0.222  0.00  0.00    -0.074 A 
ATOM      7  C6  UNL d   1      -3.247  -1.261  -0.394  0.00  0.00     0.077 C 
ATOM      8  C7  UNL d   1      -1.213  -0.799   1.006  0.00  0.00    -0.001 A 
ENDROOT
TORSDOF 0
ENDMDL
