MODEL 1
REMARK minimizedAffinity 1.79479301
REMARK minimizedRMSD -1
REMARK  0 active torsions:
REMARK  status: ('A' for Active; 'I' for Inactive)
ROOT
ATOM      1  C   UNL d   1       1.019  -1.286   2.612  0.00  0.00     0.077 C 
ATOM      2  C1  UNL d   1       1.073  -0.964   1.148  0.00  0.00    -0.074 A 
ATOM      3  C2  UNL d   1       2.068  -1.506   0.329  0.00  0.00    -0.005 A 
ATOM      4  C3  UNL d   1       2.100  -1.205  -1.033  0.00  0.00     0.006 A 
ATOM      5  C4  UNL d   1       1.139  -0.359  -1.588  0.00  0.00    -0.005 A 
ATOM      6  C5  UNL d   1       0.136   0.192  -0.784  0.00  0.00    -0.074 A 
ATOM      7  C6  UNL d   1      -0.910   1.095  -1.367  0.00  0.00     0.077 C 
ATOM      8  C7  UNL d   1       0.106  -0.121   0.581  0.00  0.00    -0.001 A 
ENDROOT
TORSDOF 0
ENDMDL
