MODEL 1
REMARK minimizedAffinity -3.06954455
REMARK minimizedRMSD -1
REMARK  0 active torsions:
REMARK  status: ('A' for Active; 'I' for Inactive)
ROOT
ATOM      1  C   UNL d   1       1.869  -0.353   2.868  0.00  0.00     0.077 C 
ATOM      2  C1  UNL d   1       0.986  -0.338   1.655  0.00  0.00    -0.074 A 
ATOM      3  C2  UNL d   1      -0.385  -0.089   1.767  0.00  0.00    -0.005 A 
ATOM      4  C3  UNL d   1      -1.192  -0.069   0.629  0.00  0.00     0.006 A 
ATOM      5  C4  UNL d   1      -0.636  -0.298  -0.630  0.00  0.00    -0.005 A 
ATOM      6  C5  UNL d   1       0.734  -0.548  -0.762  0.00  0.00    -0.074 A 
ATOM      7  C6  UNL d   1       1.349  -0.785  -2.109  0.00  0.00     0.077 C 
ATOM      8  C7  UNL d   1       1.539  -0.559   0.386  0.00  0.00    -0.001 A 
ENDROOT
TORSDOF 0
ENDMDL
