MODEL 1
REMARK minimizedAffinity 1.96254158
REMARK minimizedRMSD -1
REMARK  0 active torsions:
REMARK  status: ('A' for Active; 'I' for Inactive)
ROOT
ATOM      1  C1  DEN d   1       1.875  -3.999   2.261  0.00  0.00     0.130 A 
ATOM      2  C2  DEN d   1       1.214  -3.003   1.424  0.00  0.00    -0.031 A 
ATOM      3  C3  DEN d   1       0.748  -1.908   2.298  0.00  0.00     0.027 A 
ATOM      4  C4  DEN d   1       0.991  -1.658   4.854  0.00  0.00     0.027 A 
ATOM      5  C5  DEN d   1       1.469  -2.255   6.000  0.00  0.00    -0.003 A 
ATOM      6  C6  DEN d   1       2.080  -3.480   5.984  0.00  0.00     0.001 A 
ATOM      7  C7  DEN d   1       2.271  -4.129   4.793  0.00  0.00     0.017 A 
ATOM      8  C8  DEN d   1       1.785  -3.537   3.634  0.00  0.00    -0.094 A 
ATOM      9  C9  DEN d   1       1.181  -2.292   3.669  0.00  0.00    -0.072 A 
ENDROOT
TORSDOF 0
ENDMDL
