MODEL 1
REMARK minimizedAffinity 13.0514889
REMARK minimizedRMSD -1
REMARK  0 active torsions:
REMARK  status: ('A' for Active; 'I' for Inactive)
ROOT
ATOM      1  C1  DEN d   1       2.244  -4.792   4.654  0.00  0.00     0.130 A 
ATOM      2  C2  DEN d   1       1.725  -4.548   5.997  0.00  0.00    -0.031 A 
ATOM      3  C3  DEN d   1       0.907  -3.319   5.953  0.00  0.00     0.027 A 
ATOM      4  C4  DEN d   1       0.394  -1.782   3.946  0.00  0.00     0.027 A 
ATOM      5  C5  DEN d   1       0.621  -1.575   2.604  0.00  0.00    -0.003 A 
ATOM      6  C6  DEN d   1       1.427  -2.399   1.864  0.00  0.00     0.001 A 
ATOM      7  C7  DEN d   1       1.998  -3.497   2.453  0.00  0.00     0.017 A 
ATOM      8  C8  DEN d   1       1.779  -3.708   3.808  0.00  0.00    -0.094 A 
ATOM      9  C9  DEN d   1       0.951  -2.870   4.535  0.00  0.00    -0.072 A 
ENDROOT
TORSDOF 0
ENDMDL
