MODEL 1
REMARK minimizedAffinity 1.94917738
REMARK minimizedRMSD -1
REMARK  0 active torsions:
REMARK  status: ('A' for Active; 'I' for Inactive)
ROOT
ATOM      1  C1  DEN d   1       2.816  -3.014   2.091  0.00  0.00     0.130 A 
ATOM      2  C2  DEN d   1       2.100  -1.917   1.446  0.00  0.00    -0.031 A 
ATOM      3  C3  DEN d   1       1.263  -1.255   2.466  0.00  0.00     0.027 A 
ATOM      4  C4  DEN d   1       1.010  -1.816   4.971  0.00  0.00     0.027 A 
ATOM      5  C5  DEN d   1       1.409  -2.670   5.976  0.00  0.00    -0.003 A 
ATOM      6  C6  DEN d   1       2.271  -3.710   5.751  0.00  0.00     0.001 A 
ATOM      7  C7  DEN d   1       2.799  -3.896   4.501  0.00  0.00     0.017 A 
ATOM      8  C8  DEN d   1       2.396  -3.044   3.481  0.00  0.00    -0.094 A 
ATOM      9  C9  DEN d   1       1.533  -1.991   3.731  0.00  0.00    -0.072 A 
ENDROOT
TORSDOF 0
ENDMDL
