MODEL 1
REMARK minimizedAffinity 13.6324148
REMARK minimizedRMSD -1
REMARK  0 active torsions:
REMARK  status: ('A' for Active; 'I' for Inactive)
ROOT
ATOM      1  C1  DEN d   1       1.521  -3.417   5.213  0.00  0.00     0.130 A 
ATOM      2  C2  DEN d   1       1.134  -2.249   6.000  0.00  0.00    -0.031 A 
ATOM      3  C3  DEN d   1       0.916  -1.123   5.069  0.00  0.00     0.027 A 
ATOM      4  C4  DEN d   1       1.134  -1.077   2.499  0.00  0.00     0.027 A 
ATOM      5  C5  DEN d   1       1.448  -1.824   1.386  0.00  0.00    -0.003 A 
ATOM      6  C6  DEN d   1       1.839  -3.134   1.472  0.00  0.00     0.001 A 
ATOM      7  C7  DEN d   1       1.882  -3.751   2.695  0.00  0.00     0.017 A 
ATOM      8  C8  DEN d   1       1.573  -3.002   3.823  0.00  0.00    -0.094 A 
ATOM      9  C9  DEN d   1       1.168  -1.682   3.714  0.00  0.00    -0.072 A 
ENDROOT
TORSDOF 0
ENDMDL
