MODEL 1
REMARK minimizedAffinity 8.90905285
REMARK minimizedRMSD -1
REMARK  0 active torsions:
REMARK  status: ('A' for Active; 'I' for Inactive)
ROOT
ATOM      1  C1  DEN d   1       1.963  -4.400   2.461  0.00  0.00     0.130 A 
ATOM      2  C2  DEN d   1       2.962  -5.029   1.602  0.00  0.00    -0.031 A 
ATOM      3  C3  DEN d   1       3.562  -3.978   0.755  0.00  0.00     0.027 A 
ATOM      4  C4  DEN d   1       3.047  -1.452   0.694  0.00  0.00     0.027 A 
ATOM      5  C5  DEN d   1       2.266  -0.452   1.231  0.00  0.00    -0.003 A 
ATOM      6  C6  DEN d   1       1.314  -0.701   2.184  0.00  0.00     0.001 A 
ATOM      7  C7  DEN d   1       1.149  -1.975   2.662  0.00  0.00     0.017 A 
ATOM      8  C8  DEN d   1       1.927  -2.989   2.120  0.00  0.00    -0.094 A 
ATOM      9  C9  DEN d   1       2.893  -2.715   1.166  0.00  0.00    -0.072 A 
ENDROOT
TORSDOF 0
ENDMDL
