MODEL 1
REMARK minimizedAffinity 8.92268848
REMARK minimizedRMSD -1
REMARK  0 active torsions:
REMARK  status: ('A' for Active; 'I' for Inactive)
ROOT
ATOM      1  C1  DEN d   1       1.214  -1.019   2.454  0.00  0.00     0.130 A 
ATOM      2  C2  DEN d   1       1.664  -1.862   1.350  0.00  0.00    -0.031 A 
ATOM      3  C3  DEN d   1       2.086  -3.161   1.911  0.00  0.00     0.027 A 
ATOM      4  C4  DEN d   1       2.082  -3.947   4.368  0.00  0.00     0.027 A 
ATOM      5  C5  DEN d   1       1.798  -3.577   5.664  0.00  0.00    -0.003 A 
ATOM      6  C6  DEN d   1       1.336  -2.327   5.982  0.00  0.00     0.001 A 
ATOM      7  C7  DEN d   1       1.100  -1.417   4.986  0.00  0.00     0.017 A 
ATOM      8  C8  DEN d   1       1.391  -1.780   3.678  0.00  0.00    -0.094 A 
ATOM      9  C9  DEN d   1       1.846  -3.052   3.375  0.00  0.00    -0.072 A 
ENDROOT
TORSDOF 0
ENDMDL
