MODEL 1
REMARK minimizedAffinity 9.80962753
REMARK minimizedRMSD -1
REMARK  0 active torsions:
REMARK  status: ('A' for Active; 'I' for Inactive)
ROOT
ATOM      1  C1  DEN d   1       0.946  -1.652   4.899  0.00  0.00     0.130 A 
ATOM      2  C2  DEN d   1       1.532  -2.803   5.581  0.00  0.00    -0.031 A 
ATOM      3  C3  DEN d   1       2.271  -3.599   4.580  0.00  0.00     0.027 A 
ATOM      4  C4  DEN d   1       2.568  -3.161   2.056  0.00  0.00     0.027 A 
ATOM      5  C5  DEN d   1       2.246  -2.315   1.018  0.00  0.00    -0.003 A 
ATOM      6  C6  DEN d   1       1.447  -1.216   1.193  0.00  0.00     0.001 A 
ATOM      7  C7  DEN d   1       0.979  -0.909   2.443  0.00  0.00     0.017 A 
ATOM      8  C8  DEN d   1       1.293  -1.761   3.493  0.00  0.00    -0.094 A 
ATOM      9  C9  DEN d   1       2.113  -2.860   3.299  0.00  0.00    -0.072 A 
ENDROOT
TORSDOF 0
ENDMDL
