MODEL 1
REMARK minimizedAffinity -1.95514441
REMARK minimizedRMSD -1
REMARK  3 active torsions:
REMARK  status: ('A' for Active; 'I' for Inactive)
REMARK    1  A    between atoms: C3'_2  and  C2'_3 
REMARK    2  A    between atoms: C2'_3  and  C1'_4 
REMARK    3  A    between atoms: C1'_4  and  C1_5 
ROOT
ATOM      1  C1  N4B d   1       0.160   0.066   0.020  0.00  0.00    -0.075 A 
ATOM      2  C2  N4B d   1       1.518  -0.153   0.340  0.00  0.00     0.002 A 
ATOM      3  C3  N4B d   1       2.267  -1.028  -0.408  0.00  0.00     0.002 A 
ATOM      4  C4  N4B d   1       1.677  -1.707  -1.464  0.00  0.00    -0.004 A 
ATOM      5  C5  N4B d   1       0.372  -1.470  -1.782  0.00  0.00     0.002 A 
ATOM      6  C6  N4B d   1      -0.392  -0.590  -1.041  0.00  0.00     0.002 A 
ENDROOT
BRANCH   1   7
ATOM      7  C1' N4B d   1      -0.721   0.949   0.861  0.00  0.00     0.057 C 
BRANCH   7   8
ATOM      8  C2' N4B d   1      -1.810   0.098   1.508  0.00  0.00     0.009 C 
BRANCH   8   9
ATOM      9  C3' N4B d   1      -2.780   0.938   2.321  0.00  0.00     0.004 C 
ATOM     10  C4' N4B d   1      -4.110   1.102   1.649  0.00  0.00     0.003 C 
ENDBRANCH   8   9
ENDBRANCH   7   8
ENDBRANCH   1   7
TORSDOF 3
ENDMDL
