MODEL 1
REMARK minimizedAffinity 0.25551638
REMARK minimizedRMSD -1
REMARK  3 active torsions:
REMARK  status: ('A' for Active; 'I' for Inactive)
REMARK    1  A    between atoms: C3'_2  and  C2'_3 
REMARK    2  A    between atoms: C2'_3  and  C1'_4 
REMARK    3  A    between atoms: C1'_4  and  C1_5 
ROOT
ATOM      1  C1  N4B d   1      -0.089  -0.192  -0.348  0.00  0.00    -0.075 A 
ATOM      2  C2  N4B d   1      -0.530  -1.461  -0.782  0.00  0.00     0.002 A 
ATOM      3  C3  N4B d   1       0.358  -2.506  -0.863  0.00  0.00     0.002 A 
ATOM      4  C4  N4B d   1       1.690  -2.301  -0.535  0.00  0.00    -0.004 A 
ATOM      5  C5  N4B d   1       2.102  -1.078  -0.092  0.00  0.00     0.002 A 
ATOM      6  C6  N4B d   1       1.220  -0.020  -0.002  0.00  0.00     0.002 A 
ENDROOT
BRANCH   1   7
ATOM      7  C1' N4B d   1      -1.005   1.002  -0.325  0.00  0.00     0.057 C 
BRANCH   7   8
ATOM      8  C2' N4B d   1      -2.452   0.524  -0.404  0.00  0.00     0.009 C 
BRANCH   8   9
ATOM      9  C3' N4B d   1      -3.145   0.586   0.946  0.00  0.00     0.004 C 
ATOM     10  C4' N4B d   1      -4.640   0.599   0.831  0.00  0.00     0.003 C 
ENDBRANCH   8   9
ENDBRANCH   7   8
ENDBRANCH   1   7
TORSDOF 3
ENDMDL
