MODEL 1
REMARK minimizedAffinity -3.62628078
REMARK minimizedRMSD -1
REMARK  3 active torsions:
REMARK  status: ('A' for Active; 'I' for Inactive)
REMARK    1  A    between atoms: C3'_2  and  C2'_3 
REMARK    2  A    between atoms: C2'_3  and  C1'_4 
REMARK    3  A    between atoms: C1'_4  and  C1_5 
ROOT
ATOM      1  C1  N4B d   1      -0.005   0.167  -0.282  0.00  0.00    -0.075 A 
ATOM      2  C2  N4B d   1      -0.103  -1.242  -0.240  0.00  0.00     0.002 A 
ATOM      3  C3  N4B d   1       0.997  -1.997   0.086  0.00  0.00     0.002 A 
ATOM      4  C4  N4B d   1       2.204  -1.369   0.355  0.00  0.00    -0.004 A 
ATOM      5  C5  N4B d   1       2.284  -0.007   0.337  0.00  0.00     0.002 A 
ATOM      6  C6  N4B d   1       1.185   0.764   0.015  0.00  0.00     0.002 A 
ENDROOT
BRANCH   1   7
ATOM      7  C1' N4B d   1      -1.158   1.030  -0.717  0.00  0.00     0.057 C 
BRANCH   7   8
ATOM      8  C2' N4B d   1      -2.127   1.197   0.450  0.00  0.00     0.009 C 
BRANCH   8   9
ATOM      9  C3' N4B d   1      -3.576   1.111   0.002  0.00  0.00     0.004 C 
ATOM     10  C4' N4B d   1      -4.426   0.307   0.940  0.00  0.00     0.003 C 
ENDBRANCH   8   9
ENDBRANCH   7   8
ENDBRANCH   1   7
TORSDOF 3
ENDMDL
