MODEL 1
REMARK minimizedAffinity 1.01645041
REMARK minimizedRMSD -1
REMARK  3 active torsions:
REMARK  status: ('A' for Active; 'I' for Inactive)
REMARK    1  A    between atoms: C3'_2  and  C2'_3 
REMARK    2  A    between atoms: C2'_3  and  C1'_4 
REMARK    3  A    between atoms: C1'_4  and  C1_5 
ROOT
ATOM      1  C1  N4B d   1       0.001  -0.055  -0.159  0.00  0.00    -0.075 A 
ATOM      2  C2  N4B d   1       0.590   0.610   0.939  0.00  0.00     0.002 A 
ATOM      3  C3  N4B d   1       0.956   1.929   0.827  0.00  0.00     0.002 A 
ATOM      4  C4  N4B d   1       0.761   2.595  -0.374  0.00  0.00    -0.004 A 
ATOM      5  C5  N4B d   1       0.168   1.952  -1.422  0.00  0.00     0.002 A 
ATOM      6  C6  N4B d   1      -0.209   0.628  -1.322  0.00  0.00     0.002 A 
ENDROOT
BRANCH   1   7
ATOM      7  C1' N4B d   1      -0.337  -1.520  -0.111  0.00  0.00     0.057 C 
BRANCH   7   8
ATOM      8  C2' N4B d   1       0.466  -2.255  -1.181  0.00  0.00     0.009 C 
BRANCH   8   9
ATOM      9  C3' N4B d   1       1.910  -2.468  -0.761  0.00  0.00     0.004 C 
ATOM     10  C4' N4B d   1       2.858  -1.525  -1.440  0.00  0.00     0.003 C 
ENDBRANCH   8   9
ENDBRANCH   7   8
ENDBRANCH   1   7
TORSDOF 3
ENDMDL
