MODEL 1
REMARK minimizedAffinity 2.07061815
REMARK minimizedRMSD -1
REMARK  0 active torsions:
REMARK  status: ('A' for Active; 'I' for Inactive)
ROOT
ATOM      1  C   UNL d   1       1.881  -3.629  -0.444  0.00  0.00     0.023 A 
ATOM      2  C1  UNL d   1       0.659  -3.732   0.221  0.00  0.00     0.003 A 
ATOM      3  C2  UNL d   1       0.358  -2.860   1.270  0.00  0.00     0.048 A 
ATOM      4  C3  UNL d   1       1.282  -1.888   1.648  0.00  0.00     0.023 A 
ATOM      5  C4  UNL d   1       2.506  -1.780   0.985  0.00  0.00     0.048 A 
ATOM      6  C5  UNL d   1       2.804  -2.654  -0.062  0.00  0.00     0.003 A 
ATOM      7  I   UNL d   1       0.836  -0.590   3.208  0.00  0.00    -0.146 I 
ENDROOT
TORSDOF 0
ENDMDL
