MODEL 1
REMARK minimizedAffinity -0.711768091
REMARK minimizedRMSD -1
REMARK  0 active torsions:
REMARK  status: ('A' for Active; 'I' for Inactive)
ROOT
ATOM      1  C   UNL d   1       2.923  -3.902  -0.002  0.00  0.00     0.023 A 
ATOM      2  C1  UNL d   1       1.602  -4.229  -0.307  0.00  0.00     0.003 A 
ATOM      3  C2  UNL d   1       0.589  -3.284  -0.133  0.00  0.00     0.048 A 
ATOM      4  C3  UNL d   1       0.905  -2.013   0.345  0.00  0.00     0.023 A 
ATOM      5  C4  UNL d   1       2.225  -1.680   0.651  0.00  0.00     0.048 A 
ATOM      6  C5  UNL d   1       3.234  -2.629   0.477  0.00  0.00     0.003 A 
ATOM      7  I   UNL d   1      -0.601  -0.603   0.603  0.00  0.00    -0.146 I 
ENDROOT
TORSDOF 0
ENDMDL
