MODEL 1
REMARK minimizedAffinity 1.72099519
REMARK minimizedRMSD -1
REMARK  0 active torsions:
REMARK  status: ('A' for Active; 'I' for Inactive)
ROOT
ATOM      1  C   UNL d   1       0.278  -0.922   1.970  0.00  0.00     0.023 A 
ATOM      2  C1  UNL d   1      -0.189  -1.364   0.733  0.00  0.00     0.003 A 
ATOM      3  C2  UNL d   1       0.492  -1.019  -0.436  0.00  0.00     0.048 A 
ATOM      4  C3  UNL d   1       1.641  -0.231  -0.360  0.00  0.00     0.023 A 
ATOM      5  C4  UNL d   1       2.112   0.213   0.876  0.00  0.00     0.048 A 
ATOM      6  C5  UNL d   1       1.427  -0.134   2.042  0.00  0.00     0.003 A 
ATOM      7  I   UNL d   1       2.656   0.284  -2.099  0.00  0.00    -0.146 I 
ENDROOT
TORSDOF 0
ENDMDL
