MODEL 1
REMARK minimizedAffinity -0.107710443
REMARK minimizedRMSD -1
REMARK  0 active torsions:
REMARK  status: ('A' for Active; 'I' for Inactive)
ROOT
ATOM      1  C   UNL d   1       0.153  -1.088   0.454  0.00  0.00     0.023 A 
ATOM      2  C1  UNL d   1      -0.227  -2.408   0.211  0.00  0.00     0.003 A 
ATOM      3  C2  UNL d   1       0.744  -3.404   0.084  0.00  0.00     0.048 A 
ATOM      4  C3  UNL d   1       2.093  -3.073   0.202  0.00  0.00     0.023 A 
ATOM      5  C4  UNL d   1       2.478  -1.753   0.446  0.00  0.00     0.048 A 
ATOM      6  C5  UNL d   1       1.504  -0.761   0.572  0.00  0.00     0.003 A 
ATOM      7  I   UNL d   1       3.540  -4.553   0.014  0.00  0.00    -0.146 I 
ENDROOT
TORSDOF 0
ENDMDL
