MODEL 1
REMARK minimizedAffinity 2.93686295
REMARK minimizedRMSD -1
REMARK  0 active torsions:
REMARK  status: ('A' for Active; 'I' for Inactive)
ROOT
ATOM      1  C   UNL d   1      -0.320  -2.251   0.002  0.00  0.00     0.023 A 
ATOM      2  C1  UNL d   1      -0.136  -3.410  -0.752  0.00  0.00     0.003 A 
ATOM      3  C2  UNL d   1       1.069  -4.111  -0.674  0.00  0.00     0.048 A 
ATOM      4  C3  UNL d   1       2.086  -3.648   0.160  0.00  0.00     0.023 A 
ATOM      5  C4  UNL d   1       1.906  -2.490   0.917  0.00  0.00     0.048 A 
ATOM      6  C5  UNL d   1       0.700  -1.792   0.836  0.00  0.00     0.003 A 
ATOM      7  I   UNL d   1       3.881  -4.690   0.277  0.00  0.00    -0.146 I 
ENDROOT
TORSDOF 0
ENDMDL
