MODEL 1
REMARK minimizedAffinity -0.172898442
REMARK minimizedRMSD -1
REMARK  0 active torsions:
REMARK  status: ('A' for Active; 'I' for Inactive)
ROOT
ATOM      1  C   UNL d   1      -0.371  -0.005   1.106  0.00  0.00     0.023 A 
ATOM      2  C1  UNL d   1       1.022  -0.064   1.163  0.00  0.00     0.003 A 
ATOM      3  C2  UNL d   1       1.682  -1.267   0.906  0.00  0.00     0.048 A 
ATOM      4  C3  UNL d   1       0.944  -2.408   0.592  0.00  0.00     0.023 A 
ATOM      5  C4  UNL d   1      -0.450  -2.354   0.533  0.00  0.00     0.048 A 
ATOM      6  C5  UNL d   1      -1.106  -1.149   0.792  0.00  0.00     0.003 A 
ATOM      7  I   UNL d   1       1.924  -4.200   0.209  0.00  0.00    -0.146 I 
ENDROOT
TORSDOF 0
ENDMDL
