MODEL 1
REMARK minimizedAffinity 2.14787674
REMARK minimizedRMSD -1
REMARK  0 active torsions:
REMARK  status: ('A' for Active; 'I' for Inactive)
ROOT
ATOM      1  C   UNL d   1       0.385  -0.443   1.188  0.00  0.00     0.023 A 
ATOM      2  C1  UNL d   1       1.777  -0.352   1.166  0.00  0.00     0.003 A 
ATOM      3  C2  UNL d   1       2.548  -1.485   0.898  0.00  0.00     0.048 A 
ATOM      4  C3  UNL d   1       1.920  -2.706   0.652  0.00  0.00     0.023 A 
ATOM      5  C4  UNL d   1       0.528  -2.801   0.671  0.00  0.00     0.048 A 
ATOM      6  C5  UNL d   1      -0.239  -1.666   0.940  0.00  0.00     0.003 A 
ATOM      7  I   UNL d   1       3.066  -4.394   0.252  0.00  0.00    -0.146 I 
ENDROOT
TORSDOF 0
ENDMDL
