MODEL 1
REMARK minimizedAffinity 2.82757354
REMARK minimizedRMSD -1
REMARK  0 active torsions:
REMARK  status: ('A' for Active; 'I' for Inactive)
ROOT
ATOM      1  C   UNL d   1       2.246  -1.780   0.130  0.00  0.00     0.023 A 
ATOM      2  C1  UNL d   1       3.621  -1.782  -0.101  0.00  0.00     0.003 A 
ATOM      3  C2  UNL d   1       4.316  -2.991  -0.177  0.00  0.00     0.048 A 
ATOM      4  C3  UNL d   1       3.628  -4.195  -0.022  0.00  0.00     0.023 A 
ATOM      5  C4  UNL d   1       2.252  -4.197   0.209  0.00  0.00     0.048 A 
ATOM      6  C5  UNL d   1       1.562  -2.986   0.285  0.00  0.00     0.003 A 
ATOM      7  I   UNL d   1       4.660  -5.995  -0.134  0.00  0.00    -0.146 I 
ENDROOT
TORSDOF 0
ENDMDL
