MODEL 1
REMARK minimizedAffinity -1.38778806
REMARK minimizedRMSD -1
REMARK  0 active torsions:
REMARK  status: ('A' for Active; 'I' for Inactive)
ROOT
ATOM      1  C   UNL d   1       0.611  -1.414   0.352  0.00  0.00     0.023 A 
ATOM      2  C1  UNL d   1       0.340  -2.780   0.275  0.00  0.00     0.003 A 
ATOM      3  C2  UNL d   1       1.388  -3.696   0.170  0.00  0.00     0.048 A 
ATOM      4  C3  UNL d   1       2.705  -3.240   0.145  0.00  0.00     0.023 A 
ATOM      5  C4  UNL d   1       2.982  -1.874   0.223  0.00  0.00     0.048 A 
ATOM      6  C5  UNL d   1       1.930  -0.961   0.326  0.00  0.00     0.003 A 
ATOM      7  I   UNL d   1       4.267  -4.602  -0.010  0.00  0.00    -0.146 I 
ENDROOT
TORSDOF 0
ENDMDL
