MODEL 1
REMARK minimizedAffinity -1.97480524
REMARK minimizedRMSD -1
REMARK  0 active torsions:
REMARK  status: ('A' for Active; 'I' for Inactive)
ROOT
ATOM      1  C   UNL d   1       0.013  -0.368   1.057  0.00  0.00     0.023 A 
ATOM      2  C1  UNL d   1       1.334  -0.130   0.678  0.00  0.00     0.003 A 
ATOM      3  C2  UNL d   1       2.160  -1.194   0.311  0.00  0.00     0.048 A 
ATOM      4  C3  UNL d   1       1.658  -2.495   0.325  0.00  0.00     0.023 A 
ATOM      5  C4  UNL d   1       0.337  -2.739   0.703  0.00  0.00     0.048 A 
ATOM      6  C5  UNL d   1      -0.485  -1.671   1.070  0.00  0.00     0.003 A 
ATOM      7  I   UNL d   1       2.885  -4.081  -0.221  0.00  0.00    -0.146 I 
ENDROOT
TORSDOF 0
ENDMDL
