MODEL 1
REMARK minimizedAffinity -1.46392143
REMARK minimizedRMSD -1
REMARK  0 active torsions:
REMARK  status: ('A' for Active; 'I' for Inactive)
ROOT
ATOM      1  C   UNL d   1       3.101  -3.297   0.097  0.00  0.00     0.023 A 
ATOM      2  C1  UNL d   1       1.862  -3.933   0.015  0.00  0.00     0.003 A 
ATOM      3  C2  UNL d   1       0.689  -3.212   0.247  0.00  0.00     0.048 A 
ATOM      4  C3  UNL d   1       0.762  -1.855   0.560  0.00  0.00     0.023 A 
ATOM      5  C4  UNL d   1       2.000  -1.214   0.641  0.00  0.00     0.048 A 
ATOM      6  C5  UNL d   1       3.170  -1.940   0.409  0.00  0.00     0.003 A 
ATOM      7  I   UNL d   1      -0.982  -0.779   0.905  0.00  0.00    -0.146 I 
ENDROOT
TORSDOF 0
ENDMDL
