MODEL 1
REMARK minimizedAffinity 1.59671807
REMARK minimizedRMSD -1
REMARK  0 active torsions:
REMARK  status: ('A' for Active; 'I' for Inactive)
ROOT
ATOM      1  C   UNL d   1       1.238  -1.984   0.132  0.00  0.00     0.023 A 
ATOM      2  C1  UNL d   1       2.585  -1.621   0.141  0.00  0.00     0.003 A 
ATOM      3  C2  UNL d   1       3.574  -2.604   0.071  0.00  0.00     0.048 A 
ATOM      4  C3  UNL d   1       3.210  -3.947  -0.009  0.00  0.00     0.023 A 
ATOM      5  C4  UNL d   1       1.863  -4.315  -0.020  0.00  0.00     0.048 A 
ATOM      6  C5  UNL d   1       0.878  -3.329   0.051  0.00  0.00     0.003 A 
ATOM      7  I   UNL d   1       4.681  -5.412  -0.114  0.00  0.00    -0.146 I 
ENDROOT
TORSDOF 0
ENDMDL
