MODEL 1
REMARK minimizedAffinity -1.06528854
REMARK minimizedRMSD -1
REMARK  0 active torsions:
REMARK  status: ('A' for Active; 'I' for Inactive)
ROOT
ATOM      1  C   UNL d   1       0.720  -1.570   0.251  0.00  0.00     0.023 A 
ATOM      2  C1  UNL d   1       0.416  -2.930   0.304  0.00  0.00     0.003 A 
ATOM      3  C2  UNL d   1       1.439  -3.879   0.244  0.00  0.00     0.048 A 
ATOM      4  C3  UNL d   1       2.764  -3.460   0.131  0.00  0.00     0.023 A 
ATOM      5  C4  UNL d   1       3.073  -2.100   0.077  0.00  0.00     0.048 A 
ATOM      6  C5  UNL d   1       2.047  -1.155   0.137  0.00  0.00     0.003 A 
ATOM      7  I   UNL d   1       4.288  -4.870   0.041  0.00  0.00    -0.146 I 
ENDROOT
TORSDOF 0
ENDMDL
