MODEL 1
REMARK minimizedAffinity -2.71707797
REMARK minimizedRMSD -1
REMARK  0 active torsions:
REMARK  status: ('A' for Active; 'I' for Inactive)
ROOT
ATOM      1  C   UNL d   1      -0.594  -1.190   0.730  0.00  0.00     0.023 A 
ATOM      2  C1  UNL d   1      -0.839  -2.509   0.348  0.00  0.00     0.003 A 
ATOM      3  C2  UNL d   1       0.228  -3.377   0.108  0.00  0.00     0.048 A 
ATOM      4  C3  UNL d   1       1.537  -2.920   0.252  0.00  0.00     0.023 A 
ATOM      5  C4  UNL d   1       1.787  -1.601   0.635  0.00  0.00     0.048 A 
ATOM      6  C5  UNL d   1       0.717  -0.736   0.873  0.00  0.00     0.003 A 
ATOM      7  I   UNL d   1       3.127  -4.211  -0.104  0.00  0.00    -0.146 I 
ENDROOT
TORSDOF 0
ENDMDL
