MODEL 1
REMARK minimizedAffinity 0.670843959
REMARK minimizedRMSD -1
REMARK  0 active torsions:
REMARK  status: ('A' for Active; 'I' for Inactive)
ROOT
ATOM      1  C   UNL d   1      -0.865  -1.715   0.805  0.00  0.00     0.023 A 
ATOM      2  C1  UNL d   1      -0.104  -2.692   0.164  0.00  0.00     0.003 A 
ATOM      3  C2  UNL d   1       1.194  -2.401  -0.260  0.00  0.00     0.048 A 
ATOM      4  C3  UNL d   1       1.725  -1.131  -0.039  0.00  0.00     0.023 A 
ATOM      5  C4  UNL d   1       0.968  -0.150   0.603  0.00  0.00     0.048 A 
ATOM      6  C5  UNL d   1      -0.330  -0.445   1.024  0.00  0.00     0.003 A 
ATOM      7  I   UNL d   1       3.657  -0.695  -0.670  0.00  0.00    -0.146 I 
ENDROOT
TORSDOF 0
ENDMDL
