MODEL 1
REMARK minimizedAffinity 4.36082458
REMARK minimizedRMSD -1
REMARK  0 active torsions:
REMARK  status: ('A' for Active; 'I' for Inactive)
ROOT
ATOM      1  C   UNL d   1      -0.700  -2.684   0.219  0.00  0.00     0.023 A 
ATOM      2  C1  UNL d   1       0.568  -3.234   0.413  0.00  0.00     0.003 A 
ATOM      3  C2  UNL d   1       1.636  -2.415   0.786  0.00  0.00     0.048 A 
ATOM      4  C3  UNL d   1       1.429  -1.048   0.965  0.00  0.00     0.023 A 
ATOM      5  C4  UNL d   1       0.162  -0.494   0.773  0.00  0.00     0.048 A 
ATOM      6  C5  UNL d   1      -0.902  -1.316   0.399  0.00  0.00     0.003 A 
ATOM      7  I   UNL d   1       3.017   0.173   1.521  0.00  0.00    -0.146 I 
ENDROOT
TORSDOF 0
ENDMDL
