MODEL 1
REMARK minimizedAffinity -3.15842056
REMARK minimizedRMSD -1
REMARK  0 active torsions:
REMARK  status: ('A' for Active; 'I' for Inactive)
ROOT
ATOM      1  C   UNL d   1      -0.253  -5.861  -2.605  0.00  0.00     0.172 C 
ATOM      2  N   UNL d   1       0.504  -5.824  -3.834  0.00  0.00    -0.070 N 
ATOM      3  C1  UNL d   1       1.866  -5.923  -3.936  0.00  0.00    -0.004 A 
ATOM      4  C2  UNL d   1       2.196  -5.845  -5.272  0.00  0.00    -0.047 A 
ATOM      5  C3  UNL d   1       0.991  -5.693  -5.998  0.00  0.00    -0.047 A 
ATOM      6  C4  UNL d   1      -0.041  -5.683  -5.083  0.00  0.00    -0.004 A 
ENDROOT
TORSDOF 0
ENDMDL
