MODEL 1
REMARK minimizedAffinity -3.69769478
REMARK minimizedRMSD -1
REMARK  0 active torsions:
REMARK  status: ('A' for Active; 'I' for Inactive)
ROOT
ATOM      1  C   UNL d   1       1.470   0.043   2.055  0.00  0.00     0.172 C 
ATOM      2  N   UNL d   1       0.567  -0.561   3.006  0.00  0.00    -0.070 N 
ATOM      3  C1  UNL d   1       0.914  -1.472   3.968  0.00  0.00    -0.004 A 
ATOM      4  C2  UNL d   1      -0.227  -1.802   4.668  0.00  0.00    -0.047 A 
ATOM      5  C3  UNL d   1      -1.296  -1.065   4.106  0.00  0.00    -0.047 A 
ATOM      6  C4  UNL d   1      -0.776  -0.305   3.079  0.00  0.00    -0.004 A 
ENDROOT
TORSDOF 0
ENDMDL
