MODEL 1
REMARK minimizedAffinity -0.569134533
REMARK minimizedRMSD -1
REMARK  0 active torsions:
REMARK  status: ('A' for Active; 'I' for Inactive)
ROOT
ATOM      1  C   UNL d   1       1.457  -2.080   4.178  0.00  0.00     0.172 C 
ATOM      2  N   UNL d   1       0.849  -1.339   3.098  0.00  0.00    -0.070 N 
ATOM      3  C1  UNL d   1      -0.470  -0.983   3.018  0.00  0.00    -0.004 A 
ATOM      4  C2  UNL d   1      -0.649  -0.289   1.841  0.00  0.00    -0.047 A 
ATOM      5  C3  UNL d   1       0.606  -0.228   1.190  0.00  0.00    -0.047 A 
ATOM      6  C4  UNL d   1       1.516  -0.886   1.991  0.00  0.00    -0.004 A 
ENDROOT
TORSDOF 0
ENDMDL
