MODEL 1
REMARK minimizedAffinity -2.17046833
REMARK minimizedRMSD -1
REMARK  0 active torsions:
REMARK  status: ('A' for Active; 'I' for Inactive)
ROOT
ATOM      1  C   UNL d   1       0.001  -5.999  -5.989  0.00  0.00     0.172 C 
ATOM      2  N   UNL d   1       0.549  -5.616  -4.708  0.00  0.00    -0.070 N 
ATOM      3  C1  UNL d   1       1.646  -4.820  -4.515  0.00  0.00    -0.004 A 
ATOM      4  C2  UNL d   1       1.841  -4.693  -3.157  0.00  0.00    -0.047 A 
ATOM      5  C3  UNL d   1       0.827  -5.439  -2.511  0.00  0.00    -0.047 A 
ATOM      6  C4  UNL d   1       0.040  -6.000  -3.496  0.00  0.00    -0.004 A 
ENDROOT
TORSDOF 0
ENDMDL
