MODEL 1
REMARK minimizedAffinity 0.416519016
REMARK minimizedRMSD -1
REMARK  0 active torsions:
REMARK  status: ('A' for Active; 'I' for Inactive)
ROOT
ATOM      1  C   UNL d   1       1.897   1.948   1.115  0.00  0.00     0.023 A 
ATOM      2  C1  UNL d   1       1.689   0.628   0.716  0.00  0.00     0.003 A 
ATOM      3  C2  UNL d   1       0.390   0.138   0.568  0.00  0.00     0.048 A 
ATOM      4  C3  UNL d   1      -0.697   0.974   0.820  0.00  0.00     0.023 A 
ATOM      5  C4  UNL d   1      -0.494   2.296   1.218  0.00  0.00     0.048 A 
ATOM      6  C5  UNL d   1       0.807   2.781   1.366  0.00  0.00     0.003 A 
ATOM      7  I   UNL d   1      -2.631   0.247   0.600  0.00  0.00    -0.146 I 
ENDROOT
TORSDOF 0
ENDMDL
