MODEL 1
REMARK minimizedAffinity 2.39482164
REMARK minimizedRMSD -1
REMARK  0 active torsions:
REMARK  status: ('A' for Active; 'I' for Inactive)
ROOT
ATOM      1  C   UNL d   1      -2.057   3.093   1.996  0.00  0.00     0.023 A 
ATOM      2  C1  UNL d   1      -1.154   3.032   0.935  0.00  0.00     0.003 A 
ATOM      3  C2  UNL d   1       0.215   3.176   1.172  0.00  0.00     0.048 A 
ATOM      4  C3  UNL d   1       0.673   3.381   2.473  0.00  0.00     0.023 A 
ATOM      5  C4  UNL d   1      -0.227   3.442   3.538  0.00  0.00     0.048 A 
ATOM      6  C5  UNL d   1      -1.595   3.298   3.296  0.00  0.00     0.003 A 
ATOM      7  I   UNL d   1       2.710   3.596   2.829  0.00  0.00    -0.146 I 
ENDROOT
TORSDOF 0
ENDMDL
