MODEL 1
REMARK minimizedAffinity 9.95907211
REMARK minimizedRMSD -1
REMARK  0 active torsions:
REMARK  status: ('A' for Active; 'I' for Inactive)
ROOT
ATOM      1  C   UNL d   1      -3.115  -0.242   0.653  0.00  0.00     0.023 A 
ATOM      2  C1  UNL d   1      -3.509   1.095   0.707  0.00  0.00     0.003 A 
ATOM      3  C2  UNL d   1      -2.549   2.104   0.803  0.00  0.00     0.048 A 
ATOM      4  C3  UNL d   1      -1.196   1.769   0.842  0.00  0.00     0.023 A 
ATOM      5  C4  UNL d   1      -0.797   0.432   0.788  0.00  0.00     0.048 A 
ATOM      6  C5  UNL d   1      -1.761  -0.573   0.693  0.00  0.00     0.003 A 
ATOM      7  I   UNL d   1       0.236   3.269   0.984  0.00  0.00    -0.146 I 
ENDROOT
TORSDOF 0
ENDMDL
