MODEL 1
REMARK minimizedAffinity 1.0277946
REMARK minimizedRMSD -1
REMARK  0 active torsions:
REMARK  status: ('A' for Active; 'I' for Inactive)
ROOT
ATOM      1  C   UNL d   1      -2.883   1.185   1.342  0.00  0.00     0.023 A 
ATOM      2  C1  UNL d   1      -2.027   2.231   0.998  0.00  0.00     0.003 A 
ATOM      3  C2  UNL d   1      -0.693   1.966   0.678  0.00  0.00     0.048 A 
ATOM      4  C3  UNL d   1      -0.223   0.654   0.703  0.00  0.00     0.023 A 
ATOM      5  C4  UNL d   1      -1.077  -0.396   1.046  0.00  0.00     0.048 A 
ATOM      6  C5  UNL d   1      -2.409  -0.127   1.367  0.00  0.00     0.003 A 
ATOM      7  I   UNL d   1       1.760   0.257   0.226  0.00  0.00    -0.146 I 
ENDROOT
TORSDOF 0
ENDMDL
