MODEL 1
REMARK minimizedAffinity 10.7382231
REMARK minimizedRMSD -1
REMARK  0 active torsions:
REMARK  status: ('A' for Active; 'I' for Inactive)
ROOT
ATOM      1  C   UNL d   1       0.968   3.559   2.692  0.00  0.00     0.023 A 
ATOM      2  C1  UNL d   1      -0.052   2.985   1.933  0.00  0.00     0.003 A 
ATOM      3  C2  UNL d   1       0.260   2.185   0.832  0.00  0.00     0.048 A 
ATOM      4  C3  UNL d   1       1.595   1.963   0.496  0.00  0.00     0.023 A 
ATOM      5  C4  UNL d   1       2.619   2.534   1.252  0.00  0.00     0.048 A 
ATOM      6  C5  UNL d   1       2.302   3.334   2.352  0.00  0.00     0.003 A 
ATOM      7  I   UNL d   1       2.063   0.773  -1.143  0.00  0.00    -0.146 I 
ENDROOT
TORSDOF 0
ENDMDL
