MODEL 1
REMARK minimizedAffinity 4.91647768
REMARK minimizedRMSD -1
REMARK  0 active torsions:
REMARK  status: ('A' for Active; 'I' for Inactive)
ROOT
ATOM      1  C   UNL d   1      -3.302  -5.763  -0.453  0.00  0.00     0.023 A 
ATOM      2  C1  UNL d   1      -4.205  -4.822   0.041  0.00  0.00     0.003 A 
ATOM      3  C2  UNL d   1      -3.815  -3.490   0.194  0.00  0.00     0.048 A 
ATOM      4  C3  UNL d   1      -2.520  -3.105  -0.151  0.00  0.00     0.023 A 
ATOM      5  C4  UNL d   1      -1.613  -4.043  -0.647  0.00  0.00     0.048 A 
ATOM      6  C5  UNL d   1      -2.007  -5.374  -0.797  0.00  0.00     0.003 A 
ATOM      7  I   UNL d   1      -1.937  -1.123   0.075  0.00  0.00    -0.146 I 
ENDROOT
TORSDOF 0
ENDMDL
