MODEL 1
REMARK minimizedAffinity 3.93207526
REMARK minimizedRMSD -1
REMARK  0 active torsions:
REMARK  status: ('A' for Active; 'I' for Inactive)
ROOT
ATOM      1  C   UNL d   1      -2.643   0.792   0.401  0.00  0.00     0.023 A 
ATOM      2  C1  UNL d   1      -1.795  -0.227   0.835  0.00  0.00     0.003 A 
ATOM      3  C2  UNL d   1      -0.463   0.055   1.144  0.00  0.00     0.048 A 
ATOM      4  C3  UNL d   1       0.014   1.359   1.018  0.00  0.00     0.023 A 
ATOM      5  C4  UNL d   1      -0.831   2.382   0.586  0.00  0.00     0.048 A 
ATOM      6  C5  UNL d   1      -2.162   2.095   0.277  0.00  0.00     0.003 A 
ATOM      7  I   UNL d   1       1.997   1.782   1.478  0.00  0.00    -0.146 I 
ENDROOT
TORSDOF 0
ENDMDL
