MODEL 1
REMARK minimizedAffinity -2.28210998
REMARK minimizedRMSD -1
REMARK  0 active torsions:
REMARK  status: ('A' for Active; 'I' for Inactive)
ROOT
ATOM      1  C   UNL d   1      -1.389   0.858   0.556  0.00  0.00     0.023 A 
ATOM      2  C1  UNL d   1      -1.469   2.173   1.014  0.00  0.00     0.003 A 
ATOM      3  C2  UNL d   1      -0.329   2.811   1.509  0.00  0.00     0.048 A 
ATOM      4  C3  UNL d   1       0.886   2.128   1.541  0.00  0.00     0.023 A 
ATOM      5  C4  UNL d   1       0.970   0.813   1.083  0.00  0.00     0.048 A 
ATOM      6  C5  UNL d   1      -0.172   0.178   0.590  0.00  0.00     0.003 A 
ATOM      7  I   UNL d   1       2.584   3.076   2.276  0.00  0.00    -0.146 I 
ENDROOT
TORSDOF 0
ENDMDL
