MODEL 1
REMARK minimizedAffinity 8.49410439
REMARK minimizedRMSD -1
REMARK  0 active torsions:
REMARK  status: ('A' for Active; 'I' for Inactive)
ROOT
ATOM      1  C   UNL d   1      -2.172   2.149   1.382  0.00  0.00     0.023 A 
ATOM      2  C1  UNL d   1      -2.338   0.910   0.763  0.00  0.00     0.003 A 
ATOM      3  C2  UNL d   1      -1.221   0.148   0.413  0.00  0.00     0.048 A 
ATOM      4  C3  UNL d   1       0.058   0.630   0.687  0.00  0.00     0.023 A 
ATOM      5  C4  UNL d   1       0.229   1.869   1.307  0.00  0.00     0.048 A 
ATOM      6  C5  UNL d   1      -0.890   2.628   1.654  0.00  0.00     0.003 A 
ATOM      7  I   UNL d   1       1.722  -0.502   0.167  0.00  0.00    -0.146 I 
ENDROOT
TORSDOF 0
ENDMDL
