MODEL 1
REMARK minimizedAffinity -0.144638985
REMARK minimizedRMSD -1
REMARK  0 active torsions:
REMARK  status: ('A' for Active; 'I' for Inactive)
ROOT
ATOM      1  C   UNL d   1      -1.164   1.125   0.422  0.00  0.00     0.023 A 
ATOM      2  C1  UNL d   1      -0.022   0.326   0.380  0.00  0.00     0.003 A 
ATOM      3  C2  UNL d   1       1.168   0.775   0.958  0.00  0.00     0.048 A 
ATOM      4  C3  UNL d   1       1.207   2.024   1.577  0.00  0.00     0.023 A 
ATOM      5  C4  UNL d   1       0.066   2.827   1.622  0.00  0.00     0.048 A 
ATOM      6  C5  UNL d   1      -1.120   2.374   1.042  0.00  0.00     0.003 A 
ATOM      7  I   UNL d   1       2.976   2.694   2.438  0.00  0.00    -0.146 I 
ENDROOT
TORSDOF 0
ENDMDL
