MODEL 1
REMARK minimizedAffinity 5.41442728
REMARK minimizedRMSD -1
REMARK  0 active torsions:
REMARK  status: ('A' for Active; 'I' for Inactive)
ROOT
ATOM      1  C   UNL d   1      -2.166   0.321   1.335  0.00  0.00     0.023 A 
ATOM      2  C1  UNL d   1      -1.738  -1.005   1.271  0.00  0.00     0.003 A 
ATOM      3  C2  UNL d   1      -0.483  -1.311   0.742  0.00  0.00     0.048 A 
ATOM      4  C3  UNL d   1       0.341  -0.285   0.279  0.00  0.00     0.023 A 
ATOM      5  C4  UNL d   1      -0.083   1.044   0.341  0.00  0.00     0.048 A 
ATOM      6  C5  UNL d   1      -1.339   1.344   0.870  0.00  0.00     0.003 A 
ATOM      7  I   UNL d   1       2.210  -0.737  -0.508  0.00  0.00    -0.146 I 
ENDROOT
TORSDOF 0
ENDMDL
