MODEL 1
REMARK minimizedAffinity 2.90920544
REMARK minimizedRMSD -1
REMARK  0 active torsions:
REMARK  status: ('A' for Active; 'I' for Inactive)
ROOT
ATOM      1  C   UNL d   1       3.887   3.477   2.682  0.00  0.00     0.023 A 
ATOM      2  C1  UNL d   1       4.952   3.062   1.882  0.00  0.00     0.003 A 
ATOM      3  C2  UNL d   1       4.714   2.269   0.757  0.00  0.00     0.048 A 
ATOM      4  C3  UNL d   1       3.409   1.895   0.438  0.00  0.00     0.023 A 
ATOM      5  C4  UNL d   1       2.341   2.308   1.235  0.00  0.00     0.048 A 
ATOM      6  C5  UNL d   1       2.583   3.100   2.359  0.00  0.00     0.003 A 
ATOM      7  I   UNL d   1       3.054   0.715  -1.236  0.00  0.00    -0.146 I 
ENDROOT
TORSDOF 0
ENDMDL
