MODEL 1
REMARK minimizedAffinity 7.28190899
REMARK minimizedRMSD -1
REMARK  0 active torsions:
REMARK  status: ('A' for Active; 'I' for Inactive)
ROOT
ATOM      1  C   UNL d   1      -2.534   0.765   0.896  0.00  0.00     0.023 A 
ATOM      2  C1  UNL d   1      -1.980  -0.494   0.664  0.00  0.00     0.003 A 
ATOM      3  C2  UNL d   1      -0.660  -0.607   0.224  0.00  0.00     0.048 A 
ATOM      4  C3  UNL d   1       0.102   0.543   0.018  0.00  0.00     0.023 A 
ATOM      5  C4  UNL d   1      -0.448   1.805   0.250  0.00  0.00     0.048 A 
ATOM      6  C5  UNL d   1      -1.768   1.913   0.689  0.00  0.00     0.003 A 
ATOM      7  I   UNL d   1       2.067   0.377  -0.636  0.00  0.00    -0.146 I 
ENDROOT
TORSDOF 0
ENDMDL
