MODEL 1
REMARK minimizedAffinity 1.06870735
REMARK minimizedRMSD -1
REMARK  0 active torsions:
REMARK  status: ('A' for Active; 'I' for Inactive)
ROOT
ATOM      1  C   UNL d   1      -1.748   0.931   0.599  0.00  0.00     0.023 A 
ATOM      2  C1  UNL d   1      -1.606   2.275   0.945  0.00  0.00     0.003 A 
ATOM      3  C2  UNL d   1      -0.352   2.777   1.298  0.00  0.00     0.048 A 
ATOM      4  C3  UNL d   1       0.756   1.931   1.301  0.00  0.00     0.023 A 
ATOM      5  C4  UNL d   1       0.619   0.586   0.954  0.00  0.00     0.048 A 
ATOM      6  C5  UNL d   1      -0.637   0.087   0.603  0.00  0.00     0.003 A 
ATOM      7  I   UNL d   1       2.624   2.676   1.825  0.00  0.00    -0.146 I 
ENDROOT
TORSDOF 0
ENDMDL
