MODEL 1
REMARK minimizedAffinity 5.74195814
REMARK minimizedRMSD -1
REMARK  1 active torsions:
REMARK  status: ('A' for Active; 'I' for Inactive)
REMARK    1  A    between atoms: N_2  and  C1_3 
ROOT
ATOM      1  C1  UNL d   1       0.570   5.708   5.324  0.00  0.00     0.143 A 
ATOM      2  C2  UNL d   1      -0.620   6.000   5.999  0.00  0.00    -0.057 A 
ATOM      3  C3  UNL d   1      -1.867   5.777   5.403  0.00  0.00     0.033 A 
ATOM      4  C4  UNL d   1      -1.945   5.283   4.105  0.00  0.00    -0.042 A 
ATOM      5  C5  UNL d   1      -0.775   5.009   3.405  0.00  0.00     0.033 A 
ATOM      6  C6  UNL d   1       0.467   5.228   4.009  0.00  0.00    -0.057 A 
ENDROOT
BRANCH   1   7
ATOM      7  N   UNL d   1       1.841   6.000   5.826  0.00  0.00    -0.732 N 
ATOM      8  C   UNL d   1       2.937   5.074   5.640  0.00  0.00     0.284 C 
ATOM      9  H3  UNL d   1       2.095   6.977   5.696  0.00  0.00     0.395 HD
ENDBRANCH   1   7
TORSDOF 1
ENDMDL
