MODEL 1
REMARK minimizedAffinity 0.440955341
REMARK minimizedRMSD -1
REMARK  1 active torsions:
REMARK  status: ('A' for Active; 'I' for Inactive)
REMARK    1  A    between atoms: N_2  and  C1_3 
ROOT
ATOM      1  C1  UNL d   1       1.229  -2.715   0.700  0.00  0.00     0.143 A 
ATOM      2  C2  UNL d   1       1.067  -3.778  -0.195  0.00  0.00    -0.057 A 
ATOM      3  C3  UNL d   1       2.166  -4.513  -0.656  0.00  0.00     0.033 A 
ATOM      4  C4  UNL d   1       3.454  -4.180  -0.249  0.00  0.00    -0.042 A 
ATOM      5  C5  UNL d   1       3.641  -3.112   0.621  0.00  0.00     0.033 A 
ATOM      6  C6  UNL d   1       2.539  -2.385   1.082  0.00  0.00    -0.057 A 
ENDROOT
BRANCH   1   7
ATOM      7  N   UNL d   1       0.187  -1.883   1.117  0.00  0.00    -0.732 N 
ATOM      8  C   UNL d   1      -1.096  -2.439   1.489  0.00  0.00     0.284 C 
ATOM      9  H3  UNL d   1       0.508  -1.135   1.727  0.00  0.00     0.395 HD
ENDBRANCH   1   7
TORSDOF 1
ENDMDL
