MODEL 1
REMARK minimizedAffinity 13.0666437
REMARK minimizedRMSD -1
REMARK  1 active torsions:
REMARK  status: ('A' for Active; 'I' for Inactive)
REMARK    1  A    between atoms: N_2  and  C1_3 
ROOT
ATOM      1  C1  UNL d   1       5.809   0.350  -2.152  0.00  0.00     0.143 A 
ATOM      2  C2  UNL d   1       5.582  -1.018  -1.965  0.00  0.00    -0.057 A 
ATOM      3  C3  UNL d   1       5.500  -1.571  -0.682  0.00  0.00     0.033 A 
ATOM      4  C4  UNL d   1       5.672  -0.769   0.441  0.00  0.00    -0.042 A 
ATOM      5  C5  UNL d   1       5.924   0.589   0.279  0.00  0.00     0.033 A 
ATOM      6  C6  UNL d   1       5.998   1.137  -1.005  0.00  0.00    -0.057 A 
ENDROOT
BRANCH   1   7
ATOM      7  N   UNL d   1       6.000   0.944  -3.402  0.00  0.00    -0.732 N 
ATOM      8  C   UNL d   1       5.834   2.371  -3.574  0.00  0.00     0.284 C 
ATOM      9  H3  UNL d   1       6.798   0.555  -3.899  0.00  0.00     0.395 HD
ENDBRANCH   1   7
TORSDOF 1
ENDMDL
