MODEL 1
REMARK minimizedAffinity 9.61515999
REMARK minimizedRMSD -1
REMARK  1 active torsions:
REMARK  status: ('A' for Active; 'I' for Inactive)
REMARK    1  A    between atoms: N_2  and  C1_3 
ROOT
ATOM      1  C1  UNL d   1      -2.948  -1.210   1.492  0.00  0.00     0.143 A 
ATOM      2  C2  UNL d   1      -1.831  -1.582   2.247  0.00  0.00    -0.057 A 
ATOM      3  C3  UNL d   1      -1.451  -0.862   3.386  0.00  0.00     0.033 A 
ATOM      4  C4  UNL d   1      -2.168   0.264   3.775  0.00  0.00    -0.042 A 
ATOM      5  C5  UNL d   1      -3.267   0.668   3.026  0.00  0.00     0.033 A 
ATOM      6  C6  UNL d   1      -3.646  -0.059   1.893  0.00  0.00    -0.057 A 
ENDROOT
BRANCH   1   7
ATOM      7  N   UNL d   1      -3.318  -1.826   0.294  0.00  0.00    -0.732 N 
ATOM      8  C   UNL d   1      -3.250  -1.103  -0.958  0.00  0.00     0.284 C 
ATOM      9  H3  UNL d   1      -2.996  -2.789   0.237  0.00  0.00     0.395 HD
ENDBRANCH   1   7
TORSDOF 1
ENDMDL
