MODEL 1
REMARK minimizedAffinity 8.29700279
REMARK minimizedRMSD -1
REMARK  1 active torsions:
REMARK  status: ('A' for Active; 'I' for Inactive)
REMARK    1  A    between atoms: N_2  and  C1_3 
ROOT
ATOM      1  C1  UNL d   1       0.426  -1.318   2.281  0.00  0.00     0.143 A 
ATOM      2  C2  UNL d   1       1.406  -0.470   2.809  0.00  0.00    -0.057 A 
ATOM      3  C3  UNL d   1       2.736  -0.540   2.376  0.00  0.00     0.033 A 
ATOM      4  C4  UNL d   1       3.116  -1.482   1.426  0.00  0.00    -0.042 A 
ATOM      5  C5  UNL d   1       2.164  -2.351   0.906  0.00  0.00     0.033 A 
ATOM      6  C6  UNL d   1       0.836  -2.272   1.337  0.00  0.00    -0.057 A 
ENDROOT
BRANCH   1   7
ATOM      7  N   UNL d   1      -0.892  -1.364   2.741  0.00  0.00    -0.732 N 
ATOM      8  C   UNL d   1      -1.510  -0.193   3.327  0.00  0.00     0.284 C 
ATOM      9  H3  UNL d   1      -1.503  -1.889   2.119  0.00  0.00     0.395 HD
ENDBRANCH   1   7
TORSDOF 1
ENDMDL
