MODEL 1
REMARK minimizedAffinity 5.93220139
REMARK minimizedRMSD -1
REMARK  1 active torsions:
REMARK  status: ('A' for Active; 'I' for Inactive)
REMARK    1  A    between atoms: N_2  and  C1_3 
ROOT
ATOM      1  C1  UNL d   1      -4.621   2.253   4.655  0.00  0.00     0.143 A 
ATOM      2  C2  UNL d   1      -5.680   2.564   3.796  0.00  0.00    -0.057 A 
ATOM      3  C3  UNL d   1      -5.773   1.993   2.521  0.00  0.00     0.033 A 
ATOM      4  C4  UNL d   1      -4.789   1.120   2.070  0.00  0.00    -0.042 A 
ATOM      5  C5  UNL d   1      -3.713   0.817   2.897  0.00  0.00     0.033 A 
ATOM      6  C6  UNL d   1      -3.629   1.385   4.172  0.00  0.00    -0.057 A 
ENDROOT
BRANCH   1   7
ATOM      7  N   UNL d   1      -4.420   2.864   5.896  0.00  0.00    -0.732 N 
ATOM      8  C   UNL d   1      -4.137   4.280   5.983  0.00  0.00     0.284 C 
ATOM      9  H3  UNL d   1      -5.066   2.524   6.604  0.00  0.00     0.395 HD
ENDBRANCH   1   7
TORSDOF 1
ENDMDL
