MODEL 1
REMARK minimizedAffinity 9.02738667
REMARK minimizedRMSD -1
REMARK  1 active torsions:
REMARK  status: ('A' for Active; 'I' for Inactive)
REMARK    1  A    between atoms: N_2  and  C1_3 
ROOT
ATOM      1  C1  UNL d   1       2.079  -2.816   0.127  0.00  0.00     0.143 A 
ATOM      2  C2  UNL d   1       0.820  -2.209   0.184  0.00  0.00    -0.057 A 
ATOM      3  C3  UNL d   1       0.461  -1.382   1.255  0.00  0.00     0.033 A 
ATOM      4  C4  UNL d   1       1.347  -1.170   2.306  0.00  0.00    -0.042 A 
ATOM      5  C5  UNL d   1       2.595  -1.784   2.283  0.00  0.00     0.033 A 
ATOM      6  C6  UNL d   1       2.950  -2.603   1.207  0.00  0.00    -0.057 A 
ENDROOT
BRANCH   1   7
ATOM      7  N   UNL d   1       2.459  -3.727  -0.862  0.00  0.00    -0.732 N 
ATOM      8  C   UNL d   1       2.597  -5.134  -0.554  0.00  0.00     0.284 C 
ATOM      9  H3  UNL d   1       2.012  -3.539  -1.756  0.00  0.00     0.395 HD
ENDBRANCH   1   7
TORSDOF 1
ENDMDL
