MODEL 1
REMARK minimizedAffinity -5.85619879
REMARK minimizedRMSD -1
REMARK  2 active torsions:
REMARK  status: ('A' for Active; 'I' for Inactive)
REMARK    1  A    between atoms: C2'_3  and  C1'_4 
REMARK    2  A    between atoms: C1'_4  and  C1_5 
ROOT
ATOM      1  C1  I4B d   1       0.933   0.170   0.363  0.00  0.00    -0.075 A 
ATOM      2  C2  I4B d   1       2.162   0.651  -0.013  0.00  0.00     0.003 A 
ATOM      3  C3  I4B d   1       3.345   0.013   0.434  0.00  0.00     0.002 A 
ATOM      4  C4  I4B d   1       3.253  -1.065   1.291  0.00  0.00    -0.004 A 
ATOM      5  C5  I4B d   1       2.006  -1.565   1.653  0.00  0.00     0.002 A 
ATOM      6  C6  I4B d   1       0.838  -0.952   1.176  0.00  0.00     0.003 A 
ENDROOT
BRANCH   1   7
ATOM      7  C1' I4B d   1      -0.295   0.887  -0.101  0.00  0.00     0.060 C 
BRANCH   7   8
ATOM      8  C2' I4B d   1      -1.254  -0.143  -0.661  0.00  0.00    -0.013 C 
ATOM      9  C4' I4B d   1      -2.170  -0.673   0.410  0.00  0.00     0.013 C 
ATOM     10  C3' I4B d   1      -2.032   0.503  -1.768  0.00  0.00     0.013 C 
ENDBRANCH   7   8
ENDBRANCH   1   7
TORSDOF 2
ENDMDL
