MODEL 1
REMARK minimizedAffinity -2.78266454
REMARK minimizedRMSD -1
REMARK  2 active torsions:
REMARK  status: ('A' for Active; 'I' for Inactive)
REMARK    1  A    between atoms: C2'_3  and  C1'_4 
REMARK    2  A    between atoms: C1'_4  and  C1_5 
ROOT
ATOM      1  C1  I4B d   1       0.943  -0.032   0.623  0.00  0.00    -0.075 A 
ATOM      2  C2  I4B d   1       1.832   0.721   1.349  0.00  0.00     0.003 A 
ATOM      3  C3  I4B d   1       2.831   0.090   2.128  0.00  0.00     0.002 A 
ATOM      4  C4  I4B d   1       2.874  -1.288   2.191  0.00  0.00    -0.004 A 
ATOM      5  C5  I4B d   1       1.988  -2.050   1.436  0.00  0.00     0.002 A 
ATOM      6  C6  I4B d   1       1.024  -1.419   0.637  0.00  0.00     0.003 A 
ENDROOT
BRANCH   1   7
ATOM      7  C1' I4B d   1      -0.120   0.667  -0.163  0.00  0.00     0.060 C 
BRANCH   7   8
ATOM      8  C2' I4B d   1      -1.179  -0.354  -0.527  0.00  0.00    -0.013 C 
ATOM      9  C4' I4B d   1      -1.986  -0.757   0.679  0.00  0.00     0.013 C 
ATOM     10  C3' I4B d   1      -2.053   0.243  -1.589  0.00  0.00     0.013 C 
ENDBRANCH   7   8
ENDBRANCH   1   7
TORSDOF 2
ENDMDL
