MODEL 1
REMARK minimizedAffinity 4.85236549
REMARK minimizedRMSD -1
REMARK  2 active torsions:
REMARK  status: ('A' for Active; 'I' for Inactive)
REMARK    1  A    between atoms: C2'_3  and  C1'_4 
REMARK    2  A    between atoms: C1'_4  and  C1_5 
ROOT
ATOM      1  C1  I4B d   1      -0.846   0.681  -0.299  0.00  0.00    -0.075 A 
ATOM      2  C2  I4B d   1      -0.053  -0.438  -0.350  0.00  0.00     0.003 A 
ATOM      3  C3  I4B d   1       1.185  -0.465   0.335  0.00  0.00     0.002 A 
ATOM      4  C4  I4B d   1       1.612   0.659   1.013  0.00  0.00    -0.004 A 
ATOM      5  C5  I4B d   1       0.796   1.784   1.083  0.00  0.00     0.002 A 
ATOM      6  C6  I4B d   1      -0.446   1.792   0.433  0.00  0.00     0.003 A 
ENDROOT
BRANCH   1   7
ATOM      7  C1' I4B d   1      -2.133   0.688  -1.062  0.00  0.00     0.060 C 
BRANCH   7   8
ATOM      8  C2' I4B d   1      -1.821   0.358  -2.507  0.00  0.00    -0.013 C 
ATOM      9  C4' I4B d   1      -2.468  -0.937  -2.923  0.00  0.00     0.013 C 
ATOM     10  C3' I4B d   1      -2.297   1.498  -3.356  0.00  0.00     0.013 C 
ENDBRANCH   7   8
ENDBRANCH   1   7
TORSDOF 2
ENDMDL
