MODEL 1
REMARK minimizedAffinity -5.72452927
REMARK minimizedRMSD -1
REMARK  2 active torsions:
REMARK  status: ('A' for Active; 'I' for Inactive)
REMARK    1  A    between atoms: C2'_3  and  C1'_4 
REMARK    2  A    between atoms: C1'_4  and  C1_5 
ROOT
ATOM      1  C1  I4B d   1       0.040  -0.174  -0.049  0.00  0.00    -0.075 A 
ATOM      2  C2  I4B d   1       0.685  -1.334   0.301  0.00  0.00     0.003 A 
ATOM      3  C3  I4B d   1       2.073  -1.322   0.580  0.00  0.00     0.002 A 
ATOM      4  C4  I4B d   1       2.782  -0.145   0.450  0.00  0.00    -0.004 A 
ATOM      5  C5  I4B d   1       2.122   1.035   0.118  0.00  0.00     0.002 A 
ATOM      6  C6  I4B d   1       0.740   1.023  -0.121  0.00  0.00     0.003 A 
ENDROOT
BRANCH   1   7
ATOM      7  C1' I4B d   1      -1.420  -0.230  -0.370  0.00  0.00     0.060 C 
BRANCH   7   8
ATOM      8  C2' I4B d   1      -1.600   0.219  -1.806  0.00  0.00    -0.013 C 
ATOM      9  C4' I4B d   1      -1.427  -0.932  -2.762  0.00  0.00     0.013 C 
ATOM     10  C3' I4B d   1      -2.965   0.828  -1.933  0.00  0.00     0.013 C 
ENDBRANCH   7   8
ENDBRANCH   1   7
TORSDOF 2
ENDMDL
