MODEL 1
REMARK minimizedAffinity 12.1053753
REMARK minimizedRMSD -1
REMARK  2 active torsions:
REMARK  status: ('A' for Active; 'I' for Inactive)
REMARK    1  A    between atoms: C1_2  and  C2_3 
REMARK    2  A    between atoms: C2_3  and  C3_4 
ROOT
ATOM      1  C3  UNL d   1      -5.626   0.702   2.268  0.00  0.00    -0.075 A 
ATOM      2  C4  UNL d   1      -5.829   1.619   1.226  0.00  0.00     0.002 A 
ATOM      3  C5  UNL d   1      -5.984   2.978   1.499  0.00  0.00     0.002 A 
ATOM      4  C6  UNL d   1      -5.948   3.437   2.814  0.00  0.00    -0.004 A 
ATOM      5  C7  UNL d   1      -5.763   2.533   3.858  0.00  0.00     0.002 A 
ATOM      6  C8  UNL d   1      -5.604   1.172   3.587  0.00  0.00     0.002 A 
ENDROOT
BRANCH   1   7
ATOM      7  C2  UNL d   1      -5.429  -0.766   1.977  0.00  0.00     0.056 C 
BRANCH   7   8
ATOM      8  C1  UNL d   1      -3.961  -1.181   1.827  0.00  0.00     0.007 C 
ATOM      9  C   UNL d   1      -3.388  -0.875   0.450  0.00  0.00     0.009 C 
ENDBRANCH   7   8
ENDBRANCH   1   7
TORSDOF 2
ENDMDL
