MODEL 1
REMARK minimizedAffinity 4.467453
REMARK minimizedRMSD -1
REMARK  2 active torsions:
REMARK  status: ('A' for Active; 'I' for Inactive)
REMARK    1  A    between atoms: C1_2  and  C2_3 
REMARK    2  A    between atoms: C2_3  and  C3_4 
ROOT
ATOM      1  C3  UNL d   1       3.045  -0.259   2.079  0.00  0.00    -0.075 A 
ATOM      2  C4  UNL d   1       3.337   0.808   1.216  0.00  0.00     0.002 A 
ATOM      3  C5  UNL d   1       2.355   1.324   0.370  0.00  0.00     0.002 A 
ATOM      4  C6  UNL d   1       1.075   0.776   0.368  0.00  0.00    -0.004 A 
ATOM      5  C7  UNL d   1       0.778  -0.295   1.209  0.00  0.00     0.002 A 
ATOM      6  C8  UNL d   1       1.757  -0.811   2.059  0.00  0.00     0.002 A 
ENDROOT
BRANCH   1   7
ATOM      7  C2  UNL d   1       4.095  -0.803   3.018  0.00  0.00     0.056 C 
BRANCH   7   8
ATOM      8  C1  UNL d   1       5.447  -0.088   2.923  0.00  0.00     0.007 C 
ATOM      9  C   UNL d   1       5.999   0.333   4.279  0.00  0.00     0.009 C 
ENDBRANCH   7   8
ENDBRANCH   1   7
TORSDOF 2
ENDMDL
