MODEL 1
REMARK minimizedAffinity 2.86158705
REMARK minimizedRMSD -1
REMARK  2 active torsions:
REMARK  status: ('A' for Active; 'I' for Inactive)
REMARK    1  A    between atoms: C1_2  and  C2_3 
REMARK    2  A    between atoms: C2_3  and  C3_4 
ROOT
ATOM      1  C3  UNL d   1       3.127  -0.998   1.944  0.00  0.00    -0.075 A 
ATOM      2  C4  UNL d   1       2.775  -0.136   0.896  0.00  0.00     0.002 A 
ATOM      3  C5  UNL d   1       3.642   0.881   0.495  0.00  0.00     0.002 A 
ATOM      4  C6  UNL d   1       4.864   1.055   1.141  0.00  0.00    -0.004 A 
ATOM      5  C7  UNL d   1       5.216   0.214   2.194  0.00  0.00     0.002 A 
ATOM      6  C8  UNL d   1       4.353  -0.807   2.595  0.00  0.00     0.002 A 
ENDROOT
BRANCH   1   7
ATOM      7  C2  UNL d   1       2.206  -2.120   2.364  0.00  0.00     0.056 C 
BRANCH   7   8
ATOM      8  C1  UNL d   1       2.139  -3.279   1.364  0.00  0.00     0.007 C 
ATOM      9  C   UNL d   1       3.299  -4.256   1.499  0.00  0.00     0.009 C 
ENDBRANCH   7   8
ENDBRANCH   1   7
TORSDOF 2
ENDMDL
