MODEL 1
REMARK minimizedAffinity 6.01489735
REMARK minimizedRMSD -1
REMARK  2 active torsions:
REMARK  status: ('A' for Active; 'I' for Inactive)
REMARK    1  A    between atoms: C1_2  and  C2_3 
REMARK    2  A    between atoms: C2_3  and  C3_4 
ROOT
ATOM      1  C3  UNL d   1      -5.275   3.689   4.026  0.00  0.00    -0.075 A 
ATOM      2  C4  UNL d   1      -5.997   4.361   5.023  0.00  0.00     0.002 A 
ATOM      3  C5  UNL d   1      -5.334   5.103   6.000  0.00  0.00     0.002 A 
ATOM      4  C6  UNL d   1      -3.943   5.176   5.999  0.00  0.00    -0.004 A 
ATOM      5  C7  UNL d   1      -3.214   4.500   5.023  0.00  0.00     0.002 A 
ATOM      6  C8  UNL d   1      -3.875   3.759   4.042  0.00  0.00     0.002 A 
ENDROOT
BRANCH   1   7
ATOM      7  C2  UNL d   1      -5.988   2.908   2.948  0.00  0.00     0.056 C 
BRANCH   7   8
ATOM      8  C1  UNL d   1      -5.048   2.205   1.962  0.00  0.00     0.007 C 
ATOM      9  C   UNL d   1      -5.186   0.689   1.980  0.00  0.00     0.009 C 
ENDBRANCH   7   8
ENDBRANCH   1   7
TORSDOF 2
ENDMDL
