MODEL 1
REMARK minimizedAffinity 4.19553661
REMARK minimizedRMSD -1
REMARK  2 active torsions:
REMARK  status: ('A' for Active; 'I' for Inactive)
REMARK    1  A    between atoms: C1_2  and  C2_3 
REMARK    2  A    between atoms: C2_3  and  C3_4 
ROOT
ATOM      1  C3  UNL d   1      -2.261   4.517   5.186  0.00  0.00    -0.075 A 
ATOM      2  C4  UNL d   1      -1.134   3.954   5.801  0.00  0.00     0.002 A 
ATOM      3  C5  UNL d   1      -0.007   3.624   5.048  0.00  0.00     0.002 A 
ATOM      4  C6  UNL d   1       0.004   3.842   3.672  0.00  0.00    -0.004 A 
ATOM      5  C7  UNL d   1      -1.117   4.385   3.048  0.00  0.00     0.002 A 
ATOM      6  C8  UNL d   1      -2.245   4.721   3.800  0.00  0.00     0.002 A 
ENDROOT
BRANCH   1   7
ATOM      7  C2  UNL d   1      -3.473   4.904   6.000  0.00  0.00     0.056 C 
BRANCH   7   8
ATOM      8  C1  UNL d   1      -4.598   3.863   5.977  0.00  0.00     0.007 C 
ATOM      9  C   UNL d   1      -5.989   4.482   5.999  0.00  0.00     0.009 C 
ENDBRANCH   7   8
ENDBRANCH   1   7
TORSDOF 2
ENDMDL
