MODEL 1
REMARK minimizedAffinity 3.52254987
REMARK minimizedRMSD -1
REMARK  2 active torsions:
REMARK  status: ('A' for Active; 'I' for Inactive)
REMARK    1  A    between atoms: C1_2  and  C2_3 
REMARK    2  A    between atoms: C2_3  and  C3_4 
ROOT
ATOM      1  C3  UNL d   1      -3.732  -1.687   5.256  0.00  0.00    -0.075 A 
ATOM      2  C4  UNL d   1      -4.090  -2.821   5.999  0.00  0.00     0.002 A 
ATOM      3  C5  UNL d   1      -4.486  -3.994   5.355  0.00  0.00     0.002 A 
ATOM      4  C6  UNL d   1      -4.539  -4.045   3.964  0.00  0.00    -0.004 A 
ATOM      5  C7  UNL d   1      -4.202  -2.919   3.216  0.00  0.00     0.002 A 
ATOM      6  C8  UNL d   1      -3.801  -1.746   3.858  0.00  0.00     0.002 A 
ENDROOT
BRANCH   1   7
ATOM      7  C2  UNL d   1      -3.275  -0.424   5.946  0.00  0.00     0.056 C 
BRANCH   7   8
ATOM      8  C1  UNL d   1      -4.337   0.679   5.995  0.00  0.00     0.007 C 
ATOM      9  C   UNL d   1      -3.745   2.083   5.996  0.00  0.00     0.009 C 
ENDBRANCH   7   8
ENDBRANCH   1   7
TORSDOF 2
ENDMDL
