MODEL 1
REMARK minimizedAffinity 4.55089903
REMARK minimizedRMSD -1
REMARK  2 active torsions:
REMARK  status: ('A' for Active; 'I' for Inactive)
REMARK    1  A    between atoms: C1_2  and  C2_3 
REMARK    2  A    between atoms: C2_3  and  C3_4 
ROOT
ATOM      1  C3  UNL d   1       3.801   0.682   1.003  0.00  0.00    -0.075 A 
ATOM      2  C4  UNL d   1       4.865   0.113   1.717  0.00  0.00     0.002 A 
ATOM      3  C5  UNL d   1       4.622  -0.819   2.727  0.00  0.00     0.002 A 
ATOM      4  C6  UNL d   1       3.315  -1.184   3.042  0.00  0.00    -0.004 A 
ATOM      5  C7  UNL d   1       2.249  -0.612   2.350  0.00  0.00     0.002 A 
ATOM      6  C8  UNL d   1       2.490   0.317   1.336  0.00  0.00     0.002 A 
ENDROOT
BRANCH   1   7
ATOM      7  C2  UNL d   1       4.058   1.669  -0.111  0.00  0.00     0.056 C 
BRANCH   7   8
ATOM      8  C1  UNL d   1       4.006   3.135   0.330  0.00  0.00     0.007 C 
ATOM      9  C   UNL d   1       2.646   3.782   0.103  0.00  0.00     0.009 C 
ENDBRANCH   7   8
ENDBRANCH   1   7
TORSDOF 2
ENDMDL
