MODEL 1
REMARK minimizedAffinity 3.00665975
REMARK minimizedRMSD -1
REMARK  2 active torsions:
REMARK  status: ('A' for Active; 'I' for Inactive)
REMARK    1  A    between atoms: C1_2  and  C2_3 
REMARK    2  A    between atoms: C2_3  and  C3_4 
ROOT
ATOM      1  C3  UNL d   1      -5.723   2.968   3.481  0.00  0.00    -0.075 A 
ATOM      2  C4  UNL d   1      -5.957   4.347   3.592  0.00  0.00     0.002 A 
ATOM      3  C5  UNL d   1      -5.999   4.960   4.844  0.00  0.00     0.002 A 
ATOM      4  C6  UNL d   1      -5.819   4.204   6.000  0.00  0.00    -0.004 A 
ATOM      5  C7  UNL d   1      -5.603   2.831   5.903  0.00  0.00     0.002 A 
ATOM      6  C8  UNL d   1      -5.556   2.215   4.651  0.00  0.00     0.002 A 
ENDROOT
BRANCH   1   7
ATOM      7  C2  UNL d   1      -5.647   2.303   2.128  0.00  0.00     0.056 C 
BRANCH   7   8
ATOM      8  C1  UNL d   1      -5.819   0.781   2.170  0.00  0.00     0.007 C 
ATOM      9  C   UNL d   1      -4.771   0.036   1.354  0.00  0.00     0.009 C 
ENDBRANCH   7   8
ENDBRANCH   1   7
TORSDOF 2
ENDMDL
