MODEL 1
REMARK minimizedAffinity 6.53894663
REMARK minimizedRMSD -1
REMARK  2 active torsions:
REMARK  status: ('A' for Active; 'I' for Inactive)
REMARK    1  A    between atoms: C1_2  and  C2_3 
REMARK    2  A    between atoms: C2_3  and  C3_4 
ROOT
ATOM      1  C3  UNL d   1      -5.585   2.545   3.516  0.00  0.00    -0.075 A 
ATOM      2  C4  UNL d   1      -5.517   1.807   4.707  0.00  0.00     0.002 A 
ATOM      3  C5  UNL d   1      -5.700   2.434   5.940  0.00  0.00     0.002 A 
ATOM      4  C6  UNL d   1      -5.943   3.804   5.999  0.00  0.00    -0.004 A 
ATOM      5  C7  UNL d   1      -5.996   4.550   4.823  0.00  0.00     0.002 A 
ATOM      6  C8  UNL d   1      -5.818   3.925   3.588  0.00  0.00     0.002 A 
ENDROOT
BRANCH   1   7
ATOM      7  C2  UNL d   1      -5.418   1.867   2.177  0.00  0.00     0.056 C 
BRANCH   7   8
ATOM      8  C1  UNL d   1      -5.698   0.361   2.201  0.00  0.00     0.007 C 
ATOM      9  C   UNL d   1      -4.744  -0.441   1.326  0.00  0.00     0.009 C 
ENDBRANCH   7   8
ENDBRANCH   1   7
TORSDOF 2
ENDMDL
