MODEL 1
REMARK minimizedAffinity 5.49694395
REMARK minimizedRMSD -1
REMARK  2 active torsions:
REMARK  status: ('A' for Active; 'I' for Inactive)
REMARK    1  A    between atoms: C1_2  and  C2_3 
REMARK    2  A    between atoms: C2_3  and  C3_4 
ROOT
ATOM      1  C3  UNL d   1       3.765   0.847   1.303  0.00  0.00    -0.075 A 
ATOM      2  C4  UNL d   1       4.653  -0.056   1.906  0.00  0.00     0.002 A 
ATOM      3  C5  UNL d   1       4.175  -1.080   2.724  0.00  0.00     0.002 A 
ATOM      4  C6  UNL d   1       2.808  -1.207   2.958  0.00  0.00    -0.004 A 
ATOM      5  C7  UNL d   1       1.918  -0.305   2.379  0.00  0.00     0.002 A 
ATOM      6  C8  UNL d   1       2.393   0.717   1.556  0.00  0.00     0.002 A 
ENDROOT
BRANCH   1   7
ATOM      7  C2  UNL d   1       4.274   1.939   0.393  0.00  0.00     0.056 C 
BRANCH   7   8
ATOM      8  C1  UNL d   1       4.748   3.196   1.131  0.00  0.00     0.007 C 
ATOM      9  C   UNL d   1       3.682   4.279   1.218  0.00  0.00     0.009 C 
ENDBRANCH   7   8
ENDBRANCH   1   7
TORSDOF 2
ENDMDL
