MODEL 1
REMARK minimizedAffinity 1.67395127
REMARK minimizedRMSD -1
REMARK  2 active torsions:
REMARK  status: ('A' for Active; 'I' for Inactive)
REMARK    1  A    between atoms: C1_2  and  C2_3 
REMARK    2  A    between atoms: C2_3  and  C3_4 
ROOT
ATOM      1  C3  UNL d   1      -3.657  -0.909   5.217  0.00  0.00    -0.075 A 
ATOM      2  C4  UNL d   1      -3.568  -2.130   5.901  0.00  0.00     0.002 A 
ATOM      3  C5  UNL d   1      -3.699  -3.338   5.215  0.00  0.00     0.002 A 
ATOM      4  C6  UNL d   1      -3.932  -3.341   3.842  0.00  0.00    -0.004 A 
ATOM      5  C7  UNL d   1      -4.040  -2.133   3.155  0.00  0.00     0.002 A 
ATOM      6  C8  UNL d   1      -3.904  -0.923   3.838  0.00  0.00     0.002 A 
ENDROOT
BRANCH   1   7
ATOM      7  C2  UNL d   1      -3.486   0.400   5.949  0.00  0.00     0.056 C 
BRANCH   7   8
ATOM      8  C1  UNL d   1      -4.755   1.259   5.997  0.00  0.00     0.007 C 
ATOM      9  C   UNL d   1      -4.468   2.754   5.999  0.00  0.00     0.009 C 
ENDBRANCH   7   8
ENDBRANCH   1   7
TORSDOF 2
ENDMDL
