MODEL 1
REMARK minimizedAffinity -0.52527535
REMARK minimizedRMSD -1
REMARK  2 active torsions:
REMARK  status: ('A' for Active; 'I' for Inactive)
REMARK    1  A    between atoms: C1_2  and  C2_3 
REMARK    2  A    between atoms: C2_3  and  C3_4 
ROOT
ATOM      1  C3  UNL d   1       1.823   3.463  -5.080  0.00  0.00    -0.075 A 
ATOM      2  C4  UNL d   1       1.100   3.281  -3.893  0.00  0.00     0.002 A 
ATOM      3  C5  UNL d   1       0.355   4.327  -3.349  0.00  0.00     0.002 A 
ATOM      4  C6  UNL d   1       0.331   5.570  -3.979  0.00  0.00    -0.004 A 
ATOM      5  C7  UNL d   1       1.059   5.767  -5.150  0.00  0.00     0.002 A 
ATOM      6  C8  UNL d   1       1.802   4.720  -5.699  0.00  0.00     0.002 A 
ENDROOT
BRANCH   1   7
ATOM      7  C2  UNL d   1       2.608   2.326  -5.690  0.00  0.00     0.056 C 
BRANCH   7   8
ATOM      8  C1  UNL d   1       3.188   1.348  -4.663  0.00  0.00     0.007 C 
ATOM      9  C   UNL d   1       3.003  -0.112  -5.053  0.00  0.00     0.009 C 
ENDBRANCH   7   8
ENDBRANCH   1   7
TORSDOF 2
ENDMDL
