MODEL 1
REMARK minimizedAffinity -0.710253298
REMARK minimizedRMSD -1
REMARK  2 active torsions:
REMARK  status: ('A' for Active; 'I' for Inactive)
REMARK    1  A    between atoms: C1_2  and  C2_3 
REMARK    2  A    between atoms: C2_3  and  C3_4 
ROOT
ATOM      1  C3  UNL d   1      -5.494   1.265   3.297  0.00  0.00    -0.075 A 
ATOM      2  C4  UNL d   1      -5.696   2.572   2.830  0.00  0.00     0.002 A 
ATOM      3  C5  UNL d   1      -5.473   3.665   3.668  0.00  0.00     0.002 A 
ATOM      4  C6  UNL d   1      -5.058   3.466   4.983  0.00  0.00    -0.004 A 
ATOM      5  C7  UNL d   1      -4.870   2.172   5.462  0.00  0.00     0.002 A 
ATOM      6  C8  UNL d   1      -5.087   1.076   4.625  0.00  0.00     0.002 A 
ENDROOT
BRANCH   1   7
ATOM      7  C2  UNL d   1      -5.704   0.078   2.387  0.00  0.00     0.056 C 
BRANCH   7   8
ATOM      8  C1  UNL d   1      -4.502  -0.868   2.308  0.00  0.00     0.007 C 
ATOM      9  C   UNL d   1      -3.795  -0.831   0.959  0.00  0.00     0.009 C 
ENDBRANCH   7   8
ENDBRANCH   1   7
TORSDOF 2
ENDMDL
