MODEL 1
REMARK minimizedAffinity 6.904181
REMARK minimizedRMSD -1
REMARK  0 active torsions:
REMARK  status: ('A' for Active; 'I' for Inactive)
ROOT
ATOM      1  C2' OXE d   1      -3.621  -0.735  -1.863  0.00  0.00     0.078 C 
ATOM      2  C1' OXE d   1      -5.284  -0.558  -4.117  0.00  0.00     0.078 C 
ATOM      3  C1  OXE d   1      -4.530   0.680  -3.700  0.00  0.00    -0.078 A 
ATOM      4  C2  OXE d   1      -3.755   0.597  -2.569  0.00  0.00    -0.078 A 
ATOM      5  C3  OXE d   1      -2.995   1.694  -2.171  0.00  0.00     0.003 A 
ATOM      6  C4  OXE d   1      -3.133   2.925  -2.824  0.00  0.00    -0.002 A 
ATOM      7  C5  OXE d   1      -3.947   3.042  -3.955  0.00  0.00    -0.002 A 
ATOM      8  C6  OXE d   1      -4.618   1.921  -4.430  0.00  0.00     0.003 A 
ENDROOT
TORSDOF 0
ENDMDL
