MODEL 1
REMARK minimizedAffinity 13.3092928
REMARK minimizedRMSD -1
REMARK  0 active torsions:
REMARK  status: ('A' for Active; 'I' for Inactive)
ROOT
ATOM      1  C2' OXE d   1       0.021   3.831   2.685  0.00  0.00     0.078 C 
ATOM      2  C1' OXE d   1       2.682   3.075   3.158  0.00  0.00     0.078 C 
ATOM      3  C1  OXE d   1       2.063   4.089   4.087  0.00  0.00    -0.078 A 
ATOM      4  C2  OXE d   1       0.776   4.488   3.820  0.00  0.00    -0.078 A 
ATOM      5  C3  OXE d   1       0.139   5.380   4.677  0.00  0.00     0.003 A 
ATOM      6  C4  OXE d   1       0.848   5.991   5.719  0.00  0.00    -0.002 A 
ATOM      7  C5  OXE d   1       2.172   5.629   5.984  0.00  0.00    -0.002 A 
ATOM      8  C6  OXE d   1       2.780   4.650   5.205  0.00  0.00     0.003 A 
ENDROOT
TORSDOF 0
ENDMDL
