MODEL 1
REMARK minimizedAffinity 10.9290791
REMARK minimizedRMSD -1
REMARK  0 active torsions:
REMARK  status: ('A' for Active; 'I' for Inactive)
ROOT
ATOM      1  C2' OXE d   1       2.948  -4.446   0.171  0.00  0.00     0.078 C 
ATOM      2  C1' OXE d   1       4.668  -2.540   1.307  0.00  0.00     0.078 C 
ATOM      3  C1  OXE d   1       3.188  -2.383   1.547  0.00  0.00    -0.078 A 
ATOM      4  C2  OXE d   1       2.350  -3.293   0.949  0.00  0.00    -0.078 A 
ATOM      5  C3  OXE d   1       0.979  -3.226   1.183  0.00  0.00     0.003 A 
ATOM      6  C4  OXE d   1       0.433  -2.151   1.895  0.00  0.00    -0.002 A 
ATOM      7  C5  OXE d   1       1.266  -1.191   2.480  0.00  0.00    -0.002 A 
ATOM      8  C6  OXE d   1       2.645  -1.316   2.351  0.00  0.00     0.003 A 
ENDROOT
TORSDOF 0
ENDMDL
