MODEL 1
REMARK minimizedAffinity 6.1343174
REMARK minimizedRMSD -1
REMARK  0 active torsions:
REMARK  status: ('A' for Active; 'I' for Inactive)
ROOT
ATOM      1  C2' OXE d   1      -4.499   0.830  -6.000  0.00  0.00     0.078 C 
ATOM      2  C1' OXE d   1      -2.371   2.192  -4.778  0.00  0.00     0.078 C 
ATOM      3  C1  OXE d   1      -3.637   2.965  -5.050  0.00  0.00    -0.078 A 
ATOM      4  C2  OXE d   1      -4.656   2.303  -5.691  0.00  0.00    -0.078 A 
ATOM      5  C3  OXE d   1      -5.866   2.953  -5.917  0.00  0.00     0.003 A 
ATOM      6  C4  OXE d   1      -6.000   4.318  -5.637  0.00  0.00    -0.002 A 
ATOM      7  C5  OXE d   1      -4.960   5.022  -5.021  0.00  0.00    -0.002 A 
ATOM      8  C6  OXE d   1      -3.790   4.351  -4.683  0.00  0.00     0.003 A 
ENDROOT
TORSDOF 0
ENDMDL
