MODEL 1
REMARK minimizedAffinity 4.83455801
REMARK minimizedRMSD -1
REMARK  0 active torsions:
REMARK  status: ('A' for Active; 'I' for Inactive)
ROOT
ATOM      1  C2' OXE d   1       4.836  -3.015   4.255  0.00  0.00     0.078 C 
ATOM      2  C1' OXE d   1       4.355  -5.676   3.501  0.00  0.00     0.078 C 
ATOM      3  C1  OXE d   1       4.064  -4.595   2.491  0.00  0.00    -0.078 A 
ATOM      4  C2  OXE d   1       4.258  -3.293   2.884  0.00  0.00    -0.078 A 
ATOM      5  C3  OXE d   1       4.056  -2.260   1.973  0.00  0.00     0.003 A 
ATOM      6  C4  OXE d   1       3.512  -2.525   0.710  0.00  0.00    -0.002 A 
ATOM      7  C5  OXE d   1       3.270  -3.841   0.303  0.00  0.00    -0.002 A 
ATOM      8  C6  OXE d   1       3.579  -4.888   1.164  0.00  0.00     0.003 A 
ENDROOT
TORSDOF 0
ENDMDL
