MODEL 1
REMARK minimizedAffinity 5.6328845
REMARK minimizedRMSD -1
REMARK  0 active torsions:
REMARK  status: ('A' for Active; 'I' for Inactive)
ROOT
ATOM      1  C2' OXE d   1       4.387  -3.352   3.527  0.00  0.00     0.078 C 
ATOM      2  C1' OXE d   1       5.076  -4.259   0.961  0.00  0.00     0.078 C 
ATOM      3  C1  OXE d   1       3.836  -3.412   1.098  0.00  0.00    -0.078 A 
ATOM      4  C2  OXE d   1       3.480  -3.012   2.364  0.00  0.00    -0.078 A 
ATOM      5  C3  OXE d   1       2.376  -2.183   2.540  0.00  0.00     0.003 A 
ATOM      6  C4  OXE d   1       1.537  -1.881   1.461  0.00  0.00    -0.002 A 
ATOM      7  C5  OXE d   1       1.858  -2.312   0.170  0.00  0.00    -0.002 A 
ATOM      8  C6  OXE d   1       3.025  -3.041  -0.035  0.00  0.00     0.003 A 
ENDROOT
TORSDOF 0
ENDMDL
