MODEL 1
REMARK minimizedAffinity 5.807199
REMARK minimizedRMSD -1
REMARK  0 active torsions:
REMARK  status: ('A' for Active; 'I' for Inactive)
ROOT
ATOM      1  C2' OXE d   1       4.133  -2.598   0.443  0.00  0.00     0.078 C 
ATOM      2  C1' OXE d   1       2.218  -4.594  -0.034  0.00  0.00     0.078 C 
ATOM      3  C1  OXE d   1       1.767  -3.342   0.676  0.00  0.00    -0.078 A 
ATOM      4  C2  OXE d   1       2.721  -2.391   0.947  0.00  0.00    -0.078 A 
ATOM      5  C3  OXE d   1       2.348  -1.194   1.552  0.00  0.00     0.003 A 
ATOM      6  C4  OXE d   1       1.042  -1.015   2.023  0.00  0.00    -0.002 A 
ATOM      7  C5  OXE d   1       0.064  -1.988   1.793  0.00  0.00    -0.002 A 
ATOM      8  C6  OXE d   1       0.400  -3.137   1.085  0.00  0.00     0.003 A 
ENDROOT
TORSDOF 0
ENDMDL
