MODEL 1
REMARK minimizedAffinity 8.04587269
REMARK minimizedRMSD -1
REMARK  0 active torsions:
REMARK  status: ('A' for Active; 'I' for Inactive)
ROOT
ATOM      1  C2' OXE d   1       1.266  -1.875   1.216  0.00  0.00     0.078 C 
ATOM      2  C1' OXE d   1       2.651  -4.215   0.520  0.00  0.00     0.078 C 
ATOM      3  C1  OXE d   1       3.093  -3.478   1.760  0.00  0.00    -0.078 A 
ATOM      4  C2  OXE d   1       2.440  -2.309   2.067  0.00  0.00    -0.078 A 
ATOM      5  C3  OXE d   1       2.771  -1.620   3.230  0.00  0.00     0.003 A 
ATOM      6  C4  OXE d   1       3.864  -2.023   4.006  0.00  0.00    -0.002 A 
ATOM      7  C5  OXE d   1       4.568  -3.189   3.689  0.00  0.00    -0.002 A 
ATOM      8  C6  OXE d   1       4.169  -3.950   2.595  0.00  0.00     0.003 A 
ENDROOT
TORSDOF 0
ENDMDL
