MODEL 1
REMARK minimizedAffinity 10.258522
REMARK minimizedRMSD -1
REMARK  0 active torsions:
REMARK  status: ('A' for Active; 'I' for Inactive)
ROOT
ATOM      1  C2' OXE d   1       2.613  -3.646   0.746  0.00  0.00     0.078 C 
ATOM      2  C1' OXE d   1       4.736  -4.107   2.524  0.00  0.00     0.078 C 
ATOM      3  C1  OXE d   1       4.842  -4.688   1.136  0.00  0.00    -0.078 A 
ATOM      4  C2  OXE d   1       3.778  -4.497   0.288  0.00  0.00    -0.078 A 
ATOM      5  C3  OXE d   1       3.847  -4.965  -1.021  0.00  0.00     0.003 A 
ATOM      6  C4  OXE d   1       4.923  -5.759  -1.434  0.00  0.00    -0.002 A 
ATOM      7  C5  OXE d   1       6.000  -6.000  -0.573  0.00  0.00    -0.002 A 
ATOM      8  C6  OXE d   1       5.994  -5.437   0.698  0.00  0.00     0.003 A 
ENDROOT
TORSDOF 0
ENDMDL
