MODEL 1
REMARK minimizedAffinity 10.507102
REMARK minimizedRMSD -1
REMARK  0 active torsions:
REMARK  status: ('A' for Active; 'I' for Inactive)
ROOT
ATOM      1  C2' OXE d   1       3.440  -2.687   3.690  0.00  0.00     0.078 C 
ATOM      2  C1' OXE d   1       1.592  -1.147   2.245  0.00  0.00     0.078 C 
ATOM      3  C1  OXE d   1       2.089  -2.423   1.615  0.00  0.00    -0.078 A 
ATOM      4  C2  OXE d   1       3.028  -3.147   2.309  0.00  0.00    -0.078 A 
ATOM      5  C3  OXE d   1       3.479  -4.360   1.797  0.00  0.00     0.003 A 
ATOM      6  C4  OXE d   1       3.101  -4.774   0.514  0.00  0.00    -0.002 A 
ATOM      7  C5  OXE d   1       2.175  -4.031  -0.226  0.00  0.00    -0.002 A 
ATOM      8  C6  OXE d   1       1.628  -2.878   0.326  0.00  0.00     0.003 A 
ENDROOT
TORSDOF 0
ENDMDL
