MODEL 1
REMARK minimizedAffinity 3.77510452
REMARK minimizedRMSD -1
REMARK  0 active torsions:
REMARK  status: ('A' for Active; 'I' for Inactive)
ROOT
ATOM      1  C2' OXE d   1       3.380  -2.999  -0.748  0.00  0.00     0.078 C 
ATOM      2  C1' OXE d   1       1.667  -2.678   1.453  0.00  0.00     0.078 C 
ATOM      3  C1  OXE d   1       3.085  -3.114   1.723  0.00  0.00    -0.078 A 
ATOM      4  C2  OXE d   1       3.903  -3.314   0.637  0.00  0.00    -0.078 A 
ATOM      5  C3  OXE d   1       5.236  -3.663   0.833  0.00  0.00     0.003 A 
ATOM      6  C4  OXE d   1       5.709  -3.962   2.116  0.00  0.00    -0.002 A 
ATOM      7  C5  OXE d   1       4.882  -3.804   3.233  0.00  0.00    -0.002 A 
ATOM      8  C6  OXE d   1       3.582  -3.341   3.058  0.00  0.00     0.003 A 
ENDROOT
TORSDOF 0
ENDMDL
