MODEL 1
REMARK minimizedAffinity 0.441011876
REMARK minimizedRMSD -1
REMARK  0 active torsions:
REMARK  status: ('A' for Active; 'I' for Inactive)
ROOT
ATOM      1  C4' PXY d   1       0.555  -5.768  -5.570  0.00  0.00     0.077 C 
ATOM      2  C1' PXY d   1      -3.715  -5.999  -1.681  0.00  0.00     0.077 C 
ATOM      3  C1  PXY d   1      -2.588  -5.933  -2.692  0.00  0.00    -0.082 A 
ATOM      4  C2  PXY d   1      -2.866  -5.973  -3.985  0.00  0.00     0.003 A 
ATOM      5  C3  PXY d   1      -1.856  -5.946  -4.913  0.00  0.00     0.003 A 
ATOM      6  C4  PXY d   1      -0.552  -5.823  -4.514  0.00  0.00    -0.082 A 
ATOM      7  C5  PXY d   1      -0.261  -5.771  -3.197  0.00  0.00     0.003 A 
ATOM      8  C6  PXY d   1      -1.297  -5.841  -2.270  0.00  0.00     0.003 A 
ENDROOT
TORSDOF 0
ENDMDL
