MODEL 1
REMARK minimizedAffinity 2.48978233
REMARK minimizedRMSD -1
REMARK  0 active torsions:
REMARK  status: ('A' for Active; 'I' for Inactive)
ROOT
ATOM      1  C4' PXY d   1       1.826  -5.879  -5.928  0.00  0.00     0.077 C 
ATOM      2  C1' PXY d   1      -3.013  -5.996  -2.768  0.00  0.00     0.077 C 
ATOM      3  C1  PXY d   1      -1.751  -5.971  -3.607  0.00  0.00    -0.082 A 
ATOM      4  C2  PXY d   1      -0.569  -6.000  -3.012  0.00  0.00     0.003 A 
ATOM      5  C3  PXY d   1       0.583  -5.945  -3.754  0.00  0.00     0.003 A 
ATOM      6  C4  PXY d   1       0.525  -5.913  -5.121  0.00  0.00    -0.082 A 
ATOM      7  C5  PXY d   1      -0.677  -5.894  -5.736  0.00  0.00     0.003 A 
ATOM      8  C6  PXY d   1      -1.834  -5.909  -4.964  0.00  0.00     0.003 A 
ENDROOT
TORSDOF 0
ENDMDL
