MODEL 1
REMARK minimizedAffinity -1.04975021
REMARK minimizedRMSD -1
REMARK  0 active torsions:
REMARK  status: ('A' for Active; 'I' for Inactive)
ROOT
ATOM      1  C4' PXY d   1       2.664  -5.991  -5.996  0.00  0.00     0.077 C 
ATOM      2  C1' PXY d   1      -2.266  -5.986  -2.977  0.00  0.00     0.077 C 
ATOM      3  C1  PXY d   1      -0.979  -5.993  -3.779  0.00  0.00    -0.082 A 
ATOM      4  C2  PXY d   1       0.184  -5.998  -3.149  0.00  0.00     0.003 A 
ATOM      5  C3  PXY d   1       1.358  -5.972  -3.858  0.00  0.00     0.003 A 
ATOM      6  C4  PXY d   1       1.340  -5.994  -5.227  0.00  0.00    -0.082 A 
ATOM      7  C5  PXY d   1       0.157  -5.999  -5.877  0.00  0.00     0.003 A 
ATOM      8  C6  PXY d   1      -1.023  -5.984  -5.139  0.00  0.00     0.003 A 
ENDROOT
TORSDOF 0
ENDMDL
