MODEL 1
REMARK minimizedAffinity -3.24349809
REMARK minimizedRMSD -1
REMARK  0 active torsions:
REMARK  status: ('A' for Active; 'I' for Inactive)
ROOT
ATOM      1  C4' PXY d   1      -2.618  -5.835  -3.206  0.00  0.00     0.077 C 
ATOM      2  C1' PXY d   1       2.627  -5.800  -5.636  0.00  0.00     0.077 C 
ATOM      3  C1  PXY d   1       1.246  -5.806  -5.010  0.00  0.00    -0.082 A 
ATOM      4  C2  PXY d   1       1.119  -5.632  -3.705  0.00  0.00     0.003 A 
ATOM      5  C3  PXY d   1      -0.120  -5.666  -3.118  0.00  0.00     0.003 A 
ATOM      6  C4  PXY d   1      -1.245  -5.827  -3.883  0.00  0.00    -0.082 A 
ATOM      7  C5  PXY d   1      -1.124  -5.994  -5.217  0.00  0.00     0.003 A 
ATOM      8  C6  PXY d   1       0.146  -5.998  -5.787  0.00  0.00     0.003 A 
ENDROOT
TORSDOF 0
ENDMDL
