MODEL 1
REMARK minimizedAffinity -2.57639265
REMARK minimizedRMSD -1
REMARK  0 active torsions:
REMARK  status: ('A' for Active; 'I' for Inactive)
ROOT
ATOM      1  C4' PXY d   1       2.295  -5.810  -5.684  0.00  0.00     0.077 C 
ATOM      2  C1' PXY d   1      -3.130  -5.997  -3.699  0.00  0.00     0.077 C 
ATOM      3  C1  PXY d   1      -1.703  -5.943  -4.208  0.00  0.00    -0.082 A 
ATOM      4  C2  PXY d   1      -1.476  -5.860  -5.508  0.00  0.00     0.003 A 
ATOM      5  C3  PXY d   1      -0.191  -5.843  -5.988  0.00  0.00     0.003 A 
ATOM      6  C4  PXY d   1       0.871  -5.857  -5.124  0.00  0.00    -0.082 A 
ATOM      7  C5  PXY d   1       0.647  -5.931  -3.795  0.00  0.00     0.003 A 
ATOM      8  C6  PXY d   1      -0.664  -5.989  -3.331  0.00  0.00     0.003 A 
ENDROOT
TORSDOF 0
ENDMDL
