MODEL 1
REMARK minimizedAffinity 3.86011481
REMARK minimizedRMSD -1
REMARK  0 active torsions:
REMARK  status: ('A' for Active; 'I' for Inactive)
ROOT
ATOM      1  C4' PXY d   1       1.791  -5.969  -5.996  0.00  0.00     0.077 C 
ATOM      2  C1' PXY d   1      -1.895  -6.000  -1.542  0.00  0.00     0.077 C 
ATOM      3  C1  PXY d   1      -0.919  -5.986  -2.703  0.00  0.00    -0.082 A 
ATOM      4  C2  PXY d   1      -1.378  -5.972  -3.943  0.00  0.00     0.003 A 
ATOM      5  C3  PXY d   1      -0.510  -5.992  -5.005  0.00  0.00     0.003 A 
ATOM      6  C4  PXY d   1       0.842  -5.973  -4.794  0.00  0.00    -0.082 A 
ATOM      7  C5  PXY d   1       1.319  -5.977  -3.531  0.00  0.00     0.003 A 
ATOM      8  C6  PXY d   1       0.421  -5.998  -2.467  0.00  0.00     0.003 A 
ENDROOT
TORSDOF 0
ENDMDL
