MODEL 1
REMARK minimizedAffinity 0.363529086
REMARK minimizedRMSD -1
REMARK  0 active torsions:
REMARK  status: ('A' for Active; 'I' for Inactive)
ROOT
ATOM      1  C4' PXY d   1       0.592  -5.960  -5.390  0.00  0.00     0.077 C 
ATOM      2  C1' PXY d   1      -4.019  -6.000  -1.904  0.00  0.00     0.077 C 
ATOM      3  C1  PXY d   1      -2.803  -5.984  -2.809  0.00  0.00    -0.082 A 
ATOM      4  C2  PXY d   1      -2.965  -5.964  -4.122  0.00  0.00     0.003 A 
ATOM      5  C3  PXY d   1      -1.876  -5.982  -4.955  0.00  0.00     0.003 A 
ATOM      6  C4  PXY d   1      -0.608  -5.967  -4.438  0.00  0.00    -0.082 A 
ATOM      7  C5  PXY d   1      -0.435  -5.976  -3.100  0.00  0.00     0.003 A 
ATOM      8  C6  PXY d   1      -1.553  -5.999  -2.271  0.00  0.00     0.003 A 
ENDROOT
TORSDOF 0
ENDMDL
