MODEL 1
REMARK minimizedAffinity 4.31104136
REMARK minimizedRMSD -1
REMARK  0 active torsions:
REMARK  status: ('A' for Active; 'I' for Inactive)
ROOT
ATOM      1  C4' PXY d   1       2.190  -5.980  -5.989  0.00  0.00     0.077 C 
ATOM      2  C1' PXY d   1      -2.805  -5.995  -3.080  0.00  0.00     0.077 C 
ATOM      3  C1  PXY d   1      -1.489  -5.986  -3.833  0.00  0.00    -0.082 A 
ATOM      4  C2  PXY d   1      -1.492  -5.975  -5.156  0.00  0.00     0.003 A 
ATOM      5  C3  PXY d   1      -0.311  -5.999  -5.852  0.00  0.00     0.003 A 
ATOM      6  C4  PXY d   1       0.886  -5.980  -5.188  0.00  0.00    -0.082 A 
ATOM      7  C5  PXY d   1       0.897  -5.980  -3.838  0.00  0.00     0.003 A 
ATOM      8  C6  PXY d   1      -0.313  -5.997  -3.149  0.00  0.00     0.003 A 
ENDROOT
TORSDOF 0
ENDMDL
