MODEL 1
REMARK minimizedAffinity 6.75250101
REMARK minimizedRMSD -1
REMARK  0 active torsions:
REMARK  status: ('A' for Active; 'I' for Inactive)
ROOT
ATOM      1  C4' PXY d   1       4.437  -0.038   2.885  0.00  0.00     0.077 C 
ATOM      2  C1' PXY d   1      -0.531  -1.644   0.403  0.00  0.00     0.077 C 
ATOM      3  C1  PXY d   1       0.779  -1.226   1.043  0.00  0.00    -0.082 A 
ATOM      4  C2  PXY d   1       0.875  -1.174   2.362  0.00  0.00     0.003 A 
ATOM      5  C3  PXY d   1       2.041  -0.767   2.957  0.00  0.00     0.003 A 
ATOM      6  C4  PXY d   1       3.138  -0.463   2.195  0.00  0.00    -0.082 A 
ATOM      7  C5  PXY d   1       3.051  -0.525   0.849  0.00  0.00     0.003 A 
ATOM      8  C6  PXY d   1       1.845  -0.900   0.264  0.00  0.00     0.003 A 
ENDROOT
TORSDOF 0
ENDMDL
