MODEL 1
REMARK minimizedAffinity -2.01198745
REMARK minimizedRMSD -1
REMARK  0 active torsions:
REMARK  status: ('A' for Active; 'I' for Inactive)
ROOT
ATOM      1  C4' PXY d   1       1.499  -5.591  -5.579  0.00  0.00     0.077 C 
ATOM      2  C1' PXY d   1      -3.732  -5.748  -3.124  0.00  0.00     0.077 C 
ATOM      3  C1  PXY d   1      -2.364  -5.715  -3.777  0.00  0.00    -0.082 A 
ATOM      4  C2  PXY d   1      -1.301  -5.405  -3.053  0.00  0.00     0.003 A 
ATOM      5  C3  PXY d   1      -0.061  -5.339  -3.635  0.00  0.00     0.003 A 
ATOM      6  C4  PXY d   1       0.100  -5.646  -4.960  0.00  0.00    -0.082 A 
ATOM      7  C5  PXY d   1      -0.979  -5.973  -5.703  0.00  0.00     0.003 A 
ATOM      8  C6  PXY d   1      -2.234  -5.994  -5.103  0.00  0.00     0.003 A 
ENDROOT
TORSDOF 0
ENDMDL
