MODEL 1
REMARK minimizedAffinity 3.36889267
REMARK minimizedRMSD -1
REMARK  0 active torsions:
REMARK  status: ('A' for Active; 'I' for Inactive)
ROOT
ATOM      1  C4' PXY d   1       2.267   1.470  -0.403  0.00  0.00     0.077 C 
ATOM      2  C1' PXY d   1       0.070  -3.731   0.835  0.00  0.00     0.077 C 
ATOM      3  C1  PXY d   1       0.647  -2.371   0.498  0.00  0.00    -0.082 A 
ATOM      4  C2  PXY d   1       1.227  -1.653   1.446  0.00  0.00     0.003 A 
ATOM      5  C3  PXY d   1       1.726  -0.407   1.166  0.00  0.00     0.003 A 
ATOM      6  C4  PXY d   1       1.679   0.087  -0.110  0.00  0.00    -0.082 A 
ATOM      7  C5  PXY d   1       1.098  -0.644  -1.086  0.00  0.00     0.003 A 
ATOM      8  C6  PXY d   1       0.561  -1.888  -0.772  0.00  0.00     0.003 A 
ENDROOT
TORSDOF 0
ENDMDL
