MODEL 1
REMARK minimizedAffinity -3.50545692
REMARK minimizedRMSD -1
REMARK  0 active torsions:
REMARK  status: ('A' for Active; 'I' for Inactive)
ROOT
ATOM      1  C4' PXY d   1       0.951  -5.632  -5.995  0.00  0.00     0.077 C 
ATOM      2  C1' PXY d   1      -3.723  -5.993  -2.613  0.00  0.00     0.077 C 
ATOM      3  C1  PXY d   1      -2.490  -5.895  -3.489  0.00  0.00    -0.082 A 
ATOM      4  C2  PXY d   1      -2.627  -5.714  -4.793  0.00  0.00     0.003 A 
ATOM      5  C3  PXY d   1      -1.524  -5.655  -5.605  0.00  0.00     0.003 A 
ATOM      6  C4  PXY d   1      -0.266  -5.728  -5.070  0.00  0.00    -0.082 A 
ATOM      7  C5  PXY d   1      -0.117  -5.901  -3.740  0.00  0.00     0.003 A 
ATOM      8  C6  PXY d   1      -1.250  -6.000  -2.938  0.00  0.00     0.003 A 
ENDROOT
TORSDOF 0
ENDMDL
