MODEL 1
REMARK minimizedAffinity -0.825302362
REMARK minimizedRMSD -1
REMARK  0 active torsions:
REMARK  status: ('A' for Active; 'I' for Inactive)
ROOT
ATOM      1  C4' PXY d   1       1.482  -5.926  -5.998  0.00  0.00     0.077 C 
ATOM      2  C1' PXY d   1      -3.182  -5.998  -2.584  0.00  0.00     0.077 C 
ATOM      3  C1  PXY d   1      -1.966  -5.984  -3.489  0.00  0.00    -0.082 A 
ATOM      4  C2  PXY d   1      -0.755  -5.993  -2.957  0.00  0.00     0.003 A 
ATOM      5  C3  PXY d   1       0.356  -5.948  -3.760  0.00  0.00     0.003 A 
ATOM      6  C4  PXY d   1       0.226  -5.949  -5.123  0.00  0.00    -0.082 A 
ATOM      7  C5  PXY d   1      -1.007  -5.951  -5.674  0.00  0.00     0.003 A 
ATOM      8  C6  PXY d   1      -2.122  -5.954  -4.840  0.00  0.00     0.003 A 
ENDROOT
TORSDOF 0
ENDMDL
