MODEL 1
REMARK minimizedAffinity 7.06945324
REMARK minimizedRMSD -1
REMARK  0 active torsions:
REMARK  status: ('A' for Active; 'I' for Inactive)
ROOT
ATOM      1  C4' PXY d   1      -4.529  -4.684   3.599  0.00  0.00     0.077 C 
ATOM      2  C1' PXY d   1       0.299  -3.014   0.895  0.00  0.00     0.077 C 
ATOM      3  C1  PXY d   1      -0.960  -3.459   1.613  0.00  0.00    -0.082 A 
ATOM      4  C2  PXY d   1      -2.108  -3.497   0.957  0.00  0.00     0.003 A 
ATOM      5  C3  PXY d   1      -3.262  -3.866   1.599  0.00  0.00     0.003 A 
ATOM      6  C4  PXY d   1      -3.231  -4.251   2.912  0.00  0.00    -0.082 A 
ATOM      7  C5  PXY d   1      -2.062  -4.225   3.586  0.00  0.00     0.003 A 
ATOM      8  C6  PXY d   1      -0.909  -3.808   2.927  0.00  0.00     0.003 A 
ENDROOT
TORSDOF 0
ENDMDL
