MODEL 1
REMARK minimizedAffinity -2.11969185
REMARK minimizedRMSD -1
REMARK  0 active torsions:
REMARK  status: ('A' for Active; 'I' for Inactive)
ROOT
ATOM      1  C4' PXY d   1      -2.792  -5.981  -2.919  0.00  0.00     0.077 C 
ATOM      2  C1' PXY d   1       2.108  -5.998  -5.985  0.00  0.00     0.077 C 
ATOM      3  C1  PXY d   1       0.829  -5.999  -5.171  0.00  0.00    -0.082 A 
ATOM      4  C2  PXY d   1      -0.341  -6.000  -5.790  0.00  0.00     0.003 A 
ATOM      5  C3  PXY d   1      -1.507  -5.968  -5.069  0.00  0.00     0.003 A 
ATOM      6  C4  PXY d   1      -1.476  -5.989  -3.700  0.00  0.00    -0.082 A 
ATOM      7  C5  PXY d   1      -0.287  -6.000  -3.062  0.00  0.00     0.003 A 
ATOM      8  C6  PXY d   1       0.886  -5.990  -3.812  0.00  0.00     0.003 A 
ENDROOT
TORSDOF 0
ENDMDL
