MODEL 1
REMARK minimizedAffinity 8.09483528
REMARK minimizedRMSD -1
REMARK  0 active torsions:
REMARK  status: ('A' for Active; 'I' for Inactive)
ROOT
ATOM      1  C4' PXY d   1       0.100  -2.853   0.320  0.00  0.00     0.077 C 
ATOM      2  C1' PXY d   1       1.168   2.812  -0.106  0.00  0.00     0.077 C 
ATOM      3  C1  PXY d   1       0.877   1.328  -0.002  0.00  0.00    -0.082 A 
ATOM      4  C2  PXY d   1       1.335   0.643   1.034  0.00  0.00     0.003 A 
ATOM      5  C3  PXY d   1       1.109  -0.706   1.127  0.00  0.00     0.003 A 
ATOM      6  C4  PXY d   1       0.361  -1.351   0.179  0.00  0.00    -0.082 A 
ATOM      7  C5  PXY d   1      -0.118  -0.657  -0.875  0.00  0.00     0.003 A 
ATOM      8  C6  PXY d   1       0.157   0.704  -0.973  0.00  0.00     0.003 A 
ENDROOT
TORSDOF 0
ENDMDL
