MODEL 1
REMARK minimizedAffinity -0.250432521
REMARK minimizedRMSD -1
REMARK  0 active torsions:
REMARK  status: ('A' for Active; 'I' for Inactive)
ROOT
ATOM      1  C4' PXY d   1      -2.686  -5.984  -2.593  0.00  0.00     0.077 C 
ATOM      2  C1' PXY d   1       2.075  -5.994  -5.871  0.00  0.00     0.077 C 
ATOM      3  C1  PXY d   1       0.833  -5.996  -5.002  0.00  0.00    -0.082 A 
ATOM      4  C2  PXY d   1      -0.362  -6.000  -5.569  0.00  0.00     0.003 A 
ATOM      5  C3  PXY d   1      -1.496  -5.970  -4.797  0.00  0.00     0.003 A 
ATOM      6  C4  PXY d   1      -1.405  -5.990  -3.431  0.00  0.00    -0.082 A 
ATOM      7  C5  PXY d   1      -0.189  -5.998  -2.846  0.00  0.00     0.003 A 
ATOM      8  C6  PXY d   1       0.950  -5.986  -3.646  0.00  0.00     0.003 A 
ENDROOT
TORSDOF 0
ENDMDL
