MODEL 1
REMARK minimizedAffinity 1.22431588
REMARK minimizedRMSD -1
REMARK  0 active torsions:
REMARK  status: ('A' for Active; 'I' for Inactive)
ROOT
ATOM      1  C4' PXY d   1      -3.499  -6.000  -2.792  0.00  0.00     0.077 C 
ATOM      2  C1' PXY d   1       1.312  -5.968  -5.997  0.00  0.00     0.077 C 
ATOM      3  C1  PXY d   1       0.044  -5.971  -5.167  0.00  0.00    -0.082 A 
ATOM      4  C2  PXY d   1       0.126  -5.962  -3.846  0.00  0.00     0.003 A 
ATOM      5  C3  PXY d   1      -1.010  -5.997  -3.080  0.00  0.00     0.003 A 
ATOM      6  C4  PXY d   1      -2.245  -5.988  -3.671  0.00  0.00    -0.082 A 
ATOM      7  C5  PXY d   1      -2.338  -5.986  -5.018  0.00  0.00     0.003 A 
ATOM      8  C6  PXY d   1      -1.172  -5.992  -5.778  0.00  0.00     0.003 A 
ENDROOT
TORSDOF 0
ENDMDL
