MODEL 1
REMARK minimizedAffinity 2.59142399
REMARK minimizedRMSD -1
REMARK  0 active torsions:
REMARK  status: ('A' for Active; 'I' for Inactive)
ROOT
ATOM      1  C4' PXY d   1       1.760  -5.991  -5.912  0.00  0.00     0.077 C 
ATOM      2  C1' PXY d   1      -3.022  -5.986  -2.665  0.00  0.00     0.077 C 
ATOM      3  C1  PXY d   1      -1.775  -5.993  -3.526  0.00  0.00    -0.082 A 
ATOM      4  C2  PXY d   1      -0.583  -5.999  -2.952  0.00  0.00     0.003 A 
ATOM      5  C3  PXY d   1       0.556  -5.973  -3.715  0.00  0.00     0.003 A 
ATOM      6  C4  PXY d   1       0.474  -5.994  -5.082  0.00  0.00    -0.082 A 
ATOM      7  C5  PXY d   1      -0.739  -5.998  -5.676  0.00  0.00     0.003 A 
ATOM      8  C6  PXY d   1      -1.882  -5.983  -4.883  0.00  0.00     0.003 A 
ENDROOT
TORSDOF 0
ENDMDL
