MODEL 1
REMARK minimizedAffinity 6.14087009
REMARK minimizedRMSD -1
REMARK  0 active torsions:
REMARK  status: ('A' for Active; 'I' for Inactive)
ROOT
ATOM      1  C4' PXY d   1      -4.500  -5.998  -2.731  0.00  0.00     0.077 C 
ATOM      2  C1' PXY d   1      -4.267  -3.979   2.680  0.00  0.00     0.077 C 
ATOM      3  C1  PXY d   1      -4.333  -4.520   1.265  0.00  0.00    -0.082 A 
ATOM      4  C2  PXY d   1      -3.523  -4.032   0.340  0.00  0.00     0.003 A 
ATOM      5  C3  PXY d   1      -3.591  -4.487  -0.952  0.00  0.00     0.003 A 
ATOM      6  C4  PXY d   1      -4.462  -5.489  -1.288  0.00  0.00    -0.082 A 
ATOM      7  C5  PXY d   1      -5.284  -5.999  -0.347  0.00  0.00     0.003 A 
ATOM      8  C6  PXY d   1      -5.227  -5.495   0.949  0.00  0.00     0.003 A 
ENDROOT
TORSDOF 0
ENDMDL
