MODEL 1
REMARK minimizedAffinity -2.38912868
REMARK minimizedRMSD -1
REMARK  3 active torsions:
REMARK  status: ('A' for Active; 'I' for Inactive)
REMARK    1  A    between atoms: C3'_2  and  C2'_3 
REMARK    2  A    between atoms: C2'_3  and  C1'_4 
REMARK    3  A    between atoms: C1'_4  and  C1_5 
ROOT
ATOM      1  C1  N4B d   1      -0.231   0.639   0.118  0.00  0.00    -0.075 A 
ATOM      2  C2  N4B d   1      -0.696   0.542   1.448  0.00  0.00     0.002 A 
ATOM      3  C3  N4B d   1      -0.989  -0.687   1.985  0.00  0.00     0.002 A 
ATOM      4  C4  N4B d   1      -0.842  -1.827   1.209  0.00  0.00    -0.004 A 
ATOM      5  C5  N4B d   1      -0.368  -1.727  -0.066  0.00  0.00     0.002 A 
ATOM      6  C6  N4B d   1      -0.066  -0.499  -0.618  0.00  0.00     0.002 A 
ENDROOT
BRANCH   1   7
ATOM      7  C1' N4B d   1       0.020   1.968  -0.541  0.00  0.00     0.057 C 
BRANCH   7   8
ATOM      8  C2' N4B d   1       0.125   3.047   0.533  0.00  0.00     0.009 C 
BRANCH   8   9
ATOM      9  C3' N4B d   1       1.499   3.694   0.557  0.00  0.00     0.004 C 
ATOM     10  C4' N4B d   1       2.376   3.236  -0.571  0.00  0.00     0.003 C 
ENDBRANCH   8   9
ENDBRANCH   7   8
ENDBRANCH   1   7
TORSDOF 3
ENDMDL
