MODEL 1
REMARK minimizedAffinity -0.11831966
REMARK minimizedRMSD -1
REMARK  3 active torsions:
REMARK  status: ('A' for Active; 'I' for Inactive)
REMARK    1  A    between atoms: C3'_2  and  C2'_3 
REMARK    2  A    between atoms: C2'_3  and  C1'_4 
REMARK    3  A    between atoms: C1'_4  and  C1_5 
ROOT
ATOM      1  C1  N4B d   1      -0.076   1.360   0.112  0.00  0.00    -0.075 A 
ATOM      2  C2  N4B d   1      -0.058   0.578  -1.064  0.00  0.00     0.002 A 
ATOM      3  C3  N4B d   1      -0.257  -0.779  -0.989  0.00  0.00     0.002 A 
ATOM      4  C4  N4B d   1      -0.456  -1.376   0.247  0.00  0.00    -0.004 A 
ATOM      5  C5  N4B d   1      -0.497  -0.610   1.375  0.00  0.00     0.002 A 
ATOM      6  C6  N4B d   1      -0.303   0.755   1.315  0.00  0.00     0.002 A 
ENDROOT
BRANCH   1   7
ATOM      7  C1' N4B d   1       0.222   2.834   0.090  0.00  0.00     0.057 C 
BRANCH   7   8
ATOM      8  C2' N4B d   1       1.721   3.039  -0.112  0.00  0.00     0.009 C 
BRANCH   8   9
ATOM      9  C3' N4B d   1       2.428   3.382   1.188  0.00  0.00     0.004 C 
ATOM     10  C4' N4B d   1       1.474   3.651   2.315  0.00  0.00     0.003 C 
ENDBRANCH   8   9
ENDBRANCH   7   8
ENDBRANCH   1   7
TORSDOF 3
ENDMDL
