MODEL 1
REMARK minimizedAffinity -5.30495453
REMARK minimizedRMSD -1
REMARK  3 active torsions:
REMARK  status: ('A' for Active; 'I' for Inactive)
REMARK    1  A    between atoms: C3'_2  and  C2'_3 
REMARK    2  A    between atoms: C2'_3  and  C1'_4 
REMARK    3  A    between atoms: C1'_4  and  C1_5 
ROOT
ATOM      1  C1  N4B d   1      -0.482   0.646   0.386  0.00  0.00    -0.075 A 
ATOM      2  C2  N4B d   1      -1.516   0.312   1.288  0.00  0.00     0.002 A 
ATOM      3  C3  N4B d   1      -1.829  -1.006   1.515  0.00  0.00     0.002 A 
ATOM      4  C4  N4B d   1      -1.137  -2.001   0.841  0.00  0.00    -0.004 A 
ATOM      5  C5  N4B d   1      -0.123  -1.670  -0.009  0.00  0.00     0.002 A 
ATOM      6  C6  N4B d   1       0.205  -0.350  -0.244  0.00  0.00     0.002 A 
ENDROOT
BRANCH   1   7
ATOM      7  C1' N4B d   1      -0.162   2.075   0.040  0.00  0.00     0.057 C 
BRANCH   7   8
ATOM      8  C2' N4B d   1       1.352   2.241  -0.050  0.00  0.00     0.009 C 
BRANCH   8   9
ATOM      9  C3' N4B d   1       1.784   3.672   0.219  0.00  0.00     0.004 C 
ATOM     10  C4' N4B d   1       2.455   3.836   1.550  0.00  0.00     0.003 C 
ENDBRANCH   8   9
ENDBRANCH   7   8
ENDBRANCH   1   7
TORSDOF 3
ENDMDL
