MODEL 1
REMARK minimizedAffinity -4.50579882
REMARK minimizedRMSD -1
REMARK  3 active torsions:
REMARK  status: ('A' for Active; 'I' for Inactive)
REMARK    1  A    between atoms: C3'_2  and  C2'_3 
REMARK    2  A    between atoms: C2'_3  and  C1'_4 
REMARK    3  A    between atoms: C1'_4  and  C1_5 
ROOT
ATOM      1  C1  N4B d   1      -0.313  -0.093  -0.167  0.00  0.00    -0.075 A 
ATOM      2  C2  N4B d   1      -0.286  -1.395  -0.712  0.00  0.00     0.002 A 
ATOM      3  C3  N4B d   1      -0.611  -2.475   0.072  0.00  0.00     0.002 A 
ATOM      4  C4  N4B d   1      -0.947  -2.279   1.403  0.00  0.00    -0.004 A 
ATOM      5  C5  N4B d   1      -0.996  -1.015   1.915  0.00  0.00     0.002 A 
ATOM      6  C6  N4B d   1      -0.675   0.079   1.138  0.00  0.00     0.002 A 
ENDROOT
BRANCH   1   7
ATOM      7  C1' N4B d   1       0.118   1.110  -0.961  0.00  0.00     0.057 C 
BRANCH   7   8
ATOM      8  C2' N4B d   1       0.479   2.240  -0.003  0.00  0.00     0.009 C 
BRANCH   8   9
ATOM      9  C3' N4B d   1       1.977   2.483   0.051  0.00  0.00     0.004 C 
ATOM     10  C4' N4B d   1       2.425   3.070   1.357  0.00  0.00     0.003 C 
ENDBRANCH   8   9
ENDBRANCH   7   8
ENDBRANCH   1   7
TORSDOF 3
ENDMDL
