MODEL 1
REMARK minimizedAffinity -1.77837253
REMARK minimizedRMSD -1
REMARK  3 active torsions:
REMARK  status: ('A' for Active; 'I' for Inactive)
REMARK    1  A    between atoms: C3'_2  and  C2'_3 
REMARK    2  A    between atoms: C2'_3  and  C1'_4 
REMARK    3  A    between atoms: C1'_4  and  C1_5 
ROOT
ATOM      1  C1  N4B d   1       0.515   0.825   0.817  0.00  0.00    -0.075 A 
ATOM      2  C2  N4B d   1      -0.156   1.163  -0.379  0.00  0.00     0.002 A 
ATOM      3  C3  N4B d   1       0.044   2.393  -0.954  0.00  0.00     0.002 A 
ATOM      4  C4  N4B d   1       0.893   3.305  -0.345  0.00  0.00    -0.004 A 
ATOM      5  C5  N4B d   1       1.557   2.962   0.796  0.00  0.00     0.002 A 
ATOM      6  C6  N4B d   1       1.368   1.727   1.383  0.00  0.00     0.002 A 
ENDROOT
BRANCH   1   7
ATOM      7  C1' N4B d   1       0.262  -0.476   1.529  0.00  0.00     0.057 C 
BRANCH   7   8
ATOM      8  C2' N4B d   1      -1.098  -1.023   1.106  0.00  0.00     0.009 C 
BRANCH   8   9
ATOM      9  C3' N4B d   1      -1.081  -2.534   0.955  0.00  0.00     0.004 C 
ATOM     10  C4' N4B d   1      -1.022  -2.975  -0.477  0.00  0.00     0.003 C 
ENDBRANCH   8   9
ENDBRANCH   7   8
ENDBRANCH   1   7
TORSDOF 3
ENDMDL
