MODEL 1
REMARK minimizedAffinity -3.4639833
REMARK minimizedRMSD -1
REMARK  3 active torsions:
REMARK  status: ('A' for Active; 'I' for Inactive)
REMARK    1  A    between atoms: C3'_2  and  C2'_3 
REMARK    2  A    between atoms: C2'_3  and  C1'_4 
REMARK    3  A    between atoms: C1'_4  and  C1_5 
ROOT
ATOM      1  C1  N4B d   1      -0.478  -0.551   0.171  0.00  0.00    -0.075 A 
ATOM      2  C2  N4B d   1      -1.168  -1.564   0.873  0.00  0.00     0.002 A 
ATOM      3  C3  N4B d   1      -1.395  -2.780   0.276  0.00  0.00     0.002 A 
ATOM      4  C4  N4B d   1      -0.961  -2.998  -1.023  0.00  0.00    -0.004 A 
ATOM      5  C5  N4B d   1      -0.273  -2.024  -1.685  0.00  0.00     0.002 A 
ATOM      6  C6  N4B d   1      -0.033  -0.798  -1.096  0.00  0.00     0.002 A 
ENDROOT
BRANCH   1   7
ATOM      7  C1' N4B d   1      -0.280   0.823   0.750  0.00  0.00     0.057 C 
BRANCH   7   8
ATOM      8  C2' N4B d   1       0.298   1.741  -0.323  0.00  0.00     0.009 C 
BRANCH   8   9
ATOM      9  C3' N4B d   1       0.815   3.044   0.261  0.00  0.00     0.004 C 
ATOM     10  C4' N4B d   1       2.257   2.968   0.665  0.00  0.00     0.003 C 
ENDBRANCH   8   9
ENDBRANCH   7   8
ENDBRANCH   1   7
TORSDOF 3
ENDMDL
