MODEL 1
REMARK minimizedAffinity -2.43286133
REMARK minimizedRMSD -1
REMARK  3 active torsions:
REMARK  status: ('A' for Active; 'I' for Inactive)
REMARK    1  A    between atoms: C3'_2  and  C2'_3 
REMARK    2  A    between atoms: C2'_3  and  C1'_4 
REMARK    3  A    between atoms: C1'_4  and  C1_5 
ROOT
ATOM      1  C1  N4B d   1      -0.488  -0.890   0.049  0.00  0.00    -0.075 A 
ATOM      2  C2  N4B d   1      -1.046  -2.070   0.588  0.00  0.00     0.002 A 
ATOM      3  C3  N4B d   1      -1.306  -3.142  -0.230  0.00  0.00     0.002 A 
ATOM      4  C4  N4B d   1      -1.036  -3.051  -1.587  0.00  0.00    -0.004 A 
ATOM      5  C5  N4B d   1      -0.474  -1.917  -2.096  0.00  0.00     0.002 A 
ATOM      6  C6  N4B d   1      -0.203  -0.833  -1.285  0.00  0.00     0.002 A 
ENDROOT
BRANCH   1   7
ATOM      7  C1' N4B d   1      -0.266   0.339   0.888  0.00  0.00     0.057 C 
BRANCH   7   8
ATOM      8  C2' N4B d   1       0.406   1.412   0.036  0.00  0.00     0.009 C 
BRANCH   8   9
ATOM      9  C3' N4B d   1       1.817   1.712   0.510  0.00  0.00     0.004 C 
ATOM     10  C4' N4B d   1       2.142   3.176   0.477  0.00  0.00     0.003 C 
ENDBRANCH   8   9
ENDBRANCH   7   8
ENDBRANCH   1   7
TORSDOF 3
ENDMDL
