MODEL 1
REMARK minimizedAffinity -3.80450821
REMARK minimizedRMSD -1
REMARK  3 active torsions:
REMARK  status: ('A' for Active; 'I' for Inactive)
REMARK    1  A    between atoms: C3'_2  and  C2'_3 
REMARK    2  A    between atoms: C2'_3  and  C1'_4 
REMARK    3  A    between atoms: C1'_4  and  C1_5 
ROOT
ATOM      1  C1  N4B d   1      -0.342  -0.736  -0.067  0.00  0.00    -0.075 A 
ATOM      2  C2  N4B d   1       0.062  -0.787  -1.420  0.00  0.00     0.002 A 
ATOM      3  C3  N4B d   1      -0.055  -1.958  -2.128  0.00  0.00     0.002 A 
ATOM      4  C4  N4B d   1      -0.552  -3.091  -1.501  0.00  0.00    -0.004 A 
ATOM      5  C5  N4B d   1      -0.963  -3.027  -0.202  0.00  0.00     0.002 A 
ATOM      6  C6  N4B d   1      -0.855  -1.856   0.520  0.00  0.00     0.002 A 
ENDROOT
BRANCH   1   7
ATOM      7  C1' N4B d   1      -0.154   0.498   0.772  0.00  0.00     0.057 C 
BRANCH   7   8
ATOM      8  C2' N4B d   1       0.713   1.495   0.008  0.00  0.00     0.009 C 
BRANCH   8   9
ATOM      9  C3' N4B d   1       0.841   2.818   0.745  0.00  0.00     0.004 C 
ATOM     10  C4' N4B d   1       2.268   3.226   0.961  0.00  0.00     0.003 C 
ENDBRANCH   8   9
ENDBRANCH   7   8
ENDBRANCH   1   7
TORSDOF 3
ENDMDL
