MODEL 1
REMARK minimizedAffinity -4.81450653
REMARK minimizedRMSD -1
REMARK  0 active torsions:
REMARK  status: ('A' for Active; 'I' for Inactive)
ROOT
ATOM      1  C   UNL d   1       1.642  -1.570   2.228  0.00  0.00     0.020 A 
ATOM      2  C1  UNL d   1       2.306  -1.791   1.022  0.00  0.00     0.020 A 
ATOM      3  C2  UNL d   1       1.830  -1.206  -0.154  0.00  0.00     0.034 A 
ATOM      4  C3  UNL d   1       0.688  -0.398  -0.126  0.00  0.00     0.017 A 
ATOM      5  C4  UNL d   1       0.023  -0.177   1.085  0.00  0.00     0.017 A 
ATOM      6  C5  UNL d   1       0.503  -0.764   2.260  0.00  0.00     0.034 A 
ATOM      7 Cl   UNL d   1      -1.393   0.809   1.199  0.00  0.00    -0.070 Cl
ATOM      8 Cl1  UNL d   1       0.157   0.293  -1.618  0.00  0.00    -0.070 Cl
ENDROOT
TORSDOF 0
ENDMDL
