MODEL 1
REMARK minimizedAffinity -2.88138366
REMARK minimizedRMSD -1
REMARK  0 active torsions:
REMARK  status: ('A' for Active; 'I' for Inactive)
ROOT
ATOM      1  C   UNL d   1       1.460  -0.689  -1.225  0.00  0.00     0.020 A 
ATOM      2  C1  UNL d   1       0.273  -0.254  -1.813  0.00  0.00     0.020 A 
ATOM      3  C2  UNL d   1      -0.877  -0.104  -1.035  0.00  0.00     0.034 A 
ATOM      4  C3  UNL d   1      -0.842  -0.389   0.335  0.00  0.00     0.017 A 
ATOM      5  C4  UNL d   1       0.350  -0.826   0.924  0.00  0.00     0.017 A 
ATOM      6  C5  UNL d   1       1.499  -0.975   0.140  0.00  0.00     0.034 A 
ATOM      7 Cl   UNL d   1       0.471  -1.198   2.608  0.00  0.00    -0.070 Cl
ATOM      8 Cl1  UNL d   1      -2.302  -0.181   1.236  0.00  0.00    -0.070 Cl
ENDROOT
TORSDOF 0
ENDMDL
