MODEL 1
REMARK minimizedAffinity -5.38116264
REMARK minimizedRMSD -1
REMARK  0 active torsions:
REMARK  status: ('A' for Active; 'I' for Inactive)
ROOT
ATOM      1  C   UNL d   1       1.995  -0.750   1.693  0.00  0.00     0.020 A 
ATOM      2  C1  UNL d   1       1.199  -0.830   2.835  0.00  0.00     0.020 A 
ATOM      3  C2  UNL d   1      -0.187  -0.691   2.731  0.00  0.00     0.034 A 
ATOM      4  C3  UNL d   1      -0.780  -0.471   1.483  0.00  0.00     0.017 A 
ATOM      5  C4  UNL d   1       0.020  -0.390   0.338  0.00  0.00     0.017 A 
ATOM      6  C5  UNL d   1       1.407  -0.530   0.447  0.00  0.00     0.034 A 
ATOM      7 Cl   UNL d   1      -0.640  -0.120  -1.237  0.00  0.00    -0.070 Cl
ATOM      8 Cl1  UNL d   1      -2.500  -0.309   1.429  0.00  0.00    -0.070 Cl
ENDROOT
TORSDOF 0
ENDMDL
