MODEL 1
REMARK minimizedAffinity -2.03397369
REMARK minimizedRMSD -1
REMARK  0 active torsions:
REMARK  status: ('A' for Active; 'I' for Inactive)
ROOT
ATOM      1  C   UNL d   1      -0.429  -0.002  -1.011  0.00  0.00     0.020 A 
ATOM      2  C1  UNL d   1       0.951  -0.000  -0.816  0.00  0.00     0.020 A 
ATOM      3  C2  UNL d   1       1.483  -0.390   0.415  0.00  0.00     0.034 A 
ATOM      4  C3  UNL d   1       0.634  -0.782   1.456  0.00  0.00     0.017 A 
ATOM      5  C4  UNL d   1      -0.751  -0.784   1.260  0.00  0.00     0.017 A 
ATOM      6  C5  UNL d   1      -1.279  -0.393   0.025  0.00  0.00     0.034 A 
ATOM      7 Cl   UNL d   1      -1.862  -1.256   2.497  0.00  0.00    -0.070 Cl
ATOM      8 Cl1  UNL d   1       1.361  -1.251   2.952  0.00  0.00    -0.070 Cl
ENDROOT
TORSDOF 0
ENDMDL
