MODEL 1
REMARK minimizedAffinity -4.93434
REMARK minimizedRMSD -1
REMARK  0 active torsions:
REMARK  status: ('A' for Active; 'I' for Inactive)
ROOT
ATOM      1  C   UNL d   1       0.674  -0.888   2.827  0.00  0.00     0.020 A 
ATOM      2  C1  UNL d   1       1.539  -0.406   1.846  0.00  0.00     0.020 A 
ATOM      3  C2  UNL d   1       1.030   0.043   0.626  0.00  0.00     0.034 A 
ATOM      4  C3  UNL d   1      -0.348   0.011   0.383  0.00  0.00     0.017 A 
ATOM      5  C4  UNL d   1      -1.216  -0.473   1.369  0.00  0.00     0.017 A 
ATOM      6  C5  UNL d   1      -0.700  -0.922   2.589  0.00  0.00     0.034 A 
ATOM      7 Cl   UNL d   1      -2.928  -0.544   1.144  0.00  0.00    -0.070 Cl
ATOM      8 Cl1  UNL d   1      -0.908   0.582  -1.148  0.00  0.00    -0.070 Cl
ENDROOT
TORSDOF 0
ENDMDL
