MODEL 1
REMARK minimizedAffinity -4.91851664
REMARK minimizedRMSD -1
REMARK  0 active torsions:
REMARK  status: ('A' for Active; 'I' for Inactive)
ROOT
ATOM      1  C   UNL d   1       1.543  -0.519   2.305  0.00  0.00     0.020 A 
ATOM      2  C1  UNL d   1       0.590  -0.783   3.288  0.00  0.00     0.020 A 
ATOM      3  C2  UNL d   1      -0.770  -0.724   2.976  0.00  0.00     0.034 A 
ATOM      4  C3  UNL d   1      -1.181  -0.399   1.678  0.00  0.00     0.017 A 
ATOM      5  C4  UNL d   1      -0.224  -0.134   0.692  0.00  0.00     0.017 A 
ATOM      6  C5  UNL d   1       1.137  -0.195   1.010  0.00  0.00     0.034 A 
ATOM      7 Cl   UNL d   1      -0.654   0.273  -0.932  0.00  0.00    -0.070 Cl
ATOM      8 Cl1  UNL d   1      -2.879  -0.345   1.362  0.00  0.00    -0.070 Cl
ENDROOT
TORSDOF 0
ENDMDL
