MODEL 1
REMARK minimizedAffinity -3.94646478
REMARK minimizedRMSD -1
REMARK  0 active torsions:
REMARK  status: ('A' for Active; 'I' for Inactive)
ROOT
ATOM      1  C   UNL d   1       1.907  -0.607   2.080  0.00  0.00     0.020 A 
ATOM      2  C1  UNL d   1       0.992  -0.834   3.108  0.00  0.00     0.020 A 
ATOM      3  C2  UNL d   1      -0.378  -0.759   2.852  0.00  0.00     0.034 A 
ATOM      4  C3  UNL d   1      -0.839  -0.455   1.566  0.00  0.00     0.017 A 
ATOM      5  C4  UNL d   1       0.079  -0.227   0.535  0.00  0.00     0.017 A 
ATOM      6  C5  UNL d   1       1.451  -0.304   0.796  0.00  0.00     0.034 A 
ATOM      7 Cl   UNL d   1      -0.413   0.152  -1.078  0.00  0.00    -0.070 Cl
ATOM      8 Cl1  UNL d   1      -2.548  -0.379   1.322  0.00  0.00    -0.070 Cl
ENDROOT
TORSDOF 0
ENDMDL
