MODEL 1
REMARK minimizedAffinity -4.66592312
REMARK minimizedRMSD -1
REMARK  0 active torsions:
REMARK  status: ('A' for Active; 'I' for Inactive)
ROOT
ATOM      1  C   UNL d   1       0.510  -0.886   3.254  0.00  0.00     0.020 A 
ATOM      2  C1  UNL d   1       1.630  -0.651   2.458  0.00  0.00     0.020 A 
ATOM      3  C2  UNL d   1       1.477  -0.405   1.092  0.00  0.00     0.034 A 
ATOM      4  C3  UNL d   1       0.201  -0.394   0.517  0.00  0.00     0.017 A 
ATOM      5  C4  UNL d   1      -0.923  -0.631   1.317  0.00  0.00     0.017 A 
ATOM      6  C5  UNL d   1      -0.764  -0.876   2.684  0.00  0.00     0.034 A 
ATOM      7 Cl   UNL d   1      -2.530  -0.633   0.680  0.00  0.00    -0.070 Cl
ATOM      8 Cl1  UNL d   1       0.086  -0.084  -1.178  0.00  0.00    -0.070 Cl
ENDROOT
TORSDOF 0
ENDMDL
