MODEL 1
REMARK minimizedAffinity -3.59199882
REMARK minimizedRMSD -1
REMARK  0 active torsions:
REMARK  status: ('A' for Active; 'I' for Inactive)
ROOT
ATOM      1  C   UNL d   1      -2.121  -0.254   1.352  0.00  0.00     0.020 A 
ATOM      2  C1  UNL d   1      -1.565  -0.126   0.080  0.00  0.00     0.020 A 
ATOM      3  C2  UNL d   1      -0.441  -0.877  -0.270  0.00  0.00     0.034 A 
ATOM      4  C3  UNL d   1       0.130  -1.760   0.654  0.00  0.00     0.017 A 
ATOM      5  C4  UNL d   1      -0.429  -1.888   1.930  0.00  0.00     0.017 A 
ATOM      6  C5  UNL d   1      -1.554  -1.134   2.275  0.00  0.00     0.034 A 
ATOM      7 Cl   UNL d   1       0.220  -2.957   3.123  0.00  0.00    -0.070 Cl
ATOM      8 Cl1  UNL d   1       1.519  -2.658   0.153  0.00  0.00    -0.070 Cl
ENDROOT
TORSDOF 0
ENDMDL
