MODEL 1
REMARK minimizedAffinity -4.74517441
REMARK minimizedRMSD -1
REMARK  0 active torsions:
REMARK  status: ('A' for Active; 'I' for Inactive)
ROOT
ATOM      1  C   UNL d   1       0.865  -0.150   3.026  0.00  0.00     0.020 A 
ATOM      2  C1  UNL d   1       2.094  -0.197   2.369  0.00  0.00     0.020 A 
ATOM      3  C2  UNL d   1       2.153  -0.572   1.025  0.00  0.00     0.034 A 
ATOM      4  C3  UNL d   1       0.982  -0.903   0.334  0.00  0.00     0.017 A 
ATOM      5  C4  UNL d   1      -0.251  -0.856   0.995  0.00  0.00     0.017 A 
ATOM      6  C5  UNL d   1      -0.305  -0.479   2.340  0.00  0.00     0.034 A 
ATOM      7 Cl   UNL d   1      -1.739  -1.250   0.209  0.00  0.00    -0.070 Cl
ATOM      8 Cl1  UNL d   1       1.130  -1.358  -1.326  0.00  0.00    -0.070 Cl
ENDROOT
TORSDOF 0
ENDMDL
