MODEL 1
REMARK minimizedAffinity 13.8442965
REMARK minimizedRMSD -1
REMARK  3 active torsions:
REMARK  status: ('A' for Active; 'I' for Inactive)
REMARK    1  A    between atoms: C3'_2  and  C2'_3 
REMARK    2  A    between atoms: C2'_3  and  C1'_4 
REMARK    3  A    between atoms: C1'_4  and  C1_5 
ROOT
ATOM      1  C1  N4B d   1      -2.898   3.842  -0.091  0.00  0.00    -0.075 A 
ATOM      2  C2  N4B d   1      -2.898   4.980   0.745  0.00  0.00     0.002 A 
ATOM      3  C3  N4B d   1      -3.905   5.908   0.641  0.00  0.00     0.002 A 
ATOM      4  C4  N4B d   1      -4.908   5.730  -0.300  0.00  0.00    -0.004 A 
ATOM      5  C5  N4B d   1      -4.915   4.615  -1.086  0.00  0.00     0.002 A 
ATOM      6  C6  N4B d   1      -3.911   3.672  -0.990  0.00  0.00     0.002 A 
ENDROOT
BRANCH   1   7
ATOM      7  C1' N4B d   1      -1.773   2.844  -0.074  0.00  0.00     0.057 C 
BRANCH   7   8
ATOM      8  C2' N4B d   1      -0.896   3.099   1.148  0.00  0.00     0.009 C 
BRANCH   8   9
ATOM      9  C3' N4B d   1       0.545   3.388   0.762  0.00  0.00     0.004 C 
ATOM     10  C4' N4B d   1       0.961   4.792   1.083  0.00  0.00     0.003 C 
ENDBRANCH   8   9
ENDBRANCH   7   8
ENDBRANCH   1   7
TORSDOF 3
ENDMDL
