MODEL 1
REMARK minimizedAffinity 15.1099863
REMARK minimizedRMSD -1
REMARK  3 active torsions:
REMARK  status: ('A' for Active; 'I' for Inactive)
REMARK    1  A    between atoms: C3'_2  and  C2'_3 
REMARK    2  A    between atoms: C2'_3  and  C1'_4 
REMARK    3  A    between atoms: C1'_4  and  C1_5 
ROOT
ATOM      1  C1  N4B d   1      -1.963  -2.865   1.923  0.00  0.00    -0.075 A 
ATOM      2  C2  N4B d   1      -2.989  -2.489   1.028  0.00  0.00     0.002 A 
ATOM      3  C3  N4B d   1      -2.766  -2.524  -0.326  0.00  0.00     0.002 A 
ATOM      4  C4  N4B d   1      -1.525  -2.913  -0.807  0.00  0.00    -0.004 A 
ATOM      5  C5  N4B d   1      -0.547  -3.299   0.062  0.00  0.00     0.002 A 
ATOM      6  C6  N4B d   1      -0.758  -3.272   1.426  0.00  0.00     0.002 A 
ENDROOT
BRANCH   1   7
ATOM      7  C1' N4B d   1      -2.131  -2.761   3.414  0.00  0.00     0.057 C 
BRANCH   7   8
ATOM      8  C2' N4B d   1      -1.623  -1.400   3.881  0.00  0.00     0.009 C 
BRANCH   8   9
ATOM      9  C3' N4B d   1      -2.724  -0.572   4.521  0.00  0.00     0.004 C 
ATOM     10  C4' N4B d   1      -2.734   0.849   4.042  0.00  0.00     0.003 C 
ENDBRANCH   8   9
ENDBRANCH   7   8
ENDBRANCH   1   7
TORSDOF 3
ENDMDL
