MODEL 1
REMARK minimizedAffinity 14.0234365
REMARK minimizedRMSD -1
REMARK  3 active torsions:
REMARK  status: ('A' for Active; 'I' for Inactive)
REMARK    1  A    between atoms: C3'_2  and  C2'_3 
REMARK    2  A    between atoms: C2'_3  and  C1'_4 
REMARK    3  A    between atoms: C1'_4  and  C1_5 
ROOT
ATOM      1  C1  N4B d   1      -2.306  -2.158   2.666  0.00  0.00    -0.075 A 
ATOM      2  C2  N4B d   1      -2.921  -1.236   1.791  0.00  0.00     0.002 A 
ATOM      3  C3  N4B d   1      -2.545  -1.186   0.471  0.00  0.00     0.002 A 
ATOM      4  C4  N4B d   1      -1.548  -2.032   0.010  0.00  0.00    -0.004 A 
ATOM      5  C5  N4B d   1      -0.977  -2.937   0.855  0.00  0.00     0.002 A 
ATOM      6  C6  N4B d   1      -1.348  -3.001   2.183  0.00  0.00     0.002 A 
ENDROOT
BRANCH   1   7
ATOM      7  C1' N4B d   1      -2.623  -2.191   4.136  0.00  0.00     0.057 C 
BRANCH   7   8
ATOM      8  C2' N4B d   1      -3.018  -0.790   4.595  0.00  0.00     0.009 C 
BRANCH   8   9
ATOM      9  C3' N4B d   1      -3.604  -0.795   5.996  0.00  0.00     0.004 C 
ATOM     10  C4' N4B d   1      -5.102  -0.736   6.000  0.00  0.00     0.003 C 
ENDBRANCH   8   9
ENDBRANCH   7   8
ENDBRANCH   1   7
TORSDOF 3
ENDMDL
