MODEL 1
REMARK minimizedAffinity 0.159485593
REMARK minimizedRMSD -1
REMARK  3 active torsions:
REMARK  status: ('A' for Active; 'I' for Inactive)
REMARK    1  A    between atoms: C3'_2  and  C2'_3 
REMARK    2  A    between atoms: C2'_3  and  C1'_4 
REMARK    3  A    between atoms: C1'_4  and  C1_5 
ROOT
ATOM      1  C1  N4B d   1       4.312  -2.307   5.186  0.00  0.00    -0.075 A 
ATOM      2  C2  N4B d   1       5.181  -3.247   5.783  0.00  0.00     0.002 A 
ATOM      3  C3  N4B d   1       5.994  -4.027   4.996  0.00  0.00     0.002 A 
ATOM      4  C4  N4B d   1       5.941  -3.898   3.617  0.00  0.00    -0.004 A 
ATOM      5  C5  N4B d   1       5.118  -2.970   3.049  0.00  0.00     0.002 A 
ATOM      6  C6  N4B d   1       4.299  -2.177   3.827  0.00  0.00     0.002 A 
ENDROOT
BRANCH   1   7
ATOM      7  C1' N4B d   1       3.343  -1.493   5.999  0.00  0.00     0.057 C 
BRANCH   7   8
ATOM      8  C2' N4B d   1       1.984  -2.186   5.999  0.00  0.00     0.009 C 
BRANCH   8   9
ATOM      9  C3' N4B d   1       2.117  -3.699   6.000  0.00  0.00     0.004 C 
ATOM     10  C4' N4B d   1       2.010  -4.293   4.627  0.00  0.00     0.003 C 
ENDBRANCH   8   9
ENDBRANCH   7   8
ENDBRANCH   1   7
TORSDOF 3
ENDMDL
