MODEL 1
REMARK minimizedAffinity 5.22300768
REMARK minimizedRMSD -1
REMARK  3 active torsions:
REMARK  status: ('A' for Active; 'I' for Inactive)
REMARK    1  A    between atoms: C3'_2  and  C2'_3 
REMARK    2  A    between atoms: C2'_3  and  C1'_4 
REMARK    3  A    between atoms: C1'_4  and  C1_5 
ROOT
ATOM      1  C1  N4B d   1       5.099  -2.878  -4.100  0.00  0.00    -0.075 A 
ATOM      2  C2  N4B d   1       4.156  -2.952  -5.148  0.00  0.00     0.002 A 
ATOM      3  C3  N4B d   1       4.158  -4.029  -6.000  0.00  0.00     0.002 A 
ATOM      4  C4  N4B d   1       5.102  -5.032  -5.835  0.00  0.00    -0.004 A 
ATOM      5  C5  N4B d   1       5.993  -4.966  -4.804  0.00  0.00     0.002 A 
ATOM      6  C6  N4B d   1       6.000  -3.891  -3.938  0.00  0.00     0.002 A 
ENDROOT
BRANCH   1   7
ATOM      7  C1' N4B d   1       5.191  -1.679  -3.196  0.00  0.00     0.057 C 
BRANCH   7   8
ATOM      8  C2' N4B d   1       4.297  -0.570  -3.744  0.00  0.00     0.009 C 
BRANCH   8   9
ATOM      9  C3' N4B d   1       4.999   0.777  -3.745  0.00  0.00     0.004 C 
ATOM     10  C4' N4B d   1       4.214   1.841  -4.453  0.00  0.00     0.003 C 
ENDBRANCH   8   9
ENDBRANCH   7   8
ENDBRANCH   1   7
TORSDOF 3
ENDMDL
