MODEL 1
REMARK minimizedAffinity 9.43443871
REMARK minimizedRMSD -1
REMARK  3 active torsions:
REMARK  status: ('A' for Active; 'I' for Inactive)
REMARK    1  A    between atoms: C3'_2  and  C2'_3 
REMARK    2  A    between atoms: C2'_3  and  C1'_4 
REMARK    3  A    between atoms: C1'_4  and  C1_5 
ROOT
ATOM      1  C1  N4B d   1      -2.252  -1.523   4.225  0.00  0.00    -0.075 A 
ATOM      2  C2  N4B d   1      -2.233  -0.114   4.131  0.00  0.00     0.002 A 
ATOM      3  C3  N4B d   1      -3.014   0.640   4.972  0.00  0.00     0.002 A 
ATOM      4  C4  N4B d   1      -3.831   0.011   5.898  0.00  0.00    -0.004 A 
ATOM      5  C5  N4B d   1      -3.824  -1.350   6.000  0.00  0.00     0.002 A 
ATOM      6  C6  N4B d   1      -3.042  -2.121   5.164  0.00  0.00     0.002 A 
ENDROOT
BRANCH   1   7
ATOM      7  C1' N4B d   1      -1.481  -2.393   3.270  0.00  0.00     0.057 C 
BRANCH   7   8
ATOM      8  C2' N4B d   1      -2.311  -2.608   2.008  0.00  0.00     0.009 C 
BRANCH   8   9
ATOM      9  C3' N4B d   1      -1.441  -2.700   0.765  0.00  0.00     0.004 C 
ATOM     10  C4' N4B d   1      -2.015  -1.953  -0.402  0.00  0.00     0.003 C 
ENDBRANCH   8   9
ENDBRANCH   7   8
ENDBRANCH   1   7
TORSDOF 3
ENDMDL
