MODEL 1
REMARK minimizedAffinity 14.1356688
REMARK minimizedRMSD -1
REMARK  3 active torsions:
REMARK  status: ('A' for Active; 'I' for Inactive)
REMARK    1  A    between atoms: C3'_2  and  C2'_3 
REMARK    2  A    between atoms: C2'_3  and  C1'_4 
REMARK    3  A    between atoms: C1'_4  and  C1_5 
ROOT
ATOM      1  C1  N4B d   1      -2.451  -1.267   2.515  0.00  0.00    -0.075 A 
ATOM      2  C2  N4B d   1      -2.374  -0.049   3.225  0.00  0.00     0.002 A 
ATOM      3  C3  N4B d   1      -2.459  -0.047   4.596  0.00  0.00     0.002 A 
ATOM      4  C4  N4B d   1      -2.638  -1.244   5.274  0.00  0.00    -0.004 A 
ATOM      5  C5  N4B d   1      -2.686  -2.419   4.582  0.00  0.00     0.002 A 
ATOM      6  C6  N4B d   1      -2.598  -2.436   3.204  0.00  0.00     0.002 A 
ENDROOT
BRANCH   1   7
ATOM      7  C1' N4B d   1      -2.449  -1.311   1.011  0.00  0.00     0.057 C 
BRANCH   7   8
ATOM      8  C2' N4B d   1      -1.123  -0.761   0.495  0.00  0.00     0.009 C 
BRANCH   8   9
ATOM      9  C3' N4B d   1      -0.598  -1.557  -0.687  0.00  0.00     0.004 C 
ATOM     10  C4' N4B d   1       0.627  -2.355  -0.352  0.00  0.00     0.003 C 
ENDBRANCH   8   9
ENDBRANCH   7   8
ENDBRANCH   1   7
TORSDOF 3
ENDMDL
