MODEL 1
REMARK minimizedAffinity 4.38971567
REMARK minimizedRMSD -1
REMARK  3 active torsions:
REMARK  status: ('A' for Active; 'I' for Inactive)
REMARK    1  A    between atoms: C3'_2  and  C2'_3 
REMARK    2  A    between atoms: C2'_3  and  C1'_4 
REMARK    3  A    between atoms: C1'_4  and  C1_5 
ROOT
ATOM      1  C1  N4B d   1      -2.825  -3.812  -4.078  0.00  0.00    -0.075 A 
ATOM      2  C2  N4B d   1      -4.234  -3.889  -4.003  0.00  0.00     0.002 A 
ATOM      3  C3  N4B d   1      -4.890  -4.982  -4.514  0.00  0.00     0.002 A 
ATOM      4  C4  N4B d   1      -4.164  -5.997  -5.118  0.00  0.00    -0.004 A 
ATOM      5  C5  N4B d   1      -2.802  -5.927  -5.164  0.00  0.00     0.002 A 
ATOM      6  C6  N4B d   1      -2.129  -4.836  -4.651  0.00  0.00     0.002 A 
ENDROOT
BRANCH   1   7
ATOM      7  C1' N4B d   1      -2.070  -2.598  -3.611  0.00  0.00     0.057 C 
BRANCH   7   8
ATOM      8  C2' N4B d   1      -0.677  -2.605  -4.232  0.00  0.00     0.009 C 
BRANCH   8   9
ATOM      9  C3' N4B d   1       0.312  -1.785  -3.420  0.00  0.00     0.004 C 
ATOM     10  C4' N4B d   1       1.734  -2.203  -3.644  0.00  0.00     0.003 C 
ENDBRANCH   8   9
ENDBRANCH   7   8
ENDBRANCH   1   7
TORSDOF 3
ENDMDL
