MODEL 1
REMARK minimizedAffinity -0.0920744166
REMARK minimizedRMSD -1
REMARK  3 active torsions:
REMARK  status: ('A' for Active; 'I' for Inactive)
REMARK    1  A    between atoms: C3'_2  and  C2'_3 
REMARK    2  A    between atoms: C2'_3  and  C1'_4 
REMARK    3  A    between atoms: C1'_4  and  C1_5 
ROOT
ATOM      1  C1  N4B d   1      -0.720  -2.677  -1.824  0.00  0.00    -0.075 A 
ATOM      2  C2  N4B d   1      -2.121  -2.713  -2.000  0.00  0.00     0.002 A 
ATOM      3  C3  N4B d   1      -2.950  -2.739  -0.906  0.00  0.00     0.002 A 
ATOM      4  C4  N4B d   1      -2.403  -2.747   0.369  0.00  0.00    -0.004 A 
ATOM      5  C5  N4B d   1      -1.050  -2.687   0.530  0.00  0.00     0.002 A 
ATOM      6  C6  N4B d   1      -0.205  -2.657  -0.561  0.00  0.00     0.002 A 
ENDROOT
BRANCH   1   7
ATOM      7  C1' N4B d   1       0.229  -2.735  -2.990  0.00  0.00     0.057 C 
BRANCH   7   8
ATOM      8  C2' N4B d   1       0.268  -4.160  -3.534  0.00  0.00     0.009 C 
BRANCH   8   9
ATOM      9  C3' N4B d   1       0.963  -4.235  -4.882  0.00  0.00     0.004 C 
ATOM     10  C4' N4B d   1       0.029  -4.595  -5.999  0.00  0.00     0.003 C 
ENDBRANCH   8   9
ENDBRANCH   7   8
ENDBRANCH   1   7
TORSDOF 3
ENDMDL
