MODEL 1
REMARK minimizedAffinity 0.23295027
REMARK minimizedRMSD -1
REMARK  1 active torsions:
REMARK  status: ('A' for Active; 'I' for Inactive)
REMARK    1  A    between atoms: N_2  and  C1_3 
ROOT
ATOM      1  C1  UNL d   1      -1.794  -0.641   1.142  0.00  0.00     0.143 A 
ATOM      2  C2  UNL d   1      -0.607   0.086   1.001  0.00  0.00    -0.057 A 
ATOM      3  C3  UNL d   1       0.270  -0.156  -0.063  0.00  0.00     0.033 A 
ATOM      4  C4  UNL d   1      -0.011  -1.153  -0.992  0.00  0.00    -0.042 A 
ATOM      5  C5  UNL d   1      -1.173  -1.905  -0.857  0.00  0.00     0.033 A 
ATOM      6  C6  UNL d   1      -2.049  -1.654   0.204  0.00  0.00    -0.057 A 
ENDROOT
BRANCH   1   7
ATOM      7  N   UNL d   1      -2.658  -0.515   2.233  0.00  0.00    -0.732 N 
ATOM      8  C   UNL d   1      -3.554   0.617   2.337  0.00  0.00     0.284 C 
ATOM      9  H3  UNL d   1      -3.078  -1.403   2.500  0.00  0.00     0.395 HD
ENDBRANCH   1   7
TORSDOF 1
ENDMDL
