MODEL 1
REMARK minimizedAffinity 0.0954710767
REMARK minimizedRMSD -1
REMARK  1 active torsions:
REMARK  status: ('A' for Active; 'I' for Inactive)
REMARK    1  A    between atoms: N_2  and  C1_3 
ROOT
ATOM      1  C1  UNL d   1       4.956  -3.153  -3.810  0.00  0.00     0.143 A 
ATOM      2  C2  UNL d   1       3.896  -2.695  -3.021  0.00  0.00    -0.057 A 
ATOM      3  C3  UNL d   1       3.894  -2.876  -1.632  0.00  0.00     0.033 A 
ATOM      4  C4  UNL d   1       4.943  -3.546  -1.010  0.00  0.00    -0.042 A 
ATOM      5  C5  UNL d   1       5.995  -4.031  -1.778  0.00  0.00     0.033 A 
ATOM      6  C6  UNL d   1       5.995  -3.841  -3.163  0.00  0.00    -0.057 A 
ENDROOT
BRANCH   1   7
ATOM      7  N   UNL d   1       4.970  -3.091  -5.206  0.00  0.00    -0.732 N 
ATOM      8  C   UNL d   1       4.015  -3.847  -5.987  0.00  0.00     0.284 C 
ATOM      9  H3  UNL d   1       5.136  -2.148  -5.551  0.00  0.00     0.395 HD
ENDBRANCH   1   7
TORSDOF 1
ENDMDL
