MODEL 1
REMARK minimizedAffinity 6.3009305
REMARK minimizedRMSD -1
REMARK  1 active torsions:
REMARK  status: ('A' for Active; 'I' for Inactive)
REMARK    1  A    between atoms: N_2  and  C1_3 
ROOT
ATOM      1  C1  UNL d   1      -1.231  -2.016  -0.870  0.00  0.00     0.143 A 
ATOM      2  C2  UNL d   1       0.100  -1.832  -1.262  0.00  0.00    -0.057 A 
ATOM      3  C3  UNL d   1       0.823  -0.700  -0.868  0.00  0.00     0.033 A 
ATOM      4  C4  UNL d   1       0.217   0.286  -0.096  0.00  0.00    -0.042 A 
ATOM      5  C5  UNL d   1      -1.112   0.136   0.285  0.00  0.00     0.033 A 
ATOM      6  C6  UNL d   1      -1.827  -1.000  -0.106  0.00  0.00    -0.057 A 
ENDROOT
BRANCH   1   7
ATOM      7  N   UNL d   1      -2.033  -3.072  -1.310  0.00  0.00    -0.732 N 
ATOM      8  C   UNL d   1      -3.431  -2.858  -1.614  0.00  0.00     0.284 C 
ATOM      9  H3  UNL d   1      -1.551  -3.675  -1.973  0.00  0.00     0.395 HD
ENDBRANCH   1   7
TORSDOF 1
ENDMDL
