MODEL 1
REMARK minimizedAffinity 11.8496265
REMARK minimizedRMSD -1
REMARK  1 active torsions:
REMARK  status: ('A' for Active; 'I' for Inactive)
REMARK    1  A    between atoms: N_2  and  C1_3 
ROOT
ATOM      1  C1  UNL d   1       0.540  -1.043  -1.330  0.00  0.00     0.143 A 
ATOM      2  C2  UNL d   1       0.317  -0.415  -0.100  0.00  0.00    -0.057 A 
ATOM      3  C3  UNL d   1      -0.838  -0.674   0.649  0.00  0.00     0.033 A 
ATOM      4  C4  UNL d   1      -1.807  -1.545   0.164  0.00  0.00    -0.042 A 
ATOM      5  C5  UNL d   1      -1.618  -2.162  -1.068  0.00  0.00     0.033 A 
ATOM      6  C6  UNL d   1      -0.460  -1.905  -1.807  0.00  0.00    -0.057 A 
ENDROOT
BRANCH   1   7
ATOM      7  N   UNL d   1       1.621  -0.754  -2.166  0.00  0.00    -0.732 N 
ATOM      8  C   UNL d   1       1.757   0.555  -2.770  0.00  0.00     0.284 C 
ATOM      9  H3  UNL d   1       2.495  -1.145  -1.821  0.00  0.00     0.395 HD
ENDBRANCH   1   7
TORSDOF 1
ENDMDL
