MODEL 1
REMARK minimizedAffinity 3.89959788
REMARK minimizedRMSD -1
REMARK  1 active torsions:
REMARK  status: ('A' for Active; 'I' for Inactive)
REMARK    1  A    between atoms: N_2  and  C1_3 
ROOT
ATOM      1  C1  UNL d   1      -2.265  -3.057  -3.252  0.00  0.00     0.143 A 
ATOM      2  C2  UNL d   1      -1.654  -2.572  -4.413  0.00  0.00    -0.057 A 
ATOM      3  C3  UNL d   1      -1.514  -3.377  -5.551  0.00  0.00     0.033 A 
ATOM      4  C4  UNL d   1      -1.958  -4.695  -5.536  0.00  0.00    -0.042 A 
ATOM      5  C5  UNL d   1      -2.546  -5.206  -4.385  0.00  0.00     0.033 A 
ATOM      6  C6  UNL d   1      -2.689  -4.396  -3.255  0.00  0.00    -0.057 A 
ENDROOT
BRANCH   1   7
ATOM      7  N   UNL d   1      -2.346  -2.339  -2.057  0.00  0.00    -0.732 N 
ATOM      8  C   UNL d   1      -1.173  -1.699  -1.501  0.00  0.00     0.284 C 
ATOM      9  H3  UNL d   1      -3.193  -1.778  -1.997  0.00  0.00     0.395 HD
ENDBRANCH   1   7
TORSDOF 1
ENDMDL
