MODEL 1
REMARK minimizedAffinity 7.60411835
REMARK minimizedRMSD -1
REMARK  1 active torsions:
REMARK  status: ('A' for Active; 'I' for Inactive)
REMARK    1  A    between atoms: N_2  and  C1_3 
ROOT
ATOM      1  C1  UNL d   1      -1.574  -2.238  -0.960  0.00  0.00     0.143 A 
ATOM      2  C2  UNL d   1      -0.709  -1.896  -2.005  0.00  0.00    -0.057 A 
ATOM      3  C3  UNL d   1      -0.018  -0.678  -2.006  0.00  0.00     0.033 A 
ATOM      4  C4  UNL d   1      -0.203   0.234  -0.972  0.00  0.00    -0.042 A 
ATOM      5  C5  UNL d   1      -1.076  -0.074   0.064  0.00  0.00     0.033 A 
ATOM      6  C6  UNL d   1      -1.759  -1.295   0.063  0.00  0.00    -0.057 A 
ENDROOT
BRANCH   1   7
ATOM      7  N   UNL d   1      -2.365  -3.390  -0.950  0.00  0.00    -0.732 N 
ATOM      8  C   UNL d   1      -3.749  -3.337  -1.369  0.00  0.00     0.284 C 
ATOM      9  H3  UNL d   1      -1.861  -4.209  -1.282  0.00  0.00     0.395 HD
ENDBRANCH   1   7
TORSDOF 1
ENDMDL
