MODEL 1
REMARK minimizedAffinity 4.11502647
REMARK minimizedRMSD -1
REMARK  1 active torsions:
REMARK  status: ('A' for Active; 'I' for Inactive)
REMARK    1  A    between atoms: N_2  and  C1_3 
ROOT
ATOM      1  C1  UNL d   1      -2.129  -3.202  -2.556  0.00  0.00     0.143 A 
ATOM      2  C2  UNL d   1      -1.462  -2.663  -3.662  0.00  0.00    -0.057 A 
ATOM      3  C3  UNL d   1      -1.393  -3.355  -4.877  0.00  0.00     0.033 A 
ATOM      4  C4  UNL d   1      -1.968  -4.616  -4.999  0.00  0.00    -0.042 A 
ATOM      5  C5  UNL d   1      -2.614  -5.182  -3.906  0.00  0.00     0.033 A 
ATOM      6  C6  UNL d   1      -2.685  -4.483  -2.697  0.00  0.00    -0.057 A 
ENDROOT
BRANCH   1   7
ATOM      7  N   UNL d   1      -2.147  -2.606  -1.293  0.00  0.00    -0.732 N 
ATOM      8  C   UNL d   1      -1.016  -1.833  -0.826  0.00  0.00     0.284 C 
ATOM      9  H3  UNL d   1      -3.051  -2.197  -1.069  0.00  0.00     0.395 HD
ENDBRANCH   1   7
TORSDOF 1
ENDMDL
