MODEL 1
REMARK minimizedAffinity 0.0324796364
REMARK minimizedRMSD -1
REMARK  1 active torsions:
REMARK  status: ('A' for Active; 'I' for Inactive)
REMARK    1  A    between atoms: N_2  and  C1_3 
ROOT
ATOM      1  C1  UNL d   1      -3.204  -0.692   4.104  0.00  0.00     0.143 A 
ATOM      2  C2  UNL d   1      -2.686  -0.551   2.813  0.00  0.00    -0.057 A 
ATOM      3  C3  UNL d   1      -3.152   0.446   1.947  0.00  0.00     0.033 A 
ATOM      4  C4  UNL d   1      -4.170   1.305   2.350  0.00  0.00    -0.042 A 
ATOM      5  C5  UNL d   1      -4.717   1.167   3.621  0.00  0.00     0.033 A 
ATOM      6  C6  UNL d   1      -4.243   0.174   4.483  0.00  0.00    -0.057 A 
ENDROOT
BRANCH   1   7
ATOM      7  N   UNL d   1      -2.852  -1.725   4.976  0.00  0.00    -0.732 N 
ATOM      8  C   UNL d   1      -3.868  -2.558   5.582  0.00  0.00     0.284 C 
ATOM      9  H3  UNL d   1      -2.030  -2.235   4.661  0.00  0.00     0.395 HD
ENDBRANCH   1   7
TORSDOF 1
ENDMDL
