MODEL 1
REMARK minimizedAffinity 4.10577583
REMARK minimizedRMSD -1
REMARK  1 active torsions:
REMARK  status: ('A' for Active; 'I' for Inactive)
REMARK    1  A    between atoms: N_2  and  C1_3 
ROOT
ATOM      1  C1  UNL d   1       6.000  -3.880  -1.157  0.00  0.00     0.143 A 
ATOM      2  C2  UNL d   1       5.923  -3.118  -2.328  0.00  0.00    -0.057 A 
ATOM      3  C3  UNL d   1       5.878  -1.720  -2.282  0.00  0.00     0.033 A 
ATOM      4  C4  UNL d   1       5.880  -1.057  -1.059  0.00  0.00    -0.042 A 
ATOM      5  C5  UNL d   1       5.931  -1.795   0.118  0.00  0.00     0.033 A 
ATOM      6  C6  UNL d   1       5.982  -3.191   0.066  0.00  0.00    -0.057 A 
ENDROOT
BRANCH   1   7
ATOM      7  N   UNL d   1       5.948  -5.276  -1.133  0.00  0.00    -0.732 N 
ATOM      8  C   UNL d   1       5.993  -5.994   0.123  0.00  0.00     0.284 C 
ATOM      9  H3  UNL d   1       5.279  -5.652  -1.802  0.00  0.00     0.395 HD
ENDBRANCH   1   7
TORSDOF 1
ENDMDL
