MODEL 1
REMARK minimizedAffinity 0.199019119
REMARK minimizedRMSD -1
REMARK  1 active torsions:
REMARK  status: ('A' for Active; 'I' for Inactive)
REMARK    1  A    between atoms: N_2  and  C1_3 
ROOT
ATOM      1  C1  UNL d   1       0.547   1.861   0.184  0.00  0.00     0.143 A 
ATOM      2  C2  UNL d   1       0.306   3.024   0.924  0.00  0.00    -0.057 A 
ATOM      3  C3  UNL d   1       1.340   3.918   1.229  0.00  0.00     0.033 A 
ATOM      4  C4  UNL d   1       2.643   3.649   0.822  0.00  0.00    -0.042 A 
ATOM      5  C5  UNL d   1       2.910   2.487   0.106  0.00  0.00     0.033 A 
ATOM      6  C6  UNL d   1       1.872   1.602  -0.201  0.00  0.00    -0.057 A 
ENDROOT
BRANCH   1   7
ATOM      7  N   UNL d   1      -0.420   0.885  -0.067  0.00  0.00    -0.732 N 
ATOM      8  C   UNL d   1      -1.151   0.275   1.023  0.00  0.00     0.284 C 
ATOM      9  H3  UNL d   1      -0.991   1.103  -0.880  0.00  0.00     0.395 HD
ENDBRANCH   1   7
TORSDOF 1
ENDMDL
