MODEL 1
REMARK minimizedAffinity 9.37962627
REMARK minimizedRMSD -1
REMARK  0 active torsions:
REMARK  status: ('A' for Active; 'I' for Inactive)
ROOT
ATOM      1  C1  DEN d   1      -2.460  -0.357   3.254  0.00  0.00     0.130 A 
ATOM      2  C2  DEN d   1      -1.105  -0.603   3.738  0.00  0.00    -0.031 A 
ATOM      3  C3  DEN d   1      -0.168  -0.343   2.627  0.00  0.00     0.027 A 
ATOM      4  C4  DEN d   1      -0.683   0.417   0.216  0.00  0.00     0.027 A 
ATOM      5  C5  DEN d   1      -1.687   0.744  -0.668  0.00  0.00    -0.003 A 
ATOM      6  C6  DEN d   1      -3.011   0.694  -0.320  0.00  0.00     0.001 A 
ATOM      7  C7  DEN d   1      -3.364   0.352   0.959  0.00  0.00     0.017 A 
ATOM      8  C8  DEN d   1      -2.357   0.014   1.854  0.00  0.00    -0.094 A 
ATOM      9  C9  DEN d   1      -1.024   0.083   1.486  0.00  0.00    -0.072 A 
ENDROOT
TORSDOF 0
ENDMDL
