MODEL 1
REMARK minimizedAffinity 8.38540936
REMARK minimizedRMSD -1
REMARK  0 active torsions:
REMARK  status: ('A' for Active; 'I' for Inactive)
ROOT
ATOM      1  C1  DEN d   1      -1.630  -0.552   0.266  0.00  0.00     0.130 A 
ATOM      2  C2  DEN d   1      -0.190  -0.347   0.136  0.00  0.00    -0.031 A 
ATOM      3  C3  DEN d   1       0.412  -0.471   1.479  0.00  0.00     0.027 A 
ATOM      4  C4  DEN d   1      -0.740  -0.962   3.734  0.00  0.00     0.027 A 
ATOM      5  C5  DEN d   1      -1.949  -1.199   4.349  0.00  0.00    -0.003 A 
ATOM      6  C6  DEN d   1      -3.131  -1.204   3.657  0.00  0.00     0.001 A 
ATOM      7  C7  DEN d   1      -3.125  -1.011   2.300  0.00  0.00     0.017 A 
ATOM      8  C8  DEN d   1      -1.910  -0.764   1.675  0.00  0.00    -0.094 A 
ATOM      9  C9  DEN d   1      -0.724  -0.776   2.390  0.00  0.00    -0.072 A 
ENDROOT
TORSDOF 0
ENDMDL
