MODEL 1
REMARK minimizedAffinity 5.36917973
REMARK minimizedRMSD -1
REMARK  0 active torsions:
REMARK  status: ('A' for Active; 'I' for Inactive)
ROOT
ATOM      1  C1  DEN d   1       0.384  -0.526   0.564  0.00  0.00     0.130 A 
ATOM      2  C2  DEN d   1      -0.716  -0.144  -0.318  0.00  0.00    -0.031 A 
ATOM      3  C3  DEN d   1      -1.943  -0.048   0.498  0.00  0.00     0.027 A 
ATOM      4  C4  DEN d   1      -2.245  -0.446   3.029  0.00  0.00     0.027 A 
ATOM      5  C5  DEN d   1      -1.601  -0.800   4.194  0.00  0.00    -0.003 A 
ATOM      6  C6  DEN d   1      -0.269  -1.118   4.225  0.00  0.00     0.001 A 
ATOM      7  C7  DEN d   1       0.473  -1.044   3.075  0.00  0.00     0.017 A 
ATOM      8  C8  DEN d   1      -0.170  -0.695   1.895  0.00  0.00    -0.094 A 
ATOM      9  C9  DEN d   1      -1.515  -0.366   1.887  0.00  0.00    -0.072 A 
ENDROOT
TORSDOF 0
ENDMDL
