MODEL 1
REMARK minimizedAffinity 5.06416082
REMARK minimizedRMSD -1
REMARK  0 active torsions:
REMARK  status: ('A' for Active; 'I' for Inactive)
ROOT
ATOM      1  C1  DEN d   1      -2.169  -0.293   2.928  0.00  0.00     0.130 A 
ATOM      2  C2  DEN d   1      -2.743   0.417   1.788  0.00  0.00    -0.031 A 
ATOM      3  C3  DEN d   1      -1.639   0.797   0.884  0.00  0.00     0.027 A 
ATOM      4  C4  DEN d   1       0.890   0.354   1.136  0.00  0.00     0.027 A 
ATOM      5  C5  DEN d   1       1.857  -0.201   1.944  0.00  0.00    -0.003 A 
ATOM      6  C6  DEN d   1       1.557  -0.791   3.143  0.00  0.00     0.001 A 
ATOM      7  C7  DEN d   1       0.251  -0.879   3.548  0.00  0.00     0.017 A 
ATOM      8  C8  DEN d   1      -0.729  -0.315   2.742  0.00  0.00    -0.094 A 
ATOM      9  C9  DEN d   1      -0.407   0.266   1.527  0.00  0.00    -0.072 A 
ENDROOT
TORSDOF 0
ENDMDL
