MODEL 1
REMARK minimizedAffinity 5.60224485
REMARK minimizedRMSD -1
REMARK  0 active torsions:
REMARK  status: ('A' for Active; 'I' for Inactive)
ROOT
ATOM      1  C1  DEN d   1       0.529   0.017   1.225  0.00  0.00     0.130 A 
ATOM      2  C2  DEN d   1       1.259  -0.320   0.005  0.00  0.00    -0.031 A 
ATOM      3  C3  DEN d   1       0.272  -0.685  -1.031  0.00  0.00     0.027 A 
ATOM      4  C4  DEN d   1      -2.301  -0.755  -0.868  0.00  0.00     0.027 A 
ATOM      5  C5  DEN d   1      -3.379  -0.563  -0.032  0.00  0.00    -0.003 A 
ATOM      6  C6  DEN d   1      -3.229  -0.200   1.280  0.00  0.00     0.001 A 
ATOM      7  C7  DEN d   1      -1.975   0.027   1.783  0.00  0.00     0.017 A 
ATOM      8  C8  DEN d   1      -0.883  -0.172   0.948  0.00  0.00    -0.094 A 
ATOM      9  C9  DEN d   1      -1.056  -0.528  -0.379  0.00  0.00    -0.072 A 
ENDROOT
TORSDOF 0
ENDMDL
