MODEL 1
REMARK minimizedAffinity -4.39331007
REMARK minimizedRMSD -1
REMARK  0 active torsions:
REMARK  status: ('A' for Active; 'I' for Inactive)
ROOT
ATOM      1  C   UNL d   1      -0.238   0.502  -1.147  0.00  0.00     0.020 A 
ATOM      2  C1  UNL d   1      -1.478   0.032  -1.579  0.00  0.00     0.020 A 
ATOM      3  C2  UNL d   1      -1.980  -1.172  -1.082  0.00  0.00     0.034 A 
ATOM      4  C3  UNL d   1      -1.243  -1.911  -0.149  0.00  0.00     0.017 A 
ATOM      5  C4  UNL d   1       0.001  -1.438   0.284  0.00  0.00     0.017 A 
ATOM      6  C5  UNL d   1       0.500  -0.232  -0.217  0.00  0.00     0.034 A 
ATOM      7 Cl   UNL d   1       0.969  -2.294   1.433  0.00  0.00    -0.070 Cl
ATOM      8 Cl1  UNL d   1      -1.926  -3.391   0.424  0.00  0.00    -0.070 Cl
ENDROOT
TORSDOF 0
ENDMDL
