MODEL 1
REMARK minimizedAffinity -1.5494771
REMARK minimizedRMSD -1
REMARK  0 active torsions:
REMARK  status: ('A' for Active; 'I' for Inactive)
ROOT
ATOM      1  C   UNL d   1      -2.364  -1.133  -1.127  0.00  0.00     0.020 A 
ATOM      2  C1  UNL d   1      -1.743  -0.052  -1.752  0.00  0.00     0.020 A 
ATOM      3  C2  UNL d   1      -0.489   0.381  -1.314  0.00  0.00     0.034 A 
ATOM      4  C3  UNL d   1       0.147  -0.267  -0.250  0.00  0.00     0.017 A 
ATOM      5  C4  UNL d   1      -0.476  -1.353   0.376  0.00  0.00     0.017 A 
ATOM      6  C5  UNL d   1      -1.732  -1.782  -0.066  0.00  0.00     0.034 A 
ATOM      7 Cl   UNL d   1       0.247  -2.203   1.695  0.00  0.00    -0.070 Cl
ATOM      8 Cl1  UNL d   1       1.697   0.322   0.238  0.00  0.00    -0.070 Cl
ENDROOT
TORSDOF 0
ENDMDL
