MODEL 1
REMARK minimizedAffinity 0.301118672
REMARK minimizedRMSD -1
REMARK  0 active torsions:
REMARK  status: ('A' for Active; 'I' for Inactive)
ROOT
ATOM      1  C   UNL d   1      -1.030   1.331  -1.473  0.00  0.00     0.020 A 
ATOM      2  C1  UNL d   1      -1.392   0.004  -1.244  0.00  0.00     0.020 A 
ATOM      3  C2  UNL d   1      -0.588  -0.812  -0.446  0.00  0.00     0.034 A 
ATOM      4  C3  UNL d   1       0.583  -0.302   0.126  0.00  0.00     0.017 A 
ATOM      5  C4  UNL d   1       0.947   1.030  -0.104  0.00  0.00     0.017 A 
ATOM      6  C5  UNL d   1       0.138   1.842  -0.904  0.00  0.00     0.034 A 
ATOM      7 Cl   UNL d   1       2.377   1.730   0.568  0.00  0.00    -0.070 Cl
ATOM      8 Cl1  UNL d   1       1.530  -1.368   1.103  0.00  0.00    -0.070 Cl
ENDROOT
TORSDOF 0
ENDMDL
