MODEL 1
REMARK minimizedAffinity -2.60502434
REMARK minimizedRMSD -1
REMARK  0 active torsions:
REMARK  status: ('A' for Active; 'I' for Inactive)
ROOT
ATOM      1  C   UNL d   1       0.118   0.194  -0.695  0.00  0.00     0.020 A 
ATOM      2  C1  UNL d   1      -0.535   0.813   0.369  0.00  0.00     0.020 A 
ATOM      3  C2  UNL d   1       0.140   1.751   1.153  0.00  0.00     0.034 A 
ATOM      4  C3  UNL d   1       1.473   2.073   0.872  0.00  0.00     0.017 A 
ATOM      5  C4  UNL d   1       2.128   1.451  -0.197  0.00  0.00     0.017 A 
ATOM      6  C5  UNL d   1       1.447   0.512  -0.978  0.00  0.00     0.034 A 
ATOM      7 Cl   UNL d   1       3.772   1.796  -0.604  0.00  0.00    -0.070 Cl
ATOM      8 Cl1  UNL d   1       2.247   3.242   1.882  0.00  0.00    -0.070 Cl
ENDROOT
TORSDOF 0
ENDMDL
