MODEL 1
REMARK minimizedAffinity -1.92353082
REMARK minimizedRMSD -1
REMARK  0 active torsions:
REMARK  status: ('A' for Active; 'I' for Inactive)
ROOT
ATOM      1  C   UNL d   1      -1.469   0.613  -1.562  0.00  0.00     0.020 A 
ATOM      2  C1  UNL d   1      -2.492  -0.299  -1.304  0.00  0.00     0.020 A 
ATOM      3  C2  UNL d   1      -2.285  -1.342  -0.399  0.00  0.00     0.034 A 
ATOM      4  C3  UNL d   1      -1.053  -1.476   0.251  0.00  0.00     0.017 A 
ATOM      5  C4  UNL d   1      -0.027  -0.560  -0.009  0.00  0.00     0.017 A 
ATOM      6  C5  UNL d   1      -0.239   0.483  -0.916  0.00  0.00     0.034 A 
ATOM      7 Cl   UNL d   1       1.521  -0.661   0.754  0.00  0.00    -0.070 Cl
ATOM      8 Cl1  UNL d   1      -0.867  -2.790   1.358  0.00  0.00    -0.070 Cl
ENDROOT
TORSDOF 0
ENDMDL
