MODEL 1
REMARK minimizedAffinity -0.526857853
REMARK minimizedRMSD -1
REMARK  0 active torsions:
REMARK  status: ('A' for Active; 'I' for Inactive)
ROOT
ATOM      1  C   UNL d   1       2.084   1.992   1.617  0.00  0.00     0.020 A 
ATOM      2  C1  UNL d   1       2.880   1.037   0.986  0.00  0.00     0.020 A 
ATOM      3  C2  UNL d   1       2.335   0.221  -0.008  0.00  0.00     0.034 A 
ATOM      4  C3  UNL d   1       0.991   0.358  -0.373  0.00  0.00     0.017 A 
ATOM      5  C4  UNL d   1       0.193   1.317   0.262  0.00  0.00     0.017 A 
ATOM      6  C5  UNL d   1       0.744   2.132   1.255  0.00  0.00     0.034 A 
ATOM      7 Cl   UNL d   1      -1.474   1.545  -0.135  0.00  0.00    -0.070 Cl
ATOM      8 Cl1  UNL d   1       0.384  -0.685  -1.609  0.00  0.00    -0.070 Cl
ENDROOT
TORSDOF 0
ENDMDL
