MODEL 1
REMARK minimizedAffinity -2.41752362
REMARK minimizedRMSD -1
REMARK  0 active torsions:
REMARK  status: ('A' for Active; 'I' for Inactive)
ROOT
ATOM      1  C   UNL d   1      -0.927   0.063  -1.039  0.00  0.00     0.020 A 
ATOM      2  C1  UNL d   1      -1.098   1.359  -0.553  0.00  0.00     0.020 A 
ATOM      3  C2  UNL d   1      -0.178   1.892   0.353  0.00  0.00     0.034 A 
ATOM      4  C3  UNL d   1       0.917   1.128   0.776  0.00  0.00     0.017 A 
ATOM      5  C4  UNL d   1       1.087  -0.172   0.287  0.00  0.00     0.017 A 
ATOM      6  C5  UNL d   1       0.163  -0.700  -0.620  0.00  0.00     0.034 A 
ATOM      7 Cl   UNL d   1       2.413  -1.174   0.762  0.00  0.00    -0.070 Cl
ATOM      8 Cl1  UNL d   1       2.015   1.851   1.897  0.00  0.00    -0.070 Cl
ENDROOT
TORSDOF 0
ENDMDL
