MODEL 1
REMARK minimizedAffinity -1.47422481
REMARK minimizedRMSD -1
REMARK  0 active torsions:
REMARK  status: ('A' for Active; 'I' for Inactive)
ROOT
ATOM      1  C   UNL d   1      -1.082   1.615  -1.400  0.00  0.00     0.020 A 
ATOM      2  C1  UNL d   1      -1.207   0.228  -1.327  0.00  0.00     0.020 A 
ATOM      3  C2  UNL d   1      -0.213  -0.530  -0.705  0.00  0.00     0.034 A 
ATOM      4  C3  UNL d   1       0.910   0.098  -0.153  0.00  0.00     0.017 A 
ATOM      5  C4  UNL d   1       1.034   1.490  -0.227  0.00  0.00     0.017 A 
ATOM      6  C5  UNL d   1       0.036   2.245  -0.852  0.00  0.00     0.034 A 
ATOM      7 Cl   UNL d   1       2.390   2.336   0.430  0.00  0.00    -0.070 Cl
ATOM      8 Cl1  UNL d   1       2.100  -0.902   0.601  0.00  0.00    -0.070 Cl
ENDROOT
TORSDOF 0
ENDMDL
