MODEL 1
REMARK minimizedAffinity -0.781168461
REMARK minimizedRMSD -1
REMARK  0 active torsions:
REMARK  status: ('A' for Active; 'I' for Inactive)
ROOT
ATOM      1  C   UNL d   1      -1.926   0.054  -1.521  0.00  0.00     0.020 A 
ATOM      2  C1  UNL d   1      -0.807   0.699  -0.996  0.00  0.00     0.020 A 
ATOM      3  C2  UNL d   1      -0.083   0.106   0.041  0.00  0.00     0.034 A 
ATOM      4  C3  UNL d   1      -0.476  -1.135   0.555  0.00  0.00     0.017 A 
ATOM      5  C4  UNL d   1      -1.599  -1.781   0.027  0.00  0.00     0.017 A 
ATOM      6  C5  UNL d   1      -2.321  -1.184  -1.011  0.00  0.00     0.034 A 
ATOM      7 Cl   UNL d   1      -2.146  -3.314   0.610  0.00  0.00    -0.070 Cl
ATOM      8 Cl1  UNL d   1       0.467  -1.809   1.836  0.00  0.00    -0.070 Cl
ENDROOT
TORSDOF 0
ENDMDL
