MODEL 1
REMARK minimizedAffinity -0.482808918
REMARK minimizedRMSD -1
REMARK  0 active torsions:
REMARK  status: ('A' for Active; 'I' for Inactive)
ROOT
ATOM      1  C   UNL d   1      -2.393  -0.021  -1.404  0.00  0.00     0.020 A 
ATOM      2  C1  UNL d   1      -1.441   0.966  -1.659  0.00  0.00     0.020 A 
ATOM      3  C2  UNL d   1      -0.196   0.915  -1.027  0.00  0.00     0.034 A 
ATOM      4  C3  UNL d   1       0.100  -0.124  -0.137  0.00  0.00     0.017 A 
ATOM      5  C4  UNL d   1      -0.857  -1.113   0.118  0.00  0.00     0.017 A 
ATOM      6  C5  UNL d   1      -2.101  -1.058  -0.517  0.00  0.00     0.034 A 
ATOM      7 Cl   UNL d   1      -0.565  -2.426   1.204  0.00  0.00    -0.070 Cl
ATOM      8 Cl1  UNL d   1       1.658  -0.124   0.608  0.00  0.00    -0.070 Cl
ENDROOT
TORSDOF 0
ENDMDL
