MODEL 1
REMARK minimizedAffinity -2.51359081
REMARK minimizedRMSD -1
REMARK  0 active torsions:
REMARK  status: ('A' for Active; 'I' for Inactive)
ROOT
ATOM      1  C   UNL d   1      -2.724  -1.737  -1.204  0.00  0.00     0.020 A 
ATOM      2  C1  UNL d   1      -2.230  -0.561  -1.767  0.00  0.00     0.020 A 
ATOM      3  C2  UNL d   1      -1.074   0.028  -1.251  0.00  0.00     0.034 A 
ATOM      4  C3  UNL d   1      -0.407  -0.559  -0.169  0.00  0.00     0.017 A 
ATOM      5  C4  UNL d   1      -0.904  -1.739   0.395  0.00  0.00     0.017 A 
ATOM      6  C5  UNL d   1      -2.063  -2.324  -0.125  0.00  0.00     0.034 A 
ATOM      7 Cl   UNL d   1      -0.137  -2.522   1.732  0.00  0.00    -0.070 Cl
ATOM      8 Cl1  UNL d   1       1.017   0.223   0.417  0.00  0.00    -0.070 Cl
ENDROOT
TORSDOF 0
ENDMDL
