MODEL 1
REMARK minimizedAffinity -2.27957702
REMARK minimizedRMSD -1
REMARK  0 active torsions:
REMARK  status: ('A' for Active; 'I' for Inactive)
ROOT
ATOM      1  C   UNL d   1       1.537   1.172   0.308  0.00  0.00     0.020 A 
ATOM      2  C1  UNL d   1       0.307   1.376   0.933  0.00  0.00     0.020 A 
ATOM      3  C2  UNL d   1      -0.860   0.864   0.362  0.00  0.00     0.034 A 
ATOM      4  C3  UNL d   1      -0.800   0.146  -0.838  0.00  0.00     0.017 A 
ATOM      5  C4  UNL d   1       0.435  -0.057  -1.465  0.00  0.00     0.017 A 
ATOM      6  C5  UNL d   1       1.600   0.457  -0.889  0.00  0.00     0.034 A 
ATOM      7 Cl   UNL d   1       0.588  -0.933  -2.948  0.00  0.00    -0.070 Cl
ATOM      8 Cl1  UNL d   1      -2.283  -0.458  -1.488  0.00  0.00    -0.070 Cl
ENDROOT
TORSDOF 0
ENDMDL
