MODEL 1
REMARK minimizedAffinity -1.3410778
REMARK minimizedRMSD -1
REMARK  0 active torsions:
REMARK  status: ('A' for Active; 'I' for Inactive)
ROOT
ATOM      1  C   UNL d   1      -2.384  -2.904   0.539  0.00  0.00     0.020 A 
ATOM      2  C1  UNL d   1      -1.394  -2.835   1.519  0.00  0.00     0.020 A 
ATOM      3  C2  UNL d   1      -0.415  -1.842   1.454  0.00  0.00     0.034 A 
ATOM      4  C3  UNL d   1      -0.423  -0.913   0.407  0.00  0.00     0.017 A 
ATOM      5  C4  UNL d   1      -1.417  -0.983  -0.576  0.00  0.00     0.017 A 
ATOM      6  C5  UNL d   1      -2.395  -1.979  -0.506  0.00  0.00     0.034 A 
ATOM      7 Cl   UNL d   1      -1.492   0.128  -1.898  0.00  0.00    -0.070 Cl
ATOM      8 Cl1  UNL d   1       0.818   0.289   0.390  0.00  0.00    -0.070 Cl
ENDROOT
TORSDOF 0
ENDMDL
