MODEL 1
REMARK minimizedAffinity -3.63531709
REMARK minimizedRMSD -1
REMARK  0 active torsions:
REMARK  status: ('A' for Active; 'I' for Inactive)
ROOT
ATOM      1  C   UNL d   1       2.845   2.201   1.344  0.00  0.00     0.020 A 
ATOM      2  C1  UNL d   1       2.238   3.432   1.096  0.00  0.00     0.020 A 
ATOM      3  C2  UNL d   1       0.989   3.481   0.473  0.00  0.00     0.034 A 
ATOM      4  C3  UNL d   1       0.343   2.298   0.096  0.00  0.00     0.017 A 
ATOM      5  C4  UNL d   1       0.953   1.064   0.346  0.00  0.00     0.017 A 
ATOM      6  C5  UNL d   1       2.204   1.020   0.970  0.00  0.00     0.034 A 
ATOM      7 Cl   UNL d   1       0.217  -0.439  -0.089  0.00  0.00    -0.070 Cl
ATOM      8 Cl1  UNL d   1      -1.200   2.434  -0.669  0.00  0.00    -0.070 Cl
ENDROOT
TORSDOF 0
ENDMDL
