MODEL 1
REMARK minimizedAffinity -2.52840185
REMARK minimizedRMSD -1
REMARK  0 active torsions:
REMARK  status: ('A' for Active; 'I' for Inactive)
ROOT
ATOM      1  C   UNL d   1      -0.674   2.339  -0.636  0.00  0.00     0.020 A 
ATOM      2  C1  UNL d   1      -0.923   1.005  -0.957  0.00  0.00     0.020 A 
ATOM      3  C2  UNL d   1      -0.082   0.001  -0.473  0.00  0.00     0.034 A 
ATOM      4  C3  UNL d   1       1.012   0.329   0.336  0.00  0.00     0.017 A 
ATOM      5  C4  UNL d   1       1.261   1.668   0.659  0.00  0.00     0.017 A 
ATOM      6  C5  UNL d   1       0.416   2.669   0.170  0.00  0.00     0.034 A 
ATOM      7 Cl   UNL d   1       2.591   2.151   1.651  0.00  0.00    -0.070 Cl
ATOM      8 Cl1  UNL d   1       2.010  -0.963   0.901  0.00  0.00    -0.070 Cl
ENDROOT
TORSDOF 0
ENDMDL
