MODEL 1
REMARK minimizedAffinity -0.770401597
REMARK minimizedRMSD -1
REMARK  0 active torsions:
REMARK  status: ('A' for Active; 'I' for Inactive)
ROOT
ATOM      1  C   UNL d   1       0.836   0.881  -1.072  0.00  0.00     0.020 A 
ATOM      2  C1  UNL d   1       1.622   0.360  -0.046  0.00  0.00     0.020 A 
ATOM      3  C2  UNL d   1       1.134  -0.681   0.747  0.00  0.00     0.034 A 
ATOM      4  C3  UNL d   1      -0.143  -1.204   0.515  0.00  0.00     0.017 A 
ATOM      5  C4  UNL d   1      -0.932  -0.680  -0.516  0.00  0.00     0.017 A 
ATOM      6  C5  UNL d   1      -0.438   0.362  -1.307  0.00  0.00     0.034 A 
ATOM      7 Cl   UNL d   1      -2.517  -1.274  -0.864  0.00  0.00    -0.070 Cl
ATOM      8 Cl1  UNL d   1      -0.682  -2.492   1.534  0.00  0.00    -0.070 Cl
ENDROOT
TORSDOF 0
ENDMDL
