MODEL 1
REMARK minimizedAffinity 1.52179384
REMARK minimizedRMSD -1
REMARK  0 active torsions:
REMARK  status: ('A' for Active; 'I' for Inactive)
ROOT
ATOM      1  C1  BNZ d   1       0.760  -1.345   2.973  0.00  0.00     0.000 A 
ATOM      2  C2  BNZ d   1       0.502  -0.517   4.033  0.00  0.00     0.000 A 
ATOM      3  C3  BNZ d   1      -0.516  -0.791   4.903  0.00  0.00     0.000 A 
ATOM      4  C4  BNZ d   1      -1.300  -1.867   4.689  0.00  0.00     0.000 A 
ATOM      5  C5  BNZ d   1      -1.058  -2.706   3.619  0.00  0.00     0.000 A 
ATOM      6  C6  BNZ d   1      -0.008  -2.449   2.768  0.00  0.00     0.000 A 
ENDROOT
TORSDOF 0
ENDMDL
