MODEL 1
REMARK minimizedAffinity 2.71579051
REMARK minimizedRMSD -1
REMARK  0 active torsions:
REMARK  status: ('A' for Active; 'I' for Inactive)
ROOT
ATOM      1  C1  BNZ d   1      -0.603  -0.889   4.184  0.00  0.00     0.000 A 
ATOM      2  C2  BNZ d   1       0.692  -0.796   3.748  0.00  0.00     0.000 A 
ATOM      3  C3  BNZ d   1       1.127  -1.535   2.683  0.00  0.00     0.000 A 
ATOM      4  C4  BNZ d   1       0.279  -2.393   2.081  0.00  0.00     0.000 A 
ATOM      5  C5  BNZ d   1      -1.027  -2.505   2.514  0.00  0.00     0.000 A 
ATOM      6  C6  BNZ d   1      -1.472  -1.732   3.562  0.00  0.00     0.000 A 
ENDROOT
TORSDOF 0
ENDMDL
