MODEL 1
REMARK minimizedAffinity 10.5087643
REMARK minimizedRMSD -1
REMARK  0 active torsions:
REMARK  status: ('A' for Active; 'I' for Inactive)
ROOT
ATOM      1  C1  BNZ d   1       3.642  -5.986   3.325  0.00  0.00     0.000 A 
ATOM      2  C2  BNZ d   1       4.937  -5.981   3.772  0.00  0.00     0.000 A 
ATOM      3  C3  BNZ d   1       5.215  -5.983   5.110  0.00  0.00     0.000 A 
ATOM      4  C4  BNZ d   1       4.201  -5.949   5.999  0.00  0.00     0.000 A 
ATOM      5  C5  BNZ d   1       2.891  -5.944   5.564  0.00  0.00     0.000 A 
ATOM      6  C6  BNZ d   1       2.614  -5.982   4.216  0.00  0.00     0.000 A 
ENDROOT
TORSDOF 0
ENDMDL
