MODEL 1
REMARK minimizedAffinity 4.37984943
REMARK minimizedRMSD -1
REMARK  0 active torsions:
REMARK  status: ('A' for Active; 'I' for Inactive)
ROOT
ATOM      1  C1  BNZ d   1       0.405  -4.598   2.821  0.00  0.00     0.000 A 
ATOM      2  C2  BNZ d   1      -0.424  -4.356   3.884  0.00  0.00     0.000 A 
ATOM      3  C3  BNZ d   1      -1.175  -3.216   3.941  0.00  0.00     0.000 A 
ATOM      4  C4  BNZ d   1      -1.067  -2.301   2.956  0.00  0.00     0.000 A 
ATOM      5  C5  BNZ d   1      -0.229  -2.526   1.882  0.00  0.00     0.000 A 
ATOM      6  C6  BNZ d   1       0.497  -3.693   1.809  0.00  0.00     0.000 A 
ENDROOT
TORSDOF 0
ENDMDL
