MODEL 1
REMARK minimizedAffinity 8.55581188
REMARK minimizedRMSD -1
REMARK  0 active torsions:
REMARK  status: ('A' for Active; 'I' for Inactive)
ROOT
ATOM      1  C1  BNZ d   1      -0.762  -0.632   3.772  0.00  0.00     0.000 A 
ATOM      2  C2  BNZ d   1       0.312  -0.267   3.006  0.00  0.00     0.000 A 
ATOM      3  C3  BNZ d   1       0.745  -1.062   1.982  0.00  0.00     0.000 A 
ATOM      4  C4  BNZ d   1       0.130  -2.240   1.752  0.00  0.00     0.000 A 
ATOM      5  C5  BNZ d   1      -0.949  -2.627   2.522  0.00  0.00     0.000 A 
ATOM      6  C6  BNZ d   1      -1.407  -1.806   3.526  0.00  0.00     0.000 A 
ENDROOT
TORSDOF 0
ENDMDL
