MODEL 1
REMARK minimizedAffinity 6.85293102
REMARK minimizedRMSD -1
REMARK  0 active torsions:
REMARK  status: ('A' for Active; 'I' for Inactive)
ROOT
ATOM      1  C1  BNZ d   1       2.970   0.411   2.994  0.00  0.00     0.000 A 
ATOM      2  C2  BNZ d   1       1.866  -0.146   2.407  0.00  0.00     0.000 A 
ATOM      3  C3  BNZ d   1       0.753  -0.438   3.146  0.00  0.00     0.000 A 
ATOM      4  C4  BNZ d   1       0.761  -0.211   4.475  0.00  0.00     0.000 A 
ATOM      5  C5  BNZ d   1       1.871   0.342   5.083  0.00  0.00     0.000 A 
ATOM      6  C6  BNZ d   1       2.974   0.670   4.330  0.00  0.00     0.000 A 
ENDROOT
TORSDOF 0
ENDMDL
