MODEL 1
REMARK minimizedAffinity 4.4878993
REMARK minimizedRMSD -1
REMARK  0 active torsions:
REMARK  status: ('A' for Active; 'I' for Inactive)
ROOT
ATOM      1  C1  BNZ d   1       0.312  -2.579   1.853  0.00  0.00     0.000 A 
ATOM      2  C2  BNZ d   1      -0.485  -2.668   2.963  0.00  0.00     0.000 A 
ATOM      3  C3  BNZ d   1      -0.522  -1.655   3.881  0.00  0.00     0.000 A 
ATOM      4  C4  BNZ d   1       0.266  -0.575   3.708  0.00  0.00     0.000 A 
ATOM      5  C5  BNZ d   1       1.082  -0.475   2.598  0.00  0.00     0.000 A 
ATOM      6  C6  BNZ d   1       1.088  -1.478   1.657  0.00  0.00     0.000 A 
ENDROOT
TORSDOF 0
ENDMDL
