MODEL 1
REMARK minimizedAffinity 8.37103271
REMARK minimizedRMSD -1
REMARK  0 active torsions:
REMARK  status: ('A' for Active; 'I' for Inactive)
ROOT
ATOM      1  C1  BNZ d   1      -3.738  -4.495   0.365  0.00  0.00     0.000 A 
ATOM      2  C2  BNZ d   1      -3.761  -5.300  -0.743  0.00  0.00     0.000 A 
ATOM      3  C3  BNZ d   1      -4.899  -5.967  -1.100  0.00  0.00     0.000 A 
ATOM      4  C4  BNZ d   1      -6.000  -5.860  -0.329  0.00  0.00     0.000 A 
ATOM      5  C5  BNZ d   1      -5.990  -5.060   0.796  0.00  0.00     0.000 A 
ATOM      6  C6  BNZ d   1      -4.854  -4.359   1.131  0.00  0.00     0.000 A 
ENDROOT
TORSDOF 0
ENDMDL
