MODEL 1
REMARK minimizedAffinity 2.80964565
REMARK minimizedRMSD -1
REMARK  0 active torsions:
REMARK  status: ('A' for Active; 'I' for Inactive)
ROOT
ATOM      1  C1  BNZ d   1      -1.745   2.136  -1.513  0.00  0.00     0.000 A 
ATOM      2  C2  BNZ d   1      -0.609   2.110  -0.749  0.00  0.00     0.000 A 
ATOM      3  C3  BNZ d   1       0.467   2.891  -1.068  0.00  0.00     0.000 A 
ATOM      4  C4  BNZ d   1       0.421   3.664  -2.172  0.00  0.00     0.000 A 
ATOM      5  C5  BNZ d   1      -0.714   3.694  -2.958  0.00  0.00     0.000 A 
ATOM      6  C6  BNZ d   1      -1.810   2.936  -2.611  0.00  0.00     0.000 A 
ENDROOT
TORSDOF 0
ENDMDL
