MODEL 1
REMARK minimizedAffinity 6.56936836
REMARK minimizedRMSD -1
REMARK  0 active torsions:
REMARK  status: ('A' for Active; 'I' for Inactive)
ROOT
ATOM      1  C1  BNZ d   1      -2.255   3.657  -4.745  0.00  0.00     0.000 A 
ATOM      2  C2  BNZ d   1      -1.884   4.833  -5.341  0.00  0.00     0.000 A 
ATOM      3  C3  BNZ d   1      -1.851   5.999  -4.629  0.00  0.00     0.000 A 
ATOM      4  C4  BNZ d   1      -2.227   5.996  -3.334  0.00  0.00     0.000 A 
ATOM      5  C5  BNZ d   1      -2.614   4.820  -2.721  0.00  0.00     0.000 A 
ATOM      6  C6  BNZ d   1      -2.608   3.641  -3.431  0.00  0.00     0.000 A 
ENDROOT
TORSDOF 0
ENDMDL
