MODEL 1
REMARK minimizedAffinity 0.855174065
REMARK minimizedRMSD -1
REMARK  0 active torsions:
REMARK  status: ('A' for Active; 'I' for Inactive)
ROOT
ATOM      1  C1  BNZ d   1      -3.735  -5.998   2.615  0.00  0.00     0.000 A 
ATOM      2  C2  BNZ d   1      -3.524  -4.828   3.294  0.00  0.00     0.000 A 
ATOM      3  C3  BNZ d   1      -4.058  -3.652   2.845  0.00  0.00     0.000 A 
ATOM      4  C4  BNZ d   1      -4.768  -3.642   1.698  0.00  0.00     0.000 A 
ATOM      5  C5  BNZ d   1      -4.981  -4.812   0.997  0.00  0.00     0.000 A 
ATOM      6  C6  BNZ d   1      -4.474  -6.000   1.473  0.00  0.00     0.000 A 
ENDROOT
TORSDOF 0
ENDMDL
