MODEL 1
REMARK minimizedAffinity 7.81607533
REMARK minimizedRMSD -1
REMARK  0 active torsions:
REMARK  status: ('A' for Active; 'I' for Inactive)
ROOT
ATOM      1  C1  BNZ d   1       0.383  -4.430   1.746  0.00  0.00     0.000 A 
ATOM      2  C2  BNZ d   1      -0.748  -3.671   1.603  0.00  0.00     0.000 A 
ATOM      3  C3  BNZ d   1      -0.669  -2.309   1.505  0.00  0.00     0.000 A 
ATOM      4  C4  BNZ d   1       0.535  -1.707   1.592  0.00  0.00     0.000 A 
ATOM      5  C5  BNZ d   1       1.683  -2.459   1.745  0.00  0.00     0.000 A 
ATOM      6  C6  BNZ d   1       1.603  -3.831   1.804  0.00  0.00     0.000 A 
ENDROOT
TORSDOF 0
ENDMDL
