MODEL 1
REMARK minimizedAffinity 9.01536751
REMARK minimizedRMSD -1
REMARK  0 active torsions:
REMARK  status: ('A' for Active; 'I' for Inactive)
ROOT
ATOM      1  C1  BNZ d   1      -2.023   3.460  -3.405  0.00  0.00     0.000 A 
ATOM      2  C2  BNZ d   1      -1.585   4.548  -4.112  0.00  0.00     0.000 A 
ATOM      3  C3  BNZ d   1      -1.827   5.817  -3.665  0.00  0.00     0.000 A 
ATOM      4  C4  BNZ d   1      -2.540   5.996  -2.534  0.00  0.00     0.000 A 
ATOM      5  C5  BNZ d   1      -2.997   4.910  -1.815  0.00  0.00     0.000 A 
ATOM      6  C6  BNZ d   1      -2.718   3.634  -2.248  0.00  0.00     0.000 A 
ENDROOT
TORSDOF 0
ENDMDL
