MODEL 1
REMARK minimizedAffinity 9.19610882
REMARK minimizedRMSD -1
REMARK  0 active torsions:
REMARK  status: ('A' for Active; 'I' for Inactive)
ROOT
ATOM      1  C1  BNZ d   1      -4.094   4.114  -1.671  0.00  0.00     0.000 A 
ATOM      2  C2  BNZ d   1      -4.059   2.827  -2.140  0.00  0.00     0.000 A 
ATOM      3  C3  BNZ d   1      -3.097   2.432  -3.027  0.00  0.00     0.000 A 
ATOM      4  C4  BNZ d   1      -2.198   3.332  -3.475  0.00  0.00     0.000 A 
ATOM      5  C5  BNZ d   1      -2.227   4.635  -3.019  0.00  0.00     0.000 A 
ATOM      6  C6  BNZ d   1      -3.172   5.020  -2.096  0.00  0.00     0.000 A 
ENDROOT
TORSDOF 0
ENDMDL
