MODEL 1
REMARK minimizedAffinity 2.15224528
REMARK minimizedRMSD -1
REMARK  0 active torsions:
REMARK  status: ('A' for Active; 'I' for Inactive)
ROOT
ATOM      1  C1  BNZ d   1      -3.192  -3.724   0.171  0.00  0.00     0.000 A 
ATOM      2  C2  BNZ d   1      -3.267  -4.838  -0.622  0.00  0.00     0.000 A 
ATOM      3  C3  BNZ d   1      -3.895  -5.969  -0.182  0.00  0.00     0.000 A 
ATOM      4  C4  BNZ d   1      -4.412  -5.999   1.063  0.00  0.00     0.000 A 
ATOM      5  C5  BNZ d   1      -4.337  -4.887   1.878  0.00  0.00     0.000 A 
ATOM      6  C6  BNZ d   1      -3.738  -3.737   1.417  0.00  0.00     0.000 A 
ENDROOT
TORSDOF 0
ENDMDL
