MODEL 1
REMARK minimizedAffinity 7.85764647
REMARK minimizedRMSD -1
REMARK  0 active torsions:
REMARK  status: ('A' for Active; 'I' for Inactive)
ROOT
ATOM      1  C1  BNZ d   1       0.649  -0.534   3.728  0.00  0.00     0.000 A 
ATOM      2  C2  BNZ d   1       0.549  -1.227   2.551  0.00  0.00     0.000 A 
ATOM      3  C3  BNZ d   1       1.559  -1.192   1.630  0.00  0.00     0.000 A 
ATOM      4  C4  BNZ d   1       2.649  -0.435   1.870  0.00  0.00     0.000 A 
ATOM      5  C5  BNZ d   1       2.761   0.277   3.048  0.00  0.00     0.000 A 
ATOM      6  C6  BNZ d   1       1.759   0.209   3.989  0.00  0.00     0.000 A 
ENDROOT
TORSDOF 0
ENDMDL
