MODEL 1
REMARK minimizedAffinity 8.7403307
REMARK minimizedRMSD -1
REMARK  0 active torsions:
REMARK  status: ('A' for Active; 'I' for Inactive)
ROOT
ATOM      1  C1  BNZ d   1      -2.481   3.065  -3.504  0.00  0.00     0.000 A 
ATOM      2  C2  BNZ d   1      -2.574   2.834  -4.851  0.00  0.00     0.000 A 
ATOM      3  C3  BNZ d   1      -2.462   3.860  -5.747  0.00  0.00     0.000 A 
ATOM      4  C4  BNZ d   1      -2.298   5.120  -5.294  0.00  0.00     0.000 A 
ATOM      5  C5  BNZ d   1      -2.212   5.370  -3.939  0.00  0.00     0.000 A 
ATOM      6  C6  BNZ d   1      -2.286   4.330  -3.042  0.00  0.00     0.000 A 
ENDROOT
TORSDOF 0
ENDMDL
