MODEL 1
REMARK minimizedAffinity -1.87710726
REMARK minimizedRMSD -1
REMARK  0 active torsions:
REMARK  status: ('A' for Active; 'I' for Inactive)
ROOT
ATOM      1  C1  BNZ d   1       0.718  -4.855  -4.931  0.00  0.00     0.000 A 
ATOM      2  C2  BNZ d   1       1.402  -3.671  -5.005  0.00  0.00     0.000 A 
ATOM      3  C3  BNZ d   1       2.651  -3.619  -5.559  0.00  0.00     0.000 A 
ATOM      4  C4  BNZ d   1       3.229  -4.754  -6.000  0.00  0.00     0.000 A 
ATOM      5  C5  BNZ d   1       2.555  -5.957  -5.923  0.00  0.00     0.000 A 
ATOM      6  C6  BNZ d   1       1.283  -6.000  -5.401  0.00  0.00     0.000 A 
ENDROOT
TORSDOF 0
ENDMDL
