MODEL 1
REMARK minimizedAffinity 3.76669168
REMARK minimizedRMSD -1
REMARK  0 active torsions:
REMARK  status: ('A' for Active; 'I' for Inactive)
ROOT
ATOM      1  C   UNL d   1       2.986   2.465   0.325  0.00  0.00     0.023 A 
ATOM      2  C1  UNL d   1       4.052   1.566   0.331  0.00  0.00     0.003 A 
ATOM      3  C2  UNL d   1       3.814   0.198   0.183  0.00  0.00     0.048 A 
ATOM      4  C3  UNL d   1       2.507  -0.264   0.028  0.00  0.00     0.023 A 
ATOM      5  C4  UNL d   1       1.437   0.633   0.020  0.00  0.00     0.048 A 
ATOM      6  C5  UNL d   1       1.680   2.000   0.170  0.00  0.00     0.003 A 
ATOM      7  I   UNL d   1       2.150  -2.299  -0.194  0.00  0.00    -0.146 I 
ENDROOT
TORSDOF 0
ENDMDL
