MODEL 1
REMARK minimizedAffinity 10.2084665
REMARK minimizedRMSD -1
REMARK  0 active torsions:
REMARK  status: ('A' for Active; 'I' for Inactive)
ROOT
ATOM      1  C   UNL d   1       3.163  -1.944   0.242  0.00  0.00     0.023 A 
ATOM      2  C1  UNL d   1       3.377  -0.893   1.133  0.00  0.00     0.003 A 
ATOM      3  C2  UNL d   1       2.527   0.215   1.125  0.00  0.00     0.048 A 
ATOM      4  C3  UNL d   1       1.464   0.265   0.223  0.00  0.00     0.023 A 
ATOM      5  C4  UNL d   1       1.246  -0.785  -0.670  0.00  0.00     0.048 A 
ATOM      6  C5  UNL d   1       2.099  -1.890  -0.659  0.00  0.00     0.003 A 
ATOM      7  I   UNL d   1       0.197   1.912   0.209  0.00  0.00    -0.146 I 
ENDROOT
TORSDOF 0
ENDMDL
