MODEL 1
REMARK minimizedAffinity 6.47902203
REMARK minimizedRMSD -1
REMARK  0 active torsions:
REMARK  status: ('A' for Active; 'I' for Inactive)
ROOT
ATOM      1  C   UNL d   1       1.603   3.172   0.688  0.00  0.00     0.023 A 
ATOM      2  C1  UNL d   1       2.979   2.953   0.765  0.00  0.00     0.003 A 
ATOM      3  C2  UNL d   1       3.477   1.650   0.827  0.00  0.00     0.048 A 
ATOM      4  C3  UNL d   1       2.594   0.571   0.811  0.00  0.00     0.023 A 
ATOM      5  C4  UNL d   1       1.217   0.785   0.733  0.00  0.00     0.048 A 
ATOM      6  C5  UNL d   1       0.724   2.090   0.673  0.00  0.00     0.003 A 
ATOM      7  I   UNL d   1       3.333  -1.370   0.902  0.00  0.00    -0.146 I 
ENDROOT
TORSDOF 0
ENDMDL
