MODEL 1
REMARK minimizedAffinity 2.28452563
REMARK minimizedRMSD -1
REMARK  0 active torsions:
REMARK  status: ('A' for Active; 'I' for Inactive)
ROOT
ATOM      1  C   UNL d   1      -4.668   1.727  -2.675  0.00  0.00     0.023 A 
ATOM      2  C1  UNL d   1      -3.856   1.777  -3.808  0.00  0.00     0.003 A 
ATOM      3  C2  UNL d   1      -2.659   1.058  -3.843  0.00  0.00     0.048 A 
ATOM      4  C3  UNL d   1      -2.281   0.292  -2.742  0.00  0.00     0.023 A 
ATOM      5  C4  UNL d   1      -3.090   0.238  -1.606  0.00  0.00     0.048 A 
ATOM      6  C5  UNL d   1      -4.286   0.959  -1.575  0.00  0.00     0.003 A 
ATOM      7  I   UNL d   1      -0.500  -0.779  -2.791  0.00  0.00    -0.146 I 
ENDROOT
TORSDOF 0
ENDMDL
