MODEL 1
REMARK minimizedAffinity 5.19832993
REMARK minimizedRMSD -1
REMARK  0 active torsions:
REMARK  status: ('A' for Active; 'I' for Inactive)
ROOT
ATOM      1  C   UNL d   1       3.579  -2.002   0.694  0.00  0.00     0.023 A 
ATOM      2  C1  UNL d   1       2.990  -1.779  -0.551  0.00  0.00     0.003 A 
ATOM      3  C2  UNL d   1       2.179  -0.660  -0.751  0.00  0.00     0.048 A 
ATOM      4  C3  UNL d   1       1.962   0.232   0.298  0.00  0.00     0.023 A 
ATOM      5  C4  UNL d   1       2.550   0.014   1.545  0.00  0.00     0.048 A 
ATOM      6  C5  UNL d   1       3.359  -1.107   1.741  0.00  0.00     0.003 A 
ATOM      7  I   UNL d   1       0.756   1.899   0.003  0.00  0.00    -0.146 I 
ENDROOT
TORSDOF 0
ENDMDL
