MODEL 1
REMARK minimizedAffinity 5.15814686
REMARK minimizedRMSD -1
REMARK  0 active torsions:
REMARK  status: ('A' for Active; 'I' for Inactive)
ROOT
ATOM      1  C   UNL d   1      -5.498  -0.108  -4.882  0.00  0.00     0.023 A 
ATOM      2  C1  UNL d   1      -4.507   0.747  -5.364  0.00  0.00     0.003 A 
ATOM      3  C2  UNL d   1      -3.212   0.679  -4.846  0.00  0.00     0.048 A 
ATOM      4  C3  UNL d   1      -2.915  -0.248  -3.848  0.00  0.00     0.023 A 
ATOM      5  C4  UNL d   1      -3.903  -1.106  -3.363  0.00  0.00     0.048 A 
ATOM      6  C5  UNL d   1      -5.196  -1.034  -3.883  0.00  0.00     0.003 A 
ATOM      7  I   UNL d   1      -0.988  -0.351  -3.076  0.00  0.00    -0.146 I 
ENDROOT
TORSDOF 0
ENDMDL
