MODEL 1
REMARK minimizedAffinity 8.89384079
REMARK minimizedRMSD -1
REMARK  0 active torsions:
REMARK  status: ('A' for Active; 'I' for Inactive)
ROOT
ATOM      1  C   UNL d   1       1.907  -0.907  -1.791  0.00  0.00     0.023 A 
ATOM      2  C1  UNL d   1       2.511  -0.513  -0.598  0.00  0.00     0.003 A 
ATOM      3  C2  UNL d   1       1.862   0.385   0.252  0.00  0.00     0.048 A 
ATOM      4  C3  UNL d   1       0.607   0.884  -0.098  0.00  0.00     0.023 A 
ATOM      5  C4  UNL d   1      -0.001   0.492  -1.291  0.00  0.00     0.048 A 
ATOM      6  C5  UNL d   1       0.652  -0.406  -2.138  0.00  0.00     0.003 A 
ATOM      7  I   UNL d   1      -0.361   2.221   1.164  0.00  0.00    -0.146 I 
ENDROOT
TORSDOF 0
ENDMDL
