MODEL 1
REMARK minimizedAffinity 7.42566395
REMARK minimizedRMSD -1
REMARK  0 active torsions:
REMARK  status: ('A' for Active; 'I' for Inactive)
ROOT
ATOM      1  C   UNL d   1       2.337  -0.709   0.070  0.00  0.00     0.023 A 
ATOM      2  C1  UNL d   1       2.521  -1.887   0.795  0.00  0.00     0.003 A 
ATOM      3  C2  UNL d   1       1.642  -2.958   0.623  0.00  0.00     0.048 A 
ATOM      4  C3  UNL d   1       0.582  -2.846  -0.276  0.00  0.00     0.023 A 
ATOM      5  C4  UNL d   1       0.394  -1.670  -1.004  0.00  0.00     0.048 A 
ATOM      6  C5  UNL d   1       1.275  -0.601  -0.828  0.00  0.00     0.003 A 
ATOM      7  I   UNL d   1      -0.728  -4.439  -0.533  0.00  0.00    -0.146 I 
ENDROOT
TORSDOF 0
ENDMDL
