MODEL 1
REMARK minimizedAffinity 0.391634285
REMARK minimizedRMSD -1
REMARK  0 active torsions:
REMARK  status: ('A' for Active; 'I' for Inactive)
ROOT
ATOM      1  C2' OXE d   1       0.779   2.704   1.295  0.00  0.00     0.078 C 
ATOM      2  C1' OXE d   1      -0.333   1.004  -0.643  0.00  0.00     0.078 C 
ATOM      3  C1  OXE d   1       0.884   0.518   0.104  0.00  0.00    -0.078 A 
ATOM      4  C2  OXE d   1       1.449   1.376   1.017  0.00  0.00    -0.078 A 
ATOM      5  C3  OXE d   1       2.540   0.956   1.773  0.00  0.00     0.003 A 
ATOM      6  C4  OXE d   1       3.160  -0.270   1.502  0.00  0.00    -0.002 A 
ATOM      7  C5  OXE d   1       2.624  -1.142   0.548  0.00  0.00    -0.002 A 
ATOM      8  C6  OXE d   1       1.464  -0.781  -0.128  0.00  0.00     0.003 A 
ENDROOT
TORSDOF 0
ENDMDL
