MODEL 1
REMARK minimizedAffinity 3.58902383
REMARK minimizedRMSD -1
REMARK  0 active torsions:
REMARK  status: ('A' for Active; 'I' for Inactive)
ROOT
ATOM      1  C2' OXE d   1       4.002   2.277   0.031  0.00  0.00     0.078 C 
ATOM      2  C1' OXE d   1       1.643   1.651   1.416  0.00  0.00     0.078 C 
ATOM      3  C1  OXE d   1       2.119   0.682   0.364  0.00  0.00    -0.078 A 
ATOM      4  C2  OXE d   1       3.248   1.019  -0.342  0.00  0.00    -0.078 A 
ATOM      5  C3  OXE d   1       3.761   0.134  -1.286  0.00  0.00     0.003 A 
ATOM      6  C4  OXE d   1       3.053  -1.023  -1.632  0.00  0.00    -0.002 A 
ATOM      7  C5  OXE d   1       1.878  -1.366  -0.953  0.00  0.00    -0.002 A 
ATOM      8  C6  OXE d   1       1.422  -0.547   0.074  0.00  0.00     0.003 A 
ENDROOT
TORSDOF 0
ENDMDL
