MODEL 1
REMARK minimizedAffinity -3.11732101
REMARK minimizedRMSD -1
REMARK  0 active torsions:
REMARK  status: ('A' for Active; 'I' for Inactive)
ROOT
ATOM      1  C2' OXE d   1       3.409   1.835   0.303  0.00  0.00     0.078 C 
ATOM      2  C1' OXE d   1       0.874   0.984   1.156  0.00  0.00     0.078 C 
ATOM      3  C1  OXE d   1       1.688   0.035   0.312  0.00  0.00    -0.078 A 
ATOM      4  C2  OXE d   1       2.907   0.477  -0.140  0.00  0.00    -0.078 A 
ATOM      5  C3  OXE d   1       3.722  -0.378  -0.875  0.00  0.00     0.003 A 
ATOM      6  C4  OXE d   1       3.246  -1.629  -1.289  0.00  0.00    -0.002 A 
ATOM      7  C5  OXE d   1       1.990  -2.083  -0.873  0.00  0.00    -0.002 A 
ATOM      8  C6  OXE d   1       1.218  -1.283  -0.039  0.00  0.00     0.003 A 
ENDROOT
TORSDOF 0
ENDMDL
