MODEL 1
REMARK minimizedAffinity 9.14749622
REMARK minimizedRMSD -1
REMARK  0 active torsions:
REMARK  status: ('A' for Active; 'I' for Inactive)
ROOT
ATOM      1  C2' OXE d   1       0.952  -1.282   0.499  0.00  0.00     0.078 C 
ATOM      2  C1' OXE d   1       0.790   1.504   0.804  0.00  0.00     0.078 C 
ATOM      3  C1  OXE d   1       1.015   0.673   2.042  0.00  0.00    -0.078 A 
ATOM      4  C2  OXE d   1       1.046  -0.693   1.890  0.00  0.00    -0.078 A 
ATOM      5  C3  OXE d   1       1.305  -1.503   2.991  0.00  0.00     0.003 A 
ATOM      6  C4  OXE d   1       1.381  -0.951   4.276  0.00  0.00    -0.002 A 
ATOM      7  C5  OXE d   1       1.312   0.434   4.458  0.00  0.00    -0.002 A 
ATOM      8  C6  OXE d   1       1.172   1.262   3.349  0.00  0.00     0.003 A 
ENDROOT
TORSDOF 0
ENDMDL
