MODEL 1
REMARK minimizedAffinity 4.45233488
REMARK minimizedRMSD -1
REMARK  0 active torsions:
REMARK  status: ('A' for Active; 'I' for Inactive)
ROOT
ATOM      1  C2' OXE d   1       1.997  -2.338  -0.113  0.00  0.00     0.078 C 
ATOM      2  C1' OXE d   1      -0.477  -2.854  -1.336  0.00  0.00     0.078 C 
ATOM      3  C1  OXE d   1      -0.221  -1.457  -0.827  0.00  0.00    -0.078 A 
ATOM      4  C2  OXE d   1       0.973  -1.225  -0.189  0.00  0.00    -0.078 A 
ATOM      5  C3  OXE d   1       1.282   0.059   0.251  0.00  0.00     0.003 A 
ATOM      6  C4  OXE d   1       0.326   1.079   0.187  0.00  0.00    -0.002 A 
ATOM      7  C5  OXE d   1      -0.912   0.854  -0.424  0.00  0.00    -0.002 A 
ATOM      8  C6  OXE d   1      -1.185  -0.394  -0.973  0.00  0.00     0.003 A 
ENDROOT
TORSDOF 0
ENDMDL
