MODEL 1
REMARK minimizedAffinity 6.84663534
REMARK minimizedRMSD -1
REMARK  0 active torsions:
REMARK  status: ('A' for Active; 'I' for Inactive)
ROOT
ATOM      1  C2' OXE d   1      -1.848  -0.028  -1.533  0.00  0.00     0.078 C 
ATOM      2  C1' OXE d   1      -1.251  -2.418  -2.880  0.00  0.00     0.078 C 
ATOM      3  C1  OXE d   1      -0.460  -2.094  -1.637  0.00  0.00    -0.078 A 
ATOM      4  C2  OXE d   1      -0.727  -0.901  -1.011  0.00  0.00    -0.078 A 
ATOM      5  C3  OXE d   1      -0.065  -0.579   0.170  0.00  0.00     0.003 A 
ATOM      6  C4  OXE d   1       0.978  -1.386   0.641  0.00  0.00    -0.002 A 
ATOM      7  C5  OXE d   1       1.293  -2.587  -0.004  0.00  0.00    -0.002 A 
ATOM      8  C6  OXE d   1       0.557  -2.976  -1.118  0.00  0.00     0.003 A 
ENDROOT
TORSDOF 0
ENDMDL
