MODEL 1
REMARK minimizedAffinity 4.99375057
REMARK minimizedRMSD -1
REMARK  0 active torsions:
REMARK  status: ('A' for Active; 'I' for Inactive)
ROOT
ATOM      1  C2' OXE d   1       1.920  -2.842  -0.852  0.00  0.00     0.078 C 
ATOM      2  C1' OXE d   1      -0.757  -2.723  -1.687  0.00  0.00     0.078 C 
ATOM      3  C1  OXE d   1      -0.113  -1.447  -1.206  0.00  0.00    -0.078 A 
ATOM      4  C2  OXE d   1       1.183  -1.524  -0.755  0.00  0.00    -0.078 A 
ATOM      5  C3  OXE d   1       1.842  -0.366  -0.352  0.00  0.00     0.003 A 
ATOM      6  C4  OXE d   1       1.150   0.847  -0.256  0.00  0.00    -0.002 A 
ATOM      7  C5  OXE d   1      -0.183   0.939  -0.672  0.00  0.00    -0.002 A 
ATOM      8  C6  OXE d   1      -0.814  -0.187  -1.188  0.00  0.00     0.003 A 
ENDROOT
TORSDOF 0
ENDMDL
