MODEL 1
REMARK minimizedAffinity 3.19547486
REMARK minimizedRMSD -1
REMARK  0 active torsions:
REMARK  status: ('A' for Active; 'I' for Inactive)
ROOT
ATOM      1  C2' OXE d   1      -2.330   0.721  -1.646  0.00  0.00     0.078 C 
ATOM      2  C1' OXE d   1      -0.067   1.782  -0.369  0.00  0.00     0.078 C 
ATOM      3  C1  OXE d   1      -1.342   1.680   0.430  0.00  0.00    -0.078 A 
ATOM      4  C2  OXE d   1      -2.457   1.203  -0.217  0.00  0.00    -0.078 A 
ATOM      5  C3  OXE d   1      -3.645   1.037   0.488  0.00  0.00     0.003 A 
ATOM      6  C4  OXE d   1      -3.757   1.495   1.807  0.00  0.00    -0.002 A 
ATOM      7  C5  OXE d   1      -2.644   2.020   2.472  0.00  0.00    -0.002 A 
ATOM      8  C6  OXE d   1      -1.421   2.080   1.813  0.00  0.00     0.003 A 
ENDROOT
TORSDOF 0
ENDMDL
