MODEL 1
REMARK minimizedAffinity -1.21403277
REMARK minimizedRMSD -1
REMARK  0 active torsions:
REMARK  status: ('A' for Active; 'I' for Inactive)
ROOT
ATOM      1  C2' OXE d   1       0.925   1.901   0.567  0.00  0.00     0.078 C 
ATOM      2  C1' OXE d   1      -0.489   0.007  -0.948  0.00  0.00     0.078 C 
ATOM      3  C1  OXE d   1      -1.211   0.674   0.196  0.00  0.00    -0.078 A 
ATOM      4  C2  OXE d   1      -0.497   1.565   0.960  0.00  0.00    -0.078 A 
ATOM      5  C3  OXE d   1      -1.131   2.250   1.994  0.00  0.00     0.003 A 
ATOM      6  C4  OXE d   1      -2.444   1.926   2.358  0.00  0.00    -0.002 A 
ATOM      7  C5  OXE d   1      -3.176   0.992   1.617  0.00  0.00    -0.002 A 
ATOM      8  C6  OXE d   1      -2.590   0.390   0.509  0.00  0.00     0.003 A 
ENDROOT
TORSDOF 0
ENDMDL
