MODEL 1
REMARK minimizedAffinity -3.18818116
REMARK minimizedRMSD -1
REMARK  0 active torsions:
REMARK  status: ('A' for Active; 'I' for Inactive)
ROOT
ATOM      1  C2' OXE d   1      -0.330   0.299  -0.011  0.00  0.00     0.078 C 
ATOM      2  C1' OXE d   1       1.588   2.346   0.093  0.00  0.00     0.078 C 
ATOM      3  C1  OXE d   1       2.078   0.932  -0.093  0.00  0.00    -0.078 A 
ATOM      4  C2  OXE d   1       1.136  -0.068  -0.096  0.00  0.00    -0.078 A 
ATOM      5  C3  OXE d   1       1.529  -1.385  -0.320  0.00  0.00     0.003 A 
ATOM      6  C4  OXE d   1       2.887  -1.718  -0.387  0.00  0.00    -0.002 A 
ATOM      7  C5  OXE d   1       3.865  -0.718  -0.346  0.00  0.00    -0.002 A 
ATOM      8  C6  OXE d   1       3.476   0.613  -0.243  0.00  0.00     0.003 A 
ENDROOT
TORSDOF 0
ENDMDL
