MODEL 1
REMARK minimizedAffinity -0.127437755
REMARK minimizedRMSD -1
REMARK  1 active torsions:
REMARK  status: ('A' for Active; 'I' for Inactive)
REMARK    1  A    between atoms: N_2  and  C1_3 
ROOT
ATOM      1  C1  UNL d   1       5.684   3.026   3.554  0.00  0.00     0.143 A 
ATOM      2  C2  UNL d   1       5.856   3.925   4.612  0.00  0.00    -0.057 A 
ATOM      3  C3  UNL d   1       5.998   5.299   4.382  0.00  0.00     0.033 A 
ATOM      4  C4  UNL d   1       6.000   5.796   3.083  0.00  0.00    -0.042 A 
ATOM      5  C5  UNL d   1       5.855   4.918   2.014  0.00  0.00     0.033 A 
ATOM      6  C6  UNL d   1       5.707   3.548   2.251  0.00  0.00    -0.057 A 
ENDROOT
BRANCH   1   7
ATOM      7  N   UNL d   1       5.635   1.639   3.712  0.00  0.00    -0.732 N 
ATOM      8  C   UNL d   1       5.997   0.760   2.622  0.00  0.00     0.284 C 
ATOM      9  H3  UNL d   1       5.983   1.339   4.621  0.00  0.00     0.395 HD
ENDBRANCH   1   7
TORSDOF 1
ENDMDL
