MODEL 1
REMARK minimizedAffinity -2.53556919
REMARK minimizedRMSD -1
REMARK  1 active torsions:
REMARK  status: ('A' for Active; 'I' for Inactive)
REMARK    1  A    between atoms: N_2  and  C1_3 
ROOT
ATOM      1  C1  UNL d   1       5.749   0.245   5.313  0.00  0.00     0.143 A 
ATOM      2  C2  UNL d   1       5.795   1.463   5.999  0.00  0.00    -0.057 A 
ATOM      3  C3  UNL d   1       5.901   2.679   5.314  0.00  0.00     0.033 A 
ATOM      4  C4  UNL d   1       5.993   2.696   3.926  0.00  0.00    -0.042 A 
ATOM      5  C5  UNL d   1       5.974   1.496   3.224  0.00  0.00     0.033 A 
ATOM      6  C6  UNL d   1       5.862   0.285   3.914  0.00  0.00    -0.057 A 
ENDROOT
BRANCH   1   7
ATOM      7  N   UNL d   1       5.743  -1.003   5.942  0.00  0.00    -0.732 N 
ATOM      8  C   UNL d   1       5.907  -2.217   5.172  0.00  0.00     0.284 C 
ATOM      9  H3  UNL d   1       6.254  -0.996   6.822  0.00  0.00     0.395 HD
ENDBRANCH   1   7
TORSDOF 1
ENDMDL
