MODEL 1
REMARK minimizedAffinity -1.18394101
REMARK minimizedRMSD -1
REMARK  1 active torsions:
REMARK  status: ('A' for Active; 'I' for Inactive)
REMARK    1  A    between atoms: N_2  and  C1_3 
ROOT
ATOM      1  C1  UNL d   1       5.995   2.521   4.460  0.00  0.00     0.143 A 
ATOM      2  C2  UNL d   1       5.970   2.682   3.070  0.00  0.00    -0.057 A 
ATOM      3  C3  UNL d   1       5.987   3.954   2.486  0.00  0.00     0.033 A 
ATOM      4  C4  UNL d   1       6.000   5.092   3.285  0.00  0.00    -0.042 A 
ATOM      5  C5  UNL d   1       6.000   4.957   4.668  0.00  0.00     0.033 A 
ATOM      6  C6  UNL d   1       5.990   3.684   5.246  0.00  0.00    -0.057 A 
ENDROOT
BRANCH   1   7
ATOM      7  N   UNL d   1       5.881   1.286   5.102  0.00  0.00    -0.732 N 
ATOM      8  C   UNL d   1       5.238   0.169   4.444  0.00  0.00     0.284 C 
ATOM      9  H3  UNL d   1       6.722   1.036   5.617  0.00  0.00     0.395 HD
ENDBRANCH   1   7
TORSDOF 1
ENDMDL
