MODEL 1
REMARK minimizedAffinity -2.01990008
REMARK minimizedRMSD -1
REMARK  1 active torsions:
REMARK  status: ('A' for Active; 'I' for Inactive)
REMARK    1  A    between atoms: N_2  and  C1_3 
ROOT
ATOM      1  C1  UNL d   1      -1.740   0.890   3.596  0.00  0.00     0.143 A 
ATOM      2  C2  UNL d   1      -0.972   1.651   2.707  0.00  0.00    -0.057 A 
ATOM      3  C3  UNL d   1      -0.827   3.033   2.874  0.00  0.00     0.033 A 
ATOM      4  C4  UNL d   1      -1.472   3.686   3.919  0.00  0.00    -0.042 A 
ATOM      5  C5  UNL d   1      -2.261   2.954   4.799  0.00  0.00     0.033 A 
ATOM      6  C6  UNL d   1      -2.397   1.572   4.632  0.00  0.00    -0.057 A 
ENDROOT
BRANCH   1   7
ATOM      7  N   UNL d   1      -2.003  -0.472   3.427  0.00  0.00    -0.732 N 
ATOM      8  C   UNL d   1      -3.326  -0.926   3.057  0.00  0.00     0.284 C 
ATOM      9  H3  UNL d   1      -1.248  -0.957   2.949  0.00  0.00     0.395 HD
ENDBRANCH   1   7
TORSDOF 1
ENDMDL
