MODEL 1
REMARK minimizedAffinity -1.33898211
REMARK minimizedRMSD -1
REMARK  1 active torsions:
REMARK  status: ('A' for Active; 'I' for Inactive)
REMARK    1  A    between atoms: N_2  and  C1_3 
ROOT
ATOM      1  C1  UNL d   1       5.897   1.647   4.094  0.00  0.00     0.143 A 
ATOM      2  C2  UNL d   1       6.000   0.540   3.245  0.00  0.00    -0.057 A 
ATOM      3  C3  UNL d   1       5.999  -0.765   3.751  0.00  0.00     0.033 A 
ATOM      4  C4  UNL d   1       5.925  -0.986   5.122  0.00  0.00    -0.042 A 
ATOM      5  C5  UNL d   1       5.847   0.100   5.987  0.00  0.00     0.033 A 
ATOM      6  C6  UNL d   1       5.841   1.401   5.475  0.00  0.00    -0.057 A 
ENDROOT
BRANCH   1   7
ATOM      7  N   UNL d   1       5.991   2.972   3.660  0.00  0.00    -0.732 N 
ATOM      8  C   UNL d   1       5.245   4.020   4.323  0.00  0.00     0.284 C 
ATOM      9  H3  UNL d   1       6.942   3.232   3.411  0.00  0.00     0.395 HD
ENDBRANCH   1   7
TORSDOF 1
ENDMDL
