MODEL 1
REMARK minimizedAffinity -1.88927829
REMARK minimizedRMSD -1
REMARK  1 active torsions:
REMARK  status: ('A' for Active; 'I' for Inactive)
REMARK    1  A    between atoms: N_2  and  C1_3 
ROOT
ATOM      1  C1  UNL d   1       5.934   3.354   3.670  0.00  0.00     0.143 A 
ATOM      2  C2  UNL d   1       5.924   3.607   2.294  0.00  0.00    -0.057 A 
ATOM      3  C3  UNL d   1       5.970   4.915   1.796  0.00  0.00     0.033 A 
ATOM      4  C4  UNL d   1       5.999   5.998   2.668  0.00  0.00    -0.042 A 
ATOM      5  C5  UNL d   1       5.985   5.771   4.040  0.00  0.00     0.033 A 
ATOM      6  C6  UNL d   1       5.945   4.463   4.532  0.00  0.00    -0.057 A 
ENDROOT
BRANCH   1   7
ATOM      7  N   UNL d   1       5.790   2.082   4.228  0.00  0.00    -0.732 N 
ATOM      8  C   UNL d   1       5.975   0.897   3.419  0.00  0.00     0.284 C 
ATOM      9  H3  UNL d   1       6.196   2.018   5.159  0.00  0.00     0.395 HD
ENDBRANCH   1   7
TORSDOF 1
ENDMDL
