MODEL 1
REMARK minimizedAffinity -2.92801094
REMARK minimizedRMSD -1
REMARK  1 active torsions:
REMARK  status: ('A' for Active; 'I' for Inactive)
REMARK    1  A    between atoms: N_2  and  C1_3 
ROOT
ATOM      1  C1  UNL d   1       5.748   2.047   4.495  0.00  0.00     0.143 A 
ATOM      2  C2  UNL d   1       5.537   1.507   5.768  0.00  0.00    -0.057 A 
ATOM      3  C3  UNL d   1       5.583   0.125   5.988  0.00  0.00     0.033 A 
ATOM      4  C4  UNL d   1       5.812  -0.746   4.928  0.00  0.00    -0.042 A 
ATOM      5  C5  UNL d   1       6.000  -0.234   3.650  0.00  0.00     0.033 A 
ATOM      6  C6  UNL d   1       5.960   1.148   3.438  0.00  0.00    -0.057 A 
ENDROOT
BRANCH   1   7
ATOM      7  N   UNL d   1       5.618   3.405   4.195  0.00  0.00    -0.732 N 
ATOM      8  C   UNL d   1       5.999   3.912   2.894  0.00  0.00     0.284 C 
ATOM      9  H3  UNL d   1       4.755   3.802   4.559  0.00  0.00     0.395 HD
ENDBRANCH   1   7
TORSDOF 1
ENDMDL
