MODEL 1
REMARK minimizedAffinity -1.25839877
REMARK minimizedRMSD -1
REMARK  1 active torsions:
REMARK  status: ('A' for Active; 'I' for Inactive)
REMARK    1  A    between atoms: N_2  and  C1_3 
ROOT
ATOM      1  C1  UNL d   1       5.981   1.988   4.039  0.00  0.00     0.143 A 
ATOM      2  C2  UNL d   1       5.975   1.344   5.282  0.00  0.00    -0.057 A 
ATOM      3  C3  UNL d   1       6.000  -0.052   5.376  0.00  0.00     0.033 A 
ATOM      4  C4  UNL d   1       6.000  -0.834   4.226  0.00  0.00    -0.042 A 
ATOM      5  C5  UNL d   1       5.980  -0.216   2.980  0.00  0.00     0.033 A 
ATOM      6  C6  UNL d   1       5.963   1.179   2.892  0.00  0.00    -0.057 A 
ENDROOT
BRANCH   1   7
ATOM      7  N   UNL d   1       5.858   3.370   3.879  0.00  0.00    -0.732 N 
ATOM      8  C   UNL d   1       5.972   3.972   2.568  0.00  0.00     0.284 C 
ATOM      9  H3  UNL d   1       5.117   3.764   4.454  0.00  0.00     0.395 HD
ENDBRANCH   1   7
TORSDOF 1
ENDMDL
