MODEL 1
REMARK minimizedAffinity -2.82860565
REMARK minimizedRMSD -1
REMARK  1 active torsions:
REMARK  status: ('A' for Active; 'I' for Inactive)
REMARK    1  A    between atoms: N_2  and  C1_3 
ROOT
ATOM      1  C1  UNL d   1       5.998   2.737   3.832  0.00  0.00     0.143 A 
ATOM      2  C2  UNL d   1       5.978   3.268   2.538  0.00  0.00    -0.057 A 
ATOM      3  C3  UNL d   1       5.993   4.652   2.321  0.00  0.00     0.033 A 
ATOM      4  C4  UNL d   1       6.000   5.531   3.399  0.00  0.00    -0.042 A 
ATOM      5  C5  UNL d   1       5.995   5.026   4.694  0.00  0.00     0.033 A 
ATOM      6  C6  UNL d   1       5.986   3.643   4.904  0.00  0.00    -0.057 A 
ENDROOT
BRANCH   1   7
ATOM      7  N   UNL d   1       5.884   1.374   4.115  0.00  0.00    -0.732 N 
ATOM      8  C   UNL d   1       5.265   0.925   5.344  0.00  0.00     0.284 C 
ATOM      9  H3  UNL d   1       5.627   0.827   3.296  0.00  0.00     0.395 HD
ENDBRANCH   1   7
TORSDOF 1
ENDMDL
