MODEL 1
REMARK minimizedAffinity -1.47897911
REMARK minimizedRMSD -1
REMARK  1 active torsions:
REMARK  status: ('A' for Active; 'I' for Inactive)
REMARK    1  A    between atoms: N_2  and  C1_3 
ROOT
ATOM      1  C1  UNL d   1       5.707   2.789   3.882  0.00  0.00     0.143 A 
ATOM      2  C2  UNL d   1       5.334   2.512   5.202  0.00  0.00    -0.057 A 
ATOM      3  C3  UNL d   1       5.295   1.199   5.685  0.00  0.00     0.033 A 
ATOM      4  C4  UNL d   1       5.602   0.133   4.846  0.00  0.00    -0.042 A 
ATOM      5  C5  UNL d   1       5.952   0.383   3.523  0.00  0.00     0.033 A 
ATOM      6  C6  UNL d   1       5.995   1.697   3.049  0.00  0.00    -0.057 A 
ENDROOT
BRANCH   1   7
ATOM      7  N   UNL d   1       5.670   4.065   3.315  0.00  0.00    -0.732 N 
ATOM      8  C   UNL d   1       5.301   5.215   4.111  0.00  0.00     0.284 C 
ATOM      9  H3  UNL d   1       6.448   4.231   2.681  0.00  0.00     0.395 HD
ENDBRANCH   1   7
TORSDOF 1
ENDMDL
