MODEL 1
REMARK minimizedAffinity 1.58303738
REMARK minimizedRMSD -1
REMARK  1 active torsions:
REMARK  status: ('A' for Active; 'I' for Inactive)
REMARK    1  A    between atoms: N_2  and  C1_3 
ROOT
ATOM      1  C1  UNL d   1       0.588   4.502  -4.028  0.00  0.00     0.143 A 
ATOM      2  C2  UNL d   1       0.385   4.496  -5.412  0.00  0.00    -0.057 A 
ATOM      3  C3  UNL d   1      -0.639   5.248  -5.999  0.00  0.00     0.033 A 
ATOM      4  C4  UNL d   1      -1.501   5.999  -5.207  0.00  0.00    -0.042 A 
ATOM      5  C5  UNL d   1      -1.334   6.000  -3.826  0.00  0.00     0.033 A 
ATOM      6  C6  UNL d   1      -0.305   5.252  -3.246  0.00  0.00    -0.057 A 
ENDROOT
BRANCH   1   7
ATOM      7  N   UNL d   1       1.526   3.699  -3.375  0.00  0.00    -0.732 N 
ATOM      8  C   UNL d   1       1.105   2.540  -2.617  0.00  0.00     0.284 C 
ATOM      9  H3  UNL d   1       2.363   3.548  -3.933  0.00  0.00     0.395 HD
ENDBRANCH   1   7
TORSDOF 1
ENDMDL
