MODEL 1
REMARK minimizedAffinity -0.742291033
REMARK minimizedRMSD -1
REMARK  1 active torsions:
REMARK  status: ('A' for Active; 'I' for Inactive)
REMARK    1  A    between atoms: N_2  and  C1_3 
ROOT
ATOM      1  C1  UNL d   1       0.230   3.915  -3.827  0.00  0.00     0.143 A 
ATOM      2  C2  UNL d   1      -1.110   4.257  -3.616  0.00  0.00    -0.057 A 
ATOM      3  C3  UNL d   1      -1.845   4.948  -4.587  0.00  0.00     0.033 A 
ATOM      4  C4  UNL d   1      -1.241   5.336  -5.779  0.00  0.00    -0.042 A 
ATOM      5  C5  UNL d   1       0.097   5.029  -6.000  0.00  0.00     0.033 A 
ATOM      6  C6  UNL d   1       0.823   4.333  -5.028  0.00  0.00    -0.057 A 
ENDROOT
BRANCH   1   7
ATOM      7  N   UNL d   1       1.041   3.316  -2.860  0.00  0.00    -0.732 N 
ATOM      8  C   UNL d   1       1.776   4.124  -1.910  0.00  0.00     0.284 C 
ATOM      9  H3  UNL d   1       0.614   2.485  -2.456  0.00  0.00     0.395 HD
ENDBRANCH   1   7
TORSDOF 1
ENDMDL
