MODEL 1
REMARK minimizedAffinity 0.457816571
REMARK minimizedRMSD -1
REMARK  1 active torsions:
REMARK  status: ('A' for Active; 'I' for Inactive)
REMARK    1  A    between atoms: N_2  and  C1_3 
ROOT
ATOM      1  C1  UNL d   1      -5.924   2.216  -4.355  0.00  0.00     0.143 A 
ATOM      2  C2  UNL d   1      -5.973   1.247  -3.347  0.00  0.00    -0.057 A 
ATOM      3  C3  UNL d   1      -5.996  -0.119  -3.653  0.00  0.00     0.033 A 
ATOM      4  C4  UNL d   1      -5.999  -0.541  -4.978  0.00  0.00    -0.042 A 
ATOM      5  C5  UNL d   1      -5.975   0.405  -5.997  0.00  0.00     0.033 A 
ATOM      6  C6  UNL d   1      -5.946   1.767  -5.685  0.00  0.00    -0.057 A 
ENDROOT
BRANCH   1   7
ATOM      7  N   UNL d   1      -5.999   3.590  -4.117  0.00  0.00    -0.732 N 
ATOM      8  C   UNL d   1      -5.488   4.154  -2.886  0.00  0.00     0.284 C 
ATOM      9  H3  UNL d   1      -5.785   4.140  -4.946  0.00  0.00     0.395 HD
ENDBRANCH   1   7
TORSDOF 1
ENDMDL
