MODEL 1
REMARK minimizedAffinity 7.41592216
REMARK minimizedRMSD -1
REMARK  1 active torsions:
REMARK  status: ('A' for Active; 'I' for Inactive)
REMARK    1  A    between atoms: N_2  and  C1_3 
ROOT
ATOM      1  C1  UNL d   1       0.569  -1.921   2.863  0.00  0.00     0.143 A 
ATOM      2  C2  UNL d   1      -0.463  -1.038   3.200  0.00  0.00    -0.057 A 
ATOM      3  C3  UNL d   1      -1.752  -1.194   2.675  0.00  0.00     0.033 A 
ATOM      4  C4  UNL d   1      -2.025  -2.223   1.779  0.00  0.00    -0.042 A 
ATOM      5  C5  UNL d   1      -1.008  -3.097   1.411  0.00  0.00     0.033 A 
ATOM      6  C6  UNL d   1       0.275  -2.940   1.943  0.00  0.00    -0.057 A 
ENDROOT
BRANCH   1   7
ATOM      7  N   UNL d   1       1.895  -1.760   3.273  0.00  0.00    -0.732 N 
ATOM      8  C   UNL d   1       2.867  -1.139   2.399  0.00  0.00     0.284 C 
ATOM      9  H3  UNL d   1       1.968  -1.473   4.247  0.00  0.00     0.395 HD
ENDBRANCH   1   7
TORSDOF 1
ENDMDL
