MODEL 1
REMARK minimizedAffinity 5.54146051
REMARK minimizedRMSD -1
REMARK  1 active torsions:
REMARK  status: ('A' for Active; 'I' for Inactive)
REMARK    1  A    between atoms: N_2  and  C1_3 
ROOT
ATOM      1  C1  UNL d   1      -1.030  -4.821  -0.715  0.00  0.00     0.143 A 
ATOM      2  C2  UNL d   1       0.322  -5.133  -0.888  0.00  0.00    -0.057 A 
ATOM      3  C3  UNL d   1       1.286  -4.730   0.045  0.00  0.00     0.033 A 
ATOM      4  C4  UNL d   1       0.916  -3.980   1.156  0.00  0.00    -0.042 A 
ATOM      5  C5  UNL d   1      -0.420  -3.636   1.335  0.00  0.00     0.033 A 
ATOM      6  C6  UNL d   1      -1.378  -4.047   0.403  0.00  0.00    -0.057 A 
ENDROOT
BRANCH   1   7
ATOM      7  N   UNL d   1      -2.021  -5.108  -1.657  0.00  0.00    -0.732 N 
ATOM      8  C   UNL d   1      -1.730  -5.056  -3.073  0.00  0.00     0.284 C 
ATOM      9  H3  UNL d   1      -2.603  -5.896  -1.381  0.00  0.00     0.395 HD
ENDBRANCH   1   7
TORSDOF 1
ENDMDL
