MODEL 1
REMARK minimizedAffinity 5.78076315
REMARK minimizedRMSD -1
REMARK  1 active torsions:
REMARK  status: ('A' for Active; 'I' for Inactive)
REMARK    1  A    between atoms: N_2  and  C1_3 
ROOT
ATOM      1  C1  UNL d   1       0.489   3.546  -3.804  0.00  0.00     0.143 A 
ATOM      2  C2  UNL d   1       1.176   4.619  -3.226  0.00  0.00    -0.057 A 
ATOM      3  C3  UNL d   1       1.314   5.839  -3.898  0.00  0.00     0.033 A 
ATOM      4  C4  UNL d   1       0.790   5.999  -5.177  0.00  0.00    -0.042 A 
ATOM      5  C5  UNL d   1       0.125   4.938  -5.781  0.00  0.00     0.033 A 
ATOM      6  C6  UNL d   1      -0.015   3.724  -5.102  0.00  0.00    -0.057 A 
ENDROOT
BRANCH   1   7
ATOM      7  N   UNL d   1       0.404   2.276  -3.227  0.00  0.00    -0.732 N 
ATOM      8  C   UNL d   1       1.218   1.930  -2.083  0.00  0.00     0.284 C 
ATOM      9  H3  UNL d   1      -0.555   1.938  -3.174  0.00  0.00     0.395 HD
ENDBRANCH   1   7
TORSDOF 1
ENDMDL
