MODEL 1
REMARK minimizedAffinity 9.64621735
REMARK minimizedRMSD -1
REMARK  1 active torsions:
REMARK  status: ('A' for Active; 'I' for Inactive)
REMARK    1  A    between atoms: N_2  and  C1_3 
ROOT
ATOM      1  C1  UNL d   1       2.429   0.422   0.348  0.00  0.00     0.143 A 
ATOM      2  C2  UNL d   1       1.475   1.446   0.336  0.00  0.00    -0.057 A 
ATOM      3  C3  UNL d   1       1.300   2.261  -0.789  0.00  0.00     0.033 A 
ATOM      4  C4  UNL d   1       2.099   2.086  -1.914  0.00  0.00    -0.042 A 
ATOM      5  C5  UNL d   1       3.070   1.091  -1.915  0.00  0.00     0.033 A 
ATOM      6  C6  UNL d   1       3.235   0.275  -0.792  0.00  0.00    -0.057 A 
ENDROOT
BRANCH   1   7
ATOM      7  N   UNL d   1       2.718  -0.358   1.470  0.00  0.00    -0.732 N 
ATOM      8  C   UNL d   1       3.820  -1.296   1.452  0.00  0.00     0.284 C 
ATOM      9  H3  UNL d   1       2.631   0.164   2.339  0.00  0.00     0.395 HD
ENDBRANCH   1   7
TORSDOF 1
ENDMDL
