MODEL 1
REMARK minimizedAffinity 7.15793419
REMARK minimizedRMSD -1
REMARK  1 active torsions:
REMARK  status: ('A' for Active; 'I' for Inactive)
REMARK    1  A    between atoms: N_2  and  C1_3 
ROOT
ATOM      1  C1  UNL d   1      -2.491  -0.025   4.087  0.00  0.00     0.143 A 
ATOM      2  C2  UNL d   1      -3.254  -0.837   3.240  0.00  0.00    -0.057 A 
ATOM      3  C3  UNL d   1      -2.648  -1.651   2.276  0.00  0.00     0.033 A 
ATOM      4  C4  UNL d   1      -1.265  -1.646   2.121  0.00  0.00    -0.042 A 
ATOM      5  C5  UNL d   1      -0.489  -0.828   2.935  0.00  0.00     0.033 A 
ATOM      6  C6  UNL d   1      -1.100  -0.022   3.901  0.00  0.00    -0.057 A 
ENDROOT
BRANCH   1   7
ATOM      7  N   UNL d   1      -3.040   0.880   4.998  0.00  0.00    -0.732 N 
ATOM      8  C   UNL d   1      -4.415   0.748   5.432  0.00  0.00     0.284 C 
ATOM      9  H3  UNL d   1      -2.391   1.124   5.743  0.00  0.00     0.395 HD
ENDBRANCH   1   7
TORSDOF 1
ENDMDL
