MODEL 1
REMARK minimizedAffinity 10.3017025
REMARK minimizedRMSD -1
REMARK  1 active torsions:
REMARK  status: ('A' for Active; 'I' for Inactive)
REMARK    1  A    between atoms: N_2  and  C1_3 
ROOT
ATOM      1  C1  UNL d   1       2.697   0.845   0.692  0.00  0.00     0.143 A 
ATOM      2  C2  UNL d   1       1.853   1.911   1.021  0.00  0.00    -0.057 A 
ATOM      3  C3  UNL d   1       1.180   2.637   0.031  0.00  0.00     0.033 A 
ATOM      4  C4  UNL d   1       1.361   2.325  -1.313  0.00  0.00    -0.042 A 
ATOM      5  C5  UNL d   1       2.214   1.285  -1.665  0.00  0.00     0.033 A 
ATOM      6  C6  UNL d   1       2.879   0.560  -0.671  0.00  0.00    -0.057 A 
ENDROOT
BRANCH   1   7
ATOM      7  N   UNL d   1       3.471   0.149   1.623  0.00  0.00    -0.732 N 
ATOM      8  C   UNL d   1       3.800  -1.245   1.414  0.00  0.00     0.284 C 
ATOM      9  H3  UNL d   1       4.240   0.708   1.984  0.00  0.00     0.395 HD
ENDBRANCH   1   7
TORSDOF 1
ENDMDL
