MODEL 1
REMARK minimizedAffinity 5.56993484
REMARK minimizedRMSD -1
REMARK  1 active torsions:
REMARK  status: ('A' for Active; 'I' for Inactive)
REMARK    1  A    between atoms: N_2  and  C1_3 
ROOT
ATOM      1  C1  UNL d   1       2.903   1.519   0.279  0.00  0.00     0.143 A 
ATOM      2  C2  UNL d   1       3.731   1.950  -0.763  0.00  0.00    -0.057 A 
ATOM      3  C3  UNL d   1       3.216   2.219  -2.037  0.00  0.00     0.033 A 
ATOM      4  C4  UNL d   1       1.863   2.033  -2.300  0.00  0.00    -0.042 A 
ATOM      5  C5  UNL d   1       1.025   1.581  -1.286  0.00  0.00     0.033 A 
ATOM      6  C6  UNL d   1       1.544   1.320  -0.014  0.00  0.00    -0.057 A 
ENDROOT
BRANCH   1   7
ATOM      7  N   UNL d   1       3.371   1.141   1.539  0.00  0.00    -0.732 N 
ATOM      8  C   UNL d   1       3.653  -0.247   1.835  0.00  0.00     0.284 C 
ATOM      9  H3  UNL d   1       4.059   1.793   1.910  0.00  0.00     0.395 HD
ENDBRANCH   1   7
TORSDOF 1
ENDMDL
