MODEL 1
REMARK minimizedAffinity -1.22321129
REMARK minimizedRMSD -1
REMARK  1 active torsions:
REMARK  status: ('A' for Active; 'I' for Inactive)
REMARK    1  A    between atoms: N_2  and  C1_3 
ROOT
ATOM      1  C1  UNL d   1       2.582   2.064  -1.646  0.00  0.00     0.143 A 
ATOM      2  C2  UNL d   1       1.552   1.143  -1.430  0.00  0.00    -0.057 A 
ATOM      3  C3  UNL d   1       0.946   1.012  -0.175  0.00  0.00     0.033 A 
ATOM      4  C4  UNL d   1       1.381   1.783   0.898  0.00  0.00    -0.042 A 
ATOM      5  C5  UNL d   1       2.421   2.687   0.713  0.00  0.00     0.033 A 
ATOM      6  C6  UNL d   1       3.017   2.818  -0.545  0.00  0.00    -0.057 A 
ENDROOT
BRANCH   1   7
ATOM      7  N   UNL d   1       3.291   2.172  -2.845  0.00  0.00    -0.732 N 
ATOM      8  C   UNL d   1       3.147   3.342  -3.684  0.00  0.00     0.284 C 
ATOM      9  H3  UNL d   1       4.248   1.835  -2.762  0.00  0.00     0.395 HD
ENDBRANCH   1   7
TORSDOF 1
ENDMDL
