MODEL 1
REMARK minimizedAffinity -0.630177319
REMARK minimizedRMSD -1
REMARK  1 active torsions:
REMARK  status: ('A' for Active; 'I' for Inactive)
REMARK    1  A    between atoms: N_2  and  C1_3 
ROOT
ATOM      1  C1  UNL d   1       1.881   3.679  -3.280  0.00  0.00     0.143 A 
ATOM      2  C2  UNL d   1       2.274   2.738  -2.322  0.00  0.00    -0.057 A 
ATOM      3  C3  UNL d   1       3.517   2.098  -2.400  0.00  0.00     0.033 A 
ATOM      4  C4  UNL d   1       4.379   2.366  -3.458  0.00  0.00    -0.042 A 
ATOM      5  C5  UNL d   1       3.999   3.279  -4.435  0.00  0.00     0.033 A 
ATOM      6  C6  UNL d   1       2.760   3.920  -4.348  0.00  0.00    -0.057 A 
ENDROOT
BRANCH   1   7
ATOM      7  N   UNL d   1       0.619   4.276  -3.312  0.00  0.00    -0.732 N 
ATOM      8  C   UNL d   1       0.167   5.104  -2.215  0.00  0.00     0.284 C 
ATOM      9  H3  UNL d   1       0.385   4.642  -4.233  0.00  0.00     0.395 HD
ENDBRANCH   1   7
TORSDOF 1
ENDMDL
