MODEL 1
REMARK minimizedAffinity 8.95920467
REMARK minimizedRMSD -1
REMARK  1 active torsions:
REMARK  status: ('A' for Active; 'I' for Inactive)
REMARK    1  A    between atoms: N_2  and  C1_3 
ROOT
ATOM      1  C1  UNL d   1      -5.998  -0.695  -3.796  0.00  0.00     0.143 A 
ATOM      2  C2  UNL d   1      -5.980   0.558  -3.173  0.00  0.00    -0.057 A 
ATOM      3  C3  UNL d   1      -5.963   1.741  -3.921  0.00  0.00     0.033 A 
ATOM      4  C4  UNL d   1      -5.935   1.692  -5.311  0.00  0.00    -0.042 A 
ATOM      5  C5  UNL d   1      -5.928   0.458  -5.951  0.00  0.00     0.033 A 
ATOM      6  C6  UNL d   1      -5.951  -0.720  -5.198  0.00  0.00    -0.057 A 
ENDROOT
BRANCH   1   7
ATOM      7  N   UNL d   1      -5.916  -1.907  -3.107  0.00  0.00    -0.732 N 
ATOM      8  C   UNL d   1      -5.954  -3.165  -3.822  0.00  0.00     0.284 C 
ATOM      9  H3  UNL d   1      -5.235  -1.879  -2.351  0.00  0.00     0.395 HD
ENDBRANCH   1   7
TORSDOF 1
ENDMDL
