MODEL 1
REMARK minimizedAffinity -2.07966137
REMARK minimizedRMSD -1
REMARK  1 active torsions:
REMARK  status: ('A' for Active; 'I' for Inactive)
REMARK    1  A    between atoms: N_2  and  C1_3 
ROOT
ATOM      1  C1  UNL d   1       1.076   2.463  -2.926  0.00  0.00     0.143 A 
ATOM      2  C2  UNL d   1       2.389   2.942  -2.998  0.00  0.00    -0.057 A 
ATOM      3  C3  UNL d   1       2.719   4.039  -3.802  0.00  0.00     0.033 A 
ATOM      4  C4  UNL d   1       1.743   4.662  -4.574  0.00  0.00    -0.042 A 
ATOM      5  C5  UNL d   1       0.437   4.188  -4.537  0.00  0.00     0.033 A 
ATOM      6  C6  UNL d   1       0.112   3.096  -3.727  0.00  0.00    -0.057 A 
ENDROOT
BRANCH   1   7
ATOM      7  N   UNL d   1       0.704   1.316  -2.221  0.00  0.00    -0.732 N 
ATOM      8  C   UNL d   1       1.139   1.116  -0.856  0.00  0.00     0.284 C 
ATOM      9  H3  UNL d   1      -0.264   1.052  -2.392  0.00  0.00     0.395 HD
ENDBRANCH   1   7
TORSDOF 1
ENDMDL
