MODEL 1
REMARK minimizedAffinity 9.91224861
REMARK minimizedRMSD -1
REMARK  1 active torsions:
REMARK  status: ('A' for Active; 'I' for Inactive)
REMARK    1  A    between atoms: N_2  and  C1_3 
ROOT
ATOM      1  C1  UNL d   1       1.572   2.121  -2.232  0.00  0.00     0.143 A 
ATOM      2  C2  UNL d   1       2.107   3.291  -2.781  0.00  0.00    -0.057 A 
ATOM      3  C3  UNL d   1       1.314   4.174  -3.524  0.00  0.00     0.033 A 
ATOM      4  C4  UNL d   1      -0.027   3.886  -3.756  0.00  0.00    -0.042 A 
ATOM      5  C5  UNL d   1      -0.574   2.716  -3.241  0.00  0.00     0.033 A 
ATOM      6  C6  UNL d   1       0.222   1.842  -2.494  0.00  0.00    -0.057 A 
ENDROOT
BRANCH   1   7
ATOM      7  N   UNL d   1       2.332   1.155  -1.568  0.00  0.00    -0.732 N 
ATOM      8  C   UNL d   1       2.222   0.988  -0.134  0.00  0.00     0.284 C 
ATOM      9  H3  UNL d   1       2.387   0.281  -2.085  0.00  0.00     0.395 HD
ENDBRANCH   1   7
TORSDOF 1
ENDMDL
