MODEL 1
REMARK minimizedAffinity -4.2627964
REMARK minimizedRMSD -1
REMARK  3 active torsions:
REMARK  status: ('A' for Active; 'I' for Inactive)
REMARK    1  A    between atoms: C3'_2  and  C2'_3 
REMARK    2  A    between atoms: C2'_3  and  C1'_4 
REMARK    3  A    between atoms: C1'_4  and  C1_5 
ROOT
ATOM      1  C1  N4B d   1      -0.121  -1.339  -0.030  0.00  0.00    -0.075 A 
ATOM      2  C2  N4B d   1      -0.506  -0.180   0.679  0.00  0.00     0.002 A 
ATOM      3  C3  N4B d   1      -0.502   1.042   0.052  0.00  0.00     0.002 A 
ATOM      4  C4  N4B d   1      -0.100   1.131  -1.272  0.00  0.00    -0.004 A 
ATOM      5  C5  N4B d   1       0.246   0.003  -1.958  0.00  0.00     0.002 A 
ATOM      6  C6  N4B d   1       0.242  -1.232  -1.341  0.00  0.00     0.002 A 
ENDROOT
BRANCH   1   7
ATOM      7  C1' N4B d   1      -0.028  -2.684   0.638  0.00  0.00     0.057 C 
BRANCH   7   8
ATOM      8  C2' N4B d   1      -1.257  -3.510   0.274  0.00  0.00     0.009 C 
BRANCH   8   9
ATOM      9  C3' N4B d   1      -2.530  -2.925   0.862  0.00  0.00     0.004 C 
ATOM     10  C4' N4B d   1      -3.757  -3.315   0.094  0.00  0.00     0.003 C 
ENDBRANCH   8   9
ENDBRANCH   7   8
ENDBRANCH   1   7
TORSDOF 3
ENDMDL
