MODEL 1
REMARK minimizedAffinity -5.0865469
REMARK minimizedRMSD -1
REMARK  3 active torsions:
REMARK  status: ('A' for Active; 'I' for Inactive)
REMARK    1  A    between atoms: C3'_2  and  C2'_3 
REMARK    2  A    between atoms: C2'_3  and  C1'_4 
REMARK    3  A    between atoms: C1'_4  and  C1_5 
ROOT
ATOM      1  C1  N4B d   1       0.234   0.287   0.112  0.00  0.00    -0.075 A 
ATOM      2  C2  N4B d   1       1.060  -0.766  -0.337  0.00  0.00     0.002 A 
ATOM      3  C3  N4B d   1       0.768  -2.063   0.008  0.00  0.00     0.002 A 
ATOM      4  C4  N4B d   1      -0.330  -2.328   0.813  0.00  0.00    -0.004 A 
ATOM      5  C5  N4B d   1      -1.138  -1.307   1.221  0.00  0.00     0.002 A 
ATOM      6  C6  N4B d   1      -0.858   0.001   0.879  0.00  0.00     0.002 A 
ENDROOT
BRANCH   1   7
ATOM      7  C1' N4B d   1       0.562   1.728  -0.168  0.00  0.00     0.057 C 
BRANCH   7   8
ATOM      8  C2' N4B d   1       2.073   1.877  -0.325  0.00  0.00     0.009 C 
BRANCH   8   9
ATOM      9  C3' N4B d   1       2.595   3.128   0.361  0.00  0.00     0.004 C 
ATOM     10  C4' N4B d   1       1.496   4.019   0.858  0.00  0.00     0.003 C 
ENDBRANCH   8   9
ENDBRANCH   7   8
ENDBRANCH   1   7
TORSDOF 3
ENDMDL
