MODEL 1
REMARK minimizedAffinity -5.32443666
REMARK minimizedRMSD -1
REMARK  3 active torsions:
REMARK  status: ('A' for Active; 'I' for Inactive)
REMARK    1  A    between atoms: C3'_2  and  C2'_3 
REMARK    2  A    between atoms: C2'_3  and  C1'_4 
REMARK    3  A    between atoms: C1'_4  and  C1_5 
ROOT
ATOM      1  C1  N4B d   1      -0.030  -0.249  -0.351  0.00  0.00    -0.075 A 
ATOM      2  C2  N4B d   1      -0.597  -0.631   0.885  0.00  0.00     0.002 A 
ATOM      3  C3  N4B d   1      -0.684  -1.961   1.218  0.00  0.00     0.002 A 
ATOM      4  C4  N4B d   1      -0.231  -2.922   0.327  0.00  0.00    -0.004 A 
ATOM      5  C5  N4B d   1       0.339  -2.544  -0.853  0.00  0.00     0.002 A 
ATOM      6  C6  N4B d   1       0.437  -1.211  -1.199  0.00  0.00     0.002 A 
ENDROOT
BRANCH   1   7
ATOM      7  C1' N4B d   1       0.010   1.187  -0.796  0.00  0.00     0.057 C 
BRANCH   7   8
ATOM      8  C2' N4B d   1       1.147   1.904  -0.074  0.00  0.00     0.009 C 
BRANCH   8   9
ATOM      9  C3' N4B d   1       0.781   3.335   0.283  0.00  0.00     0.004 C 
ATOM     10  C4' N4B d   1       1.832   4.015   1.109  0.00  0.00     0.003 C 
ENDBRANCH   8   9
ENDBRANCH   7   8
ENDBRANCH   1   7
TORSDOF 3
ENDMDL
