MODEL 1
REMARK minimizedAffinity -3.17506838
REMARK minimizedRMSD -1
REMARK  3 active torsions:
REMARK  status: ('A' for Active; 'I' for Inactive)
REMARK    1  A    between atoms: C3'_2  and  C2'_3 
REMARK    2  A    between atoms: C2'_3  and  C1'_4 
REMARK    3  A    between atoms: C1'_4  and  C1_5 
ROOT
ATOM      1  C1  N4B d   1       0.002  -0.254   0.224  0.00  0.00    -0.075 A 
ATOM      2  C2  N4B d   1      -0.775  -0.917   1.199  0.00  0.00     0.002 A 
ATOM      3  C3  N4B d   1      -0.714  -2.284   1.312  0.00  0.00     0.002 A 
ATOM      4  C4  N4B d   1       0.099  -3.008   0.453  0.00  0.00    -0.004 A 
ATOM      5  C5  N4B d   1       0.866  -2.358  -0.469  0.00  0.00     0.002 A 
ATOM      6  C6  N4B d   1       0.818  -0.984  -0.592  0.00  0.00     0.002 A 
ENDROOT
BRANCH   1   7
ATOM      7  C1' N4B d   1      -0.096   1.231   0.005  0.00  0.00     0.057 C 
BRANCH   7   8
ATOM      8  C2' N4B d   1       1.300   1.842   0.079  0.00  0.00     0.009 C 
BRANCH   8   9
ATOM      9  C3' N4B d   1       1.304   3.158   0.838  0.00  0.00     0.004 C 
ATOM     10  C4' N4B d   1       2.689   3.654   1.132  0.00  0.00     0.003 C 
ENDBRANCH   8   9
ENDBRANCH   7   8
ENDBRANCH   1   7
TORSDOF 3
ENDMDL
