MODEL 1
REMARK minimizedAffinity -4.75657272
REMARK minimizedRMSD -1
REMARK  3 active torsions:
REMARK  status: ('A' for Active; 'I' for Inactive)
REMARK    1  A    between atoms: C3'_2  and  C2'_3 
REMARK    2  A    between atoms: C2'_3  and  C1'_4 
REMARK    3  A    between atoms: C1'_4  and  C1_5 
ROOT
ATOM      1  C1  N4B d   1       0.078   0.053   0.107  0.00  0.00    -0.075 A 
ATOM      2  C2  N4B d   1      -0.144   0.078   1.501  0.00  0.00     0.002 A 
ATOM      3  C3  N4B d   1      -0.525  -1.068   2.156  0.00  0.00     0.002 A 
ATOM      4  C4  N4B d   1      -0.708  -2.240   1.438  0.00  0.00    -0.004 A 
ATOM      5  C5  N4B d   1      -0.466  -2.262   0.095  0.00  0.00     0.002 A 
ATOM      6  C6  N4B d   1      -0.079  -1.119  -0.575  0.00  0.00     0.002 A 
ENDROOT
BRANCH   1   7
ATOM      7  C1' N4B d   1       0.413   1.299  -0.666  0.00  0.00     0.057 C 
BRANCH   7   8
ATOM      8  C2' N4B d   1       1.530   2.050   0.053  0.00  0.00     0.009 C 
BRANCH   8   9
ATOM      9  C3' N4B d   1       1.082   3.424   0.520  0.00  0.00     0.004 C 
ATOM     10  C4' N4B d   1       1.148   3.580   2.010  0.00  0.00     0.003 C 
ENDBRANCH   8   9
ENDBRANCH   7   8
ENDBRANCH   1   7
TORSDOF 3
ENDMDL
