MODEL 1
REMARK minimizedAffinity -5.76827383
REMARK minimizedRMSD -1
REMARK  3 active torsions:
REMARK  status: ('A' for Active; 'I' for Inactive)
REMARK    1  A    between atoms: C3'_2  and  C2'_3 
REMARK    2  A    between atoms: C2'_3  and  C1'_4 
REMARK    3  A    between atoms: C1'_4  and  C1_5 
ROOT
ATOM      1  C1  N4B d   1      -0.264   0.350  -0.247  0.00  0.00    -0.075 A 
ATOM      2  C2  N4B d   1       0.479  -0.812  -0.555  0.00  0.00     0.002 A 
ATOM      3  C3  N4B d   1       0.273  -1.967   0.159  0.00  0.00     0.002 A 
ATOM      4  C4  N4B d   1      -0.652  -1.979   1.192  0.00  0.00    -0.004 A 
ATOM      5  C5  N4B d   1      -1.384  -0.860   1.466  0.00  0.00     0.002 A 
ATOM      6  C6  N4B d   1      -1.190   0.307   0.754  0.00  0.00     0.002 A 
ENDROOT
BRANCH   1   7
ATOM      7  C1' N4B d   1      -0.013   1.660  -0.943  0.00  0.00     0.057 C 
BRANCH   7   8
ATOM      8  C2' N4B d   1       0.288   2.731   0.101  0.00  0.00     0.009 C 
BRANCH   8   9
ATOM      9  C3' N4B d   1       1.780   2.983   0.244  0.00  0.00     0.004 C 
ATOM     10  C4' N4B d   1       2.519   2.840  -1.053  0.00  0.00     0.003 C 
ENDBRANCH   8   9
ENDBRANCH   7   8
ENDBRANCH   1   7
TORSDOF 3
ENDMDL
