MODEL 1
REMARK minimizedAffinity 6.64620495
REMARK minimizedRMSD -1
REMARK  0 active torsions:
REMARK  status: ('A' for Active; 'I' for Inactive)
ROOT
ATOM      1  C   UNL d   1       0.018   2.169   0.641  0.00  0.00     0.077 C 
ATOM      2  C1  UNL d   1       0.234   3.507   0.000  0.00  0.00    -0.074 A 
ATOM      3  C2  UNL d   1       1.459   4.172   0.118  0.00  0.00    -0.005 A 
ATOM      4  C3  UNL d   1       1.648   5.412  -0.491  0.00  0.00     0.006 A 
ATOM      5  C4  UNL d   1       0.616   6.000  -1.223  0.00  0.00    -0.005 A 
ATOM      6  C5  UNL d   1      -0.616   5.350  -1.353  0.00  0.00    -0.074 A 
ATOM      7  C6  UNL d   1      -1.732   5.963  -2.144  0.00  0.00     0.077 C 
ATOM      8  C7  UNL d   1      -0.796   4.101  -0.743  0.00  0.00    -0.001 A 
ENDROOT
TORSDOF 0
ENDMDL
