MODEL 1
REMARK minimizedAffinity 7.54293156
REMARK minimizedRMSD -1
REMARK  0 active torsions:
REMARK  status: ('A' for Active; 'I' for Inactive)
ROOT
ATOM      1  C   UNL d   1      -0.549   1.142   3.159  0.00  0.00     0.077 C 
ATOM      2  C1  UNL d   1       0.309   2.239   2.603  0.00  0.00    -0.074 A 
ATOM      3  C2  UNL d   1       1.508   2.600   3.227  0.00  0.00    -0.005 A 
ATOM      4  C3  UNL d   1       2.300   3.616   2.693  0.00  0.00     0.006 A 
ATOM      5  C4  UNL d   1       1.903   4.281   1.532  0.00  0.00    -0.005 A 
ATOM      6  C5  UNL d   1       0.708   3.933   0.894  0.00  0.00    -0.074 A 
ATOM      7  C6  UNL d   1       0.271   4.631  -0.360  0.00  0.00     0.077 C 
ATOM      8  C7  UNL d   1      -0.079   2.906   1.433  0.00  0.00    -0.001 A 
ENDROOT
TORSDOF 0
ENDMDL
