MODEL 1
REMARK minimizedAffinity 16.3779621
REMARK minimizedRMSD -1
REMARK  0 active torsions:
REMARK  status: ('A' for Active; 'I' for Inactive)
ROOT
ATOM      1  C   UNL d   1      -0.663   4.944  -3.925  0.00  0.00     0.077 C 
ATOM      2  C1  UNL d   1      -0.742   4.965  -2.428  0.00  0.00    -0.074 A 
ATOM      3  C2  UNL d   1      -1.405   5.998  -1.757  0.00  0.00    -0.005 A 
ATOM      4  C3  UNL d   1      -1.478   5.999  -0.364  0.00  0.00     0.006 A 
ATOM      5  C4  UNL d   1      -0.892   4.968   0.371  0.00  0.00    -0.005 A 
ATOM      6  C5  UNL d   1      -0.226   3.926  -0.282  0.00  0.00    -0.074 A 
ATOM      7  C6  UNL d   1       0.401   2.806   0.493  0.00  0.00     0.077 C 
ATOM      8  C7  UNL d   1      -0.162   3.929  -1.682  0.00  0.00    -0.001 A 
ENDROOT
TORSDOF 0
ENDMDL
