MODEL 1
REMARK minimizedAffinity 3.74628639
REMARK minimizedRMSD -1
REMARK  0 active torsions:
REMARK  status: ('A' for Active; 'I' for Inactive)
ROOT
ATOM      1  C   UNL d   1       5.534  -4.926  -0.893  0.00  0.00     0.077 C 
ATOM      2  C1  UNL d   1       4.392  -3.967  -0.736  0.00  0.00    -0.074 A 
ATOM      3  C2  UNL d   1       4.622  -2.602  -0.537  0.00  0.00    -0.005 A 
ATOM      4  C3  UNL d   1       3.549  -1.720  -0.401  0.00  0.00     0.006 A 
ATOM      5  C4  UNL d   1       2.238  -2.194  -0.463  0.00  0.00    -0.005 A 
ATOM      6  C5  UNL d   1       1.989  -3.556  -0.662  0.00  0.00    -0.074 A 
ATOM      7  C6  UNL d   1       0.586  -4.080  -0.741  0.00  0.00     0.077 C 
ATOM      8  C7  UNL d   1       3.072  -4.434  -0.804  0.00  0.00    -0.001 A 
ENDROOT
TORSDOF 0
ENDMDL
