MODEL 1
REMARK minimizedAffinity 12.447731
REMARK minimizedRMSD -1
REMARK  0 active torsions:
REMARK  status: ('A' for Active; 'I' for Inactive)
ROOT
ATOM      1  C   UNL d   1      -5.982   0.450  -4.587  0.00  0.00     0.077 C 
ATOM      2  C1  UNL d   1      -5.981   1.555  -3.572  0.00  0.00    -0.074 A 
ATOM      3  C2  UNL d   1      -5.989   2.896  -3.970  0.00  0.00    -0.005 A 
ATOM      4  C3  UNL d   1      -5.997   3.912  -3.015  0.00  0.00     0.006 A 
ATOM      5  C4  UNL d   1      -5.997   3.599  -1.655  0.00  0.00    -0.005 A 
ATOM      6  C5  UNL d   1      -5.990   2.264  -1.239  0.00  0.00    -0.074 A 
ATOM      7  C6  UNL d   1      -5.999   1.910   0.219  0.00  0.00     0.077 C 
ATOM      8  C7  UNL d   1      -5.988   1.248  -2.204  0.00  0.00    -0.001 A 
ENDROOT
TORSDOF 0
ENDMDL
