MODEL 1
REMARK minimizedAffinity 10.965868
REMARK minimizedRMSD -1
REMARK  0 active torsions:
REMARK  status: ('A' for Active; 'I' for Inactive)
ROOT
ATOM      1  C   UNL d   1      -6.000   5.778  -5.567  0.00  0.00     0.077 C 
ATOM      2  C1  UNL d   1      -5.251   5.023  -4.509  0.00  0.00    -0.074 A 
ATOM      3  C2  UNL d   1      -3.874   4.804  -4.620  0.00  0.00    -0.005 A 
ATOM      4  C3  UNL d   1      -3.190   4.109  -3.623  0.00  0.00     0.006 A 
ATOM      5  C4  UNL d   1      -3.874   3.627  -2.507  0.00  0.00    -0.005 A 
ATOM      6  C5  UNL d   1      -5.251   3.837  -2.378  0.00  0.00    -0.074 A 
ATOM      7  C6  UNL d   1      -6.000   3.334  -1.179  0.00  0.00     0.077 C 
ATOM      8  C7  UNL d   1      -5.930   4.543  -3.380  0.00  0.00    -0.001 A 
ENDROOT
TORSDOF 0
ENDMDL
