MODEL 1
REMARK minimizedAffinity 5.43477297
REMARK minimizedRMSD -1
REMARK  0 active torsions:
REMARK  status: ('A' for Active; 'I' for Inactive)
ROOT
ATOM      1  C   UNL d   1      -5.999   4.323  -5.170  0.00  0.00     0.077 C 
ATOM      2  C1  UNL d   1      -5.317   4.118  -3.850  0.00  0.00    -0.074 A 
ATOM      3  C2  UNL d   1      -6.000   3.552  -2.769  0.00  0.00    -0.005 A 
ATOM      4  C3  UNL d   1      -5.350   3.359  -1.550  0.00  0.00     0.006 A 
ATOM      5  C4  UNL d   1      -4.014   3.730  -1.400  0.00  0.00    -0.005 A 
ATOM      6  C5  UNL d   1      -3.314   4.297  -2.470  0.00  0.00    -0.074 A 
ATOM      7  C6  UNL d   1      -1.875   4.693  -2.328  0.00  0.00     0.077 C 
ATOM      8  C7  UNL d   1      -3.972   4.481  -3.694  0.00  0.00    -0.001 A 
ENDROOT
TORSDOF 0
ENDMDL
