MODEL 1
REMARK minimizedAffinity 9.71418667
REMARK minimizedRMSD -1
REMARK  0 active torsions:
REMARK  status: ('A' for Active; 'I' for Inactive)
ROOT
ATOM      1  C   UNL d   1      -1.548  -4.203  -3.329  0.00  0.00     0.077 C 
ATOM      2  C1  UNL d   1      -0.575  -3.974  -2.211  0.00  0.00    -0.074 A 
ATOM      3  C2  UNL d   1       0.157  -5.034  -1.665  0.00  0.00    -0.005 A 
ATOM      4  C3  UNL d   1       1.065  -4.803  -0.632  0.00  0.00     0.006 A 
ATOM      5  C4  UNL d   1       1.251  -3.513  -0.135  0.00  0.00    -0.005 A 
ATOM      6  C5  UNL d   1       0.529  -2.441  -0.668  0.00  0.00    -0.074 A 
ATOM      7  C6  UNL d   1       0.724  -1.046  -0.152  0.00  0.00     0.077 C 
ATOM      8  C7  UNL d   1      -0.377  -2.679  -1.711  0.00  0.00    -0.001 A 
ENDROOT
TORSDOF 0
ENDMDL
