MODEL 1
REMARK minimizedAffinity 12.6923885
REMARK minimizedRMSD -1
REMARK  0 active torsions:
REMARK  status: ('A' for Active; 'I' for Inactive)
ROOT
ATOM      1  C   UNL d   1       2.657  -0.525  -5.841  0.00  0.00     0.078 C 
ATOM      2  C1  UNL d   1       1.990  -0.858  -4.540  0.00  0.00    -0.077 A 
ATOM      3  C2  UNL d   1       2.533  -0.432  -3.321  0.00  0.00    -0.001 A 
ATOM      4  C3  UNL d   1       1.906  -0.758  -2.117  0.00  0.00     0.003 A 
ATOM      5  C4  UNL d   1       0.734  -1.511  -2.120  0.00  0.00    -0.005 A 
ATOM      6  C5  UNL d   1       0.187  -1.940  -3.327  0.00  0.00     0.003 A 
ATOM      7  C6  UNL d   1       0.813  -1.616  -4.532  0.00  0.00    -0.001 A 
ENDROOT
TORSDOF 0
ENDMDL
