MODEL 1
REMARK minimizedAffinity 10.8601112
REMARK minimizedRMSD -1
REMARK  0 active torsions:
REMARK  status: ('A' for Active; 'I' for Inactive)
ROOT
ATOM      1  C   UNL d   1       3.093  -3.528   0.142  0.00  0.00     0.078 C 
ATOM      2  C1  UNL d   1       2.250  -2.660  -0.745  0.00  0.00    -0.077 A 
ATOM      3  C2  UNL d   1       1.397  -3.221  -1.703  0.00  0.00    -0.001 A 
ATOM      4  C3  UNL d   1       0.625  -2.401  -2.528  0.00  0.00     0.003 A 
ATOM      5  C4  UNL d   1       0.700  -1.015  -2.404  0.00  0.00    -0.005 A 
ATOM      6  C5  UNL d   1       1.548  -0.448  -1.455  0.00  0.00     0.003 A 
ATOM      7  C6  UNL d   1       2.320  -1.266  -0.629  0.00  0.00    -0.001 A 
ENDROOT
TORSDOF 0
ENDMDL
