MODEL 1
REMARK minimizedAffinity 12.1348324
REMARK minimizedRMSD -1
REMARK  0 active torsions:
REMARK  status: ('A' for Active; 'I' for Inactive)
ROOT
ATOM      1  C   UNL d   1       2.391  -0.556  -0.405  0.00  0.00     0.078 C 
ATOM      2  C1  UNL d   1       3.184   0.690  -0.147  0.00  0.00    -0.077 A 
ATOM      3  C2  UNL d   1       2.907   1.506   0.957  0.00  0.00    -0.001 A 
ATOM      4  C3  UNL d   1       3.647   2.668   1.179  0.00  0.00     0.003 A 
ATOM      5  C4  UNL d   1       4.667   3.027   0.301  0.00  0.00    -0.005 A 
ATOM      6  C5  UNL d   1       4.948   2.223  -0.802  0.00  0.00     0.003 A 
ATOM      7  C6  UNL d   1       4.210   1.060  -1.026  0.00  0.00    -0.001 A 
ENDROOT
TORSDOF 0
ENDMDL
