MODEL 1
REMARK minimizedAffinity 12.3023386
REMARK minimizedRMSD -1
REMARK  0 active torsions:
REMARK  status: ('A' for Active; 'I' for Inactive)
ROOT
ATOM      1  C   UNL d   1       2.247   1.324   2.104  0.00  0.00     0.078 C 
ATOM      2  C1  UNL d   1       1.640   1.539   3.458  0.00  0.00    -0.077 A 
ATOM      3  C2  UNL d   1       0.262   1.743   3.607  0.00  0.00    -0.001 A 
ATOM      4  C3  UNL d   1      -0.288   1.952   4.873  0.00  0.00     0.003 A 
ATOM      5  C4  UNL d   1       0.533   1.960   5.999  0.00  0.00    -0.005 A 
ATOM      6  C5  UNL d   1       1.905   1.761   5.861  0.00  0.00     0.003 A 
ATOM      7  C6  UNL d   1       2.456   1.552   4.596  0.00  0.00    -0.001 A 
ENDROOT
TORSDOF 0
ENDMDL
