MODEL 1
REMARK minimizedAffinity -0.00277249957
REMARK minimizedRMSD -1
REMARK  0 active torsions:
REMARK  status: ('A' for Active; 'I' for Inactive)
ROOT
ATOM      1  C   UNL d   1      -3.203  -0.693  -0.186  0.00  0.00     0.078 C 
ATOM      2  C1  UNL d   1      -2.065  -1.658  -0.038  0.00  0.00    -0.077 A 
ATOM      3  C2  UNL d   1      -0.811  -1.386  -0.599  0.00  0.00    -0.001 A 
ATOM      4  C3  UNL d   1       0.237  -2.297  -0.462  0.00  0.00     0.003 A 
ATOM      5  C4  UNL d   1       0.042  -3.488   0.236  0.00  0.00    -0.005 A 
ATOM      6  C5  UNL d   1      -1.203  -3.768   0.796  0.00  0.00     0.003 A 
ATOM      7  C6  UNL d   1      -2.252  -2.858   0.660  0.00  0.00    -0.001 A 
ENDROOT
TORSDOF 0
ENDMDL
