MODEL 1
REMARK minimizedAffinity 8.93695831
REMARK minimizedRMSD -1
REMARK  0 active torsions:
REMARK  status: ('A' for Active; 'I' for Inactive)
ROOT
ATOM      1  C   UNL d   1      -4.685   5.566  -5.874  0.00  0.00     0.078 C 
ATOM      2  C1  UNL d   1      -3.810   4.475  -5.332  0.00  0.00    -0.077 A 
ATOM      3  C2  UNL d   1      -3.687   3.250  -5.999  0.00  0.00    -0.001 A 
ATOM      4  C3  UNL d   1      -2.876   2.241  -5.478  0.00  0.00     0.003 A 
ATOM      5  C4  UNL d   1      -2.182   2.446  -4.287  0.00  0.00    -0.005 A 
ATOM      6  C5  UNL d   1      -2.300   3.661  -3.615  0.00  0.00     0.003 A 
ATOM      7  C6  UNL d   1      -3.110   4.671  -4.135  0.00  0.00    -0.001 A 
ENDROOT
TORSDOF 0
ENDMDL
