MODEL 1
REMARK minimizedAffinity 19.3561516
REMARK minimizedRMSD -1
REMARK  0 active torsions:
REMARK  status: ('A' for Active; 'I' for Inactive)
ROOT
ATOM      1  C   UNL d   1       3.797   0.971   0.146  0.00  0.00     0.078 C 
ATOM      2  C1  UNL d   1       2.707   0.261  -0.602  0.00  0.00    -0.077 A 
ATOM      3  C2  UNL d   1       2.130  -0.910  -0.096  0.00  0.00    -0.001 A 
ATOM      4  C3  UNL d   1       1.124  -1.565  -0.808  0.00  0.00     0.003 A 
ATOM      5  C4  UNL d   1       0.687  -1.058  -2.030  0.00  0.00    -0.005 A 
ATOM      6  C5  UNL d   1       1.257   0.106  -2.542  0.00  0.00     0.003 A 
ATOM      7  C6  UNL d   1       2.264   0.762  -1.832  0.00  0.00    -0.001 A 
ENDROOT
TORSDOF 0
ENDMDL
