MODEL 1
REMARK minimizedAffinity 5.17613363
REMARK minimizedRMSD -1
REMARK  0 active torsions:
REMARK  status: ('A' for Active; 'I' for Inactive)
ROOT
ATOM      1  C   UNL d   1      -1.334   1.855   6.000  0.00  0.00     0.078 C 
ATOM      2  C1  UNL d   1      -2.727   2.010   5.466  0.00  0.00    -0.077 A 
ATOM      3  C2  UNL d   1      -3.195   1.197   4.426  0.00  0.00    -0.001 A 
ATOM      4  C3  UNL d   1      -4.491   1.359   3.933  0.00  0.00     0.003 A 
ATOM      5  C4  UNL d   1      -5.328   2.334   4.472  0.00  0.00    -0.005 A 
ATOM      6  C5  UNL d   1      -4.870   3.149   5.505  0.00  0.00     0.003 A 
ATOM      7  C6  UNL d   1      -3.575   2.989   6.000  0.00  0.00    -0.001 A 
ENDROOT
TORSDOF 0
ENDMDL
