MODEL 1
REMARK minimizedAffinity 12.456027
REMARK minimizedRMSD -1
REMARK  0 active torsions:
REMARK  status: ('A' for Active; 'I' for Inactive)
ROOT
ATOM      1  C   UNL d   1       3.021   0.513  -0.204  0.00  0.00     0.078 C 
ATOM      2  C1  UNL d   1       2.201  -0.379  -1.087  0.00  0.00    -0.077 A 
ATOM      3  C2  UNL d   1       1.850   0.015  -2.384  0.00  0.00    -0.001 A 
ATOM      4  C3  UNL d   1       1.078  -0.822  -3.192  0.00  0.00     0.003 A 
ATOM      5  C4  UNL d   1       0.649  -2.058  -2.711  0.00  0.00    -0.005 A 
ATOM      6  C5  UNL d   1       0.992  -2.457  -1.420  0.00  0.00     0.003 A 
ATOM      7  C6  UNL d   1       1.764  -1.622  -0.612  0.00  0.00    -0.001 A 
ENDROOT
TORSDOF 0
ENDMDL
