MODEL 1
REMARK minimizedAffinity 9.72365379
REMARK minimizedRMSD -1
REMARK  0 active torsions:
REMARK  status: ('A' for Active; 'I' for Inactive)
ROOT
ATOM      1  C   UNL d   1      -4.531  -3.063  -4.733  0.00  0.00     0.078 C 
ATOM      2  C1  UNL d   1      -3.353  -3.861  -4.261  0.00  0.00    -0.077 A 
ATOM      3  C2  UNL d   1      -3.012  -3.910  -2.903  0.00  0.00    -0.001 A 
ATOM      4  C3  UNL d   1      -1.907  -4.649  -2.479  0.00  0.00     0.003 A 
ATOM      5  C4  UNL d   1      -1.134  -5.345  -3.406  0.00  0.00    -0.005 A 
ATOM      6  C5  UNL d   1      -1.464  -5.301  -4.759  0.00  0.00     0.003 A 
ATOM      7  C6  UNL d   1      -2.568  -4.562  -5.185  0.00  0.00    -0.001 A 
ENDROOT
TORSDOF 0
ENDMDL
