MODEL 1
REMARK minimizedAffinity -2.45433021
REMARK minimizedRMSD -1
REMARK  0 active torsions:
REMARK  status: ('A' for Active; 'I' for Inactive)
ROOT
ATOM      1  C   UNL d   1      -4.518  -3.133  -5.253  0.00  0.00     0.078 C 
ATOM      2  C1  UNL d   1      -3.441  -4.130  -4.949  0.00  0.00    -0.077 A 
ATOM      3  C2  UNL d   1      -2.999  -5.035  -5.922  0.00  0.00    -0.001 A 
ATOM      4  C3  UNL d   1      -2.002  -5.965  -5.621  0.00  0.00     0.003 A 
ATOM      5  C4  UNL d   1      -1.440  -6.000  -4.347  0.00  0.00    -0.005 A 
ATOM      6  C5  UNL d   1      -1.875  -5.106  -3.371  0.00  0.00     0.003 A 
ATOM      7  C6  UNL d   1      -2.871  -4.175  -3.670  0.00  0.00    -0.001 A 
ENDROOT
TORSDOF 0
ENDMDL
