MODEL 1
REMARK minimizedAffinity 1.69051468
REMARK minimizedRMSD -1
REMARK  0 active torsions:
REMARK  status: ('A' for Active; 'I' for Inactive)
ROOT
ATOM      1  C   UNL d   1      -1.687  -4.514  -3.286  0.00  0.00     0.078 C 
ATOM      2  C1  UNL d   1      -2.854  -4.488  -4.228  0.00  0.00    -0.077 A 
ATOM      3  C2  UNL d   1      -3.260  -5.645  -4.904  0.00  0.00    -0.001 A 
ATOM      4  C3  UNL d   1      -4.342  -5.604  -5.785  0.00  0.00     0.003 A 
ATOM      5  C4  UNL d   1      -5.025  -4.408  -6.000  0.00  0.00    -0.005 A 
ATOM      6  C5  UNL d   1      -4.626  -3.252  -5.333  0.00  0.00     0.003 A 
ATOM      7  C6  UNL d   1      -3.545  -3.291  -4.451  0.00  0.00    -0.001 A 
ENDROOT
TORSDOF 0
ENDMDL
