MODEL 1
REMARK minimizedAffinity -2.74850941
REMARK minimizedRMSD -1
REMARK  0 active torsions:
REMARK  status: ('A' for Active; 'I' for Inactive)
ROOT
ATOM      1  C   UNL d   1      -0.737  -6.000  -4.046  0.00  0.00     0.078 C 
ATOM      2  C1  UNL d   1      -1.980  -5.289  -4.492  0.00  0.00    -0.077 A 
ATOM      3  C2  UNL d   1      -3.043  -5.991  -5.072  0.00  0.00    -0.001 A 
ATOM      4  C3  UNL d   1      -4.190  -5.315  -5.491  0.00  0.00     0.003 A 
ATOM      5  C4  UNL d   1      -4.284  -3.934  -5.336  0.00  0.00    -0.005 A 
ATOM      6  C5  UNL d   1      -3.230  -3.226  -4.762  0.00  0.00     0.003 A 
ATOM      7  C6  UNL d   1      -2.082  -3.900  -4.342  0.00  0.00    -0.001 A 
ENDROOT
TORSDOF 0
ENDMDL
