MODEL 1
REMARK minimizedAffinity 6.66370296
REMARK minimizedRMSD -1
REMARK  0 active torsions:
REMARK  status: ('A' for Active; 'I' for Inactive)
ROOT
ATOM      1  C   UNL d   1       2.965   0.492  -0.639  0.00  0.00     0.078 C 
ATOM      2  C1  UNL d   1       2.117  -0.665  -1.075  0.00  0.00    -0.077 A 
ATOM      3  C2  UNL d   1       1.900  -1.759  -0.229  0.00  0.00    -0.001 A 
ATOM      4  C3  UNL d   1       1.116  -2.834  -0.651  0.00  0.00     0.003 A 
ATOM      5  C4  UNL d   1       0.544  -2.826  -1.922  0.00  0.00    -0.005 A 
ATOM      6  C5  UNL d   1       0.756  -1.743  -2.772  0.00  0.00     0.003 A 
ATOM      7  C6  UNL d   1       1.540  -0.667  -2.351  0.00  0.00    -0.001 A 
ENDROOT
TORSDOF 0
ENDMDL
