MODEL 1
REMARK minimizedAffinity 8.84817314
REMARK minimizedRMSD -1
REMARK  0 active torsions:
REMARK  status: ('A' for Active; 'I' for Inactive)
ROOT
ATOM      1  C   UNL d   1       2.994  -1.820  -5.218  0.00  0.00     0.078 C 
ATOM      2  C1  UNL d   1       2.586  -1.686  -3.782  0.00  0.00    -0.077 A 
ATOM      3  C2  UNL d   1       2.641  -2.781  -2.911  0.00  0.00    -0.001 A 
ATOM      4  C3  UNL d   1       2.249  -2.645  -1.579  0.00  0.00     0.003 A 
ATOM      5  C4  UNL d   1       1.799  -1.414  -1.105  0.00  0.00    -0.005 A 
ATOM      6  C5  UNL d   1       1.739  -0.319  -1.964  0.00  0.00     0.003 A 
ATOM      7  C6  UNL d   1       2.130  -0.453  -3.296  0.00  0.00    -0.001 A 
ENDROOT
TORSDOF 0
ENDMDL
