MODEL 1
REMARK minimizedAffinity 12.4835453
REMARK minimizedRMSD -1
REMARK  0 active torsions:
REMARK  status: ('A' for Active; 'I' for Inactive)
ROOT
ATOM      1  C   UNL d   1      -3.165  -0.066   2.981  0.00  0.00     0.078 C 
ATOM      2  C1  UNL d   1      -3.767   0.996   3.852  0.00  0.00    -0.077 A 
ATOM      3  C2  UNL d   1      -3.401   1.117   5.198  0.00  0.00    -0.001 A 
ATOM      4  C3  UNL d   1      -3.976   2.104   6.000  0.00  0.00     0.003 A 
ATOM      5  C4  UNL d   1      -4.921   2.978   5.465  0.00  0.00    -0.005 A 
ATOM      6  C5  UNL d   1      -5.293   2.864   4.127  0.00  0.00     0.003 A 
ATOM      7  C6  UNL d   1      -4.719   1.877   3.324  0.00  0.00    -0.001 A 
ENDROOT
TORSDOF 0
ENDMDL
