MODEL 1
REMARK minimizedAffinity 1.64384186
REMARK minimizedRMSD -1
REMARK  1 active torsions:
REMARK  status: ('A' for Active; 'I' for Inactive)
REMARK    1  A    between atoms: N_2  and  C1_3 
ROOT
ATOM      1  C1  UNL d   1      -3.385   5.351  -5.876  0.00  0.00     0.143 A 
ATOM      2  C2  UNL d   1      -2.150   5.995  -6.000  0.00  0.00    -0.057 A 
ATOM      3  C3  UNL d   1      -0.949   5.314  -5.765  0.00  0.00     0.033 A 
ATOM      4  C4  UNL d   1      -0.965   3.979  -5.372  0.00  0.00    -0.042 A 
ATOM      5  C5  UNL d   1      -2.182   3.326  -5.218  0.00  0.00     0.033 A 
ATOM      6  C6  UNL d   1      -3.378   4.010  -5.461  0.00  0.00    -0.057 A 
ENDROOT
BRANCH   1   7
ATOM      7  N   UNL d   1      -4.616   5.999  -6.000  0.00  0.00    -0.732 N 
ATOM      8  C   UNL d   1      -5.854   5.255  -5.907  0.00  0.00     0.284 C 
ATOM      9  H3  UNL d   1      -4.633   6.896  -5.519  0.00  0.00     0.395 HD
ENDBRANCH   1   7
TORSDOF 1
ENDMDL
