MODEL 1
REMARK minimizedAffinity -0.790503681
REMARK minimizedRMSD -1
REMARK  1 active torsions:
REMARK  status: ('A' for Active; 'I' for Inactive)
REMARK    1  A    between atoms: N_2  and  C1_3 
ROOT
ATOM      1  C1  UNL d   1      -1.656  -3.002  -1.369  0.00  0.00     0.143 A 
ATOM      2  C2  UNL d   1      -2.663  -2.158  -1.851  0.00  0.00    -0.057 A 
ATOM      3  C3  UNL d   1      -3.212  -1.150  -1.049  0.00  0.00     0.033 A 
ATOM      4  C4  UNL d   1      -2.782  -0.986   0.264  0.00  0.00    -0.042 A 
ATOM      5  C5  UNL d   1      -1.800  -1.829   0.772  0.00  0.00     0.033 A 
ATOM      6  C6  UNL d   1      -1.251  -2.830  -0.036  0.00  0.00    -0.057 A 
ENDROOT
BRANCH   1   7
ATOM      7  N   UNL d   1      -1.140  -4.085  -2.084  0.00  0.00    -0.732 N 
ATOM      8  C   UNL d   1      -1.098  -5.405  -1.493  0.00  0.00     0.284 C 
ATOM      9  H3  UNL d   1      -1.423  -4.076  -3.061  0.00  0.00     0.395 HD
ENDBRANCH   1   7
TORSDOF 1
ENDMDL
