MODEL 1
REMARK minimizedAffinity -1.40906489
REMARK minimizedRMSD -1
REMARK  1 active torsions:
REMARK  status: ('A' for Active; 'I' for Inactive)
REMARK    1  A    between atoms: N_2  and  C1_3 
ROOT
ATOM      1  C1  UNL d   1      -0.884  -3.492  -0.742  0.00  0.00     0.143 A 
ATOM      2  C2  UNL d   1       0.012  -4.558  -0.875  0.00  0.00    -0.057 A 
ATOM      3  C3  UNL d   1      -0.400  -5.793  -1.388  0.00  0.00     0.033 A 
ATOM      4  C4  UNL d   1      -1.727  -5.994  -1.752  0.00  0.00    -0.042 A 
ATOM      5  C5  UNL d   1      -2.641  -4.957  -1.605  0.00  0.00     0.033 A 
ATOM      6  C6  UNL d   1      -2.222  -3.723  -1.098  0.00  0.00    -0.057 A 
ENDROOT
BRANCH   1   7
ATOM      7  N   UNL d   1      -0.558  -2.271  -0.146  0.00  0.00    -0.732 N 
ATOM      8  C   UNL d   1       0.819  -1.830  -0.076  0.00  0.00     0.284 C 
ATOM      9  H3  UNL d   1      -1.219  -1.535  -0.383  0.00  0.00     0.395 HD
ENDBRANCH   1   7
TORSDOF 1
ENDMDL
