MODEL 1
REMARK minimizedAffinity 5.42362642
REMARK minimizedRMSD -1
REMARK  1 active torsions:
REMARK  status: ('A' for Active; 'I' for Inactive)
REMARK    1  A    between atoms: N_2  and  C1_3 
ROOT
ATOM      1  C1  UNL d   1       1.905   3.704   2.490  0.00  0.00     0.143 A 
ATOM      2  C2  UNL d   1       1.655   2.439   1.947  0.00  0.00    -0.057 A 
ATOM      3  C3  UNL d   1       2.698   1.630   1.481  0.00  0.00     0.033 A 
ATOM      4  C4  UNL d   1       4.012   2.085   1.524  0.00  0.00    -0.042 A 
ATOM      5  C5  UNL d   1       4.281   3.349   2.036  0.00  0.00     0.033 A 
ATOM      6  C6  UNL d   1       3.236   4.150   2.506  0.00  0.00    -0.057 A 
ENDROOT
BRANCH   1   7
ATOM      7  N   UNL d   1       0.902   4.595   2.880  0.00  0.00    -0.732 N 
ATOM      8  C   UNL d   1       0.534   4.729   4.273  0.00  0.00     0.284 C 
ATOM      9  H3  UNL d   1       0.950   5.478   2.376  0.00  0.00     0.395 HD
ENDBRANCH   1   7
TORSDOF 1
ENDMDL
