MODEL 1
REMARK minimizedAffinity 6.50428391
REMARK minimizedRMSD -1
REMARK  1 active torsions:
REMARK  status: ('A' for Active; 'I' for Inactive)
REMARK    1  A    between atoms: N_2  and  C1_3 
ROOT
ATOM      1  C1  UNL d   1       2.247   1.890   1.775  0.00  0.00     0.143 A 
ATOM      2  C2  UNL d   1       3.646   1.887   1.751  0.00  0.00    -0.057 A 
ATOM      3  C3  UNL d   1       4.386   2.832   2.472  0.00  0.00     0.033 A 
ATOM      4  C4  UNL d   1       3.738   3.816   3.210  0.00  0.00    -0.042 A 
ATOM      5  C5  UNL d   1       2.348   3.853   3.229  0.00  0.00     0.033 A 
ATOM      6  C6  UNL d   1       1.614   2.903   2.512  0.00  0.00    -0.057 A 
ENDROOT
BRANCH   1   7
ATOM      7  N   UNL d   1       1.454   1.039   1.001  0.00  0.00    -0.732 N 
ATOM      8  C   UNL d   1       2.047  -0.062   0.273  0.00  0.00     0.284 C 
ATOM      9  H3  UNL d   1       0.572   0.810   1.455  0.00  0.00     0.395 HD
ENDBRANCH   1   7
TORSDOF 1
ENDMDL
