MODEL 1
REMARK minimizedAffinity 8.68003082
REMARK minimizedRMSD -1
REMARK  1 active torsions:
REMARK  status: ('A' for Active; 'I' for Inactive)
REMARK    1  A    between atoms: N_2  and  C1_3 
ROOT
ATOM      1  C1  UNL d   1       2.481   2.260   1.496  0.00  0.00     0.143 A 
ATOM      2  C2  UNL d   1       2.067   3.567   1.772  0.00  0.00    -0.057 A 
ATOM      3  C3  UNL d   1       2.875   4.445   2.506  0.00  0.00     0.033 A 
ATOM      4  C4  UNL d   1       4.102   4.020   3.002  0.00  0.00    -0.042 A 
ATOM      5  C5  UNL d   1       4.523   2.717   2.761  0.00  0.00     0.033 A 
ATOM      6  C6  UNL d   1       3.715   1.847   2.022  0.00  0.00    -0.057 A 
ENDROOT
BRANCH   1   7
ATOM      7  N   UNL d   1       1.681   1.309   0.857  0.00  0.00    -0.732 N 
ATOM      8  C   UNL d   1       2.269   0.328  -0.030  0.00  0.00     0.284 C 
ATOM      9  H3  UNL d   1       0.958   0.937   1.467  0.00  0.00     0.395 HD
ENDBRANCH   1   7
TORSDOF 1
ENDMDL
