MODEL 1
REMARK minimizedAffinity 8.27189636
REMARK minimizedRMSD -1
REMARK  1 active torsions:
REMARK  status: ('A' for Active; 'I' for Inactive)
REMARK    1  A    between atoms: N_2  and  C1_3 
ROOT
ATOM      1  C1  UNL d   1       4.401   3.577   3.476  0.00  0.00     0.143 A 
ATOM      2  C2  UNL d   1       3.175   2.916   3.604  0.00  0.00    -0.057 A 
ATOM      3  C3  UNL d   1       2.234   2.923   2.566  0.00  0.00     0.033 A 
ATOM      4  C4  UNL d   1       2.493   3.618   1.389  0.00  0.00    -0.042 A 
ATOM      5  C5  UNL d   1       3.695   4.303   1.250  0.00  0.00     0.033 A 
ATOM      6  C6  UNL d   1       4.633   4.287   2.287  0.00  0.00    -0.057 A 
ENDROOT
BRANCH   1   7
ATOM      7  N   UNL d   1       5.335   3.689   4.508  0.00  0.00    -0.732 N 
ATOM      8  C   UNL d   1       5.345   4.852   5.371  0.00  0.00     0.284 C 
ATOM      9  H3  UNL d   1       5.483   2.809   4.996  0.00  0.00     0.395 HD
ENDBRANCH   1   7
TORSDOF 1
ENDMDL
