MODEL 1
REMARK minimizedAffinity 7.61576939
REMARK minimizedRMSD -1
REMARK  1 active torsions:
REMARK  status: ('A' for Active; 'I' for Inactive)
REMARK    1  A    between atoms: N_2  and  C1_3 
ROOT
ATOM      1  C1  UNL d   1       2.647   2.119   1.827  0.00  0.00     0.143 A 
ATOM      2  C2  UNL d   1       4.010   2.039   2.132  0.00  0.00    -0.057 A 
ATOM      3  C3  UNL d   1       4.725   3.164   2.561  0.00  0.00     0.033 A 
ATOM      4  C4  UNL d   1       4.094   4.399   2.665  0.00  0.00    -0.042 A 
ATOM      5  C5  UNL d   1       2.745   4.507   2.343  0.00  0.00     0.033 A 
ATOM      6  C6  UNL d   1       2.035   3.379   1.922  0.00  0.00    -0.057 A 
ENDROOT
BRANCH   1   7
ATOM      7  N   UNL d   1       1.904   1.059   1.301  0.00  0.00    -0.732 N 
ATOM      8  C   UNL d   1       2.448   0.228   0.249  0.00  0.00     0.284 C 
ATOM      9  H3  UNL d   1       1.401   0.543   2.020  0.00  0.00     0.395 HD
ENDBRANCH   1   7
TORSDOF 1
ENDMDL
