MODEL 1
REMARK minimizedAffinity 5.73983526
REMARK minimizedRMSD -1
REMARK  1 active torsions:
REMARK  status: ('A' for Active; 'I' for Inactive)
REMARK    1  A    between atoms: N_2  and  C1_3 
ROOT
ATOM      1  C1  UNL d   1       2.351   2.762   2.910  0.00  0.00     0.143 A 
ATOM      2  C2  UNL d   1       2.550   4.077   2.477  0.00  0.00    -0.057 A 
ATOM      3  C3  UNL d   1       2.037   5.164   3.197  0.00  0.00     0.033 A 
ATOM      4  C4  UNL d   1       1.290   4.951   4.350  0.00  0.00    -0.042 A 
ATOM      5  C5  UNL d   1       1.058   3.651   4.786  0.00  0.00     0.033 A 
ATOM      6  C6  UNL d   1       1.578   2.571   4.066  0.00  0.00    -0.057 A 
ENDROOT
BRANCH   1   7
ATOM      7  N   UNL d   1       2.750   1.636   2.186  0.00  0.00    -0.732 N 
ATOM      8  C   UNL d   1       2.344   1.464   0.808  0.00  0.00     0.284 C 
ATOM      9  H3  UNL d   1       3.717   1.379   2.370  0.00  0.00     0.395 HD
ENDBRANCH   1   7
TORSDOF 1
ENDMDL
