MODEL 1
REMARK minimizedAffinity 7.70858717
REMARK minimizedRMSD -1
REMARK  1 active torsions:
REMARK  status: ('A' for Active; 'I' for Inactive)
REMARK    1  A    between atoms: N_2  and  C1_3 
ROOT
ATOM      1  C1  UNL d   1      -1.682   1.396  -5.922  0.00  0.00     0.143 A 
ATOM      2  C2  UNL d   1      -1.537   2.787  -5.954  0.00  0.00    -0.057 A 
ATOM      3  C3  UNL d   1      -2.652   3.633  -5.977  0.00  0.00     0.033 A 
ATOM      4  C4  UNL d   1      -3.936   3.100  -5.997  0.00  0.00    -0.042 A 
ATOM      5  C5  UNL d   1      -4.105   1.720  -5.990  0.00  0.00     0.033 A 
ATOM      6  C6  UNL d   1      -2.987   0.880  -5.960  0.00  0.00    -0.057 A 
ENDROOT
BRANCH   1   7
ATOM      7  N   UNL d   1      -0.613   0.500  -5.998  0.00  0.00    -0.732 N 
ATOM      8  C   UNL d   1       0.733   0.930  -5.683  0.00  0.00     0.284 C 
ATOM      9  H3  UNL d   1      -0.850  -0.420  -5.635  0.00  0.00     0.395 HD
ENDBRANCH   1   7
TORSDOF 1
ENDMDL
