MODEL 1
REMARK minimizedAffinity 1.51324832
REMARK minimizedRMSD -1
REMARK  1 active torsions:
REMARK  status: ('A' for Active; 'I' for Inactive)
REMARK    1  A    between atoms: N_2  and  C1_3 
ROOT
ATOM      1  C1  UNL d   1       0.680  -3.912   0.103  0.00  0.00     0.143 A 
ATOM      2  C2  UNL d   1      -0.506  -3.227  -0.181  0.00  0.00    -0.057 A 
ATOM      3  C3  UNL d   1      -1.488  -3.786  -1.008  0.00  0.00     0.033 A 
ATOM      4  C4  UNL d   1      -1.287  -5.032  -1.592  0.00  0.00    -0.042 A 
ATOM      5  C5  UNL d   1      -0.105  -5.721  -1.344  0.00  0.00     0.033 A 
ATOM      6  C6  UNL d   1       0.869  -5.160  -0.511  0.00  0.00    -0.057 A 
ENDROOT
BRANCH   1   7
ATOM      7  N   UNL d   1       1.736  -3.368   0.838  0.00  0.00    -0.732 N 
ATOM      8  C   UNL d   1       2.507  -2.262   0.312  0.00  0.00     0.284 C 
ATOM      9  H3  UNL d   1       1.520  -3.290   1.829  0.00  0.00     0.395 HD
ENDBRANCH   1   7
TORSDOF 1
ENDMDL
