MODEL 1
REMARK minimizedAffinity 2.29888129
REMARK minimizedRMSD -1
REMARK  1 active torsions:
REMARK  status: ('A' for Active; 'I' for Inactive)
REMARK    1  A    between atoms: N_2  and  C1_3 
ROOT
ATOM      1  C1  UNL d   1       3.351   5.815   3.262  0.00  0.00     0.143 A 
ATOM      2  C2  UNL d   1       4.283   5.923   4.300  0.00  0.00    -0.057 A 
ATOM      3  C3  UNL d   1       3.875   6.000   5.637  0.00  0.00     0.033 A 
ATOM      4  C4  UNL d   1       2.522   5.999   5.959  0.00  0.00    -0.042 A 
ATOM      5  C5  UNL d   1       1.577   5.917   4.942  0.00  0.00     0.033 A 
ATOM      6  C6  UNL d   1       1.991   5.834   3.609  0.00  0.00    -0.057 A 
ENDROOT
BRANCH   1   7
ATOM      7  N   UNL d   1       3.691   5.834   1.907  0.00  0.00    -0.732 N 
ATOM      8  C   UNL d   1       2.671   6.000   0.894  0.00  0.00     0.284 C 
ATOM      9  H3  UNL d   1       4.544   6.358   1.728  0.00  0.00     0.395 HD
ENDBRANCH   1   7
TORSDOF 1
ENDMDL
