MODEL 1
REMARK minimizedAffinity 5.96013165
REMARK minimizedRMSD -1
REMARK  1 active torsions:
REMARK  status: ('A' for Active; 'I' for Inactive)
REMARK    1  A    between atoms: C1_2  and  C2_3 
ROOT
ATOM      1  C2  UNL d   1      -5.025   3.792  -4.112  0.00  0.00    -0.076 A 
ATOM      2  C3  UNL d   1      -5.884   3.553  -3.025  0.00  0.00     0.004 A 
ATOM      3  C4  UNL d   1      -6.000   4.474  -1.986  0.00  0.00    -0.003 A 
ATOM      4  C5  UNL d   1      -5.258   5.650  -2.016  0.00  0.00     0.000 A 
ATOM      5  C6  UNL d   1      -4.414   5.912  -3.095  0.00  0.00     0.000 A 
ATOM      6  C7  UNL d   1      -4.298   5.001  -4.159  0.00  0.00    -0.073 A 
ATOM      7  C8  UNL d   1      -3.368   5.332  -5.294  0.00  0.00     0.078 C 
ENDROOT
BRANCH   1   8
ATOM      8  C1  UNL d   1      -4.921   2.745  -5.197  0.00  0.00     0.053 C 
ATOM      9  C   UNL d   1      -5.988   1.668  -5.072  0.00  0.00     0.018 C 
ENDBRANCH   1   8
TORSDOF 1
ENDMDL
