MODEL 1
REMARK minimizedAffinity 4.2712822
REMARK minimizedRMSD -1
REMARK  1 active torsions:
REMARK  status: ('A' for Active; 'I' for Inactive)
REMARK    1  A    between atoms: C1_2  and  C2_3 
ROOT
ATOM      1  C2  UNL d   1      -5.074   3.708  -4.475  0.00  0.00    -0.076 A 
ATOM      2  C3  UNL d   1      -5.287   4.424  -5.665  0.00  0.00     0.004 A 
ATOM      3  C4  UNL d   1      -4.505   5.532  -5.986  0.00  0.00    -0.003 A 
ATOM      4  C5  UNL d   1      -3.496   5.942  -5.121  0.00  0.00     0.000 A 
ATOM      5  C6  UNL d   1      -3.259   5.233  -3.944  0.00  0.00     0.000 A 
ATOM      6  C7  UNL d   1      -4.028   4.103  -3.614  0.00  0.00    -0.073 A 
ATOM      7  C8  UNL d   1      -3.733   3.379  -2.328  0.00  0.00     0.078 C 
ENDROOT
BRANCH   1   8
ATOM      8  C1  UNL d   1      -5.972   2.530  -4.167  0.00  0.00     0.053 C 
ATOM      9  C   UNL d   1      -5.984   1.500  -5.285  0.00  0.00     0.018 C 
ENDBRANCH   1   8
TORSDOF 1
ENDMDL
