MODEL 1
REMARK minimizedAffinity 12.6365356
REMARK minimizedRMSD -1
REMARK  1 active torsions:
REMARK  status: ('A' for Active; 'I' for Inactive)
REMARK    1  A    between atoms: C1_2  and  C2_3 
ROOT
ATOM      1  C2  UNL d   1       1.536  -2.613  -0.888  0.00  0.00    -0.076 A 
ATOM      2  C3  UNL d   1       1.237  -3.946  -1.218  0.00  0.00     0.004 A 
ATOM      3  C4  UNL d   1       0.042  -4.277  -1.854  0.00  0.00    -0.003 A 
ATOM      4  C5  UNL d   1      -0.874  -3.280  -2.170  0.00  0.00     0.000 A 
ATOM      5  C6  UNL d   1      -0.586  -1.950  -1.866  0.00  0.00     0.000 A 
ATOM      6  C7  UNL d   1       0.621  -1.597  -1.240  0.00  0.00    -0.073 A 
ATOM      7  C8  UNL d   1       0.877  -0.148  -0.930  0.00  0.00     0.078 C 
ENDROOT
BRANCH   1   8
ATOM      8  C1  UNL d   1       2.836  -2.317  -0.175  0.00  0.00     0.053 C 
ATOM      9  C   UNL d   1       4.051  -2.536  -1.063  0.00  0.00     0.018 C 
ENDBRANCH   1   8
TORSDOF 1
ENDMDL
