MODEL 1
REMARK minimizedAffinity 3.74380589
REMARK minimizedRMSD -1
REMARK  1 active torsions:
REMARK  status: ('A' for Active; 'I' for Inactive)
REMARK    1  A    between atoms: C1_2  and  C2_3 
ROOT
ATOM      1  C2  UNL d   1      -1.062   4.341  -0.723  0.00  0.00    -0.076 A 
ATOM      2  C3  UNL d   1      -1.479   3.618   0.408  0.00  0.00     0.004 A 
ATOM      3  C4  UNL d   1      -0.561   2.922   1.192  0.00  0.00    -0.003 A 
ATOM      4  C5  UNL d   1       0.789   2.939   0.860  0.00  0.00     0.000 A 
ATOM      5  C6  UNL d   1       1.222   3.666  -0.249  0.00  0.00     0.000 A 
ATOM      6  C7  UNL d   1       0.312   4.386  -1.041  0.00  0.00    -0.073 A 
ATOM      7  C8  UNL d   1       0.834   5.148  -2.229  0.00  0.00     0.078 C 
ENDROOT
BRANCH   1   8
ATOM      8  C1  UNL d   1      -2.107   5.054  -1.553  0.00  0.00     0.053 C 
ATOM      9  C   UNL d   1      -3.169   4.108  -2.090  0.00  0.00     0.018 C 
ENDBRANCH   1   8
TORSDOF 1
ENDMDL
