MODEL 1
REMARK minimizedAffinity 12.1678391
REMARK minimizedRMSD -1
REMARK  1 active torsions:
REMARK  status: ('A' for Active; 'I' for Inactive)
REMARK    1  A    between atoms: C1_2  and  C2_3 
ROOT
ATOM      1  C2  UNL d   1      -4.750   3.067  -4.673  0.00  0.00    -0.076 A 
ATOM      2  C3  UNL d   1      -4.556   2.337  -5.859  0.00  0.00     0.004 A 
ATOM      3  C4  UNL d   1      -5.068   1.049  -5.999  0.00  0.00    -0.003 A 
ATOM      4  C5  UNL d   1      -5.783   0.469  -4.957  0.00  0.00     0.000 A 
ATOM      5  C6  UNL d   1      -6.000   1.185  -3.780  0.00  0.00     0.000 A 
ATOM      6  C7  UNL d   1      -5.504   2.492  -3.628  0.00  0.00    -0.073 A 
ATOM      7  C8  UNL d   1      -5.763   3.216  -2.335  0.00  0.00     0.078 C 
ENDROOT
BRANCH   1   8
ATOM      8  C1  UNL d   1      -4.148   4.450  -4.567  0.00  0.00     0.053 C 
ATOM      9  C   UNL d   1      -4.399   5.291  -5.809  0.00  0.00     0.018 C 
ENDBRANCH   1   8
TORSDOF 1
ENDMDL
