MODEL 1
REMARK minimizedAffinity 3.447016
REMARK minimizedRMSD -1
REMARK  1 active torsions:
REMARK  status: ('A' for Active; 'I' for Inactive)
REMARK    1  A    between atoms: C1_2  and  C2_3 
ROOT
ATOM      1  C2  UNL d   1      -0.389  -2.955  -1.662  0.00  0.00    -0.076 A 
ATOM      2  C3  UNL d   1      -0.303  -1.566  -1.465  0.00  0.00     0.004 A 
ATOM      3  C4  UNL d   1       0.722  -1.012  -0.700  0.00  0.00    -0.003 A 
ATOM      4  C5  UNL d   1       1.679  -1.839  -0.121  0.00  0.00     0.000 A 
ATOM      5  C6  UNL d   1       1.619  -3.217  -0.321  0.00  0.00     0.000 A 
ATOM      6  C7  UNL d   1       0.601  -3.790  -1.103  0.00  0.00    -0.073 A 
ATOM      7  C8  UNL d   1       0.582  -5.284  -1.281  0.00  0.00     0.078 C 
ENDROOT
BRANCH   1   8
ATOM      8  C1  UNL d   1      -1.539  -3.501  -2.478  0.00  0.00     0.053 C 
ATOM      9  C   UNL d   1      -1.252  -3.488  -3.972  0.00  0.00     0.018 C 
ENDBRANCH   1   8
TORSDOF 1
ENDMDL
