MODEL 1
REMARK minimizedAffinity 7.37594795
REMARK minimizedRMSD -1
REMARK  1 active torsions:
REMARK  status: ('A' for Active; 'I' for Inactive)
REMARK    1  A    between atoms: C1_2  and  C2_3 
ROOT
ATOM      1  C2  UNL d   1       0.517   2.739   1.353  0.00  0.00    -0.076 A 
ATOM      2  C3  UNL d   1       1.905   2.964   1.363  0.00  0.00     0.004 A 
ATOM      3  C4  UNL d   1       2.648   2.813   2.533  0.00  0.00    -0.003 A 
ATOM      4  C5  UNL d   1       2.015   2.435   3.712  0.00  0.00     0.000 A 
ATOM      5  C6  UNL d   1       0.642   2.192   3.717  0.00  0.00     0.000 A 
ATOM      6  C7  UNL d   1      -0.119   2.323   2.542  0.00  0.00    -0.073 A 
ATOM      7  C8  UNL d   1      -1.597   2.054   2.606  0.00  0.00     0.078 C 
ENDROOT
BRANCH   1   8
ATOM      8  C1  UNL d   1      -0.240   2.945   0.061  0.00  0.00     0.053 C 
ATOM      9  C   UNL d   1      -0.087   4.355  -0.487  0.00  0.00     0.018 C 
ENDBRANCH   1   8
TORSDOF 1
ENDMDL
