MODEL 1
REMARK minimizedAffinity 3.79699588
REMARK minimizedRMSD -1
REMARK  0 active torsions:
REMARK  status: ('A' for Active; 'I' for Inactive)
ROOT
ATOM      1  O1  BZF d   1       0.648  -3.704   1.299  0.00  0.00    -0.204 OA
ATOM      2  C2  BZF d   1       2.026  -3.718   1.394  0.00  0.00     0.174 A 
ATOM      3  C3  BZF d   1       2.472  -2.625   2.046  0.00  0.00    -0.012 A 
ATOM      4  C3A BZF d   1       1.293  -1.928   2.461  0.00  0.00    -0.107 A 
ATOM      5  C4  BZF d   1       1.083  -0.777   3.165  0.00  0.00     0.055 A 
ATOM      6  C5  BZF d   1      -0.190  -0.331   3.337  0.00  0.00    -0.016 A 
ATOM      7  C6  BZF d   1      -1.273  -1.008   2.815  0.00  0.00     0.022 A 
ATOM      8  C7  BZF d   1      -1.114  -2.157   2.114  0.00  0.00     0.029 A 
ATOM      9  C7A BZF d   1       0.168  -2.627   1.967  0.00  0.00     0.058 A 
ENDROOT
TORSDOF 0
ENDMDL
