MODEL 1
REMARK minimizedAffinity 11.3192282
REMARK minimizedRMSD -1
REMARK  0 active torsions:
REMARK  status: ('A' for Active; 'I' for Inactive)
ROOT
ATOM      1  O1  BZF d   1      -3.374  -2.615  -1.610  0.00  0.00    -0.204 OA
ATOM      2  C2  BZF d   1      -2.765  -1.511  -1.045  0.00  0.00     0.174 A 
ATOM      3  C3  BZF d   1      -3.251  -0.372  -1.577  0.00  0.00    -0.012 A 
ATOM      4  C3A BZF d   1      -4.290  -0.786  -2.469  0.00  0.00    -0.107 A 
ATOM      5  C4  BZF d   1      -5.156  -0.111  -3.281  0.00  0.00     0.055 A 
ATOM      6  C5  BZF d   1      -5.999  -0.816  -4.080  0.00  0.00    -0.016 A 
ATOM      7  C6  BZF d   1      -6.000  -2.195  -4.096  0.00  0.00     0.022 A 
ATOM      8  C7  BZF d   1      -5.163  -2.909  -3.305  0.00  0.00     0.029 A 
ATOM      9  C7A BZF d   1      -4.333  -2.200  -2.472  0.00  0.00     0.058 A 
ENDROOT
TORSDOF 0
ENDMDL
