MODEL 1
REMARK minimizedAffinity 12.4462681
REMARK minimizedRMSD -1
REMARK  0 active torsions:
REMARK  status: ('A' for Active; 'I' for Inactive)
ROOT
ATOM      1  O1  BZF d   1       5.313   0.244  -1.959  0.00  0.00    -0.204 OA
ATOM      2  C2  BZF d   1       5.403   0.141  -3.333  0.00  0.00     0.174 A 
ATOM      3  C3  BZF d   1       4.205   0.365  -3.910  0.00  0.00    -0.012 A 
ATOM      4  C3A BZF d   1       3.329   0.714  -2.834  0.00  0.00    -0.107 A 
ATOM      5  C4  BZF d   1       2.010   1.061  -2.772  0.00  0.00     0.055 A 
ATOM      6  C5  BZF d   1       1.438   1.270  -1.557  0.00  0.00    -0.016 A 
ATOM      7  C6  BZF d   1       2.153   1.135  -0.385  0.00  0.00     0.022 A 
ATOM      8  C7  BZF d   1       3.465   0.797  -0.396  0.00  0.00     0.029 A 
ATOM      9  C7A BZF d   1       4.054   0.618  -1.624  0.00  0.00     0.058 A 
ENDROOT
TORSDOF 0
ENDMDL
