MODEL 1
REMARK minimizedAffinity 14.9079571
REMARK minimizedRMSD -1
REMARK  0 active torsions:
REMARK  status: ('A' for Active; 'I' for Inactive)
ROOT
ATOM      1  O1  BZF d   1      -2.816  -2.049  -1.640  0.00  0.00    -0.204 OA
ATOM      2  C2  BZF d   1      -2.584  -0.892  -0.922  0.00  0.00     0.174 A 
ATOM      3  C3  BZF d   1      -3.371   0.111  -1.363  0.00  0.00    -0.012 A 
ATOM      4  C3A BZF d   1      -4.208  -0.479  -2.362  0.00  0.00    -0.107 A 
ATOM      5  C4  BZF d   1      -5.209   0.007  -3.154  0.00  0.00     0.055 A 
ATOM      6  C5  BZF d   1      -5.776  -0.812  -4.078  0.00  0.00    -0.016 A 
ATOM      7  C6  BZF d   1      -5.364  -2.119  -4.240  0.00  0.00     0.022 A 
ATOM      8  C7  BZF d   1      -4.379  -2.647  -3.474  0.00  0.00     0.029 A 
ATOM      9  C7A BZF d   1      -3.826  -1.831  -2.517  0.00  0.00     0.058 A 
ENDROOT
TORSDOF 0
ENDMDL
