MODEL 1
REMARK minimizedAffinity 5.55044079
REMARK minimizedRMSD -1
REMARK  0 active torsions:
REMARK  status: ('A' for Active; 'I' for Inactive)
ROOT
ATOM      1  O1  BZF d   1       3.422   3.429   4.092  0.00  0.00    -0.204 OA
ATOM      2  C2  BZF d   1       2.810   2.834   3.006  0.00  0.00     0.174 A 
ATOM      3  C3  BZF d   1       1.558   3.309   2.842  0.00  0.00    -0.012 A 
ATOM      4  C3A BZF d   1       1.409   4.327   3.836  0.00  0.00    -0.107 A 
ATOM      5  C4  BZF d   1       0.390   5.175   4.166  0.00  0.00     0.055 A 
ATOM      6  C5  BZF d   1       0.538   6.000   5.236  0.00  0.00    -0.016 A 
ATOM      7  C6  BZF d   1       1.687   6.000   6.000  0.00  0.00     0.022 A 
ATOM      8  C7  BZF d   1       2.727   5.180   5.708  0.00  0.00     0.029 A 
ATOM      9  C7A BZF d   1       2.593   4.369   4.608  0.00  0.00     0.058 A 
ENDROOT
TORSDOF 0
ENDMDL
