MODEL 1
REMARK minimizedAffinity 17.178978
REMARK minimizedRMSD -1
REMARK  0 active torsions:
REMARK  status: ('A' for Active; 'I' for Inactive)
ROOT
ATOM      1  O1  BZF d   1       0.285  -2.292   0.723  0.00  0.00    -0.204 OA
ATOM      2  C2  BZF d   1       0.866  -2.424   1.969  0.00  0.00     0.174 A 
ATOM      3  C3  BZF d   1       1.714  -1.404   2.212  0.00  0.00    -0.012 A 
ATOM      4  C3A BZF d   1       1.590  -0.535   1.083  0.00  0.00    -0.107 A 
ATOM      5  C4  BZF d   1       2.168   0.657   0.747  0.00  0.00     0.055 A 
ATOM      6  C5  BZF d   1       1.886   1.210  -0.462  0.00  0.00    -0.016 A 
ATOM      7  C6  BZF d   1       1.037   0.597  -1.360  0.00  0.00     0.022 A 
ATOM      8  C7  BZF d   1       0.437  -0.583  -1.070  0.00  0.00     0.029 A 
ATOM      9  C7A BZF d   1       0.693  -1.128   0.164  0.00  0.00     0.058 A 
ENDROOT
TORSDOF 0
ENDMDL
