MODEL 1
REMARK minimizedAffinity 10.6524897
REMARK minimizedRMSD -1
REMARK  3 active torsions:
REMARK  status: ('A' for Active; 'I' for Inactive)
REMARK    1  A    between atoms: C3'_2  and  C2'_3 
REMARK    2  A    between atoms: C2'_3  and  C1'_4 
REMARK    3  A    between atoms: C1'_4  and  C1_5 
ROOT
ATOM      1  C1  N4B d   1      -0.363   1.986  -0.475  0.00  0.00    -0.075 A 
ATOM      2  C2  N4B d   1      -0.849   2.540  -1.680  0.00  0.00     0.002 A 
ATOM      3  C3  N4B d   1      -0.127   2.401  -2.840  0.00  0.00     0.002 A 
ATOM      4  C4  N4B d   1       1.088   1.733  -2.816  0.00  0.00    -0.004 A 
ATOM      5  C5  N4B d   1       1.538   1.179  -1.653  0.00  0.00     0.002 A 
ATOM      6  C6  N4B d   1       0.821   1.307  -0.481  0.00  0.00     0.002 A 
ENDROOT
BRANCH   1   7
ATOM      7  C1' N4B d   1      -1.075   2.186   0.835  0.00  0.00     0.057 C 
BRANCH   7   8
ATOM      8  C2' N4B d   1      -0.051   2.520   1.916  0.00  0.00     0.009 C 
BRANCH   8   9
ATOM      9  C3' N4B d   1      -0.205   1.631   3.138  0.00  0.00     0.004 C 
ATOM     10  C4' N4B d   1       0.344   2.257   4.385  0.00  0.00     0.003 C 
ENDBRANCH   8   9
ENDBRANCH   7   8
ENDBRANCH   1   7
TORSDOF 3
ENDMDL
