MODEL 1
REMARK minimizedAffinity 17.5752373
REMARK minimizedRMSD -1
REMARK  3 active torsions:
REMARK  status: ('A' for Active; 'I' for Inactive)
REMARK    1  A    between atoms: C3'_2  and  C2'_3 
REMARK    2  A    between atoms: C2'_3  and  C1'_4 
REMARK    3  A    between atoms: C1'_4  and  C1_5 
ROOT
ATOM      1  C1  N4B d   1      -2.223   1.931   1.233  0.00  0.00    -0.075 A 
ATOM      2  C2  N4B d   1      -0.935   1.711   0.697  0.00  0.00     0.002 A 
ATOM      3  C3  N4B d   1       0.040   1.126   1.467  0.00  0.00     0.002 A 
ATOM      4  C4  N4B d   1      -0.244   0.770   2.777  0.00  0.00    -0.004 A 
ATOM      5  C5  N4B d   1      -1.497   0.961   3.280  0.00  0.00     0.002 A 
ATOM      6  C6  N4B d   1      -2.488   1.545   2.516  0.00  0.00     0.002 A 
ENDROOT
BRANCH   1   7
ATOM      7  C1' N4B d   1      -3.295   2.646   0.458  0.00  0.00     0.057 C 
BRANCH   7   8
ATOM      8  C2' N4B d   1      -4.113   3.508   1.414  0.00  0.00     0.009 C 
BRANCH   8   9
ATOM      9  C3' N4B d   1      -4.809   4.651   0.694  0.00  0.00     0.004 C 
ATOM     10  C4' N4B d   1      -5.557   5.555   1.627  0.00  0.00     0.003 C 
ENDBRANCH   8   9
ENDBRANCH   7   8
ENDBRANCH   1   7
TORSDOF 3
ENDMDL
