MODEL 1
REMARK minimizedAffinity 8.00303268
REMARK minimizedRMSD -1
REMARK  3 active torsions:
REMARK  status: ('A' for Active; 'I' for Inactive)
REMARK    1  A    between atoms: C3'_2  and  C2'_3 
REMARK    2  A    between atoms: C2'_3  and  C1'_4 
REMARK    3  A    between atoms: C1'_4  and  C1_5 
ROOT
ATOM      1  C1  N4B d   1      -3.567  -2.763   5.484  0.00  0.00    -0.075 A 
ATOM      2  C2  N4B d   1      -2.620  -1.745   5.734  0.00  0.00     0.002 A 
ATOM      3  C3  N4B d   1      -1.311  -1.918   5.355  0.00  0.00     0.002 A 
ATOM      4  C4  N4B d   1      -0.924  -3.102   4.746  0.00  0.00    -0.004 A 
ATOM      5  C5  N4B d   1      -1.850  -4.069   4.485  0.00  0.00     0.002 A 
ATOM      6  C6  N4B d   1      -3.169  -3.908   4.857  0.00  0.00     0.002 A 
ENDROOT
BRANCH   1   7
ATOM      7  C1' N4B d   1      -4.991  -2.656   5.957  0.00  0.00     0.057 C 
BRANCH   7   8
ATOM      8  C2' N4B d   1      -5.622  -4.046   5.966  0.00  0.00     0.009 C 
BRANCH   8   9
ATOM      9  C3' N4B d   1      -5.999  -4.508   4.569  0.00  0.00     0.004 C 
ATOM     10  C4' N4B d   1      -5.904  -5.996   4.405  0.00  0.00     0.003 C 
ENDBRANCH   8   9
ENDBRANCH   7   8
ENDBRANCH   1   7
TORSDOF 3
ENDMDL
