MODEL 1
REMARK minimizedAffinity 2.56426954
REMARK minimizedRMSD -1
REMARK  3 active torsions:
REMARK  status: ('A' for Active; 'I' for Inactive)
REMARK    1  A    between atoms: C3'_2  and  C2'_3 
REMARK    2  A    between atoms: C2'_3  and  C1'_4 
REMARK    3  A    between atoms: C1'_4  and  C1_5 
ROOT
ATOM      1  C1  N4B d   1      -2.641   3.407  -5.020  0.00  0.00    -0.075 A 
ATOM      2  C2  N4B d   1      -1.978   3.697  -3.807  0.00  0.00     0.002 A 
ATOM      3  C3  N4B d   1      -1.612   4.989  -3.517  0.00  0.00     0.002 A 
ATOM      4  C4  N4B d   1      -1.881   5.999  -4.428  0.00  0.00    -0.004 A 
ATOM      5  C5  N4B d   1      -2.545   5.715  -5.585  0.00  0.00     0.002 A 
ATOM      6  C6  N4B d   1      -2.921   4.422  -5.888  0.00  0.00     0.002 A 
ENDROOT
BRANCH   1   7
ATOM      7  C1' N4B d   1      -2.983   1.998  -5.420  0.00  0.00     0.057 C 
BRANCH   7   8
ATOM      8  C2' N4B d   1      -4.098   1.478  -4.518  0.00  0.00     0.009 C 
BRANCH   8   9
ATOM      9  C3' N4B d   1      -5.349   1.127  -5.305  0.00  0.00     0.004 C 
ATOM     10  C4' N4B d   1      -5.951   2.313  -5.998  0.00  0.00     0.003 C 
ENDBRANCH   8   9
ENDBRANCH   7   8
ENDBRANCH   1   7
TORSDOF 3
ENDMDL
