MODEL 1
REMARK minimizedAffinity 1.25825644
REMARK minimizedRMSD -1
REMARK  3 active torsions:
REMARK  status: ('A' for Active; 'I' for Inactive)
REMARK    1  A    between atoms: C3'_2  and  C2'_3 
REMARK    2  A    between atoms: C2'_3  and  C1'_4 
REMARK    3  A    between atoms: C1'_4  and  C1_5 
ROOT
ATOM      1  C1  N4B d   1      -4.037   3.898  -5.830  0.00  0.00    -0.075 A 
ATOM      2  C2  N4B d   1      -3.241   2.801  -5.436  0.00  0.00     0.002 A 
ATOM      3  C3  N4B d   1      -3.821   1.575  -5.216  0.00  0.00     0.002 A 
ATOM      4  C4  N4B d   1      -5.192   1.429  -5.365  0.00  0.00    -0.004 A 
ATOM      5  C5  N4B d   1      -5.950   2.488  -5.772  0.00  0.00     0.002 A 
ATOM      6  C6  N4B d   1      -5.380   3.724  -6.000  0.00  0.00     0.002 A 
ENDROOT
BRANCH   1   7
ATOM      7  C1' N4B d   1      -3.461   5.277  -5.999  0.00  0.00     0.057 C 
BRANCH   7   8
ATOM      8  C2' N4B d   1      -2.972   5.785  -4.646  0.00  0.00     0.009 C 
BRANCH   8   9
ATOM      9  C3' N4B d   1      -1.455   5.816  -4.565  0.00  0.00     0.004 C 
ATOM     10  C4' N4B d   1      -0.805   6.000  -5.904  0.00  0.00     0.003 C 
ENDBRANCH   8   9
ENDBRANCH   7   8
ENDBRANCH   1   7
TORSDOF 3
ENDMDL
