MODEL 1
REMARK minimizedAffinity 15.8120651
REMARK minimizedRMSD -1
REMARK  3 active torsions:
REMARK  status: ('A' for Active; 'I' for Inactive)
REMARK    1  A    between atoms: C3'_2  and  C2'_3 
REMARK    2  A    between atoms: C2'_3  and  C1'_4 
REMARK    3  A    between atoms: C1'_4  and  C1_5 
ROOT
ATOM      1  C1  N4B d   1      -1.963   2.125   0.698  0.00  0.00    -0.075 A 
ATOM      2  C2  N4B d   1      -0.617   2.040   0.281  0.00  0.00     0.002 A 
ATOM      3  C3  N4B d   1       0.297   1.355   1.045  0.00  0.00     0.002 A 
ATOM      4  C4  N4B d   1      -0.107   0.767   2.234  0.00  0.00    -0.004 A 
ATOM      5  C5  N4B d   1      -1.415   0.833   2.618  0.00  0.00     0.002 A 
ATOM      6  C6  N4B d   1      -2.344   1.514   1.858  0.00  0.00     0.002 A 
ENDROOT
BRANCH   1   7
ATOM      7  C1' N4B d   1      -2.979   2.935  -0.059  0.00  0.00     0.057 C 
BRANCH   7   8
ATOM      8  C2' N4B d   1      -3.129   4.300   0.606  0.00  0.00     0.009 C 
BRANCH   8   9
ATOM      9  C3' N4B d   1      -4.506   4.898   0.372  0.00  0.00     0.004 C 
ATOM     10  C4' N4B d   1      -5.012   5.671   1.553  0.00  0.00     0.003 C 
ENDBRANCH   8   9
ENDBRANCH   7   8
ENDBRANCH   1   7
TORSDOF 3
ENDMDL
