MODEL 1
REMARK minimizedAffinity 3.86622453
REMARK minimizedRMSD -1
REMARK  3 active torsions:
REMARK  status: ('A' for Active; 'I' for Inactive)
REMARK    1  A    between atoms: C3'_2  and  C2'_3 
REMARK    2  A    between atoms: C2'_3  and  C1'_4 
REMARK    3  A    between atoms: C1'_4  and  C1_5 
ROOT
ATOM      1  C1  N4B d   1      -3.708   2.872  -4.937  0.00  0.00    -0.075 A 
ATOM      2  C2  N4B d   1      -4.728   3.400  -5.760  0.00  0.00     0.002 A 
ATOM      3  C3  N4B d   1      -5.866   2.669  -5.998  0.00  0.00     0.002 A 
ATOM      4  C4  N4B d   1      -5.998   1.406  -5.442  0.00  0.00    -0.004 A 
ATOM      5  C5  N4B d   1      -5.020   0.913  -4.627  0.00  0.00     0.002 A 
ATOM      6  C6  N4B d   1      -3.873   1.639  -4.376  0.00  0.00     0.002 A 
ENDROOT
BRANCH   1   7
ATOM      7  C1' N4B d   1      -2.409   3.598  -4.718  0.00  0.00     0.057 C 
BRANCH   7   8
ATOM      8  C2' N4B d   1      -2.701   5.058  -4.387  0.00  0.00     0.009 C 
BRANCH   8   9
ATOM      9  C3' N4B d   1      -2.223   5.996  -5.482  0.00  0.00     0.004 C 
ATOM     10  C4' N4B d   1      -0.737   5.948  -5.679  0.00  0.00     0.003 C 
ENDBRANCH   8   9
ENDBRANCH   7   8
ENDBRANCH   1   7
TORSDOF 3
ENDMDL
