MODEL 1
REMARK minimizedAffinity 6.81203699
REMARK minimizedRMSD -1
REMARK  3 active torsions:
REMARK  status: ('A' for Active; 'I' for Inactive)
REMARK    1  A    between atoms: C3'_2  and  C2'_3 
REMARK    2  A    between atoms: C2'_3  and  C1'_4 
REMARK    3  A    between atoms: C1'_4  and  C1_5 
ROOT
ATOM      1  C1  N4B d   1      -4.342   3.445  -5.739  0.00  0.00    -0.075 A 
ATOM      2  C2  N4B d   1      -5.630   2.927  -5.997  0.00  0.00     0.002 A 
ATOM      3  C3  N4B d   1      -5.868   1.581  -5.862  0.00  0.00     0.002 A 
ATOM      4  C4  N4B d   1      -4.834   0.736  -5.490  0.00  0.00    -0.004 A 
ATOM      5  C5  N4B d   1      -3.599   1.248  -5.217  0.00  0.00     0.002 A 
ATOM      6  C6  N4B d   1      -3.347   2.599  -5.345  0.00  0.00     0.002 A 
ENDROOT
BRANCH   1   7
ATOM      7  C1' N4B d   1      -4.012   4.897  -5.956  0.00  0.00     0.057 C 
BRANCH   7   8
ATOM      8  C2' N4B d   1      -3.165   5.398  -4.789  0.00  0.00     0.009 C 
BRANCH   8   9
ATOM      9  C3' N4B d   1      -1.702   5.019  -4.945  0.00  0.00     0.004 C 
ATOM     10  C4' N4B d   1      -1.003   5.824  -5.999  0.00  0.00     0.003 C 
ENDBRANCH   8   9
ENDBRANCH   7   8
ENDBRANCH   1   7
TORSDOF 3
ENDMDL
