MODEL 1
REMARK minimizedAffinity 0.0837750211
REMARK minimizedRMSD -1
REMARK  3 active torsions:
REMARK  status: ('A' for Active; 'I' for Inactive)
REMARK    1  A    between atoms: C3'_2  and  C2'_3 
REMARK    2  A    between atoms: C2'_3  and  C1'_4 
REMARK    3  A    between atoms: C1'_4  and  C1_5 
ROOT
ATOM      1  C1  N4B d   1      -4.423   4.146  -5.446  0.00  0.00    -0.075 A 
ATOM      2  C2  N4B d   1      -3.550   3.175  -4.906  0.00  0.00     0.002 A 
ATOM      3  C3  N4B d   1      -3.926   1.855  -4.878  0.00  0.00     0.002 A 
ATOM      4  C4  N4B d   1      -5.170   1.485  -5.365  0.00  0.00    -0.004 A 
ATOM      5  C5  N4B d   1      -5.997   2.425  -5.908  0.00  0.00     0.002 A 
ATOM      6  C6  N4B d   1      -5.631   3.755  -5.947  0.00  0.00     0.002 A 
ENDROOT
BRANCH   1   7
ATOM      7  C1' N4B d   1      -4.092   5.613  -5.420  0.00  0.00     0.057 C 
BRANCH   7   8
ATOM      8  C2' N4B d   1      -3.303   5.926  -4.152  0.00  0.00     0.009 C 
BRANCH   8   9
ATOM      9  C3' N4B d   1      -1.804   5.881  -4.390  0.00  0.00     0.004 C 
ATOM     10  C4' N4B d   1      -1.442   6.000  -5.841  0.00  0.00     0.003 C 
ENDBRANCH   8   9
ENDBRANCH   7   8
ENDBRANCH   1   7
TORSDOF 3
ENDMDL
