MODEL 1
REMARK minimizedAffinity 6.98391199
REMARK minimizedRMSD -1
REMARK  3 active torsions:
REMARK  status: ('A' for Active; 'I' for Inactive)
REMARK    1  A    between atoms: C3'_2  and  C2'_3 
REMARK    2  A    between atoms: C2'_3  and  C1'_4 
REMARK    3  A    between atoms: C1'_4  and  C1_5 
ROOT
ATOM      1  C1  N4B d   1      -3.657  -2.577   5.625  0.00  0.00    -0.075 A 
ATOM      2  C2  N4B d   1      -3.093  -3.762   5.104  0.00  0.00     0.002 A 
ATOM      3  C3  N4B d   1      -1.761  -3.800   4.772  0.00  0.00     0.002 A 
ATOM      4  C4  N4B d   1      -0.981  -2.664   4.932  0.00  0.00    -0.004 A 
ATOM      5  C5  N4B d   1      -1.528  -1.531   5.460  0.00  0.00     0.002 A 
ATOM      6  C6  N4B d   1      -2.865  -1.480   5.802  0.00  0.00     0.002 A 
ENDROOT
BRANCH   1   7
ATOM      7  C1' N4B d   1      -5.127  -2.462   5.923  0.00  0.00     0.057 C 
BRANCH   7   8
ATOM      8  C2' N4B d   1      -5.734  -3.860   6.000  0.00  0.00     0.009 C 
BRANCH   8   9
ATOM      9  C3' N4B d   1      -5.857  -4.502   4.628  0.00  0.00     0.004 C 
ATOM     10  C4' N4B d   1      -5.989  -5.994   4.696  0.00  0.00     0.003 C 
ENDBRANCH   8   9
ENDBRANCH   7   8
ENDBRANCH   1   7
TORSDOF 3
ENDMDL
