MODEL 1
REMARK minimizedAffinity 2.37602711
REMARK minimizedRMSD -1
REMARK  3 active torsions:
REMARK  status: ('A' for Active; 'I' for Inactive)
REMARK    1  A    between atoms: C3'_2  and  C2'_3 
REMARK    2  A    between atoms: C2'_3  and  C1'_4 
REMARK    3  A    between atoms: C1'_4  and  C1_5 
ROOT
ATOM      1  C1  N4B d   1      -4.576   3.775  -5.842  0.00  0.00    -0.075 A 
ATOM      2  C2  N4B d   1      -3.473   2.975  -5.471  0.00  0.00     0.002 A 
ATOM      3  C3  N4B d   1      -3.640   1.629  -5.261  0.00  0.00     0.002 A 
ATOM      4  C4  N4B d   1      -4.900   1.065  -5.398  0.00  0.00    -0.004 A 
ATOM      5  C5  N4B d   1      -5.956   1.839  -5.782  0.00  0.00     0.002 A 
ATOM      6  C6  N4B d   1      -5.801   3.194  -6.000  0.00  0.00     0.002 A 
ENDROOT
BRANCH   1   7
ATOM      7  C1' N4B d   1      -4.459   5.266  -5.999  0.00  0.00     0.057 C 
BRANCH   7   8
ATOM      8  C2' N4B d   1      -3.038   5.697  -5.646  0.00  0.00     0.009 C 
BRANCH   8   9
ATOM      9  C3' N4B d   1      -2.720   5.458  -4.180  0.00  0.00     0.004 C 
ATOM     10  C4' N4B d   1      -1.549   4.543  -3.981  0.00  0.00     0.003 C 
ENDBRANCH   8   9
ENDBRANCH   7   8
ENDBRANCH   1   7
TORSDOF 3
ENDMDL
