MODEL 1
REMARK minimizedAffinity 12.1452341
REMARK minimizedRMSD -1
REMARK  3 active torsions:
REMARK  status: ('A' for Active; 'I' for Inactive)
REMARK    1  A    between atoms: C3'_2  and  C2'_3 
REMARK    2  A    between atoms: C2'_3  and  C1'_4 
REMARK    3  A    between atoms: C1'_4  and  C1_5 
ROOT
ATOM      1  C1  N4B d   1      -2.660   3.323  -4.873  0.00  0.00    -0.075 A 
ATOM      2  C2  N4B d   1      -3.419   4.217  -5.660  0.00  0.00     0.002 A 
ATOM      3  C3  N4B d   1      -4.720   3.917  -5.978  0.00  0.00     0.002 A 
ATOM      4  C4  N4B d   1      -5.276   2.724  -5.539  0.00  0.00    -0.004 A 
ATOM      5  C5  N4B d   1      -4.544   1.878  -4.758  0.00  0.00     0.002 A 
ATOM      6  C6  N4B d   1      -3.236   2.169  -4.427  0.00  0.00     0.002 A 
ENDROOT
BRANCH   1   7
ATOM      7  C1' N4B d   1      -1.206   3.567  -4.571  0.00  0.00     0.057 C 
BRANCH   7   8
ATOM      8  C2' N4B d   1      -0.990   5.058  -4.327  0.00  0.00     0.009 C 
BRANCH   8   9
ATOM      9  C3' N4B d   1      -2.282   5.847  -4.447  0.00  0.00     0.004 C 
ATOM     10  C4' N4B d   1      -3.010   5.970  -3.142  0.00  0.00     0.003 C 
ENDBRANCH   8   9
ENDBRANCH   7   8
ENDBRANCH   1   7
TORSDOF 3
ENDMDL
