MODEL 1
REMARK minimizedAffinity -0.308982283
REMARK minimizedRMSD -1
REMARK  0 active torsions:
REMARK  status: ('A' for Active; 'I' for Inactive)
ROOT
ATOM      1  C1  BNZ d   1      -1.700  -0.278   0.254  0.00  0.00     0.000 A 
ATOM      2  C2  BNZ d   1      -0.638  -0.247   1.117  0.00  0.00     0.000 A 
ATOM      3  C3  BNZ d   1      -0.081   0.942   1.500  0.00  0.00     0.000 A 
ATOM      4  C4  BNZ d   1      -0.561   2.094   0.989  0.00  0.00     0.000 A 
ATOM      5  C5  BNZ d   1      -1.625   2.079   0.110  0.00  0.00     0.000 A 
ATOM      6  C6  BNZ d   1      -2.208   0.883  -0.243  0.00  0.00     0.000 A 
ENDROOT
TORSDOF 0
ENDMDL
