MODEL 1
REMARK minimizedAffinity -1.39434946
REMARK minimizedRMSD -1
REMARK  0 active torsions:
REMARK  status: ('A' for Active; 'I' for Inactive)
ROOT
ATOM      1  C1  BNZ d   1       1.192   3.814   1.024  0.00  0.00     0.000 A 
ATOM      2  C2  BNZ d   1      -0.061   3.411   0.645  0.00  0.00     0.000 A 
ATOM      3  C3  BNZ d   1      -0.298   2.116   0.276  0.00  0.00     0.000 A 
ATOM      4  C4  BNZ d   1       0.724   1.237   0.247  0.00  0.00     0.000 A 
ATOM      5  C5  BNZ d   1       1.995   1.630   0.617  0.00  0.00     0.000 A 
ATOM      6  C6  BNZ d   1       2.222   2.925   1.025  0.00  0.00     0.000 A 
ENDROOT
TORSDOF 0
ENDMDL
