MODEL 1
REMARK minimizedAffinity -4.14198685
REMARK minimizedRMSD -1
REMARK  0 active torsions:
REMARK  status: ('A' for Active; 'I' for Inactive)
ROOT
ATOM      1  C1  BNZ d   1       0.169   0.735   0.920  0.00  0.00     0.000 A 
ATOM      2  C2  BNZ d   1      -0.627   1.837   0.756  0.00  0.00     0.000 A 
ATOM      3  C3  BNZ d   1      -1.584   1.871  -0.220  0.00  0.00     0.000 A 
ATOM      4  C4  BNZ d   1      -1.716   0.821  -1.056  0.00  0.00     0.000 A 
ATOM      5  C5  BNZ d   1      -0.914  -0.294  -0.909  0.00  0.00     0.000 A 
ATOM      6  C6  BNZ d   1       0.021  -0.340   0.099  0.00  0.00     0.000 A 
ENDROOT
TORSDOF 0
ENDMDL
