MODEL 1
REMARK minimizedAffinity -4.23587513
REMARK minimizedRMSD -1
REMARK  0 active torsions:
REMARK  status: ('A' for Active; 'I' for Inactive)
ROOT
ATOM      1  C1  BNZ d   1      -1.110   0.914   0.571  0.00  0.00     0.000 A 
ATOM      2  C2  BNZ d   1      -0.480   2.113   0.367  0.00  0.00     0.000 A 
ATOM      3  C3  BNZ d   1       0.849   2.162   0.053  0.00  0.00     0.000 A 
ATOM      4  C4  BNZ d   1       1.556   1.015  -0.018  0.00  0.00     0.000 A 
ATOM      5  C5  BNZ d   1       0.938  -0.201   0.195  0.00  0.00     0.000 A 
ATOM      6  C6  BNZ d   1      -0.409  -0.248   0.473  0.00  0.00     0.000 A 
ENDROOT
TORSDOF 0
ENDMDL
