MODEL 1
REMARK minimizedAffinity -5.32359171
REMARK minimizedRMSD -1
REMARK  0 active torsions:
REMARK  status: ('A' for Active; 'I' for Inactive)
ROOT
ATOM      1  C1  BNZ d   1       0.950   2.940   0.394  0.00  0.00     0.000 A 
ATOM      2  C2  BNZ d   1      -0.353   2.534   0.280  0.00  0.00     0.000 A 
ATOM      3  C3  BNZ d   1      -0.665   1.207   0.175  0.00  0.00     0.000 A 
ATOM      4  C4  BNZ d   1       0.326   0.293   0.143  0.00  0.00     0.000 A 
ATOM      5  C5  BNZ d   1       1.645   0.688   0.247  0.00  0.00     0.000 A 
ATOM      6  C6  BNZ d   1       1.953   2.021   0.392  0.00  0.00     0.000 A 
ENDROOT
TORSDOF 0
ENDMDL
