MODEL 1
REMARK minimizedAffinity -1.73565006
REMARK minimizedRMSD -1
REMARK  0 active torsions:
REMARK  status: ('A' for Active; 'I' for Inactive)
ROOT
ATOM      1  C1  BNZ d   1      -1.688  -0.937   0.209  0.00  0.00     0.000 A 
ATOM      2  C2  BNZ d   1      -0.792  -1.840  -0.299  0.00  0.00     0.000 A 
ATOM      3  C3  BNZ d   1       0.547  -1.566  -0.310  0.00  0.00     0.000 A 
ATOM      4  C4  BNZ d   1       0.985  -0.376   0.149  0.00  0.00     0.000 A 
ATOM      5  C5  BNZ d   1       0.094   0.548   0.655  0.00  0.00     0.000 A 
ATOM      6  C6  BNZ d   1      -1.250   0.254   0.701  0.00  0.00     0.000 A 
ENDROOT
TORSDOF 0
ENDMDL
