MODEL 1
REMARK minimizedAffinity 0.12260247
REMARK minimizedRMSD -1
REMARK  0 active torsions:
REMARK  status: ('A' for Active; 'I' for Inactive)
ROOT
ATOM      1  C1  BNZ d   1      -0.282  -1.557  -0.293  0.00  0.00     0.000 A 
ATOM      2  C2  BNZ d   1      -1.255  -2.521  -0.303  0.00  0.00     0.000 A 
ATOM      3  C3  BNZ d   1      -1.298  -3.462  -1.293  0.00  0.00     0.000 A 
ATOM      4  C4  BNZ d   1      -0.393  -3.415  -2.292  0.00  0.00     0.000 A 
ATOM      5  C5  BNZ d   1       0.588  -2.444  -2.302  0.00  0.00     0.000 A 
ATOM      6  C6  BNZ d   1       0.652  -1.522  -1.283  0.00  0.00     0.000 A 
ENDROOT
TORSDOF 0
ENDMDL
