MODEL 1
REMARK minimizedAffinity -2.73669958
REMARK minimizedRMSD -1
REMARK  0 active torsions:
REMARK  status: ('A' for Active; 'I' for Inactive)
ROOT
ATOM      1  C1  BNZ d   1      -1.587   0.580  -0.019  0.00  0.00     0.000 A 
ATOM      2  C2  BNZ d   1      -1.471  -0.599  -0.706  0.00  0.00     0.000 A 
ATOM      3  C3  BNZ d   1      -0.307  -1.316  -0.676  0.00  0.00     0.000 A 
ATOM      4  C4  BNZ d   1       0.751  -0.833   0.007  0.00  0.00     0.000 A 
ATOM      5  C5  BNZ d   1       0.652   0.359   0.697  0.00  0.00     0.000 A 
ATOM      6  C6  BNZ d   1      -0.533   1.058   0.697  0.00  0.00     0.000 A 
ENDROOT
TORSDOF 0
ENDMDL
