MODEL 1
REMARK minimizedAffinity -3.90799308
REMARK minimizedRMSD -1
REMARK  0 active torsions:
REMARK  status: ('A' for Active; 'I' for Inactive)
ROOT
ATOM      1  C1  BNZ d   1       0.864   3.302   0.057  0.00  0.00     0.000 A 
ATOM      2  C2  BNZ d   1       0.570   2.071  -0.466  0.00  0.00     0.000 A 
ATOM      3  C3  BNZ d   1       1.498   1.068  -0.460  0.00  0.00     0.000 A 
ATOM      4  C4  BNZ d   1       2.731   1.308   0.031  0.00  0.00     0.000 A 
ATOM      5  C5  BNZ d   1       3.046   2.547   0.554  0.00  0.00     0.000 A 
ATOM      6  C6  BNZ d   1       2.097   3.542   0.582  0.00  0.00     0.000 A 
ENDROOT
TORSDOF 0
ENDMDL
