MODEL 1
REMARK minimizedAffinity -5.04509735
REMARK minimizedRMSD -1
REMARK  0 active torsions:
REMARK  status: ('A' for Active; 'I' for Inactive)
ROOT
ATOM      1  C1  BNZ d   1       0.856   0.957  -0.596  0.00  0.00     0.000 A 
ATOM      2  C2  BNZ d   1       1.239   2.258  -0.406  0.00  0.00     0.000 A 
ATOM      3  C3  BNZ d   1       0.447   3.126   0.293  0.00  0.00     0.000 A 
ATOM      4  C4  BNZ d   1      -0.744   2.703   0.765  0.00  0.00     0.000 A 
ATOM      5  C5  BNZ d   1      -1.148   1.397   0.574  0.00  0.00     0.000 A 
ATOM      6  C6  BNZ d   1      -0.331   0.516  -0.096  0.00  0.00     0.000 A 
ENDROOT
TORSDOF 0
ENDMDL
