MODEL 1
REMARK minimizedAffinity -4.76969051
REMARK minimizedRMSD -1
REMARK  0 active torsions:
REMARK  status: ('A' for Active; 'I' for Inactive)
ROOT
ATOM      1  C1  BNZ d   1       0.113   1.152  -0.167  0.00  0.00     0.000 A 
ATOM      2  C2  BNZ d   1       1.200   0.332  -0.310  0.00  0.00     0.000 A 
ATOM      3  C3  BNZ d   1       2.436   0.727   0.122  0.00  0.00     0.000 A 
ATOM      4  C4  BNZ d   1       2.590   1.955   0.658  0.00  0.00     0.000 A 
ATOM      5  C5  BNZ d   1       1.505   2.797   0.800  0.00  0.00     0.000 A 
ATOM      6  C6  BNZ d   1       0.256   2.381   0.401  0.00  0.00     0.000 A 
ENDROOT
TORSDOF 0
ENDMDL
