MODEL 1
REMARK minimizedAffinity -3.31062078
REMARK minimizedRMSD -1
REMARK  0 active torsions:
REMARK  status: ('A' for Active; 'I' for Inactive)
ROOT
ATOM      1  C1  BNZ d   1      -0.967   2.177   0.980  0.00  0.00     0.000 A 
ATOM      2  C2  BNZ d   1      -1.343   0.860   0.969  0.00  0.00     0.000 A 
ATOM      3  C3  BNZ d   1      -0.615  -0.071   0.281  0.00  0.00     0.000 A 
ATOM      4  C4  BNZ d   1       0.463   0.323  -0.428  0.00  0.00     0.000 A 
ATOM      5  C5  BNZ d   1       0.849   1.648  -0.435  0.00  0.00     0.000 A 
ATOM      6  C6  BNZ d   1       0.136   2.576   0.291  0.00  0.00     0.000 A 
ENDROOT
TORSDOF 0
ENDMDL
