MODEL 1
REMARK minimizedAffinity -4.25333309
REMARK minimizedRMSD -1
REMARK  0 active torsions:
REMARK  status: ('A' for Active; 'I' for Inactive)
ROOT
ATOM      1  C1  BNZ d   1       1.651   1.169   0.873  0.00  0.00     0.000 A 
ATOM      2  C2  BNZ d   1       0.694   2.148   0.884  0.00  0.00     0.000 A 
ATOM      3  C3  BNZ d   1      -0.635   1.829   0.850  0.00  0.00     0.000 A 
ATOM      4  C4  BNZ d   1      -1.003   0.534   0.765  0.00  0.00     0.000 A 
ATOM      5  C5  BNZ d   1      -0.050  -0.464   0.744  0.00  0.00     0.000 A 
ATOM      6  C6  BNZ d   1       1.286  -0.141   0.818  0.00  0.00     0.000 A 
ENDROOT
TORSDOF 0
ENDMDL
