MODEL 1
REMARK minimizedAffinity 0.146375775
REMARK minimizedRMSD -1
REMARK  0 active torsions:
REMARK  status: ('A' for Active; 'I' for Inactive)
ROOT
ATOM      1  C1  BNZ d   1      -1.454   1.423   1.217  0.00  0.00     0.000 A 
ATOM      2  C2  BNZ d   1      -0.240   0.793   1.289  0.00  0.00     0.000 A 
ATOM      3  C3  BNZ d   1       0.032  -0.294   0.507  0.00  0.00     0.000 A 
ATOM      4  C4  BNZ d   1      -0.922  -0.775  -0.315  0.00  0.00     0.000 A 
ATOM      5  C5  BNZ d   1      -2.155  -0.158  -0.392  0.00  0.00     0.000 A 
ATOM      6  C6  BNZ d   1      -2.411   0.961   0.368  0.00  0.00     0.000 A 
ENDROOT
TORSDOF 0
ENDMDL
