MODEL 1
REMARK minimizedAffinity -5.17126894
REMARK minimizedRMSD -1
REMARK  0 active torsions:
REMARK  status: ('A' for Active; 'I' for Inactive)
ROOT
ATOM      1  C1  BNZ d   1       2.175   2.414   0.495  0.00  0.00     0.000 A 
ATOM      2  C2  BNZ d   1       1.156   3.328   0.451  0.00  0.00     0.000 A 
ATOM      3  C3  BNZ d   1      -0.144   2.922   0.340  0.00  0.00     0.000 A 
ATOM      4  C4  BNZ d   1      -0.421   1.606   0.232  0.00  0.00     0.000 A 
ATOM      5  C5  BNZ d   1       0.596   0.673   0.266  0.00  0.00     0.000 A 
ATOM      6  C6  BNZ d   1       1.901   1.084   0.417  0.00  0.00     0.000 A 
ENDROOT
TORSDOF 0
ENDMDL
