MODEL 1
REMARK minimizedAffinity 1.43331289
REMARK minimizedRMSD -1
REMARK  0 active torsions:
REMARK  status: ('A' for Active; 'I' for Inactive)
ROOT
ATOM      1  C1  BNZ d   1      -5.238  -2.230   4.152  0.00  0.00     0.000 A 
ATOM      2  C2  BNZ d   1      -4.997  -1.049   4.801  0.00  0.00     0.000 A 
ATOM      3  C3  BNZ d   1      -4.382  -0.011   4.159  0.00  0.00     0.000 A 
ATOM      4  C4  BNZ d   1      -3.973  -0.169   2.883  0.00  0.00     0.000 A 
ATOM      5  C5  BNZ d   1      -4.201  -1.357   2.218  0.00  0.00     0.000 A 
ATOM      6  C6  BNZ d   1      -4.855  -2.386   2.855  0.00  0.00     0.000 A 
ENDROOT
TORSDOF 0
ENDMDL
