MODEL 1
REMARK minimizedAffinity 4.33103466
REMARK minimizedRMSD -1
REMARK  0 active torsions:
REMARK  status: ('A' for Active; 'I' for Inactive)
ROOT
ATOM      1  C1  BNZ d   1      -4.802  -0.619   2.543  0.00  0.00     0.000 A 
ATOM      2  C2  BNZ d   1      -5.353  -1.823   2.893  0.00  0.00     0.000 A 
ATOM      3  C3  BNZ d   1      -5.813  -2.040   4.162  0.00  0.00     0.000 A 
ATOM      4  C4  BNZ d   1      -5.685  -1.069   5.088  0.00  0.00     0.000 A 
ATOM      5  C5  BNZ d   1      -5.124   0.147   4.754  0.00  0.00     0.000 A 
ATOM      6  C6  BNZ d   1      -4.698   0.376   3.466  0.00  0.00     0.000 A 
ENDROOT
TORSDOF 0
ENDMDL
