MODEL 1
REMARK minimizedAffinity 6.24711514
REMARK minimizedRMSD -1
REMARK  0 active torsions:
REMARK  status: ('A' for Active; 'I' for Inactive)
ROOT
ATOM      1  C1  BNZ d   1      -5.258  -3.803   3.527  0.00  0.00     0.000 A 
ATOM      2  C2  BNZ d   1      -5.647  -5.092   3.777  0.00  0.00     0.000 A 
ATOM      3  C3  BNZ d   1      -5.998  -5.928   2.754  0.00  0.00     0.000 A 
ATOM      4  C4  BNZ d   1      -6.000  -5.462   1.488  0.00  0.00     0.000 A 
ATOM      5  C5  BNZ d   1      -5.620  -4.162   1.221  0.00  0.00     0.000 A 
ATOM      6  C6  BNZ d   1      -5.229  -3.336   2.250  0.00  0.00     0.000 A 
ENDROOT
TORSDOF 0
ENDMDL
