MODEL 1
REMARK minimizedAffinity -3.97502065
REMARK minimizedRMSD -1
REMARK  0 active torsions:
REMARK  status: ('A' for Active; 'I' for Inactive)
ROOT
ATOM      1  C1  BNZ d   1       3.293  -4.871   0.280  0.00  0.00     0.000 A 
ATOM      2  C2  BNZ d   1       4.296  -5.771   0.525  0.00  0.00     0.000 A 
ATOM      3  C3  BNZ d   1       5.449  -5.751  -0.210  0.00  0.00     0.000 A 
ATOM      4  C4  BNZ d   1       5.580  -4.860  -1.214  0.00  0.00     0.000 A 
ATOM      5  C5  BNZ d   1       4.574  -3.952  -1.479  0.00  0.00     0.000 A 
ATOM      6  C6  BNZ d   1       3.432  -3.949  -0.712  0.00  0.00     0.000 A 
ENDROOT
TORSDOF 0
ENDMDL
