MODEL 1
REMARK minimizedAffinity -1.95201647
REMARK minimizedRMSD -1
REMARK  0 active torsions:
REMARK  status: ('A' for Active; 'I' for Inactive)
ROOT
ATOM      1  C1  BNZ d   1       5.598   3.324  -0.731  0.00  0.00     0.000 A 
ATOM      2  C2  BNZ d   1       4.643   2.370  -0.957  0.00  0.00     0.000 A 
ATOM      3  C3  BNZ d   1       3.629   2.169  -0.062  0.00  0.00     0.000 A 
ATOM      4  C4  BNZ d   1       3.595   2.893   1.075  0.00  0.00     0.000 A 
ATOM      5  C5  BNZ d   1       4.557   3.853   1.321  0.00  0.00     0.000 A 
ATOM      6  C6  BNZ d   1       5.553   4.079   0.400  0.00  0.00     0.000 A 
ENDROOT
TORSDOF 0
ENDMDL
