MODEL 1
REMARK minimizedAffinity -2.98388314
REMARK minimizedRMSD -1
REMARK  0 active torsions:
REMARK  status: ('A' for Active; 'I' for Inactive)
ROOT
ATOM      1  C1  BNZ d   1       3.997  -4.023  -0.386  0.00  0.00     0.000 A 
ATOM      2  C2  BNZ d   1       2.919  -3.782   0.423  0.00  0.00     0.000 A 
ATOM      3  C3  BNZ d   1       1.933  -2.918   0.037  0.00  0.00     0.000 A 
ATOM      4  C4  BNZ d   1       2.045  -2.267  -1.139  0.00  0.00     0.000 A 
ATOM      5  C5  BNZ d   1       3.130  -2.492  -1.962  0.00  0.00     0.000 A 
ATOM      6  C6  BNZ d   1       4.102  -3.391  -1.587  0.00  0.00     0.000 A 
ENDROOT
TORSDOF 0
ENDMDL
