MODEL 1
REMARK minimizedAffinity -3.23734951
REMARK minimizedRMSD -1
REMARK  0 active torsions:
REMARK  status: ('A' for Active; 'I' for Inactive)
ROOT
ATOM      1  C1  BNZ d   1       3.627  -4.269  -0.734  0.00  0.00     0.000 A 
ATOM      2  C2  BNZ d   1       3.668  -3.252  -1.650  0.00  0.00     0.000 A 
ATOM      3  C3  BNZ d   1       4.853  -2.855  -2.204  0.00  0.00     0.000 A 
ATOM      4  C4  BNZ d   1       5.999  -3.448  -1.812  0.00  0.00     0.000 A 
ATOM      5  C5  BNZ d   1       5.976  -4.469  -0.882  0.00  0.00     0.000 A 
ATOM      6  C6  BNZ d   1       4.777  -4.892  -0.356  0.00  0.00     0.000 A 
ENDROOT
TORSDOF 0
ENDMDL
