MODEL 1
REMARK minimizedAffinity -2.54059982
REMARK minimizedRMSD -1
REMARK  0 active torsions:
REMARK  status: ('A' for Active; 'I' for Inactive)
ROOT
ATOM      1  C1  BNZ d   1       1.937  -1.810  -0.184  0.00  0.00     0.000 A 
ATOM      2  C2  BNZ d   1       0.981  -1.374   0.694  0.00  0.00     0.000 A 
ATOM      3  C3  BNZ d   1       0.258  -2.263   1.439  0.00  0.00     0.000 A 
ATOM      4  C4  BNZ d   1       0.463  -3.586   1.277  0.00  0.00     0.000 A 
ATOM      5  C5  BNZ d   1       1.417  -4.041   0.389  0.00  0.00     0.000 A 
ATOM      6  C6  BNZ d   1       2.170  -3.143  -0.332  0.00  0.00     0.000 A 
ENDROOT
TORSDOF 0
ENDMDL
