MODEL 1
REMARK minimizedAffinity 4.34207344
REMARK minimizedRMSD -1
REMARK  0 active torsions:
REMARK  status: ('A' for Active; 'I' for Inactive)
ROOT
ATOM      1  C1  BNZ d   1      -1.769  -0.582   2.018  0.00  0.00     0.000 A 
ATOM      2  C2  BNZ d   1      -0.418  -0.798   2.079  0.00  0.00     0.000 A 
ATOM      3  C3  BNZ d   1       0.133  -1.935   1.558  0.00  0.00     0.000 A 
ATOM      4  C4  BNZ d   1      -0.670  -2.873   1.015  0.00  0.00     0.000 A 
ATOM      5  C5  BNZ d   1      -2.035  -2.675   0.956  0.00  0.00     0.000 A 
ATOM      6  C6  BNZ d   1      -2.582  -1.511   1.445  0.00  0.00     0.000 A 
ENDROOT
TORSDOF 0
ENDMDL
