MODEL 1
REMARK minimizedAffinity -2.7405405
REMARK minimizedRMSD -1
REMARK  0 active torsions:
REMARK  status: ('A' for Active; 'I' for Inactive)
ROOT
ATOM      1  C1  BNZ d   1       2.513  -2.889  -0.752  0.00  0.00     0.000 A 
ATOM      2  C2  BNZ d   1       3.077  -1.764  -0.214  0.00  0.00     0.000 A 
ATOM      3  C3  BNZ d   1       4.380  -1.763   0.201  0.00  0.00     0.000 A 
ATOM      4  C4  BNZ d   1       5.103  -2.898   0.114  0.00  0.00     0.000 A 
ATOM      5  C5  BNZ d   1       4.546  -4.044  -0.418  0.00  0.00     0.000 A 
ATOM      6  C6  BNZ d   1       3.247  -4.029  -0.870  0.00  0.00     0.000 A 
ENDROOT
TORSDOF 0
ENDMDL
