MODEL 1
REMARK minimizedAffinity -1.83558869
REMARK minimizedRMSD -1
REMARK  0 active torsions:
REMARK  status: ('A' for Active; 'I' for Inactive)
ROOT
ATOM      1  C1  BNZ d   1      -1.124  -3.941  -6.000  0.00  0.00     0.000 A 
ATOM      2  C2  BNZ d   1      -2.173  -3.960  -5.119  0.00  0.00     0.000 A 
ATOM      3  C3  BNZ d   1      -2.314  -4.980  -4.221  0.00  0.00     0.000 A 
ATOM      4  C4  BNZ d   1      -1.431  -5.999  -4.230  0.00  0.00     0.000 A 
ATOM      5  C5  BNZ d   1      -0.373  -5.999  -5.117  0.00  0.00     0.000 A 
ATOM      6  C6  BNZ d   1      -0.212  -4.951  -5.995  0.00  0.00     0.000 A 
ENDROOT
TORSDOF 0
ENDMDL
