MODEL 1
REMARK minimizedAffinity 4.62588835
REMARK minimizedRMSD -1
REMARK  0 active torsions:
REMARK  status: ('A' for Active; 'I' for Inactive)
ROOT
ATOM      1  C1  BNZ d   1      -5.643  -4.837   3.191  0.00  0.00     0.000 A 
ATOM      2  C2  BNZ d   1      -5.282  -3.726   3.905  0.00  0.00     0.000 A 
ATOM      3  C3  BNZ d   1      -5.253  -3.751   5.271  0.00  0.00     0.000 A 
ATOM      4  C4  BNZ d   1      -5.624  -4.872   5.922  0.00  0.00     0.000 A 
ATOM      5  C5  BNZ d   1      -6.000  -5.998   5.217  0.00  0.00     0.000 A 
ATOM      6  C6  BNZ d   1      -5.990  -5.981   3.841  0.00  0.00     0.000 A 
ENDROOT
TORSDOF 0
ENDMDL
