MODEL 1
REMARK minimizedAffinity -1.96766949
REMARK minimizedRMSD -1
REMARK  0 active torsions:
REMARK  status: ('A' for Active; 'I' for Inactive)
ROOT
ATOM      1  C1  BNZ d   1       2.878  -4.583  -0.028  0.00  0.00     0.000 A 
ATOM      2  C2  BNZ d   1       1.620  -4.112   0.235  0.00  0.00     0.000 A 
ATOM      3  C3  BNZ d   1       1.405  -2.782   0.470  0.00  0.00     0.000 A 
ATOM      4  C4  BNZ d   1       2.453  -1.933   0.482  0.00  0.00     0.000 A 
ATOM      5  C5  BNZ d   1       3.729  -2.395   0.228  0.00  0.00     0.000 A 
ATOM      6  C6  BNZ d   1       3.936  -3.727  -0.046  0.00  0.00     0.000 A 
ENDROOT
TORSDOF 0
ENDMDL
