MODEL 1
REMARK minimizedAffinity 1.831177
REMARK minimizedRMSD -1
REMARK  0 active torsions:
REMARK  status: ('A' for Active; 'I' for Inactive)
ROOT
ATOM      1  C1  BNZ d   1       4.965   5.994   2.349  0.00  0.00     0.000 A 
ATOM      2  C2  BNZ d   1       5.995   5.988   1.446  0.00  0.00     0.000 A 
ATOM      3  C3  BNZ d   1       5.747   5.995   0.102  0.00  0.00     0.000 A 
ATOM      4  C4  BNZ d   1       4.473   5.967  -0.338  0.00  0.00     0.000 A 
ATOM      5  C5  BNZ d   1       3.424   5.964   0.560  0.00  0.00     0.000 A 
ATOM      6  C6  BNZ d   1       3.676   5.996   1.912  0.00  0.00     0.000 A 
ENDROOT
TORSDOF 0
ENDMDL
