MODEL 1
REMARK minimizedAffinity 8.4210043
REMARK minimizedRMSD -1
REMARK  0 active torsions:
REMARK  status: ('A' for Active; 'I' for Inactive)
ROOT
ATOM      1  C2' OXE d   1       2.702  -1.766   0.309  0.00  0.00     0.078 C 
ATOM      2  C1' OXE d   1       4.772  -0.715   1.888  0.00  0.00     0.078 C 
ATOM      3  C1  OXE d   1       3.775   0.252   1.301  0.00  0.00    -0.078 A 
ATOM      4  C2  OXE d   1       2.792  -0.266   0.491  0.00  0.00    -0.078 A 
ATOM      5  C3  OXE d   1       1.815   0.576  -0.031  0.00  0.00     0.003 A 
ATOM      6  C4  OXE d   1       1.911   1.963   0.133  0.00  0.00    -0.002 A 
ATOM      7  C5  OXE d   1       2.927   2.515   0.921  0.00  0.00    -0.002 A 
ATOM      8  C6  OXE d   1       3.840   1.672   1.546  0.00  0.00     0.003 A 
ENDROOT
TORSDOF 0
ENDMDL
