MODEL 1
REMARK minimizedAffinity 3.4037683
REMARK minimizedRMSD -1
REMARK  0 active torsions:
REMARK  status: ('A' for Active; 'I' for Inactive)
ROOT
ATOM      1  C2' OXE d   1       4.646  -0.020   0.722  0.00  0.00     0.078 C 
ATOM      2  C1' OXE d   1       2.706  -1.879  -0.090  0.00  0.00     0.078 C 
ATOM      3  C1  OXE d   1       2.331  -0.418  -0.106  0.00  0.00    -0.078 A 
ATOM      4  C2  OXE d   1       3.271   0.481   0.337  0.00  0.00    -0.078 A 
ATOM      5  C3  OXE d   1       2.996   1.845   0.290  0.00  0.00     0.003 A 
ATOM      6  C4  OXE d   1       1.718   2.299  -0.058  0.00  0.00    -0.002 A 
ATOM      7  C5  OXE d   1       0.733   1.397  -0.474  0.00  0.00    -0.002 A 
ATOM      8  C6  OXE d   1       1.036   0.042  -0.545  0.00  0.00     0.003 A 
ENDROOT
TORSDOF 0
ENDMDL
