MODEL 1
REMARK minimizedAffinity 4.24635839
REMARK minimizedRMSD -1
REMARK  0 active torsions:
REMARK  status: ('A' for Active; 'I' for Inactive)
ROOT
ATOM      1  C2' OXE d   1       2.687   3.374   0.364  0.00  0.00     0.078 C 
ATOM      2  C1' OXE d   1       0.774   1.681   1.526  0.00  0.00     0.078 C 
ATOM      3  C1  OXE d   1       1.943   1.041   0.820  0.00  0.00    -0.078 A 
ATOM      4  C2  OXE d   1       2.849   1.877   0.213  0.00  0.00    -0.078 A 
ATOM      5  C3  OXE d   1       3.975   1.341  -0.405  0.00  0.00     0.003 A 
ATOM      6  C4  OXE d   1       4.112  -0.045  -0.548  0.00  0.00    -0.002 A 
ATOM      7  C5  OXE d   1       3.179  -0.914   0.028  0.00  0.00    -0.002 A 
ATOM      8  C6  OXE d   1       2.114  -0.389   0.750  0.00  0.00     0.003 A 
ENDROOT
TORSDOF 0
ENDMDL
