MODEL 1
REMARK minimizedAffinity 6.24390841
REMARK minimizedRMSD -1
REMARK  0 active torsions:
REMARK  status: ('A' for Active; 'I' for Inactive)
ROOT
ATOM      1  C2' OXE d   1       0.610   1.798  -0.733  0.00  0.00     0.078 C 
ATOM      2  C1' OXE d   1       3.154   2.065   0.423  0.00  0.00     0.078 C 
ATOM      3  C1  OXE d   1       2.672   0.673   0.097  0.00  0.00    -0.078 A 
ATOM      4  C2  OXE d   1       1.407   0.548  -0.425  0.00  0.00    -0.078 A 
ATOM      5  C3  OXE d   1       0.934  -0.708  -0.794  0.00  0.00     0.003 A 
ATOM      6  C4  OXE d   1       1.673  -1.859  -0.496  0.00  0.00    -0.002 A 
ATOM      7  C5  OXE d   1       2.947  -1.757   0.072  0.00  0.00    -0.002 A 
ATOM      8  C6  OXE d   1       3.478  -0.499   0.335  0.00  0.00     0.003 A 
ENDROOT
TORSDOF 0
ENDMDL
