MODEL 1
REMARK minimizedAffinity 7.54933453
REMARK minimizedRMSD -1
REMARK  0 active torsions:
REMARK  status: ('A' for Active; 'I' for Inactive)
ROOT
ATOM      1  C2' OXE d   1       4.505   1.955  -0.178  0.00  0.00     0.078 C 
ATOM      2  C1' OXE d   1       2.010   2.632   0.915  0.00  0.00     0.078 C 
ATOM      3  C1  OXE d   1       2.256   1.186   0.567  0.00  0.00    -0.078 A 
ATOM      4  C2  OXE d   1       3.463   0.871  -0.011  0.00  0.00    -0.078 A 
ATOM      5  C3  OXE d   1       3.762  -0.457  -0.301  0.00  0.00     0.003 A 
ATOM      6  C4  OXE d   1       2.789  -1.452  -0.153  0.00  0.00    -0.002 A 
ATOM      7  C5  OXE d   1       1.539  -1.147   0.396  0.00  0.00    -0.002 A 
ATOM      8  C6  OXE d   1       1.273   0.157   0.800  0.00  0.00     0.003 A 
ENDROOT
TORSDOF 0
ENDMDL
