MODEL 1
REMARK minimizedAffinity 0.583704889
REMARK minimizedRMSD -1
REMARK  0 active torsions:
REMARK  status: ('A' for Active; 'I' for Inactive)
ROOT
ATOM      1  C2' OXE d   1       2.128  -2.210  -0.316  0.00  0.00     0.078 C 
ATOM      2  C1' OXE d   1       3.708  -1.486  -2.521  0.00  0.00     0.078 C 
ATOM      3  C1  OXE d   1       3.463  -0.444  -1.458  0.00  0.00    -0.078 A 
ATOM      4  C2  OXE d   1       2.651  -0.792  -0.406  0.00  0.00    -0.078 A 
ATOM      5  C3  OXE d   1       2.437   0.113   0.629  0.00  0.00     0.003 A 
ATOM      6  C4  OXE d   1       2.916   1.425   0.533  0.00  0.00    -0.002 A 
ATOM      7  C5  OXE d   1       3.712   1.813  -0.550  0.00  0.00    -0.002 A 
ATOM      8  C6  OXE d   1       4.030   0.880  -1.530  0.00  0.00     0.003 A 
ENDROOT
TORSDOF 0
ENDMDL
