MODEL 1
REMARK minimizedAffinity -0.74405688
REMARK minimizedRMSD -1
REMARK  0 active torsions:
REMARK  status: ('A' for Active; 'I' for Inactive)
ROOT
ATOM      1  C2' OXE d   1       4.004  -0.426   0.689  0.00  0.00     0.078 C 
ATOM      2  C1' OXE d   1       2.427  -2.015  -1.004  0.00  0.00     0.078 C 
ATOM      3  C1  OXE d   1       1.920  -0.637  -0.659  0.00  0.00    -0.078 A 
ATOM      4  C2  OXE d   1       2.676   0.116   0.207  0.00  0.00    -0.078 A 
ATOM      5  C3  OXE d   1       2.281   1.415   0.516  0.00  0.00     0.003 A 
ATOM      6  C4  OXE d   1       1.046   1.904   0.074  0.00  0.00    -0.002 A 
ATOM      7  C5  OXE d   1       0.242   1.139  -0.778  0.00  0.00    -0.002 A 
ATOM      8  C6  OXE d   1       0.684  -0.115  -1.187  0.00  0.00     0.003 A 
ENDROOT
TORSDOF 0
ENDMDL
