MODEL 1
REMARK minimizedAffinity 4.50900221
REMARK minimizedRMSD -1
REMARK  0 active torsions:
REMARK  status: ('A' for Active; 'I' for Inactive)
ROOT
ATOM      1  C2' OXE d   1      -1.040  -0.727  -0.413  0.00  0.00     0.078 C 
ATOM      2  C1' OXE d   1       1.100   1.089  -0.445  0.00  0.00     0.078 C 
ATOM      3  C1  OXE d   1       1.417  -0.374  -0.630  0.00  0.00    -0.078 A 
ATOM      4  C2  OXE d   1       0.369  -1.260  -0.566  0.00  0.00    -0.078 A 
ATOM      5  C3  OXE d   1       0.598  -2.616  -0.784  0.00  0.00     0.003 A 
ATOM      6  C4  OXE d   1       1.905  -3.101  -0.915  0.00  0.00    -0.002 A 
ATOM      7  C5  OXE d   1       2.990  -2.220  -0.943  0.00  0.00    -0.002 A 
ATOM      8  C6  OXE d   1       2.760  -0.852  -0.844  0.00  0.00     0.003 A 
ENDROOT
TORSDOF 0
ENDMDL
