MODEL 1
REMARK minimizedAffinity 2.61291647
REMARK minimizedRMSD -1
REMARK  0 active torsions:
REMARK  status: ('A' for Active; 'I' for Inactive)
ROOT
ATOM      1  C2' OXE d   1      -0.989   0.551  -1.628  0.00  0.00     0.078 C 
ATOM      2  C1' OXE d   1       1.480   0.878  -0.332  0.00  0.00     0.078 C 
ATOM      3  C1  OXE d   1       0.986  -0.529  -0.561  0.00  0.00    -0.078 A 
ATOM      4  C2  OXE d   1      -0.244  -0.678  -1.154  0.00  0.00    -0.078 A 
ATOM      5  C3  OXE d   1      -0.722  -1.954  -1.438  0.00  0.00     0.003 A 
ATOM      6  C4  OXE d   1      -0.032  -3.086  -0.987  0.00  0.00    -0.002 A 
ATOM      7  C5  OXE d   1       1.204  -2.955  -0.346  0.00  0.00    -0.002 A 
ATOM      8  C6  OXE d   1       1.746  -1.688  -0.163  0.00  0.00     0.003 A 
ENDROOT
TORSDOF 0
ENDMDL
