MODEL 1
REMARK minimizedAffinity 6.03556395
REMARK minimizedRMSD -1
REMARK  0 active torsions:
REMARK  status: ('A' for Active; 'I' for Inactive)
ROOT
ATOM      1  C   UNL d   1       1.497   6.000  -0.360  0.00  0.00     0.077 C 
ATOM      2  C1  UNL d   1       0.762   4.750   0.022  0.00  0.00    -0.074 A 
ATOM      3  C2  UNL d   1      -0.059   4.089  -0.898  0.00  0.00    -0.005 A 
ATOM      4  C3  UNL d   1      -0.729   2.922  -0.531  0.00  0.00     0.006 A 
ATOM      5  C4  UNL d   1      -0.584   2.404   0.757  0.00  0.00    -0.005 A 
ATOM      6  C5  UNL d   1       0.233   3.050   1.689  0.00  0.00    -0.074 A 
ATOM      7  C6  UNL d   1       0.408   2.501   3.074  0.00  0.00     0.077 C 
ATOM      8  C7  UNL d   1       0.908   4.219   1.311  0.00  0.00    -0.001 A 
ENDROOT
TORSDOF 0
ENDMDL
