MODEL 1
REMARK minimizedAffinity 10.1976891
REMARK minimizedRMSD -1
REMARK  0 active torsions:
REMARK  status: ('A' for Active; 'I' for Inactive)
ROOT
ATOM      1  C   UNL d   1      -2.295   6.000   1.878  0.00  0.00     0.077 C 
ATOM      2  C1  UNL d   1      -1.247   5.324   1.044  0.00  0.00    -0.074 A 
ATOM      3  C2  UNL d   1      -0.620   6.000  -0.007  0.00  0.00    -0.005 A 
ATOM      4  C3  UNL d   1       0.360   5.362  -0.768  0.00  0.00     0.006 A 
ATOM      5  C4  UNL d   1       0.721   4.044  -0.486  0.00  0.00    -0.005 A 
ATOM      6  C5  UNL d   1       0.105   3.353   0.562  0.00  0.00    -0.074 A 
ATOM      7  C6  UNL d   1       0.489   1.939   0.885  0.00  0.00     0.077 C 
ATOM      8  C7  UNL d   1      -0.873   4.003   1.327  0.00  0.00    -0.001 A 
ENDROOT
TORSDOF 0
ENDMDL
