MODEL 1
REMARK minimizedAffinity 9.03968716
REMARK minimizedRMSD -1
REMARK  0 active torsions:
REMARK  status: ('A' for Active; 'I' for Inactive)
ROOT
ATOM      1  C   UNL d   1       0.421   2.702   2.492  0.00  0.00     0.077 C 
ATOM      2  C1  UNL d   1       0.014   3.785   1.537  0.00  0.00    -0.074 A 
ATOM      3  C2  UNL d   1      -0.504   4.997   2.003  0.00  0.00    -0.005 A 
ATOM      4  C3  UNL d   1      -0.869   5.998   1.104  0.00  0.00     0.006 A 
ATOM      5  C4  UNL d   1      -0.720   5.798  -0.269  0.00  0.00    -0.005 A 
ATOM      6  C5  UNL d   1      -0.203   4.593  -0.754  0.00  0.00    -0.074 A 
ATOM      7  C6  UNL d   1      -0.027   4.365  -2.226  0.00  0.00     0.077 C 
ATOM      8  C7  UNL d   1       0.168   3.594   0.157  0.00  0.00    -0.001 A 
ENDROOT
TORSDOF 0
ENDMDL
