MODEL 1
REMARK minimizedAffinity 13.6329889
REMARK minimizedRMSD -1
REMARK  0 active torsions:
REMARK  status: ('A' for Active; 'I' for Inactive)
ROOT
ATOM      1  C   UNL d   1       0.015   2.103   3.135  0.00  0.00     0.077 C 
ATOM      2  C1  UNL d   1       0.067   2.675   1.750  0.00  0.00    -0.074 A 
ATOM      3  C2  UNL d   1       0.457   1.889   0.661  0.00  0.00    -0.005 A 
ATOM      4  C3  UNL d   1       0.491   2.433  -0.623  0.00  0.00     0.006 A 
ATOM      5  C4  UNL d   1       0.136   3.767  -0.831  0.00  0.00    -0.005 A 
ATOM      6  C5  UNL d   1      -0.258   4.568   0.245  0.00  0.00    -0.074 A 
ATOM      7  C6  UNL d   1      -0.653   6.000   0.038  0.00  0.00     0.077 C 
ATOM      8  C7  UNL d   1      -0.296   4.012   1.531  0.00  0.00    -0.001 A 
ENDROOT
TORSDOF 0
ENDMDL
