MODEL 1
REMARK minimizedAffinity 11.0569029
REMARK minimizedRMSD -1
REMARK  2 active torsions:
REMARK  status: ('A' for Active; 'I' for Inactive)
REMARK    1  A    between atoms: C2'_3  and  C1'_4 
REMARK    2  A    between atoms: C1'_4  and  C1_5 
ROOT
ATOM      1  C1  I4B d   1       4.023   4.436   5.272  0.00  0.00    -0.075 A 
ATOM      2  C2  I4B d   1       3.116   5.165   6.000  0.00  0.00     0.003 A 
ATOM      3  C3  I4B d   1       2.133   5.942   5.341  0.00  0.00     0.002 A 
ATOM      4  C4  I4B d   1       2.124   6.000   3.962  0.00  0.00    -0.004 A 
ATOM      5  C5  I4B d   1       3.029   5.242   3.226  0.00  0.00     0.002 A 
ATOM      6  C6  I4B d   1       3.977   4.445   3.884  0.00  0.00     0.003 A 
ENDROOT
BRANCH   1   7
ATOM      7  C1' I4B d   1       5.069   3.653   6.000  0.00  0.00     0.060 C 
BRANCH   7   8
ATOM      8  C2' I4B d   1       4.648   2.198   6.000  0.00  0.00    -0.013 C 
ATOM      9  C4' I4B d   1       3.148   2.065   5.991  0.00  0.00     0.013 C 
ATOM     10  C3' I4B d   1       5.257   1.540   4.798  0.00  0.00     0.013 C 
ENDBRANCH   7   8
ENDBRANCH   1   7
TORSDOF 2
ENDMDL
