MODEL 1
REMARK minimizedAffinity 3.29917359
REMARK minimizedRMSD -1
REMARK  2 active torsions:
REMARK  status: ('A' for Active; 'I' for Inactive)
REMARK    1  A    between atoms: C2'_3  and  C1'_4 
REMARK    2  A    between atoms: C1'_4  and  C1_5 
ROOT
ATOM      1  C1  I4B d   1       3.349  -0.999  -0.165  0.00  0.00    -0.075 A 
ATOM      2  C2  I4B d   1       4.675  -0.721  -0.382  0.00  0.00     0.003 A 
ATOM      3  C3  I4B d   1       5.136   0.617  -0.362  0.00  0.00     0.002 A 
ATOM      4  C4  I4B d   1       4.234   1.644  -0.173  0.00  0.00    -0.004 A 
ATOM      5  C5  I4B d   1       2.893   1.359   0.070  0.00  0.00     0.002 A 
ATOM      6  C6  I4B d   1       2.449   0.029   0.086  0.00  0.00     0.003 A 
ENDROOT
BRANCH   1   7
ATOM      7  C1' I4B d   1       2.891  -2.422  -0.226  0.00  0.00     0.060 C 
BRANCH   7   8
ATOM      8  C2' I4B d   1       2.129  -2.612  -1.522  0.00  0.00    -0.013 C 
ATOM      9  C4' I4B d   1       3.029  -3.127  -2.614  0.00  0.00     0.013 C 
ATOM     10  C3' I4B d   1       0.998  -3.561  -1.259  0.00  0.00     0.013 C 
ENDBRANCH   7   8
ENDBRANCH   1   7
TORSDOF 2
ENDMDL
