MODEL 1
REMARK minimizedAffinity 7.70977592
REMARK minimizedRMSD -1
REMARK  2 active torsions:
REMARK  status: ('A' for Active; 'I' for Inactive)
REMARK    1  A    between atoms: C2'_3  and  C1'_4 
REMARK    2  A    between atoms: C1'_4  and  C1_5 
ROOT
ATOM      1  C1  I4B d   1      -0.464  -4.298   6.000  0.00  0.00    -0.075 A 
ATOM      2  C2  I4B d   1       0.455  -3.279   5.998  0.00  0.00     0.003 A 
ATOM      3  C3  I4B d   1       0.024  -1.930   5.978  0.00  0.00     0.002 A 
ATOM      4  C4  I4B d   1      -1.325  -1.649   5.910  0.00  0.00    -0.004 A 
ATOM      5  C5  I4B d   1      -2.257  -2.684   5.934  0.00  0.00     0.002 A 
ATOM      6  C6  I4B d   1      -1.824  -4.016   5.992  0.00  0.00     0.003 A 
ENDROOT
BRANCH   1   7
ATOM      7  C1' I4B d   1       0.026  -5.711   5.988  0.00  0.00     0.060 C 
BRANCH   7   8
ATOM      8  C2' I4B d   1       0.587  -5.999   4.610  0.00  0.00    -0.013 C 
ATOM      9  C4' I4B d   1      -0.432  -5.718   3.537  0.00  0.00     0.013 C 
ATOM     10  C3' I4B d   1       1.814  -5.158   4.424  0.00  0.00     0.013 C 
ENDBRANCH   7   8
ENDBRANCH   1   7
TORSDOF 2
ENDMDL
