MODEL 1
REMARK minimizedAffinity 8.44686031
REMARK minimizedRMSD -1
REMARK  2 active torsions:
REMARK  status: ('A' for Active; 'I' for Inactive)
REMARK    1  A    between atoms: C2'_3  and  C1'_4 
REMARK    2  A    between atoms: C1'_4  and  C1_5 
ROOT
ATOM      1  C1  I4B d   1      -0.070   2.867   3.432  0.00  0.00    -0.075 A 
ATOM      2  C2  I4B d   1      -0.483   3.582   2.336  0.00  0.00     0.003 A 
ATOM      3  C3  I4B d   1      -0.535   2.966   1.062  0.00  0.00     0.002 A 
ATOM      4  C4  I4B d   1      -0.121   1.657   0.922  0.00  0.00    -0.004 A 
ATOM      5  C5  I4B d   1       0.276   0.927   2.039  0.00  0.00     0.002 A 
ATOM      6  C6  I4B d   1       0.290   1.532   3.304  0.00  0.00     0.003 A 
ENDROOT
BRANCH   1   7
ATOM      7  C1' I4B d   1       0.006   3.558   4.757  0.00  0.00     0.060 C 
BRANCH   7   8
ATOM      8  C2' I4B d   1       0.032   5.052   4.503  0.00  0.00    -0.013 C 
ATOM      9  C4' I4B d   1      -0.634   5.807   5.623  0.00  0.00     0.013 C 
ATOM     10  C3' I4B d   1       1.463   5.469   4.343  0.00  0.00     0.013 C 
ENDBRANCH   7   8
ENDBRANCH   1   7
TORSDOF 2
ENDMDL
