MODEL 1
REMARK minimizedAffinity 13.7241058
REMARK minimizedRMSD -1
REMARK  2 active torsions:
REMARK  status: ('A' for Active; 'I' for Inactive)
REMARK    1  A    between atoms: C2'_3  and  C1'_4 
REMARK    2  A    between atoms: C1'_4  and  C1_5 
ROOT
ATOM      1  C1  I4B d   1       2.592   4.499   5.398  0.00  0.00    -0.075 A 
ATOM      2  C2  I4B d   1       1.801   3.619   4.702  0.00  0.00     0.003 A 
ATOM      3  C3  I4B d   1       0.443   3.929   4.449  0.00  0.00     0.002 A 
ATOM      4  C4  I4B d   1      -0.092   5.098   4.949  0.00  0.00    -0.004 A 
ATOM      5  C5  I4B d   1       0.717   6.000   5.634  0.00  0.00     0.002 A 
ATOM      6  C6  I4B d   1       2.071   5.704   5.850  0.00  0.00     0.003 A 
ENDROOT
BRANCH   1   7
ATOM      7  C1' I4B d   1       4.014   4.124   5.676  0.00  0.00     0.060 C 
BRANCH   7   8
ATOM      8  C2' I4B d   1       4.871   4.685   4.560  0.00  0.00    -0.013 C 
ATOM      9  C4' I4B d   1       5.788   5.766   5.067  0.00  0.00     0.013 C 
ATOM     10  C3' I4B d   1       5.649   3.552   3.960  0.00  0.00     0.013 C 
ENDBRANCH   7   8
ENDBRANCH   1   7
TORSDOF 2
ENDMDL
