MODEL 1
REMARK minimizedAffinity -1.90665674
REMARK minimizedRMSD -1
REMARK  0 active torsions:
REMARK  status: ('A' for Active; 'I' for Inactive)
ROOT
ATOM      1  C1  BNZ d   1      -2.875   5.999  -3.296  0.00  0.00     0.000 A 
ATOM      2  C2  BNZ d   1      -4.126   5.894  -3.843  0.00  0.00     0.000 A 
ATOM      3  C3  BNZ d   1      -4.291   5.778  -5.195  0.00  0.00     0.000 A 
ATOM      4  C4  BNZ d   1      -3.210   5.808  -6.000  0.00  0.00     0.000 A 
ATOM      5  C5  BNZ d   1      -1.942   5.923  -5.464  0.00  0.00     0.000 A 
ATOM      6  C6  BNZ d   1      -1.777   6.000  -4.100  0.00  0.00     0.000 A 
ENDROOT
TORSDOF 0
ENDMDL
