MODEL 1
REMARK minimizedAffinity 0.815980971
REMARK minimizedRMSD -1
REMARK  0 active torsions:
REMARK  status: ('A' for Active; 'I' for Inactive)
ROOT
ATOM      1  C1  BNZ d   1      -3.575   0.087   4.226  0.00  0.00     0.000 A 
ATOM      2  C2  BNZ d   1      -4.456  -0.939   4.438  0.00  0.00     0.000 A 
ATOM      3  C3  BNZ d   1      -4.735  -1.839   3.447  0.00  0.00     0.000 A 
ATOM      4  C4  BNZ d   1      -4.164  -1.687   2.234  0.00  0.00     0.000 A 
ATOM      5  C5  BNZ d   1      -3.281  -0.651   2.002  0.00  0.00     0.000 A 
ATOM      6  C6  BNZ d   1      -2.973   0.229   3.014  0.00  0.00     0.000 A 
ENDROOT
TORSDOF 0
ENDMDL
