MODEL 1
REMARK minimizedAffinity 0.83386904
REMARK minimizedRMSD -1
REMARK  0 active torsions:
REMARK  status: ('A' for Active; 'I' for Inactive)
ROOT
ATOM      1  C1  BNZ d   1      -5.233  -1.102   5.125  0.00  0.00     0.000 A 
ATOM      2  C2  BNZ d   1      -5.511  -2.086   4.214  0.00  0.00     0.000 A 
ATOM      3  C3  BNZ d   1      -5.031  -2.014   2.936  0.00  0.00     0.000 A 
ATOM      4  C4  BNZ d   1      -4.307  -0.940   2.560  0.00  0.00     0.000 A 
ATOM      5  C5  BNZ d   1      -4.026   0.065   3.464  0.00  0.00     0.000 A 
ATOM      6  C6  BNZ d   1      -4.478  -0.030   4.760  0.00  0.00     0.000 A 
ENDROOT
TORSDOF 0
ENDMDL
