MODEL 1
REMARK minimizedAffinity 9.43085289
REMARK minimizedRMSD -1
REMARK  0 active torsions:
REMARK  status: ('A' for Active; 'I' for Inactive)
ROOT
ATOM      1  C1  BNZ d   1      -5.989   0.324  -3.263  0.00  0.00     0.000 A 
ATOM      2  C2  BNZ d   1      -5.807   1.478  -2.548  0.00  0.00     0.000 A 
ATOM      3  C3  BNZ d   1      -5.623   1.441  -1.194  0.00  0.00     0.000 A 
ATOM      4  C4  BNZ d   1      -5.662   0.255  -0.552  0.00  0.00     0.000 A 
ATOM      5  C5  BNZ d   1      -5.854  -0.916  -1.258  0.00  0.00     0.000 A 
ATOM      6  C6  BNZ d   1      -5.999  -0.878  -2.626  0.00  0.00     0.000 A 
ENDROOT
TORSDOF 0
ENDMDL
