MODEL 1
REMARK minimizedAffinity 6.37610674
REMARK minimizedRMSD -1
REMARK  0 active torsions:
REMARK  status: ('A' for Active; 'I' for Inactive)
ROOT
ATOM      1  C1  BNZ d   1       3.975  -6.000  -0.520  0.00  0.00     0.000 A 
ATOM      2  C2  BNZ d   1       3.293  -4.836  -0.754  0.00  0.00     0.000 A 
ATOM      3  C3  BNZ d   1       3.958  -3.649  -0.885  0.00  0.00     0.000 A 
ATOM      4  C4  BNZ d   1       5.298  -3.621  -0.742  0.00  0.00     0.000 A 
ATOM      5  C5  BNZ d   1       6.000  -4.784  -0.496  0.00  0.00     0.000 A 
ATOM      6  C6  BNZ d   1       5.331  -5.983  -0.404  0.00  0.00     0.000 A 
ENDROOT
TORSDOF 0
ENDMDL
