MODEL 1
REMARK minimizedAffinity 9.99689579
REMARK minimizedRMSD -1
REMARK  0 active torsions:
REMARK  status: ('A' for Active; 'I' for Inactive)
ROOT
ATOM      1  C1  BNZ d   1      -2.641   1.137   5.246  0.00  0.00     0.000 A 
ATOM      2  C2  BNZ d   1      -3.262   1.379   4.049  0.00  0.00     0.000 A 
ATOM      3  C3  BNZ d   1      -2.813   0.794   2.898  0.00  0.00     0.000 A 
ATOM      4  C4  BNZ d   1      -1.723   0.002   2.938  0.00  0.00     0.000 A 
ATOM      5  C5  BNZ d   1      -1.081  -0.244   4.135  0.00  0.00     0.000 A 
ATOM      6  C6  BNZ d   1      -1.559   0.315   5.299  0.00  0.00     0.000 A 
ENDROOT
TORSDOF 0
ENDMDL
