MODEL 1
REMARK minimizedAffinity 8.98278522
REMARK minimizedRMSD -1
REMARK  0 active torsions:
REMARK  status: ('A' for Active; 'I' for Inactive)
ROOT
ATOM      1  C1  BNZ d   1       6.000   3.710   0.372  0.00  0.00     0.000 A 
ATOM      2  C2  BNZ d   1       5.242   2.873  -0.403  0.00  0.00     0.000 A 
ATOM      3  C3  BNZ d   1       4.470   1.900   0.167  0.00  0.00     0.000 A 
ATOM      4  C4  BNZ d   1       4.487   1.739   1.505  0.00  0.00     0.000 A 
ATOM      5  C5  BNZ d   1       5.253   2.568   2.300  0.00  0.00     0.000 A 
ATOM      6  C6  BNZ d   1       5.999   3.572   1.726  0.00  0.00     0.000 A 
ENDROOT
TORSDOF 0
ENDMDL
