MODEL 1
REMARK minimizedAffinity 6.30378866
REMARK minimizedRMSD -1
REMARK  0 active torsions:
REMARK  status: ('A' for Active; 'I' for Inactive)
ROOT
ATOM      1  C1  BNZ d   1      -2.223  -0.128   2.302  0.00  0.00     0.000 A 
ATOM      2  C2  BNZ d   1      -0.907   0.000   2.659  0.00  0.00     0.000 A 
ATOM      3  C3  BNZ d   1       0.036  -0.866   2.181  0.00  0.00     0.000 A 
ATOM      4  C4  BNZ d   1      -0.344  -1.883   1.380  0.00  0.00     0.000 A 
ATOM      5  C5  BNZ d   1      -1.668  -2.031   1.018  0.00  0.00     0.000 A 
ATOM      6  C6  BNZ d   1      -2.608  -1.133   1.469  0.00  0.00     0.000 A 
ENDROOT
TORSDOF 0
ENDMDL
