MODEL 1
REMARK minimizedAffinity -1.7162931
REMARK minimizedRMSD -1
REMARK  0 active torsions:
REMARK  status: ('A' for Active; 'I' for Inactive)
ROOT
ATOM      1  C1  BNZ d   1      -5.055  -4.874   3.367  0.00  0.00     0.000 A 
ATOM      2  C2  BNZ d   1      -5.591  -3.752   3.940  0.00  0.00     0.000 A 
ATOM      3  C3  BNZ d   1      -5.936  -3.738   5.263  0.00  0.00     0.000 A 
ATOM      4  C4  BNZ d   1      -5.783  -4.857   6.000  0.00  0.00     0.000 A 
ATOM      5  C5  BNZ d   1      -5.253  -5.999   5.434  0.00  0.00     0.000 A 
ATOM      6  C6  BNZ d   1      -4.870  -5.998   4.113  0.00  0.00     0.000 A 
ENDROOT
TORSDOF 0
ENDMDL
