MODEL 1
REMARK minimizedAffinity 3.30310965
REMARK minimizedRMSD -1
REMARK  0 active torsions:
REMARK  status: ('A' for Active; 'I' for Inactive)
ROOT
ATOM      1  C1  BNZ d   1      -0.943  -1.219   1.781  0.00  0.00     0.000 A 
ATOM      2  C2  BNZ d   1      -2.051  -0.414   1.748  0.00  0.00     0.000 A 
ATOM      3  C3  BNZ d   1      -2.350   0.407   2.799  0.00  0.00     0.000 A 
ATOM      4  C4  BNZ d   1      -1.565   0.394   3.896  0.00  0.00     0.000 A 
ATOM      5  C5  BNZ d   1      -0.450  -0.419   3.947  0.00  0.00     0.000 A 
ATOM      6  C6  BNZ d   1      -0.130  -1.216   2.872  0.00  0.00     0.000 A 
ENDROOT
TORSDOF 0
ENDMDL
