MODEL 1
REMARK minimizedAffinity 7.04201078
REMARK minimizedRMSD -1
REMARK  0 active torsions:
REMARK  status: ('A' for Active; 'I' for Inactive)
ROOT
ATOM      1  C1  BNZ d   1      -1.882  -1.580   1.063  0.00  0.00     0.000 A 
ATOM      2  C2  BNZ d   1      -3.146  -1.182   1.406  0.00  0.00     0.000 A 
ATOM      3  C3  BNZ d   1      -3.366   0.045   1.967  0.00  0.00     0.000 A 
ATOM      4  C4  BNZ d   1      -2.318   0.855   2.221  0.00  0.00     0.000 A 
ATOM      5  C5  BNZ d   1      -1.036   0.464   1.890  0.00  0.00     0.000 A 
ATOM      6  C6  BNZ d   1      -0.823  -0.755   1.289  0.00  0.00     0.000 A 
ENDROOT
TORSDOF 0
ENDMDL
