MODEL 1
REMARK minimizedAffinity 6.9183073
REMARK minimizedRMSD -1
REMARK  0 active torsions:
REMARK  status: ('A' for Active; 'I' for Inactive)
ROOT
ATOM      1  C1  BNZ d   1      -1.659  -5.999  -5.979  0.00  0.00     0.000 A 
ATOM      2  C2  BNZ d   1      -0.989  -5.576  -4.862  0.00  0.00     0.000 A 
ATOM      3  C3  BNZ d   1      -1.670  -5.160  -3.752  0.00  0.00     0.000 A 
ATOM      4  C4  BNZ d   1      -3.019  -5.129  -3.775  0.00  0.00     0.000 A 
ATOM      5  C5  BNZ d   1      -3.708  -5.543  -4.897  0.00  0.00     0.000 A 
ATOM      6  C6  BNZ d   1      -3.020  -5.998  -5.998  0.00  0.00     0.000 A 
ENDROOT
TORSDOF 0
ENDMDL
