MODEL 1
REMARK minimizedAffinity -0.970768809
REMARK minimizedRMSD -1
REMARK  0 active torsions:
REMARK  status: ('A' for Active; 'I' for Inactive)
ROOT
ATOM      1  C1  BNZ d   1      -5.442  -5.180   2.802  0.00  0.00     0.000 A 
ATOM      2  C2  BNZ d   1      -5.985  -5.992   3.762  0.00  0.00     0.000 A 
ATOM      3  C3  BNZ d   1      -5.997  -5.613   5.075  0.00  0.00     0.000 A 
ATOM      4  C4  BNZ d   1      -5.430  -4.443   5.433  0.00  0.00     0.000 A 
ATOM      5  C5  BNZ d   1      -4.869  -3.617   4.478  0.00  0.00     0.000 A 
ATOM      6  C6  BNZ d   1      -4.894  -3.984   3.152  0.00  0.00     0.000 A 
ENDROOT
TORSDOF 0
ENDMDL
