MODEL 1
REMARK minimizedAffinity 7.40311575
REMARK minimizedRMSD -1
REMARK  0 active torsions:
REMARK  status: ('A' for Active; 'I' for Inactive)
ROOT
ATOM      1  C1  BNZ d   1      -3.343   0.467   1.795  0.00  0.00     0.000 A 
ATOM      2  C2  BNZ d   1      -2.551  -0.524   1.278  0.00  0.00     0.000 A 
ATOM      3  C3  BNZ d   1      -1.569  -1.101   2.032  0.00  0.00     0.000 A 
ATOM      4  C4  BNZ d   1      -1.353  -0.660   3.289  0.00  0.00     0.000 A 
ATOM      5  C5  BNZ d   1      -2.136   0.344   3.822  0.00  0.00     0.000 A 
ATOM      6  C6  BNZ d   1      -3.149   0.896   3.072  0.00  0.00     0.000 A 
ENDROOT
TORSDOF 0
ENDMDL
