MODEL 1
REMARK minimizedAffinity 8.88847256
REMARK minimizedRMSD -1
REMARK  0 active torsions:
REMARK  status: ('A' for Active; 'I' for Inactive)
ROOT
ATOM      1  C1  BNZ d   1       1.368   5.247  -2.552  0.00  0.00     0.000 A 
ATOM      2  C2  BNZ d   1       1.001   4.178  -3.325  0.00  0.00     0.000 A 
ATOM      3  C3  BNZ d   1       1.925   3.256  -3.729  0.00  0.00     0.000 A 
ATOM      4  C4  BNZ d   1       3.221   3.425  -3.394  0.00  0.00     0.000 A 
ATOM      5  C5  BNZ d   1       3.608   4.502  -2.623  0.00  0.00     0.000 A 
ATOM      6  C6  BNZ d   1       2.668   5.408  -2.185  0.00  0.00     0.000 A 
ENDROOT
TORSDOF 0
ENDMDL
