MODEL 1
REMARK minimizedAffinity 5.07919502
REMARK minimizedRMSD -1
REMARK  0 active torsions:
REMARK  status: ('A' for Active; 'I' for Inactive)
ROOT
ATOM      1  C1  BNZ d   1      -3.819  -1.455   0.332  0.00  0.00     0.000 A 
ATOM      2  C2  BNZ d   1      -4.706  -2.425   0.715  0.00  0.00     0.000 A 
ATOM      3  C3  BNZ d   1      -4.265  -3.638   1.165  0.00  0.00     0.000 A 
ATOM      4  C4  BNZ d   1      -2.941  -3.893   1.194  0.00  0.00     0.000 A 
ATOM      5  C5  BNZ d   1      -2.035  -2.928   0.802  0.00  0.00     0.000 A 
ATOM      6  C6  BNZ d   1      -2.481  -1.695   0.386  0.00  0.00     0.000 A 
ENDROOT
TORSDOF 0
ENDMDL
