MODEL 1
REMARK minimizedAffinity 5.91313314
REMARK minimizedRMSD -1
REMARK  0 active torsions:
REMARK  status: ('A' for Active; 'I' for Inactive)
ROOT
ATOM      1  C1  BNZ d   1       3.552   3.102  -4.672  0.00  0.00     0.000 A 
ATOM      2  C2  BNZ d   1       2.598   3.237  -3.698  0.00  0.00     0.000 A 
ATOM      3  C3  BNZ d   1       2.825   4.018  -2.599  0.00  0.00     0.000 A 
ATOM      4  C4  BNZ d   1       4.018   4.630  -2.456  0.00  0.00     0.000 A 
ATOM      5  C5  BNZ d   1       4.993   4.497  -3.425  0.00  0.00     0.000 A 
ATOM      6  C6  BNZ d   1       4.747   3.741  -4.548  0.00  0.00     0.000 A 
ENDROOT
TORSDOF 0
ENDMDL
