MODEL 1
REMARK minimizedAffinity -2.55855727
REMARK minimizedRMSD -1
REMARK  1 active torsions:
REMARK  status: ('A' for Active; 'I' for Inactive)
REMARK    1  A    between atoms: C1_2  and  C2_3 
ROOT
ATOM      1  C2  UNL d   1      -0.094  -1.522  -1.013  0.00  0.00    -0.076 A 
ATOM      2  C3  UNL d   1      -1.356  -1.714  -0.425  0.00  0.00     0.004 A 
ATOM      3  C4  UNL d   1      -1.639  -1.215   0.845  0.00  0.00    -0.003 A 
ATOM      4  C5  UNL d   1      -0.665  -0.515   1.547  0.00  0.00     0.000 A 
ATOM      5  C6  UNL d   1       0.587  -0.300   0.972  0.00  0.00     0.000 A 
ATOM      6  C7  UNL d   1       0.884  -0.782  -0.314  0.00  0.00    -0.073 A 
ATOM      7  C8  UNL d   1       2.252  -0.526  -0.883  0.00  0.00     0.078 C 
ENDROOT
BRANCH   1   8
ATOM      8  C1  UNL d   1       0.165  -2.110  -2.382  0.00  0.00     0.053 C 
ATOM      9  C   UNL d   1      -0.640  -3.375  -2.634  0.00  0.00     0.018 C 
ENDBRANCH   1   8
TORSDOF 1
ENDMDL
