MODEL 1
REMARK minimizedAffinity -1.30183089
REMARK minimizedRMSD -1
REMARK  1 active torsions:
REMARK  status: ('A' for Active; 'I' for Inactive)
REMARK    1  A    between atoms: C1_2  and  C2_3 
ROOT
ATOM      1  C2  UNL d   1      -0.576   0.904   0.860  0.00  0.00    -0.076 A 
ATOM      2  C3  UNL d   1      -1.123   1.869   1.724  0.00  0.00     0.004 A 
ATOM      3  C4  UNL d   1      -0.999   3.230   1.450  0.00  0.00    -0.003 A 
ATOM      4  C5  UNL d   1      -0.326   3.648   0.307  0.00  0.00     0.000 A 
ATOM      5  C6  UNL d   1       0.207   2.704  -0.570  0.00  0.00     0.000 A 
ATOM      6  C7  UNL d   1       0.077   1.328  -0.317  0.00  0.00    -0.073 A 
ATOM      7  C8  UNL d   1       0.677   0.354  -1.294  0.00  0.00     0.078 C 
ENDROOT
BRANCH   1   8
ATOM      8  C1  UNL d   1      -0.719  -0.557   1.224  0.00  0.00     0.053 C 
ATOM      9  C   UNL d   1       0.481  -1.086   1.994  0.00  0.00     0.018 C 
ENDBRANCH   1   8
TORSDOF 1
ENDMDL
