MODEL 1
REMARK minimizedAffinity -1.71752989
REMARK minimizedRMSD -1
REMARK  1 active torsions:
REMARK  status: ('A' for Active; 'I' for Inactive)
REMARK    1  A    between atoms: C1_2  and  C2_3 
ROOT
ATOM      1  C2  UNL d   1      -0.093  -0.429   0.463  0.00  0.00    -0.076 A 
ATOM      2  C3  UNL d   1      -0.594  -1.276   1.467  0.00  0.00     0.004 A 
ATOM      3  C4  UNL d   1      -1.349  -0.768   2.523  0.00  0.00    -0.003 A 
ATOM      4  C5  UNL d   1      -1.616   0.595   2.592  0.00  0.00     0.000 A 
ATOM      5  C6  UNL d   1      -1.142   1.447   1.595  0.00  0.00     0.000 A 
ATOM      6  C7  UNL d   1      -0.393   0.949   0.515  0.00  0.00    -0.073 A 
ATOM      7  C8  UNL d   1       0.098   1.914  -0.529  0.00  0.00     0.078 C 
ENDROOT
BRANCH   1   8
ATOM      8  C1  UNL d   1       0.742  -1.033  -0.643  0.00  0.00     0.053 C 
ATOM      9  C   UNL d   1      -0.047  -2.008  -1.503  0.00  0.00     0.018 C 
ENDBRANCH   1   8
TORSDOF 1
ENDMDL
