MODEL 1
REMARK minimizedAffinity -3.389467
REMARK minimizedRMSD -1
REMARK  1 active torsions:
REMARK  status: ('A' for Active; 'I' for Inactive)
REMARK    1  A    between atoms: C1_2  and  C2_3 
ROOT
ATOM      1  C2  UNL d   1       0.055   0.829   1.057  0.00  0.00    -0.076 A 
ATOM      2  C3  UNL d   1      -0.309   2.121   1.473  0.00  0.00     0.004 A 
ATOM      3  C4  UNL d   1      -0.032   3.235   0.682  0.00  0.00    -0.003 A 
ATOM      4  C5  UNL d   1       0.613   3.074  -0.540  0.00  0.00     0.000 A 
ATOM      5  C6  UNL d   1       0.965   1.797  -0.977  0.00  0.00     0.000 A 
ATOM      6  C7  UNL d   1       0.678   0.663  -0.199  0.00  0.00    -0.073 A 
ATOM      7  C8  UNL d   1       1.086  -0.690  -0.716  0.00  0.00     0.078 C 
ENDROOT
BRANCH   1   8
ATOM      8  C1  UNL d   1      -0.247  -0.338   1.970  0.00  0.00     0.053 C 
ATOM      9  C   UNL d   1      -1.646  -0.895   1.760  0.00  0.00     0.018 C 
ENDBRANCH   1   8
TORSDOF 1
ENDMDL
