MODEL 1
REMARK minimizedAffinity -1.32596266
REMARK minimizedRMSD -1
REMARK  1 active torsions:
REMARK  status: ('A' for Active; 'I' for Inactive)
REMARK    1  A    between atoms: C1_2  and  C2_3 
ROOT
ATOM      1  C2  UNL d   1       0.233   0.089  -0.076  0.00  0.00    -0.076 A 
ATOM      2  C3  UNL d   1      -0.022  -0.857   0.932  0.00  0.00     0.004 A 
ATOM      3  C4  UNL d   1      -0.709  -0.503   2.092  0.00  0.00    -0.003 A 
ATOM      4  C5  UNL d   1      -1.153   0.803   2.263  0.00  0.00     0.000 A 
ATOM      5  C6  UNL d   1      -0.925   1.751   1.266  0.00  0.00     0.000 A 
ATOM      6  C7  UNL d   1      -0.248   1.407   0.083  0.00  0.00    -0.073 A 
ATOM      7  C8  UNL d   1      -0.023   2.471  -0.956  0.00  0.00     0.078 C 
ENDROOT
BRANCH   1   8
ATOM      8  C1  UNL d   1       1.007  -0.346  -1.300  0.00  0.00     0.053 C 
ATOM      9  C   UNL d   1       0.816  -1.822  -1.615  0.00  0.00     0.018 C 
ENDBRANCH   1   8
TORSDOF 1
ENDMDL
