MODEL 1
REMARK minimizedAffinity -0.688238621
REMARK minimizedRMSD -1
REMARK  1 active torsions:
REMARK  status: ('A' for Active; 'I' for Inactive)
REMARK    1  A    between atoms: C1_2  and  C2_3 
ROOT
ATOM      1  C2  UNL d   1       0.254  -0.584   0.187  0.00  0.00    -0.076 A 
ATOM      2  C3  UNL d   1      -0.059  -1.439   1.259  0.00  0.00     0.004 A 
ATOM      3  C4  UNL d   1      -0.713  -0.959   2.392  0.00  0.00    -0.003 A 
ATOM      4  C5  UNL d   1      -1.065   0.383   2.473  0.00  0.00     0.000 A 
ATOM      5  C6  UNL d   1      -0.779   1.242   1.412  0.00  0.00     0.000 A 
ATOM      6  C7  UNL d   1      -0.135   0.771   0.255  0.00  0.00    -0.073 A 
ATOM      7  C8  UNL d   1       0.155   1.742  -0.856  0.00  0.00     0.078 C 
ENDROOT
BRANCH   1   8
ATOM      8  C1  UNL d   1       0.988  -1.156  -1.005  0.00  0.00     0.053 C 
ATOM      9  C   UNL d   1       0.928  -2.675  -1.052  0.00  0.00     0.018 C 
ENDBRANCH   1   8
TORSDOF 1
ENDMDL
