MODEL 1
REMARK minimizedAffinity -1.88582957
REMARK minimizedRMSD -1
REMARK  1 active torsions:
REMARK  status: ('A' for Active; 'I' for Inactive)
REMARK    1  A    between atoms: C1_2  and  C2_3 
ROOT
ATOM      1  C2  UNL d   1       0.002   0.302   0.112  0.00  0.00    -0.076 A 
ATOM      2  C3  UNL d   1      -0.513  -0.626   1.033  0.00  0.00     0.004 A 
ATOM      3  C4  UNL d   1      -1.294  -0.211   2.110  0.00  0.00    -0.003 A 
ATOM      4  C5  UNL d   1      -1.574   1.140   2.283  0.00  0.00     0.000 A 
ATOM      5  C6  UNL d   1      -1.086   2.073   1.369  0.00  0.00     0.000 A 
ATOM      6  C7  UNL d   1      -0.310   1.670   0.269  0.00  0.00    -0.073 A 
ATOM      7  C8  UNL d   1       0.195   2.720  -0.683  0.00  0.00     0.078 C 
ENDROOT
BRANCH   1   8
ATOM      8  C1  UNL d   1       0.866  -0.204  -1.022  0.00  0.00     0.053 C 
ATOM      9  C   UNL d   1       0.753  -1.708  -1.213  0.00  0.00     0.018 C 
ENDBRANCH   1   8
TORSDOF 1
ENDMDL
