MODEL 1
REMARK minimizedAffinity -3.81824017
REMARK minimizedRMSD -1
REMARK  1 active torsions:
REMARK  status: ('A' for Active; 'I' for Inactive)
REMARK    1  A    between atoms: C1_2  and  C2_3 
ROOT
ATOM      1  C2  UNL d   1       0.390   0.019  -0.028  0.00  0.00    -0.076 A 
ATOM      2  C3  UNL d   1       0.699   1.227  -0.677  0.00  0.00     0.004 A 
ATOM      3  C4  UNL d   1       0.194   2.440  -0.214  0.00  0.00    -0.003 A 
ATOM      4  C5  UNL d   1      -0.630   2.465   0.907  0.00  0.00     0.000 A 
ATOM      5  C6  UNL d   1      -0.933   1.279   1.573  0.00  0.00     0.000 A 
ATOM      6  C7  UNL d   1      -0.418   0.049   1.129  0.00  0.00    -0.073 A 
ATOM      7  C8  UNL d   1      -0.783  -1.201   1.882  0.00  0.00     0.078 C 
ENDROOT
BRANCH   1   8
ATOM      8  C1  UNL d   1       0.945  -1.270  -0.592  0.00  0.00     0.053 C 
ATOM      9  C   UNL d   1       0.091  -1.829  -1.719  0.00  0.00     0.018 C 
ENDBRANCH   1   8
TORSDOF 1
ENDMDL
