MODEL 1
REMARK minimizedAffinity -3.13054895
REMARK minimizedRMSD -1
REMARK  1 active torsions:
REMARK  status: ('A' for Active; 'I' for Inactive)
REMARK    1  A    between atoms: C1_2  and  C2_3 
ROOT
ATOM      1  C2  UNL d   1      -0.118   0.700   1.485  0.00  0.00    -0.076 A 
ATOM      2  C3  UNL d   1       0.055  -0.627   1.915  0.00  0.00     0.004 A 
ATOM      3  C4  UNL d   1       0.713  -1.560   1.115  0.00  0.00    -0.003 A 
ATOM      4  C5  UNL d   1       1.209  -1.181  -0.127  0.00  0.00     0.000 A 
ATOM      5  C6  UNL d   1       1.062   0.136  -0.562  0.00  0.00     0.000 A 
ATOM      6  C7  UNL d   1       0.416   1.093   0.239  0.00  0.00    -0.073 A 
ATOM      7  C8  UNL d   1       0.280   2.497  -0.282  0.00  0.00     0.078 C 
ENDROOT
BRANCH   1   8
ATOM      8  C1  UNL d   1      -0.863   1.661   2.384  0.00  0.00     0.053 C 
ATOM      9  C   UNL d   1       0.011   2.214   3.498  0.00  0.00     0.018 C 
ENDBRANCH   1   8
TORSDOF 1
ENDMDL
