MODEL 1
REMARK minimizedAffinity -3.06455994
REMARK minimizedRMSD -1
REMARK  1 active torsions:
REMARK  status: ('A' for Active; 'I' for Inactive)
REMARK    1  A    between atoms: C1_2  and  C2_3 
ROOT
ATOM      1  C2  UNL d   1      -0.082   0.472   1.318  0.00  0.00    -0.076 A 
ATOM      2  C3  UNL d   1      -0.662   1.565   1.984  0.00  0.00     0.004 A 
ATOM      3  C4  UNL d   1      -0.599   2.850   1.446  0.00  0.00    -0.003 A 
ATOM      4  C5  UNL d   1       0.045   3.061   0.232  0.00  0.00     0.000 A 
ATOM      5  C6  UNL d   1       0.611   1.986  -0.452  0.00  0.00     0.000 A 
ATOM      6  C7  UNL d   1       0.542   0.682   0.069  0.00  0.00    -0.073 A 
ATOM      7  C8  UNL d   1       1.175  -0.440  -0.707  0.00  0.00     0.078 C 
ENDROOT
BRANCH   1   8
ATOM      8  C1  UNL d   1      -0.158  -0.893   1.963  0.00  0.00     0.053 C 
ATOM      9  C   UNL d   1       1.160  -1.313   2.595  0.00  0.00     0.018 C 
ENDBRANCH   1   8
TORSDOF 1
ENDMDL
