MODEL 1
REMARK minimizedAffinity -4.29650068
REMARK minimizedRMSD -1
REMARK  1 active torsions:
REMARK  status: ('A' for Active; 'I' for Inactive)
REMARK    1  A    between atoms: C1_2  and  C2_3 
ROOT
ATOM      1  C2  UNL d   1      -0.504  -1.594  -0.597  0.00  0.00    -0.076 A 
ATOM      2  C3  UNL d   1      -1.672  -1.706   0.178  0.00  0.00     0.004 A 
ATOM      3  C4  UNL d   1      -1.700  -1.267   1.501  0.00  0.00    -0.003 A 
ATOM      4  C5  UNL d   1      -0.561  -0.710   2.070  0.00  0.00     0.000 A 
ATOM      5  C6  UNL d   1       0.601  -0.575   1.311  0.00  0.00     0.000 A 
ATOM      6  C7  UNL d   1       0.641  -0.997  -0.029  0.00  0.00    -0.073 A 
ATOM      7  C8  UNL d   1       1.923  -0.834  -0.799  0.00  0.00     0.078 C 
ENDROOT
BRANCH   1   8
ATOM      8  C1  UNL d   1      -0.525  -2.112  -2.017  0.00  0.00     0.053 C 
ATOM      9  C   UNL d   1       0.107  -3.490  -2.145  0.00  0.00     0.018 C 
ENDBRANCH   1   8
TORSDOF 1
ENDMDL
