MODEL 1
REMARK minimizedAffinity -3.23826981
REMARK minimizedRMSD -1
REMARK  3 active torsions:
REMARK  status: ('A' for Active; 'I' for Inactive)
REMARK    1  A    between atoms: C3'_2  and  C2'_3 
REMARK    2  A    between atoms: C2'_3  and  C1'_4 
REMARK    3  A    between atoms: C1'_4  and  C1_5 
ROOT
ATOM      1  C1  N4B d   1       0.467   0.057  -0.068  0.00  0.00    -0.075 A 
ATOM      2  C2  N4B d   1       0.450  -1.338  -0.284  0.00  0.00     0.002 A 
ATOM      3  C3  N4B d   1       1.628  -2.044  -0.308  0.00  0.00     0.002 A 
ATOM      4  C4  N4B d   1       2.831  -1.376  -0.137  0.00  0.00    -0.004 A 
ATOM      5  C5  N4B d   1       2.837  -0.032   0.097  0.00  0.00     0.002 A 
ATOM      6  C6  N4B d   1       1.660   0.689   0.127  0.00  0.00     0.002 A 
ENDROOT
BRANCH   1   7
ATOM      7  C1' N4B d   1      -0.789   0.884  -0.119  0.00  0.00     0.057 C 
BRANCH   7   8
ATOM      8  C2' N4B d   1      -1.996  -0.044  -0.212  0.00  0.00     0.009 C 
BRANCH   8   9
ATOM      9  C3' N4B d   1      -3.132   0.408   0.690  0.00  0.00     0.004 C 
ATOM     10  C4' N4B d   1      -4.484   0.074   0.133  0.00  0.00     0.003 C 
ENDBRANCH   8   9
ENDBRANCH   7   8
ENDBRANCH   1   7
TORSDOF 3
ENDMDL
