MODEL 1
REMARK minimizedAffinity -5.487041
REMARK minimizedRMSD -1
REMARK  3 active torsions:
REMARK  status: ('A' for Active; 'I' for Inactive)
REMARK    1  A    between atoms: C3'_2  and  C2'_3 
REMARK    2  A    between atoms: C2'_3  and  C1'_4 
REMARK    3  A    between atoms: C1'_4  and  C1_5 
ROOT
ATOM      1  C1  N4B d   1      -0.092   0.223  -0.165  0.00  0.00    -0.075 A 
ATOM      2  C2  N4B d   1       1.187   0.455   0.387  0.00  0.00     0.002 A 
ATOM      3  C3  N4B d   1       2.051  -0.595   0.580  0.00  0.00     0.002 A 
ATOM      4  C4  N4B d   1       1.654  -1.881   0.248  0.00  0.00    -0.004 A 
ATOM      5  C5  N4B d   1       0.426  -2.093  -0.309  0.00  0.00     0.002 A 
ATOM      6  C6  N4B d   1      -0.452  -1.047  -0.512  0.00  0.00     0.002 A 
ENDROOT
BRANCH   1   7
ATOM      7  C1' N4B d   1      -1.104   1.326  -0.315  0.00  0.00     0.057 C 
BRANCH   7   8
ATOM      8  C2' N4B d   1      -2.507   0.738  -0.199  0.00  0.00     0.009 C 
BRANCH   8   9
ATOM      9  C3' N4B d   1      -3.121   0.998   1.167  0.00  0.00     0.004 C 
ATOM     10  C4' N4B d   1      -4.181   0.001   1.526  0.00  0.00     0.003 C 
ENDBRANCH   8   9
ENDBRANCH   7   8
ENDBRANCH   1   7
TORSDOF 3
ENDMDL
