MODEL 1
REMARK minimizedAffinity -3.70691037
REMARK minimizedRMSD -1
REMARK  3 active torsions:
REMARK  status: ('A' for Active; 'I' for Inactive)
REMARK    1  A    between atoms: C3'_2  and  C2'_3 
REMARK    2  A    between atoms: C2'_3  and  C1'_4 
REMARK    3  A    between atoms: C1'_4  and  C1_5 
ROOT
ATOM      1  C1  N4B d   1      -0.797   0.030  -0.194  0.00  0.00    -0.075 A 
ATOM      2  C2  N4B d   1       0.344   0.585   0.426  0.00  0.00     0.002 A 
ATOM      3  C3  N4B d   1       1.475  -0.175   0.588  0.00  0.00     0.002 A 
ATOM      4  C4  N4B d   1       1.483  -1.493   0.157  0.00  0.00    -0.004 A 
ATOM      5  C5  N4B d   1       0.386  -2.014  -0.463  0.00  0.00     0.002 A 
ATOM      6  C6  N4B d   1      -0.757  -1.260  -0.637  0.00  0.00     0.002 A 
ENDROOT
BRANCH   1   7
ATOM      7  C1' N4B d   1      -2.087   0.796  -0.316  0.00  0.00     0.057 C 
BRANCH   7   8
ATOM      8  C2' N4B d   1      -2.609   1.123   1.080  0.00  0.00     0.009 C 
BRANCH   8   9
ATOM      9  C3' N4B d   1      -3.996   0.551   1.316  0.00  0.00     0.004 C 
ATOM     10  C4' N4B d   1      -4.689   0.164   0.044  0.00  0.00     0.003 C 
ENDBRANCH   8   9
ENDBRANCH   7   8
ENDBRANCH   1   7
TORSDOF 3
ENDMDL
