MODEL 1
REMARK minimizedAffinity -4.0264225
REMARK minimizedRMSD -1
REMARK  3 active torsions:
REMARK  status: ('A' for Active; 'I' for Inactive)
REMARK    1  A    between atoms: C3'_2  and  C2'_3 
REMARK    2  A    between atoms: C2'_3  and  C1'_4 
REMARK    3  A    between atoms: C1'_4  and  C1_5 
ROOT
ATOM      1  C1  N4B d   1       0.814  -0.050  -0.343  0.00  0.00    -0.075 A 
ATOM      2  C2  N4B d   1       1.765  -1.094  -0.335  0.00  0.00     0.002 A 
ATOM      3  C3  N4B d   1       3.099  -0.805  -0.184  0.00  0.00     0.002 A 
ATOM      4  C4  N4B d   1       3.506   0.514  -0.059  0.00  0.00    -0.004 A 
ATOM      5  C5  N4B d   1       2.579   1.515  -0.043  0.00  0.00     0.002 A 
ATOM      6  C6  N4B d   1       1.234   1.240  -0.189  0.00  0.00     0.002 A 
ENDROOT
BRANCH   1   7
ATOM      7  C1' N4B d   1      -0.647  -0.309  -0.591  0.00  0.00     0.057 C 
BRANCH   7   8
ATOM      8  C2' N4B d   1      -1.430   0.981  -0.364  0.00  0.00     0.009 C 
BRANCH   8   9
ATOM      9  C3' N4B d   1      -2.917   0.721  -0.195  0.00  0.00     0.004 C 
ATOM     10  C4' N4B d   1      -3.525   1.529   0.913  0.00  0.00     0.003 C 
ENDBRANCH   8   9
ENDBRANCH   7   8
ENDBRANCH   1   7
TORSDOF 3
ENDMDL
