MODEL 1
REMARK minimizedAffinity -6.51777601
REMARK minimizedRMSD -1
REMARK  3 active torsions:
REMARK  status: ('A' for Active; 'I' for Inactive)
REMARK    1  A    between atoms: C3'_2  and  C2'_3 
REMARK    2  A    between atoms: C2'_3  and  C1'_4 
REMARK    3  A    between atoms: C1'_4  and  C1_5 
ROOT
ATOM      1  C1  N4B d   1       0.089  -0.010   0.041  0.00  0.00    -0.075 A 
ATOM      2  C2  N4B d   1       0.286  -1.354  -0.344  0.00  0.00     0.002 A 
ATOM      3  C3  N4B d   1       1.474  -1.982  -0.060  0.00  0.00     0.002 A 
ATOM      4  C4  N4B d   1       2.481  -1.284   0.589  0.00  0.00    -0.004 A 
ATOM      5  C5  N4B d   1       2.273   0.006   0.980  0.00  0.00     0.002 A 
ATOM      6  C6  N4B d   1       1.083   0.649   0.704  0.00  0.00     0.002 A 
ENDROOT
BRANCH   1   7
ATOM      7  C1' N4B d   1      -1.160   0.746  -0.324  0.00  0.00     0.057 C 
BRANCH   7   8
ATOM      8  C2' N4B d   1      -2.107   0.756   0.872  0.00  0.00     0.009 C 
BRANCH   8   9
ATOM      9  C3' N4B d   1      -3.379   1.535   0.583  0.00  0.00     0.004 C 
ATOM     10  C4' N4B d   1      -4.562   1.017   1.345  0.00  0.00     0.003 C 
ENDBRANCH   8   9
ENDBRANCH   7   8
ENDBRANCH   1   7
TORSDOF 3
ENDMDL
