MODEL 1
REMARK minimizedAffinity 7.34821272
REMARK minimizedRMSD -1
REMARK  2 active torsions:
REMARK  status: ('A' for Active; 'I' for Inactive)
REMARK    1  A    between atoms: C2'_3  and  C1'_4 
REMARK    2  A    between atoms: C1'_4  and  C1_5 
ROOT
ATOM      1  C1  I4B d   1       1.503  -1.379   3.299  0.00  0.00    -0.075 A 
ATOM      2  C2  I4B d   1       2.608  -1.625   4.075  0.00  0.00     0.003 A 
ATOM      3  C3  I4B d   1       2.458  -1.965   5.442  0.00  0.00     0.002 A 
ATOM      4  C4  I4B d   1       1.196  -1.998   5.999  0.00  0.00    -0.004 A 
ATOM      5  C5  I4B d   1       0.076  -1.771   5.205  0.00  0.00     0.002 A 
ATOM      6  C6  I4B d   1       0.229  -1.471   3.844  0.00  0.00     0.003 A 
ENDROOT
BRANCH   1   7
ATOM      7  C1' I4B d   1       1.700  -0.990   1.868  0.00  0.00     0.060 C 
BRANCH   7   8
ATOM      8  C2' I4B d   1       0.887   0.262   1.609  0.00  0.00    -0.013 C 
ATOM      9  C4' I4B d   1       1.760   1.386   1.116  0.00  0.00     0.013 C 
ATOM     10  C3' I4B d   1      -0.177  -0.076   0.608  0.00  0.00     0.013 C 
ENDBRANCH   7   8
ENDBRANCH   1   7
TORSDOF 2
ENDMDL
