MODEL 1
REMARK minimizedAffinity -3.65989923
REMARK minimizedRMSD -1
REMARK  2 active torsions:
REMARK  status: ('A' for Active; 'I' for Inactive)
REMARK    1  A    between atoms: C2'_3  and  C1'_4 
REMARK    2  A    between atoms: C1'_4  and  C1_5 
ROOT
ATOM      1  C1  I4B d   1      -0.231  -0.630   2.930  0.00  0.00    -0.075 A 
ATOM      2  C2  I4B d   1      -1.568  -0.839   3.160  0.00  0.00     0.003 A 
ATOM      3  C3  I4B d   1      -1.990  -1.559   4.304  0.00  0.00     0.002 A 
ATOM      4  C4  I4B d   1      -1.046  -2.092   5.158  0.00  0.00    -0.004 A 
ATOM      5  C5  I4B d   1       0.308  -1.860   4.935  0.00  0.00     0.002 A 
ATOM      6  C6  I4B d   1       0.718  -1.114   3.821  0.00  0.00     0.003 A 
ENDROOT
BRANCH   1   7
ATOM      7  C1' I4B d   1       0.181   0.106   1.695  0.00  0.00     0.060 C 
BRANCH   7   8
ATOM      8  C2' I4B d   1       1.611   0.570   1.883  0.00  0.00    -0.013 C 
ATOM      9  C4' I4B d   1       2.589  -0.458   1.375  0.00  0.00     0.013 C 
ATOM     10  C3' I4B d   1       1.774   1.874   1.161  0.00  0.00     0.013 C 
ENDBRANCH   7   8
ENDBRANCH   1   7
TORSDOF 2
ENDMDL
