MODEL 1
REMARK minimizedAffinity -1.13748837
REMARK minimizedRMSD -1
REMARK  2 active torsions:
REMARK  status: ('A' for Active; 'I' for Inactive)
REMARK    1  A    between atoms: C2'_3  and  C1'_4 
REMARK    2  A    between atoms: C1'_4  and  C1_5 
ROOT
ATOM      1  C1  I4B d   1       0.859  -1.178   3.096  0.00  0.00    -0.075 A 
ATOM      2  C2  I4B d   1      -0.051  -0.609   2.240  0.00  0.00     0.003 A 
ATOM      3  C3  I4B d   1      -1.439  -0.808   2.440  0.00  0.00     0.002 A 
ATOM      4  C4  I4B d   1      -1.867  -1.620   3.471  0.00  0.00    -0.004 A 
ATOM      5  C5  I4B d   1      -0.944  -2.177   4.351  0.00  0.00     0.002 A 
ATOM      6  C6  I4B d   1       0.427  -1.945   4.170  0.00  0.00     0.003 A 
ENDROOT
BRANCH   1   7
ATOM      7  C1' I4B d   1       2.318  -0.974   2.836  0.00  0.00     0.060 C 
BRANCH   7   8
ATOM      8  C2' I4B d   1       2.488  -0.642   1.368  0.00  0.00    -0.013 C 
ATOM      9  C4' I4B d   1       2.655   0.840   1.159  0.00  0.00     0.013 C 
ATOM     10  C3' I4B d   1       3.679  -1.398   0.858  0.00  0.00     0.013 C 
ENDBRANCH   7   8
ENDBRANCH   1   7
TORSDOF 2
ENDMDL
