MODEL 1
REMARK minimizedAffinity 6.67161655
REMARK minimizedRMSD -1
REMARK  2 active torsions:
REMARK  status: ('A' for Active; 'I' for Inactive)
REMARK    1  A    between atoms: C2'_3  and  C1'_4 
REMARK    2  A    between atoms: C1'_4  and  C1_5 
ROOT
ATOM      1  C1  I4B d   1       1.676  -1.152   3.499  0.00  0.00    -0.075 A 
ATOM      2  C2  I4B d   1       2.690  -2.069   3.619  0.00  0.00     0.003 A 
ATOM      3  C3  I4B d   1       3.247  -2.353   4.890  0.00  0.00     0.002 A 
ATOM      4  C4  I4B d   1       2.798  -1.665   5.998  0.00  0.00    -0.004 A 
ATOM      5  C5  I4B d   1       1.754  -0.752   5.878  0.00  0.00     0.002 A 
ATOM      6  C6  I4B d   1       1.181  -0.502   4.622  0.00  0.00     0.003 A 
ENDROOT
BRANCH   1   7
ATOM      7  C1' I4B d   1       1.133  -0.852   2.138  0.00  0.00     0.060 C 
BRANCH   7   8
ATOM      8  C2' I4B d   1      -0.071   0.052   2.304  0.00  0.00    -0.013 C 
ATOM      9  C4' I4B d   1       0.145   1.378   1.623  0.00  0.00     0.013 C 
ATOM     10  C3' I4B d   1      -1.265  -0.658   1.740  0.00  0.00     0.013 C 
ENDBRANCH   7   8
ENDBRANCH   1   7
TORSDOF 2
ENDMDL
