MODEL 1
REMARK minimizedAffinity -5.58948755
REMARK minimizedRMSD -1
REMARK  0 active torsions:
REMARK  status: ('A' for Active; 'I' for Inactive)
ROOT
ATOM      1  C   UNL d   1       0.904  -0.284   0.705  0.00  0.00     0.078 C 
ATOM      2  C1  UNL d   1      -0.439  -0.951   0.699  0.00  0.00    -0.077 A 
ATOM      3  C2  UNL d   1      -0.703  -2.046   1.530  0.00  0.00    -0.001 A 
ATOM      4  C3  UNL d   1      -1.955  -2.663   1.508  0.00  0.00     0.003 A 
ATOM      5  C4  UNL d   1      -2.952  -2.192   0.655  0.00  0.00    -0.005 A 
ATOM      6  C5  UNL d   1      -2.698  -1.104  -0.176  0.00  0.00     0.003 A 
ATOM      7  C6  UNL d   1      -1.446  -0.486  -0.155  0.00  0.00    -0.001 A 
ENDROOT
TORSDOF 0
ENDMDL
