MODEL 1
REMARK minimizedAffinity -5.66277695
REMARK minimizedRMSD -1
REMARK  0 active torsions:
REMARK  status: ('A' for Active; 'I' for Inactive)
ROOT
ATOM      1  C   UNL d   1      -2.065  -2.463   1.177  0.00  0.00     0.078 C 
ATOM      2  C1  UNL d   1      -1.518  -1.462   0.204  0.00  0.00    -0.077 A 
ATOM      3  C2  UNL d   1      -0.169  -1.087   0.238  0.00  0.00    -0.001 A 
ATOM      4  C3  UNL d   1       0.325  -0.146  -0.667  0.00  0.00     0.003 A 
ATOM      5  C4  UNL d   1      -0.523   0.428  -1.612  0.00  0.00    -0.005 A 
ATOM      6  C5  UNL d   1      -1.867   0.063  -1.652  0.00  0.00     0.003 A 
ATOM      7  C6  UNL d   1      -2.363  -0.877  -0.747  0.00  0.00    -0.001 A 
ENDROOT
TORSDOF 0
ENDMDL
