MODEL 1
REMARK minimizedAffinity -4.82279587
REMARK minimizedRMSD -1
REMARK  0 active torsions:
REMARK  status: ('A' for Active; 'I' for Inactive)
ROOT
ATOM      1  C   UNL d   1      -2.893  -0.675  -0.000  0.00  0.00     0.078 C 
ATOM      2  C1  UNL d   1      -1.397  -0.582  -0.058  0.00  0.00    -0.077 A 
ATOM      3  C2  UNL d   1      -0.608  -0.970   1.032  0.00  0.00    -0.001 A 
ATOM      4  C3  UNL d   1       0.783  -0.869   0.967  0.00  0.00     0.003 A 
ATOM      5  C4  UNL d   1       1.396  -0.379  -0.184  0.00  0.00    -0.005 A 
ATOM      6  C5  UNL d   1       0.619   0.011  -1.272  0.00  0.00     0.003 A 
ATOM      7  C6  UNL d   1      -0.772  -0.089  -1.210  0.00  0.00    -0.001 A 
ENDROOT
TORSDOF 0
ENDMDL
