MODEL 1
REMARK minimizedAffinity -5.53540087
REMARK minimizedRMSD -1
REMARK  0 active torsions:
REMARK  status: ('A' for Active; 'I' for Inactive)
ROOT
ATOM      1  C   UNL d   1       1.323   0.230   0.014  0.00  0.00     0.078 C 
ATOM      2  C1  UNL d   1      -0.148  -0.065   0.015  0.00  0.00    -0.077 A 
ATOM      3  C2  UNL d   1      -0.779  -0.581   1.153  0.00  0.00    -0.001 A 
ATOM      4  C3  UNL d   1      -2.146  -0.860   1.137  0.00  0.00     0.003 A 
ATOM      5  C4  UNL d   1      -2.894  -0.627  -0.016  0.00  0.00    -0.005 A 
ATOM      6  C5  UNL d   1      -2.274  -0.116  -1.154  0.00  0.00     0.003 A 
ATOM      7  C6  UNL d   1      -0.907   0.163  -1.139  0.00  0.00    -0.001 A 
ENDROOT
TORSDOF 0
ENDMDL
