MODEL 1
REMARK minimizedAffinity -3.80265522
REMARK minimizedRMSD -1
REMARK  0 active torsions:
REMARK  status: ('A' for Active; 'I' for Inactive)
ROOT
ATOM      1  C   UNL d   1       1.234   0.006  -0.064  0.00  0.00     0.078 C 
ATOM      2  C1  UNL d   1      -0.265  -0.019  -0.085  0.00  0.00    -0.077 A 
ATOM      3  C2  UNL d   1      -0.970   0.022  -1.294  0.00  0.00    -0.001 A 
ATOM      4  C3  UNL d   1      -2.366   0.008  -1.299  0.00  0.00     0.003 A 
ATOM      5  C4  UNL d   1      -3.069  -0.045  -0.097  0.00  0.00    -0.005 A 
ATOM      6  C5  UNL d   1      -2.376  -0.084   1.111  0.00  0.00     0.003 A 
ATOM      7  C6  UNL d   1      -0.980  -0.070   1.118  0.00  0.00    -0.001 A 
ENDROOT
TORSDOF 0
ENDMDL
