MODEL 1
REMARK minimizedAffinity -4.42080832
REMARK minimizedRMSD -1
REMARK  0 active torsions:
REMARK  status: ('A' for Active; 'I' for Inactive)
ROOT
ATOM      1  C   UNL d   1       0.909   0.968   0.531  0.00  0.00     0.078 C 
ATOM      2  C1  UNL d   1      -0.322   0.231   0.094  0.00  0.00    -0.077 A 
ATOM      3  C2  UNL d   1      -0.608   0.047  -1.265  0.00  0.00    -0.001 A 
ATOM      4  C3  UNL d   1      -1.762  -0.632  -1.657  0.00  0.00     0.003 A 
ATOM      5  C4  UNL d   1      -2.641  -1.131  -0.698  0.00  0.00    -0.005 A 
ATOM      6  C5  UNL d   1      -2.367  -0.950   0.656  0.00  0.00     0.003 A 
ATOM      7  C6  UNL d   1      -1.213  -0.271   1.051  0.00  0.00    -0.001 A 
ENDROOT
TORSDOF 0
ENDMDL
