MODEL 1
REMARK minimizedAffinity -4.24736595
REMARK minimizedRMSD -1
REMARK  0 active torsions:
REMARK  status: ('A' for Active; 'I' for Inactive)
ROOT
ATOM      1  C   UNL d   1       0.787   1.185   0.756  0.00  0.00     0.078 C 
ATOM      2  C1  UNL d   1      -0.443   0.437   0.335  0.00  0.00    -0.077 A 
ATOM      3  C2  UNL d   1      -1.491   0.208   1.234  0.00  0.00    -0.001 A 
ATOM      4  C3  UNL d   1      -2.625  -0.498   0.831  0.00  0.00     0.003 A 
ATOM      5  C4  UNL d   1      -2.722  -0.982  -0.472  0.00  0.00    -0.005 A 
ATOM      6  C5  UNL d   1      -1.683  -0.761  -1.374  0.00  0.00     0.003 A 
ATOM      7  C6  UNL d   1      -0.548  -0.055  -0.973  0.00  0.00    -0.001 A 
ENDROOT
TORSDOF 0
ENDMDL
