MODEL 1
REMARK minimizedAffinity -5.8238287
REMARK minimizedRMSD -1
REMARK  0 active torsions:
REMARK  status: ('A' for Active; 'I' for Inactive)
ROOT
ATOM      1  C   UNL d   1      -3.475  -0.887   0.158  0.00  0.00     0.078 C 
ATOM      2  C1  UNL d   1      -2.066  -0.520  -0.199  0.00  0.00    -0.077 A 
ATOM      3  C2  UNL d   1      -0.988  -0.943   0.589  0.00  0.00    -0.001 A 
ATOM      4  C3  UNL d   1       0.318  -0.587   0.249  0.00  0.00     0.003 A 
ATOM      5  C4  UNL d   1       0.559   0.195  -0.879  0.00  0.00    -0.005 A 
ATOM      6  C5  UNL d   1      -0.507   0.623  -1.668  0.00  0.00     0.003 A 
ATOM      7  C6  UNL d   1      -1.814   0.267  -1.330  0.00  0.00    -0.001 A 
ENDROOT
TORSDOF 0
ENDMDL
