MODEL 1
REMARK minimizedAffinity -4.65097284
REMARK minimizedRMSD -1
REMARK  0 active torsions:
REMARK  status: ('A' for Active; 'I' for Inactive)
ROOT
ATOM      1  C   UNL d   1       0.903   0.384   0.373  0.00  0.00     0.078 C 
ATOM      2  C1  UNL d   1      -0.400  -0.346   0.241  0.00  0.00    -0.077 A 
ATOM      3  C2  UNL d   1      -0.830  -1.239   1.231  0.00  0.00    -0.001 A 
ATOM      4  C3  UNL d   1      -2.041  -1.919   1.091  0.00  0.00     0.003 A 
ATOM      5  C4  UNL d   1      -2.831  -1.715  -0.038  0.00  0.00    -0.005 A 
ATOM      6  C5  UNL d   1      -2.411  -0.830  -1.029  0.00  0.00     0.003 A 
ATOM      7  C6  UNL d   1      -1.201  -0.149  -0.891  0.00  0.00    -0.001 A 
ENDROOT
TORSDOF 0
ENDMDL
