MODEL 1
REMARK minimizedAffinity -5.34412813
REMARK minimizedRMSD -1
REMARK  0 active torsions:
REMARK  status: ('A' for Active; 'I' for Inactive)
ROOT
ATOM      1  C   UNL d   1       0.403   0.308   0.601  0.00  0.00     0.078 C 
ATOM      2  C1  UNL d   1      -0.828  -0.541   0.713  0.00  0.00    -0.077 A 
ATOM      3  C2  UNL d   1      -0.853  -1.671   1.540  0.00  0.00    -0.001 A 
ATOM      4  C3  UNL d   1      -2.002  -2.458   1.626  0.00  0.00     0.003 A 
ATOM      5  C4  UNL d   1      -3.135  -2.124   0.887  0.00  0.00    -0.005 A 
ATOM      6  C5  UNL d   1      -3.120  -1.004   0.059  0.00  0.00     0.003 A 
ATOM      7  C6  UNL d   1      -1.971  -0.216  -0.029  0.00  0.00    -0.001 A 
ENDROOT
TORSDOF 0
ENDMDL
