MODEL 1
REMARK minimizedAffinity -3.56386614
REMARK minimizedRMSD -1
REMARK  0 active torsions:
REMARK  status: ('A' for Active; 'I' for Inactive)
ROOT
ATOM      1  C   UNL d   1       0.816  -0.002  -0.024  0.00  0.00     0.078 C 
ATOM      2  C1  UNL d   1      -0.378  -0.908  -0.055  0.00  0.00    -0.077 A 
ATOM      3  C2  UNL d   1      -0.494  -1.980   0.839  0.00  0.00    -0.001 A 
ATOM      4  C3  UNL d   1      -1.607  -2.821   0.793  0.00  0.00     0.003 A 
ATOM      5  C4  UNL d   1      -2.612  -2.600  -0.147  0.00  0.00    -0.005 A 
ATOM      6  C5  UNL d   1      -2.504  -1.538  -1.043  0.00  0.00     0.003 A 
ATOM      7  C6  UNL d   1      -1.392  -0.696  -0.997  0.00  0.00    -0.001 A 
ENDROOT
TORSDOF 0
ENDMDL
