MODEL 1
REMARK minimizedAffinity -5.05281305
REMARK minimizedRMSD -1
REMARK  0 active torsions:
REMARK  status: ('A' for Active; 'I' for Inactive)
ROOT
ATOM      1  C   UNL d   1       5.194   3.708  -3.851  0.00  0.00     0.078 C 
ATOM      2  C1  UNL d   1       4.380   3.571  -2.599  0.00  0.00    -0.077 A 
ATOM      3  C2  UNL d   1       3.992   4.699  -1.865  0.00  0.00    -0.001 A 
ATOM      4  C3  UNL d   1       3.243   4.556  -0.696  0.00  0.00     0.003 A 
ATOM      5  C4  UNL d   1       2.876   3.288  -0.250  0.00  0.00    -0.005 A 
ATOM      6  C5  UNL d   1       3.260   2.160  -0.973  0.00  0.00     0.003 A 
ATOM      7  C6  UNL d   1       4.009   2.301  -2.142  0.00  0.00    -0.001 A 
ENDROOT
TORSDOF 0
ENDMDL
