MODEL 1
REMARK minimizedAffinity -4.54296207
REMARK minimizedRMSD -1
REMARK  0 active torsions:
REMARK  status: ('A' for Active; 'I' for Inactive)
ROOT
ATOM      1  C   UNL d   1       4.735   3.646  -3.283  0.00  0.00     0.078 C 
ATOM      2  C1  UNL d   1       3.824   3.372  -2.123  0.00  0.00    -0.077 A 
ATOM      3  C2  UNL d   1       3.141   4.411  -1.481  0.00  0.00    -0.001 A 
ATOM      4  C3  UNL d   1       2.304   4.143  -0.397  0.00  0.00     0.003 A 
ATOM      5  C4  UNL d   1       2.144   2.834   0.056  0.00  0.00    -0.005 A 
ATOM      6  C5  UNL d   1       2.821   1.793  -0.576  0.00  0.00     0.003 A 
ATOM      7  C6  UNL d   1       3.658   2.060  -1.660  0.00  0.00    -0.001 A 
ENDROOT
TORSDOF 0
ENDMDL
