MODEL 1
REMARK minimizedAffinity -4.11843586
REMARK minimizedRMSD -1
REMARK  0 active torsions:
REMARK  status: ('A' for Active; 'I' for Inactive)
ROOT
ATOM      1  C   UNL d   1      -0.752  -3.008   1.251  0.00  0.00     0.078 C 
ATOM      2  C1  UNL d   1      -0.687  -1.953   0.188  0.00  0.00    -0.077 A 
ATOM      3  C2  UNL d   1      -1.719  -1.806  -0.747  0.00  0.00    -0.001 A 
ATOM      4  C3  UNL d   1      -1.641  -0.825  -1.737  0.00  0.00     0.003 A 
ATOM      5  C4  UNL d   1      -0.531   0.016  -1.803  0.00  0.00    -0.005 A 
ATOM      6  C5  UNL d   1       0.502  -0.125  -0.878  0.00  0.00     0.003 A 
ATOM      7  C6  UNL d   1       0.425  -1.105   0.113  0.00  0.00    -0.001 A 
ENDROOT
TORSDOF 0
ENDMDL
