MODEL 1
REMARK minimizedAffinity -4.14964914
REMARK minimizedRMSD -1
REMARK  0 active torsions:
REMARK  status: ('A' for Active; 'I' for Inactive)
ROOT
ATOM      1  C   UNL d   1       0.387  -2.375   1.928  0.00  0.00     0.078 C 
ATOM      2  C1  UNL d   1       0.016  -1.496   0.771  0.00  0.00    -0.077 A 
ATOM      3  C2  UNL d   1      -1.207  -1.655   0.108  0.00  0.00    -0.001 A 
ATOM      4  C3  UNL d   1      -1.535  -0.836  -0.974  0.00  0.00     0.003 A 
ATOM      5  C4  UNL d   1      -0.644   0.146  -1.403  0.00  0.00    -0.005 A 
ATOM      6  C5  UNL d   1       0.576   0.310  -0.750  0.00  0.00     0.003 A 
ATOM      7  C6  UNL d   1       0.906  -0.508   0.332  0.00  0.00    -0.001 A 
ENDROOT
TORSDOF 0
ENDMDL
