MODEL 1
REMARK minimizedAffinity -4.44777679
REMARK minimizedRMSD -1
REMARK  0 active torsions:
REMARK  status: ('A' for Active; 'I' for Inactive)
ROOT
ATOM      1  C   UNL d   1       3.403   4.348  -1.990  0.00  0.00     0.078 C 
ATOM      2  C1  UNL d   1       2.969   3.645  -0.738  0.00  0.00    -0.077 A 
ATOM      3  C2  UNL d   1       2.886   4.328   0.481  0.00  0.00    -0.001 A 
ATOM      4  C3  UNL d   1       2.490   3.659   1.640  0.00  0.00     0.003 A 
ATOM      5  C4  UNL d   1       2.175   2.303   1.592  0.00  0.00    -0.005 A 
ATOM      6  C5  UNL d   1       2.256   1.614   0.383  0.00  0.00     0.003 A 
ATOM      7  C6  UNL d   1       2.652   2.281  -0.777  0.00  0.00    -0.001 A 
ENDROOT
TORSDOF 0
ENDMDL
