MODEL 1
REMARK minimizedAffinity 11.3149338
REMARK minimizedRMSD -1
REMARK  0 active torsions:
REMARK  status: ('A' for Active; 'I' for Inactive)
ROOT
ATOM      1  C1  DEN d   1      -4.741   4.247  -0.065  0.00  0.00     0.130 A 
ATOM      2  C2  DEN d   1      -5.922   4.528   0.746  0.00  0.00    -0.031 A 
ATOM      3  C3  DEN d   1      -5.486   5.266   1.949  0.00  0.00     0.027 A 
ATOM      4  C4  DEN d   1      -3.108   6.000   2.627  0.00  0.00     0.027 A 
ATOM      5  C5  DEN d   1      -1.780   5.978   2.264  0.00  0.00    -0.003 A 
ATOM      6  C6  DEN d   1      -1.345   5.353   1.125  0.00  0.00     0.001 A 
ATOM      7  C7  DEN d   1      -2.252   4.763   0.285  0.00  0.00     0.017 A 
ATOM      8  C8  DEN d   1      -3.592   4.775   0.649  0.00  0.00    -0.094 A 
ATOM      9  C9  DEN d   1      -4.014   5.422   1.798  0.00  0.00    -0.072 A 
ENDROOT
TORSDOF 0
ENDMDL
