MODEL 1
REMARK minimizedAffinity 9.31258678
REMARK minimizedRMSD -1
REMARK  0 active torsions:
REMARK  status: ('A' for Active; 'I' for Inactive)
ROOT
ATOM      1  C1  DEN d   1       0.374   2.129   4.150  0.00  0.00     0.130 A 
ATOM      2  C2  DEN d   1       1.728   2.542   3.793  0.00  0.00    -0.031 A 
ATOM      3  C3  DEN d   1       2.661   1.494   4.252  0.00  0.00     0.027 A 
ATOM      4  C4  DEN d   1       2.142  -0.720   5.469  0.00  0.00     0.027 A 
ATOM      5  C5  DEN d   1       1.139  -1.502   5.997  0.00  0.00    -0.003 A 
ATOM      6  C6  DEN d   1      -0.175  -1.116   5.977  0.00  0.00     0.001 A 
ATOM      7  C7  DEN d   1      -0.527   0.064   5.377  0.00  0.00     0.017 A 
ATOM      8  C8  DEN d   1       0.480   0.861   4.849  0.00  0.00    -0.094 A 
ATOM      9  C9  DEN d   1       1.801   0.448   4.868  0.00  0.00    -0.072 A 
ENDROOT
TORSDOF 0
ENDMDL
