MODEL 1
REMARK minimizedAffinity -0.224292517
REMARK minimizedRMSD -1
REMARK  0 active torsions:
REMARK  status: ('A' for Active; 'I' for Inactive)
ROOT
ATOM      1  C1  DEN d   1      -5.692  -1.459   0.454  0.00  0.00     0.130 A 
ATOM      2  C2  DEN d   1      -5.255  -1.423  -0.939  0.00  0.00    -0.031 A 
ATOM      3  C3  DEN d   1      -3.853  -0.958  -0.965  0.00  0.00     0.027 A 
ATOM      4  C4  DEN d   1      -2.325  -0.299   1.006  0.00  0.00     0.027 A 
ATOM      5  C5  DEN d   1      -2.257  -0.157   2.374  0.00  0.00    -0.003 A 
ATOM      6  C6  DEN d   1      -3.330  -0.404   3.188  0.00  0.00     0.001 A 
ATOM      7  C7  DEN d   1      -4.506  -0.851   2.645  0.00  0.00     0.017 A 
ATOM      8  C8  DEN d   1      -4.585  -0.989   1.266  0.00  0.00    -0.094 A 
ATOM      9  C9  DEN d   1      -3.485  -0.746   0.461  0.00  0.00    -0.072 A 
ENDROOT
TORSDOF 0
ENDMDL
