MODEL 1
REMARK minimizedAffinity 3.81479311
REMARK minimizedRMSD -1
REMARK  0 active torsions:
REMARK  status: ('A' for Active; 'I' for Inactive)
ROOT
ATOM      1  C1  DEN d   1      -1.009   2.824   1.650  0.00  0.00     0.130 A 
ATOM      2  C2  DEN d   1      -0.207   3.446   2.700  0.00  0.00    -0.031 A 
ATOM      3  C3  DEN d   1      -0.136   2.507   3.837  0.00  0.00     0.027 A 
ATOM      4  C4  DEN d   1      -1.180   0.160   4.071  0.00  0.00     0.027 A 
ATOM      5  C5  DEN d   1      -1.958  -0.790   3.446  0.00  0.00    -0.003 A 
ATOM      6  C6  DEN d   1      -2.497  -0.590   2.203  0.00  0.00     0.001 A 
ATOM      7  C7  DEN d   1      -2.228   0.570   1.525  0.00  0.00     0.017 A 
ATOM      8  C8  DEN d   1      -1.452   1.536   2.152  0.00  0.00    -0.094 A 
ATOM      9  C9  DEN d   1      -0.906   1.310   3.404  0.00  0.00    -0.072 A 
ENDROOT
TORSDOF 0
ENDMDL
