MODEL 1
REMARK minimizedAffinity 10.4272556
REMARK minimizedRMSD -1
REMARK  0 active torsions:
REMARK  status: ('A' for Active; 'I' for Inactive)
ROOT
ATOM      1  C1  DEN d   1       0.337   0.293   3.347  0.00  0.00     0.130 A 
ATOM      2  C2  DEN d   1      -0.010   1.646   3.775  0.00  0.00    -0.031 A 
ATOM      3  C3  DEN d   1       0.555   2.594   2.793  0.00  0.00     0.027 A 
ATOM      4  C4  DEN d   1       1.920   2.100   0.661  0.00  0.00     0.027 A 
ATOM      5  C5  DEN d   1       2.476   1.103  -0.110  0.00  0.00    -0.003 A 
ATOM      6  C6  DEN d   1       2.387  -0.220   0.232  0.00  0.00     0.001 A 
ATOM      7  C7  DEN d   1       1.689  -0.586   1.352  0.00  0.00     0.017 A 
ATOM      8  C8  DEN d   1       1.132   0.413   2.139  0.00  0.00    -0.094 A 
ATOM      9  C9  DEN d   1       1.222   1.745   1.769  0.00  0.00    -0.072 A 
ENDROOT
TORSDOF 0
ENDMDL
