MODEL 1
REMARK minimizedAffinity 9.97284317
REMARK minimizedRMSD -1
REMARK  0 active torsions:
REMARK  status: ('A' for Active; 'I' for Inactive)
ROOT
ATOM      1  C1  DEN d   1      -1.141  -1.999   5.874  0.00  0.00     0.130 A 
ATOM      2  C2  DEN d   1       0.162  -1.350   5.751  0.00  0.00    -0.031 A 
ATOM      3  C3  DEN d   1       1.192  -2.405   5.672  0.00  0.00     0.027 A 
ATOM      4  C4  DEN d   1       0.897  -4.967   5.721  0.00  0.00     0.027 A 
ATOM      5  C5  DEN d   1      -0.019  -5.990   5.824  0.00  0.00    -0.003 A 
ATOM      6  C6  DEN d   1      -1.360  -5.756   5.984  0.00  0.00     0.001 A 
ATOM      7  C7  DEN d   1      -1.826  -4.468   6.000  0.00  0.00     0.017 A 
ATOM      8  C8  DEN d   1      -0.907  -3.432   5.904  0.00  0.00    -0.094 A 
ATOM      9  C9  DEN d   1       0.442  -3.689   5.730  0.00  0.00    -0.072 A 
ENDROOT
TORSDOF 0
ENDMDL
