MODEL 1
REMARK minimizedAffinity 11.844696
REMARK minimizedRMSD -1
REMARK  0 active torsions:
REMARK  status: ('A' for Active; 'I' for Inactive)
ROOT
ATOM      1  C1  DEN d   1       1.413  -2.448  -1.161  0.00  0.00     0.130 A 
ATOM      2  C2  DEN d   1      -0.030  -2.666  -1.106  0.00  0.00    -0.031 A 
ATOM      3  C3  DEN d   1      -0.654  -1.450  -0.546  0.00  0.00     0.027 A 
ATOM      4  C4  DEN d   1       0.468   0.738   0.232  0.00  0.00     0.027 A 
ATOM      5  C5  DEN d   1       1.673   1.387   0.390  0.00  0.00    -0.003 A 
ATOM      6  C6  DEN d   1       2.868   0.796   0.076  0.00  0.00     0.001 A 
ATOM      7  C7  DEN d   1       2.881  -0.467  -0.455  0.00  0.00     0.017 A 
ATOM      8  C8  DEN d   1       1.672  -1.131  -0.610  0.00  0.00    -0.094 A 
ATOM      9  C9  DEN d   1       0.473  -0.511  -0.298  0.00  0.00    -0.072 A 
ENDROOT
TORSDOF 0
ENDMDL
