MODEL 1
REMARK minimizedAffinity -1.48166394
REMARK minimizedRMSD -1
REMARK  0 active torsions:
REMARK  status: ('A' for Active; 'I' for Inactive)
ROOT
ATOM      1  C1  BNZ d   1       5.278  -4.246  -5.519  0.00  0.00     0.000 A 
ATOM      2  C2  BNZ d   1       5.987  -3.171  -5.985  0.00  0.00     0.000 A 
ATOM      3  C3  BNZ d   1       6.000  -1.990  -5.297  0.00  0.00     0.000 A 
ATOM      4  C4  BNZ d   1       5.273  -1.873  -4.167  0.00  0.00     0.000 A 
ATOM      5  C5  BNZ d   1       4.545  -2.945  -3.690  0.00  0.00     0.000 A 
ATOM      6  C6  BNZ d   1       4.566  -4.144  -4.364  0.00  0.00     0.000 A 
ENDROOT
TORSDOF 0
ENDMDL
