MODEL 1
REMARK minimizedAffinity 5.51366711
REMARK minimizedRMSD -1
REMARK  0 active torsions:
REMARK  status: ('A' for Active; 'I' for Inactive)
ROOT
ATOM      1  C1  BNZ d   1      -3.678   0.589  -2.779  0.00  0.00     0.000 A 
ATOM      2  C2  BNZ d   1      -3.965   1.928  -2.791  0.00  0.00     0.000 A 
ATOM      3  C3  BNZ d   1      -2.970   2.856  -2.921  0.00  0.00     0.000 A 
ATOM      4  C4  BNZ d   1      -1.687   2.447  -2.997  0.00  0.00     0.000 A 
ATOM      5  C5  BNZ d   1      -1.381   1.101  -2.977  0.00  0.00     0.000 A 
ATOM      6  C6  BNZ d   1      -2.389   0.168  -2.886  0.00  0.00     0.000 A 
ENDROOT
TORSDOF 0
ENDMDL
