MODEL 1
REMARK minimizedAffinity 0.0632803366
REMARK minimizedRMSD -1
REMARK  0 active torsions:
REMARK  status: ('A' for Active; 'I' for Inactive)
ROOT
ATOM      1  C1  BNZ d   1       2.401  -3.311  -0.344  0.00  0.00     0.000 A 
ATOM      2  C2  BNZ d   1       1.372  -3.763  -1.126  0.00  0.00     0.000 A 
ATOM      3  C3  BNZ d   1       0.971  -5.069  -1.069  0.00  0.00     0.000 A 
ATOM      4  C4  BNZ d   1       1.624  -5.928  -0.261  0.00  0.00     0.000 A 
ATOM      5  C5  BNZ d   1       2.669  -5.490   0.527  0.00  0.00     0.000 A 
ATOM      6  C6  BNZ d   1       3.045  -4.166   0.496  0.00  0.00     0.000 A 
ENDROOT
TORSDOF 0
ENDMDL
