MODEL 1
REMARK minimizedAffinity 0.84124428
REMARK minimizedRMSD -1
REMARK  0 active torsions:
REMARK  status: ('A' for Active; 'I' for Inactive)
ROOT
ATOM      1  C1  BNZ d   1       3.925  -3.877  -4.866  0.00  0.00     0.000 A 
ATOM      2  C2  BNZ d   1       3.953  -5.197  -4.502  0.00  0.00     0.000 A 
ATOM      3  C3  BNZ d   1       4.999  -6.000  -4.861  0.00  0.00     0.000 A 
ATOM      4  C4  BNZ d   1       5.995  -5.493  -5.616  0.00  0.00     0.000 A 
ATOM      5  C5  BNZ d   1       5.976  -4.167  -5.999  0.00  0.00     0.000 A 
ATOM      6  C6  BNZ d   1       4.941  -3.351  -5.603  0.00  0.00     0.000 A 
ENDROOT
TORSDOF 0
ENDMDL
