MODEL 1
REMARK minimizedAffinity 3.19170284
REMARK minimizedRMSD -1
REMARK  0 active torsions:
REMARK  status: ('A' for Active; 'I' for Inactive)
ROOT
ATOM      1  C1  BNZ d   1       4.516   5.840  -1.632  0.00  0.00     0.000 A 
ATOM      2  C2  BNZ d   1       4.676   4.884  -2.600  0.00  0.00     0.000 A 
ATOM      3  C3  BNZ d   1       3.637   4.070  -2.958  0.00  0.00     0.000 A 
ATOM      4  C4  BNZ d   1       2.454   4.186  -2.321  0.00  0.00     0.000 A 
ATOM      5  C5  BNZ d   1       2.280   5.138  -1.337  0.00  0.00     0.000 A 
ATOM      6  C6  BNZ d   1       3.316   5.981  -1.006  0.00  0.00     0.000 A 
ENDROOT
TORSDOF 0
ENDMDL
