MODEL 1
REMARK minimizedAffinity -2.1860199
REMARK minimizedRMSD -1
REMARK  0 active torsions:
REMARK  status: ('A' for Active; 'I' for Inactive)
ROOT
ATOM      1  C1  BNZ d   1       3.734   5.213  -1.833  0.00  0.00     0.000 A 
ATOM      2  C2  BNZ d   1       3.691   4.149  -2.695  0.00  0.00     0.000 A 
ATOM      3  C3  BNZ d   1       4.804   3.769  -3.393  0.00  0.00     0.000 A 
ATOM      4  C4  BNZ d   1       5.944   4.476  -3.259  0.00  0.00     0.000 A 
ATOM      5  C5  BNZ d   1       6.000   5.557  -2.401  0.00  0.00     0.000 A 
ATOM      6  C6  BNZ d   1       4.889   5.913  -1.671  0.00  0.00     0.000 A 
ENDROOT
TORSDOF 0
ENDMDL
