MODEL 1
REMARK minimizedAffinity 2.65172291
REMARK minimizedRMSD -1
REMARK  0 active torsions:
REMARK  status: ('A' for Active; 'I' for Inactive)
ROOT
ATOM      1  C1  BNZ d   1      -5.813  -1.197  -4.818  0.00  0.00     0.000 A 
ATOM      2  C2  BNZ d   1      -5.886  -1.892  -5.995  0.00  0.00     0.000 A 
ATOM      3  C3  BNZ d   1      -6.000  -3.254  -5.998  0.00  0.00     0.000 A 
ATOM      4  C4  BNZ d   1      -6.000  -3.922  -4.826  0.00  0.00     0.000 A 
ATOM      5  C5  BNZ d   1      -5.918  -3.235  -3.630  0.00  0.00     0.000 A 
ATOM      6  C6  BNZ d   1      -5.843  -1.862  -3.631  0.00  0.00     0.000 A 
ENDROOT
TORSDOF 0
ENDMDL
