MODEL 1
REMARK minimizedAffinity -1.51649153
REMARK minimizedRMSD -1
REMARK  0 active torsions:
REMARK  status: ('A' for Active; 'I' for Inactive)
ROOT
ATOM      1  C1  BNZ d   1      -0.455  -5.279  -0.526  0.00  0.00     0.000 A 
ATOM      2  C2  BNZ d   1      -1.576  -5.446   0.243  0.00  0.00     0.000 A 
ATOM      3  C3  BNZ d   1      -2.295  -4.367   0.676  0.00  0.00     0.000 A 
ATOM      4  C4  BNZ d   1      -1.870  -3.123   0.374  0.00  0.00     0.000 A 
ATOM      5  C5  BNZ d   1      -0.737  -2.938  -0.392  0.00  0.00     0.000 A 
ATOM      6  C6  BNZ d   1      -0.038  -4.027  -0.860  0.00  0.00     0.000 A 
ENDROOT
TORSDOF 0
ENDMDL
