MODEL 1
REMARK minimizedAffinity -4.74195623
REMARK minimizedRMSD -1
REMARK  0 active torsions:
REMARK  status: ('A' for Active; 'I' for Inactive)
ROOT
ATOM      1  C1  BNZ d   1       3.412  -1.115   2.035  0.00  0.00     0.000 A 
ATOM      2  C2  BNZ d   1       3.444  -0.269   0.959  0.00  0.00     0.000 A 
ATOM      3  C3  BNZ d   1       2.353  -0.127   0.147  0.00  0.00     0.000 A 
ATOM      4  C4  BNZ d   1       1.248  -0.861   0.389  0.00  0.00     0.000 A 
ATOM      5  C5  BNZ d   1       1.203  -1.725   1.464  0.00  0.00     0.000 A 
ATOM      6  C6  BNZ d   1       2.289  -1.836   2.302  0.00  0.00     0.000 A 
ENDROOT
TORSDOF 0
ENDMDL
