MODEL 1
REMARK minimizedAffinity -2.08836365
REMARK minimizedRMSD -1
REMARK  2 active torsions:
REMARK  status: ('A' for Active; 'I' for Inactive)
REMARK    1  A    between atoms: C2'_3  and  C1'_4 
REMARK    2  A    between atoms: C1'_4  and  C1_5 
ROOT
ATOM      1  C1  I4B d   1       0.359   0.826  -0.184  0.00  0.00    -0.075 A 
ATOM      2  C2  I4B d   1       0.550   0.418  -1.481  0.00  0.00     0.003 A 
ATOM      3  C3  I4B d   1       0.505  -0.959  -1.809  0.00  0.00     0.002 A 
ATOM      4  C4  I4B d   1       0.317  -1.890  -0.809  0.00  0.00    -0.004 A 
ATOM      5  C5  I4B d   1       0.100  -1.474   0.501  0.00  0.00     0.002 A 
ATOM      6  C6  I4B d   1       0.109  -0.107   0.814  0.00  0.00     0.003 A 
ENDROOT
BRANCH   1   7
ATOM      7  C1' I4B d   1       0.446   2.285   0.133  0.00  0.00     0.060 C 
BRANCH   7   8
ATOM      8  C2' I4B d   1       1.818   2.554   0.717  0.00  0.00    -0.013 C 
ATOM      9  C4' I4B d   1       2.757   3.098  -0.326  0.00  0.00     0.013 C 
ATOM     10  C3' I4B d   1       1.655   3.518   1.855  0.00  0.00     0.013 C 
ENDBRANCH   7   8
ENDBRANCH   1   7
TORSDOF 2
ENDMDL
