MODEL 1
REMARK minimizedAffinity -5.17931747
REMARK minimizedRMSD -1
REMARK  2 active torsions:
REMARK  status: ('A' for Active; 'I' for Inactive)
REMARK    1  A    between atoms: C2'_3  and  C1'_4 
REMARK    2  A    between atoms: C1'_4  and  C1_5 
ROOT
ATOM      1  C1  I4B d   1      -0.157   0.659  -0.170  0.00  0.00    -0.075 A 
ATOM      2  C2  I4B d   1       0.534  -0.161  -1.026  0.00  0.00     0.003 A 
ATOM      3  C3  I4B d   1       0.536  -1.563  -0.824  0.00  0.00     0.002 A 
ATOM      4  C4  I4B d   1      -0.121  -2.093   0.268  0.00  0.00    -0.004 A 
ATOM      5  C5  I4B d   1      -0.841  -1.261   1.121  0.00  0.00     0.002 A 
ATOM      6  C6  I4B d   1      -0.870   0.122   0.894  0.00  0.00     0.003 A 
ENDROOT
BRANCH   1   7
ATOM      7  C1' I4B d   1      -0.110   2.138  -0.394  0.00  0.00     0.060 C 
BRANCH   7   8
ATOM      8  C2' I4B d   1       1.249   2.635   0.055  0.00  0.00    -0.013 C 
ATOM      9  C4' I4B d   1       1.822   3.618  -0.931  0.00  0.00     0.013 C 
ATOM     10  C3' I4B d   1       1.090   3.257   1.410  0.00  0.00     0.013 C 
ENDBRANCH   7   8
ENDBRANCH   1   7
TORSDOF 2
ENDMDL
