MODEL 1
REMARK minimizedAffinity -4.49097729
REMARK minimizedRMSD -1
REMARK  2 active torsions:
REMARK  status: ('A' for Active; 'I' for Inactive)
REMARK    1  A    between atoms: C2'_3  and  C1'_4 
REMARK    2  A    between atoms: C1'_4  and  C1_5 
ROOT
ATOM      1  C1  I4B d   1       0.373  -0.816   0.075  0.00  0.00    -0.075 A 
ATOM      2  C2  I4B d   1       0.289  -1.607   1.195  0.00  0.00     0.003 A 
ATOM      3  C3  I4B d   1       0.043  -2.995   1.070  0.00  0.00     0.002 A 
ATOM      4  C4  I4B d   1      -0.161  -3.540  -0.182  0.00  0.00    -0.004 A 
ATOM      5  C5  I4B d   1      -0.052  -2.741  -1.317  0.00  0.00     0.002 A 
ATOM      6  C6  I4B d   1       0.229  -1.373  -1.189  0.00  0.00     0.003 A 
ENDROOT
BRANCH   1   7
ATOM      7  C1' I4B d   1       0.602   0.652   0.246  0.00  0.00     0.060 C 
BRANCH   7   8
ATOM      8  C2' I4B d   1      -0.656   1.374  -0.194  0.00  0.00    -0.013 C 
ATOM      9  C4' I4B d   1      -0.788   1.376  -1.694  0.00  0.00     0.013 C 
ATOM     10  C3' I4B d   1      -1.828   0.696   0.452  0.00  0.00     0.013 C 
ENDBRANCH   7   8
ENDBRANCH   1   7
TORSDOF 2
ENDMDL
