MODEL 1
REMARK minimizedAffinity 2.88718724
REMARK minimizedRMSD -1
REMARK  2 active torsions:
REMARK  status: ('A' for Active; 'I' for Inactive)
REMARK    1  A    between atoms: C2'_3  and  C1'_4 
REMARK    2  A    between atoms: C1'_4  and  C1_5 
ROOT
ATOM      1  C1  I4B d   1      -1.446  -2.599   0.203  0.00  0.00    -0.075 A 
ATOM      2  C2  I4B d   1      -1.085  -1.375  -0.302  0.00  0.00     0.003 A 
ATOM      3  C3  I4B d   1       0.228  -1.163  -0.786  0.00  0.00     0.002 A 
ATOM      4  C4  I4B d   1       1.157  -2.180  -0.699  0.00  0.00    -0.004 A 
ATOM      5  C5  I4B d   1       0.783  -3.427  -0.207  0.00  0.00     0.002 A 
ATOM      6  C6  I4B d   1      -0.530  -3.643   0.235  0.00  0.00     0.003 A 
ENDROOT
BRANCH   1   7
ATOM      7  C1' I4B d   1      -2.833  -2.778   0.736  0.00  0.00     0.060 C 
BRANCH   7   8
ATOM      8  C2' I4B d   1      -3.515  -3.851  -0.089  0.00  0.00    -0.013 C 
ATOM      9  C4' I4B d   1      -4.792  -4.310   0.563  0.00  0.00     0.013 C 
ATOM     10  C3' I4B d   1      -3.776  -3.288  -1.455  0.00  0.00     0.013 C 
ENDBRANCH   7   8
ENDBRANCH   1   7
TORSDOF 2
ENDMDL
