MODEL 1
REMARK minimizedAffinity -4.30905247
REMARK minimizedRMSD -1
REMARK  2 active torsions:
REMARK  status: ('A' for Active; 'I' for Inactive)
REMARK    1  A    between atoms: C2'_3  and  C1'_4 
REMARK    2  A    between atoms: C1'_4  and  C1_5 
ROOT
ATOM      1  C1  I4B d   1       0.163  -0.259  -0.160  0.00  0.00    -0.075 A 
ATOM      2  C2  I4B d   1      -0.581  -0.477   0.972  0.00  0.00     0.003 A 
ATOM      3  C3  I4B d   1      -0.834  -1.798   1.416  0.00  0.00     0.002 A 
ATOM      4  C4  I4B d   1      -0.368  -2.864   0.674  0.00  0.00    -0.004 A 
ATOM      5  C5  I4B d   1       0.406  -2.641  -0.461  0.00  0.00     0.002 A 
ATOM      6  C6  I4B d   1       0.684  -1.330  -0.874  0.00  0.00     0.003 A 
ENDROOT
BRANCH   1   7
ATOM      7  C1' I4B d   1       0.383   1.148  -0.618  0.00  0.00     0.060 C 
BRANCH   7   8
ATOM      8  C2' I4B d   1       1.204   1.860   0.438  0.00  0.00    -0.013 C 
ATOM      9  C4' I4B d   1       2.567   2.227  -0.087  0.00  0.00     0.013 C 
ATOM     10  C3' I4B d   1       0.445   3.079   0.871  0.00  0.00     0.013 C 
ENDBRANCH   7   8
ENDBRANCH   1   7
TORSDOF 2
ENDMDL
