MODEL 1
REMARK minimizedAffinity -5.15258932
REMARK minimizedRMSD -1
REMARK  2 active torsions:
REMARK  status: ('A' for Active; 'I' for Inactive)
REMARK    1  A    between atoms: C2'_3  and  C1'_4 
REMARK    2  A    between atoms: C1'_4  and  C1_5 
ROOT
ATOM      1  C1  I4B d   1       0.175  -0.171  -0.205  0.00  0.00    -0.075 A 
ATOM      2  C2  I4B d   1       0.597  -1.152  -1.067  0.00  0.00     0.003 A 
ATOM      3  C3  I4B d   1       0.503  -2.515  -0.696  0.00  0.00     0.002 A 
ATOM      4  C4  I4B d   1       0.032  -2.848   0.558  0.00  0.00    -0.004 A 
ATOM      5  C5  I4B d   1      -0.417  -1.853   1.422  0.00  0.00     0.002 A 
ATOM      6  C6  I4B d   1      -0.356  -0.506   1.034  0.00  0.00     0.003 A 
ENDROOT
BRANCH   1   7
ATOM      7  C1' I4B d   1       0.319   1.260  -0.616  0.00  0.00     0.060 C 
BRANCH   7   8
ATOM      8  C2' I4B d   1       1.078   1.986   0.477  0.00  0.00    -0.013 C 
ATOM      9  C4' I4B d   1       2.438   2.423  -0.002  0.00  0.00     0.013 C 
ATOM     10  C3' I4B d   1       0.254   3.160   0.912  0.00  0.00     0.013 C 
ENDBRANCH   7   8
ENDBRANCH   1   7
TORSDOF 2
ENDMDL
