MODEL 1
REMARK minimizedAffinity -6.39811087
REMARK minimizedRMSD -1
REMARK  2 active torsions:
REMARK  status: ('A' for Active; 'I' for Inactive)
REMARK    1  A    between atoms: C2'_3  and  C1'_4 
REMARK    2  A    between atoms: C1'_4  and  C1_5 
ROOT
ATOM      1  C1  I4B d   1      -0.116  -0.224   0.106  0.00  0.00    -0.075 A 
ATOM      2  C2  I4B d   1       0.741  -1.142  -0.447  0.00  0.00     0.003 A 
ATOM      3  C3  I4B d   1       0.772  -2.472   0.039  0.00  0.00     0.002 A 
ATOM      4  C4  I4B d   1      -0.029  -2.824   1.107  0.00  0.00    -0.004 A 
ATOM      5  C5  I4B d   1      -0.913  -1.897   1.652  0.00  0.00     0.002 A 
ATOM      6  C6  I4B d   1      -0.966  -0.592   1.141  0.00  0.00     0.003 A 
ENDROOT
BRANCH   1   7
ATOM      7  C1' I4B d   1      -0.099   1.180  -0.410  0.00  0.00     0.060 C 
BRANCH   7   8
ATOM      8  C2' I4B d   1       0.684   2.029   0.571  0.00  0.00    -0.013 C 
ATOM      9  C4' I4B d   1       2.087   2.273   0.082  0.00  0.00     0.013 C 
ATOM     10  C3' I4B d   1      -0.056   3.320   0.760  0.00  0.00     0.013 C 
ENDBRANCH   7   8
ENDBRANCH   1   7
TORSDOF 2
ENDMDL
