MODEL 1
REMARK minimizedAffinity -5.24496651
REMARK minimizedRMSD -1
REMARK  2 active torsions:
REMARK  status: ('A' for Active; 'I' for Inactive)
REMARK    1  A    between atoms: C2'_3  and  C1'_4 
REMARK    2  A    between atoms: C1'_4  and  C1_5 
ROOT
ATOM      1  C1  I4B d   1       0.010  -1.267  -0.397  0.00  0.00    -0.075 A 
ATOM      2  C2  I4B d   1       0.169  -1.831   0.844  0.00  0.00     0.003 A 
ATOM      3  C3  I4B d   1       0.433  -3.217   0.969  0.00  0.00     0.002 A 
ATOM      4  C4  I4B d   1       0.480  -4.004  -0.163  0.00  0.00    -0.004 A 
ATOM      5  C5  I4B d   1       0.341  -3.427  -1.421  0.00  0.00     0.002 A 
ATOM      6  C6  I4B d   1       0.117  -2.048  -1.541  0.00  0.00     0.003 A 
ENDROOT
BRANCH   1   7
ATOM      7  C1' I4B d   1      -0.301   0.193  -0.491  0.00  0.00     0.060 C 
BRANCH   7   8
ATOM      8  C2' I4B d   1      -0.247   0.772   0.908  0.00  0.00    -0.013 C 
ATOM      9  C4' I4B d   1       0.266   2.188   0.892  0.00  0.00     0.013 C 
ATOM     10  C3' I4B d   1      -1.627   0.703   1.492  0.00  0.00     0.013 C 
ENDBRANCH   7   8
ENDBRANCH   1   7
TORSDOF 2
ENDMDL
