MODEL 1
REMARK minimizedAffinity -6.14783096
REMARK minimizedRMSD -1
REMARK  2 active torsions:
REMARK  status: ('A' for Active; 'I' for Inactive)
REMARK    1  A    between atoms: C2'_3  and  C1'_4 
REMARK    2  A    between atoms: C1'_4  and  C1_5 
ROOT
ATOM      1  C1  I4B d   1      -0.261  -0.597   0.321  0.00  0.00    -0.075 A 
ATOM      2  C2  I4B d   1      -1.272  -1.309   0.916  0.00  0.00     0.003 A 
ATOM      3  C3  I4B d   1      -1.363  -2.709   0.730  0.00  0.00     0.002 A 
ATOM      4  C4  I4B d   1      -0.458  -3.346  -0.094  0.00  0.00    -0.004 A 
ATOM      5  C5  I4B d   1       0.581  -2.626  -0.678  0.00  0.00     0.002 A 
ATOM      6  C6  I4B d   1       0.688  -1.245  -0.460  0.00  0.00     0.003 A 
ENDROOT
BRANCH   1   7
ATOM      7  C1' I4B d   1      -0.214   0.886   0.512  0.00  0.00     0.060 C 
BRANCH   7   8
ATOM      8  C2' I4B d   1       0.638   1.473  -0.595  0.00  0.00    -0.013 C 
ATOM      9  C4' I4B d   1      -0.124   1.537  -1.893  0.00  0.00     0.013 C 
ATOM     10  C3' I4B d   1       1.085   2.837  -0.162  0.00  0.00     0.013 C 
ENDBRANCH   7   8
ENDBRANCH   1   7
TORSDOF 2
ENDMDL
