MODEL 1
REMARK minimizedAffinity -3.46669984
REMARK minimizedRMSD -1
REMARK  2 active torsions:
REMARK  status: ('A' for Active; 'I' for Inactive)
REMARK    1  A    between atoms: C2'_3  and  C1'_4 
REMARK    2  A    between atoms: C1'_4  and  C1_5 
ROOT
ATOM      1  C1  I4B d   1       0.249   1.030  -0.267  0.00  0.00    -0.075 A 
ATOM      2  C2  I4B d   1       0.101   0.570  -1.553  0.00  0.00     0.003 A 
ATOM      3  C3  I4B d   1      -0.114  -0.808  -1.797  0.00  0.00     0.002 A 
ATOM      4  C4  I4B d   1      -0.123  -1.692  -0.738  0.00  0.00    -0.004 A 
ATOM      5  C5  I4B d   1       0.005  -1.222   0.566  0.00  0.00     0.002 A 
ATOM      6  C6  I4B d   1       0.179   0.149   0.804  0.00  0.00     0.003 A 
ENDROOT
BRANCH   1   7
ATOM      7  C1' I4B d   1       0.507   2.487  -0.048  0.00  0.00     0.060 C 
BRANCH   7   8
ATOM      8  C2' I4B d   1       1.921   2.637   0.475  0.00  0.00    -0.013 C 
ATOM      9  C4' I4B d   1       2.911   2.747  -0.655  0.00  0.00     0.013 C 
ATOM     10  C3' I4B d   1       1.964   3.852   1.353  0.00  0.00     0.013 C 
ENDBRANCH   7   8
ENDBRANCH   1   7
TORSDOF 2
ENDMDL
