MODEL 1
REMARK minimizedAffinity 3.24227977
REMARK minimizedRMSD -1
REMARK  0 active torsions:
REMARK  status: ('A' for Active; 'I' for Inactive)
ROOT
ATOM      1  C   UNL d   1       4.165  -0.555  -1.786  0.00  0.00     0.078 C 
ATOM      2  C1  UNL d   1       3.159  -1.234  -0.907  0.00  0.00    -0.077 A 
ATOM      3  C2  UNL d   1       2.554  -2.435  -1.297  0.00  0.00    -0.001 A 
ATOM      4  C3  UNL d   1       1.611  -3.052  -0.472  0.00  0.00     0.003 A 
ATOM      5  C4  UNL d   1       1.265  -2.474   0.747  0.00  0.00    -0.005 A 
ATOM      6  C5  UNL d   1       1.860  -1.278   1.144  0.00  0.00     0.003 A 
ATOM      7  C6  UNL d   1       2.803  -0.660   0.320  0.00  0.00    -0.001 A 
ENDROOT
TORSDOF 0
ENDMDL
