MODEL 1
REMARK minimizedAffinity 1.91243958
REMARK minimizedRMSD -1
REMARK  0 active torsions:
REMARK  status: ('A' for Active; 'I' for Inactive)
ROOT
ATOM      1  C   UNL d   1       3.082  -1.526  -2.150  0.00  0.00     0.078 C 
ATOM      2  C1  UNL d   1       2.222  -1.034  -1.024  0.00  0.00    -0.077 A 
ATOM      3  C2  UNL d   1       2.174   0.326  -0.695  0.00  0.00    -0.001 A 
ATOM      4  C3  UNL d   1       1.378   0.769   0.362  0.00  0.00     0.003 A 
ATOM      5  C4  UNL d   1       0.624  -0.142   1.100  0.00  0.00    -0.005 A 
ATOM      6  C5  UNL d   1       0.667  -1.498   0.781  0.00  0.00     0.003 A 
ATOM      7  C6  UNL d   1       1.463  -1.943  -0.276  0.00  0.00    -0.001 A 
ENDROOT
TORSDOF 0
ENDMDL
