MODEL 1
REMARK minimizedAffinity -4.71226978
REMARK minimizedRMSD -1
REMARK  0 active torsions:
REMARK  status: ('A' for Active; 'I' for Inactive)
ROOT
ATOM      1  C   UNL d   1      -4.913   2.946  -2.251  0.00  0.00     0.078 C 
ATOM      2  C1  UNL d   1      -3.494   3.283  -2.603  0.00  0.00    -0.077 A 
ATOM      3  C2  UNL d   1      -2.733   2.436  -3.418  0.00  0.00    -0.001 A 
ATOM      4  C3  UNL d   1      -1.411   2.757  -3.730  0.00  0.00     0.003 A 
ATOM      5  C4  UNL d   1      -0.838   3.924  -3.230  0.00  0.00    -0.005 A 
ATOM      6  C5  UNL d   1      -1.587   4.772  -2.416  0.00  0.00     0.003 A 
ATOM      7  C6  UNL d   1      -2.909   4.453  -2.104  0.00  0.00    -0.001 A 
ENDROOT
TORSDOF 0
ENDMDL
