MODEL 1
REMARK minimizedAffinity -2.83121753
REMARK minimizedRMSD -1
REMARK  0 active torsions:
REMARK  status: ('A' for Active; 'I' for Inactive)
ROOT
ATOM      1  C   UNL d   1       0.753  -0.749   1.081  0.00  0.00     0.078 C 
ATOM      2  C1  UNL d   1       1.617  -0.487  -0.116  0.00  0.00    -0.077 A 
ATOM      3  C2  UNL d   1       2.236  -1.539  -0.802  0.00  0.00    -0.001 A 
ATOM      4  C3  UNL d   1       3.045  -1.281  -1.909  0.00  0.00     0.003 A 
ATOM      5  C4  UNL d   1       3.244   0.030  -2.340  0.00  0.00    -0.005 A 
ATOM      6  C5  UNL d   1       2.633   1.083  -1.663  0.00  0.00     0.003 A 
ATOM      7  C6  UNL d   1       1.824   0.826  -0.555  0.00  0.00    -0.001 A 
ENDROOT
TORSDOF 0
ENDMDL
