MODEL 1
REMARK minimizedAffinity 3.13196802
REMARK minimizedRMSD -1
REMARK  0 active torsions:
REMARK  status: ('A' for Active; 'I' for Inactive)
ROOT
ATOM      1  C   UNL d   1       1.897   1.907  -0.385  0.00  0.00     0.078 C 
ATOM      2  C1  UNL d   1       1.911   0.413  -0.252  0.00  0.00    -0.077 A 
ATOM      3  C2  UNL d   1       1.101  -0.234   0.688  0.00  0.00    -0.001 A 
ATOM      4  C3  UNL d   1       1.131  -1.625   0.808  0.00  0.00     0.003 A 
ATOM      5  C4  UNL d   1       1.970  -2.379  -0.010  0.00  0.00    -0.005 A 
ATOM      6  C5  UNL d   1       2.781  -1.743  -0.947  0.00  0.00     0.003 A 
ATOM      7  C6  UNL d   1       2.753  -0.353  -1.068  0.00  0.00    -0.001 A 
ENDROOT
TORSDOF 0
ENDMDL
