MODEL 1
REMARK minimizedAffinity -2.6584084
REMARK minimizedRMSD -1
REMARK  0 active torsions:
REMARK  status: ('A' for Active; 'I' for Inactive)
ROOT
ATOM      1  C   UNL d   1       0.166  -0.749   1.507  0.00  0.00     0.078 C 
ATOM      2  C1  UNL d   1       1.227  -0.503   0.476  0.00  0.00    -0.077 A 
ATOM      3  C2  UNL d   1       1.470   0.785  -0.015  0.00  0.00    -0.001 A 
ATOM      4  C3  UNL d   1       2.455   0.998  -0.982  0.00  0.00     0.003 A 
ATOM      5  C4  UNL d   1       3.202  -0.073  -1.467  0.00  0.00    -0.005 A 
ATOM      6  C5  UNL d   1       2.965  -1.359  -0.986  0.00  0.00     0.003 A 
ATOM      7  C6  UNL d   1       1.982  -1.574  -0.019  0.00  0.00    -0.001 A 
ENDROOT
TORSDOF 0
ENDMDL
