MODEL 1
REMARK minimizedAffinity -4.01488686
REMARK minimizedRMSD -1
REMARK  0 active torsions:
REMARK  status: ('A' for Active; 'I' for Inactive)
ROOT
ATOM      1  C   UNL d   1       3.382  -1.394  -1.875  0.00  0.00     0.078 C 
ATOM      2  C1  UNL d   1       2.385  -0.715  -0.983  0.00  0.00    -0.077 A 
ATOM      3  C2  UNL d   1       1.694  -1.431   0.002  0.00  0.00    -0.001 A 
ATOM      4  C3  UNL d   1       0.761  -0.789   0.818  0.00  0.00     0.003 A 
ATOM      5  C4  UNL d   1       0.511   0.572   0.657  0.00  0.00    -0.005 A 
ATOM      6  C5  UNL d   1       1.192   1.293  -0.322  0.00  0.00     0.003 A 
ATOM      7  C6  UNL d   1       2.125   0.652  -1.139  0.00  0.00    -0.001 A 
ENDROOT
TORSDOF 0
ENDMDL
