MODEL 1
REMARK minimizedAffinity 1.2510401
REMARK minimizedRMSD -1
REMARK  0 active torsions:
REMARK  status: ('A' for Active; 'I' for Inactive)
ROOT
ATOM      1  C   UNL d   1      -0.746   6.000  -1.870  0.00  0.00     0.078 C 
ATOM      2  C1  UNL d   1      -0.806   4.681  -2.581  0.00  0.00    -0.077 A 
ATOM      3  C2  UNL d   1       0.364   3.987  -2.914  0.00  0.00    -0.001 A 
ATOM      4  C3  UNL d   1       0.294   2.765  -3.585  0.00  0.00     0.003 A 
ATOM      5  C4  UNL d   1      -0.944   2.226  -3.929  0.00  0.00    -0.005 A 
ATOM      6  C5  UNL d   1      -2.114   2.910  -3.604  0.00  0.00     0.003 A 
ATOM      7  C6  UNL d   1      -2.045   4.132  -2.933  0.00  0.00    -0.001 A 
ENDROOT
TORSDOF 0
ENDMDL
