MODEL 1
REMARK minimizedAffinity -4.37479639
REMARK minimizedRMSD -1
REMARK  0 active torsions:
REMARK  status: ('A' for Active; 'I' for Inactive)
ROOT
ATOM      1  C   UNL d   1       3.516  -1.440  -1.449  0.00  0.00     0.078 C 
ATOM      2  C1  UNL d   1       2.353  -1.257  -0.520  0.00  0.00    -0.077 A 
ATOM      3  C2  UNL d   1       1.446  -2.298  -0.286  0.00  0.00    -0.001 A 
ATOM      4  C3  UNL d   1       0.363  -2.111   0.574  0.00  0.00     0.003 A 
ATOM      5  C4  UNL d   1       0.175  -0.883   1.205  0.00  0.00    -0.005 A 
ATOM      6  C5  UNL d   1       1.070   0.160   0.976  0.00  0.00     0.003 A 
ATOM      7  C6  UNL d   1       2.154  -0.026   0.117  0.00  0.00    -0.001 A 
ENDROOT
TORSDOF 0
ENDMDL
