MODEL 1
REMARK minimizedAffinity -3.05369139
REMARK minimizedRMSD -1
REMARK  0 active torsions:
REMARK  status: ('A' for Active; 'I' for Inactive)
ROOT
ATOM      1  C   UNL d   1      -0.619  -0.666   1.891  0.00  0.00     0.078 C 
ATOM      2  C1  UNL d   1       0.511  -0.374   0.949  0.00  0.00    -0.077 A 
ATOM      3  C2  UNL d   1       1.174   0.859   0.978  0.00  0.00    -0.001 A 
ATOM      4  C3  UNL d   1       2.217   1.120   0.089  0.00  0.00     0.003 A 
ATOM      5  C4  UNL d   1       2.606   0.154  -0.837  0.00  0.00    -0.005 A 
ATOM      6  C5  UNL d   1       1.951  -1.075  -0.875  0.00  0.00     0.003 A 
ATOM      7  C6  UNL d   1       0.907  -1.338   0.014  0.00  0.00    -0.001 A 
ENDROOT
TORSDOF 0
ENDMDL
