MODEL 1
REMARK minimizedAffinity -3.66793799
REMARK minimizedRMSD -1
REMARK  0 active torsions:
REMARK  status: ('A' for Active; 'I' for Inactive)
ROOT
ATOM      1  C   UNL d   1       0.039  -0.675   1.450  0.00  0.00     0.078 C 
ATOM      2  C1  UNL d   1       1.102  -0.628   0.393  0.00  0.00    -0.077 A 
ATOM      3  C2  UNL d   1       1.837  -1.772   0.059  0.00  0.00    -0.001 A 
ATOM      4  C3  UNL d   1       2.830  -1.711  -0.920  0.00  0.00     0.003 A 
ATOM      5  C4  UNL d   1       3.097  -0.509  -1.572  0.00  0.00    -0.005 A 
ATOM      6  C5  UNL d   1       2.372   0.634  -1.245  0.00  0.00     0.003 A 
ATOM      7  C6  UNL d   1       1.379   0.576  -0.266  0.00  0.00    -0.001 A 
ENDROOT
TORSDOF 0
ENDMDL
