MODEL 1
REMARK minimizedAffinity -1.06388175
REMARK minimizedRMSD -1
REMARK  0 active torsions:
REMARK  status: ('A' for Active; 'I' for Inactive)
ROOT
ATOM      1  C   UNL d   1       0.621  -1.696   0.798  0.00  0.00     0.078 C 
ATOM      2  C1  UNL d   1       1.657  -1.139  -0.131  0.00  0.00    -0.077 A 
ATOM      3  C2  UNL d   1       2.392  -1.977  -0.978  0.00  0.00    -0.001 A 
ATOM      4  C3  UNL d   1       3.361  -1.445  -1.831  0.00  0.00     0.003 A 
ATOM      5  C4  UNL d   1       3.605  -0.073  -1.843  0.00  0.00    -0.005 A 
ATOM      6  C5  UNL d   1       2.880   0.769  -1.002  0.00  0.00     0.003 A 
ATOM      7  C6  UNL d   1       1.911   0.239  -0.149  0.00  0.00    -0.001 A 
ENDROOT
TORSDOF 0
ENDMDL
