MODEL 1
REMARK minimizedAffinity -1.12486196
REMARK minimizedRMSD -1
REMARK  0 active torsions:
REMARK  status: ('A' for Active; 'I' for Inactive)
ROOT
ATOM      1  C2' OXE d   1       0.936  -2.009  -0.625  0.00  0.00     0.078 C 
ATOM      2  C1' OXE d   1      -1.514  -1.466  -1.884  0.00  0.00     0.078 C 
ATOM      3  C1  OXE d   1      -1.103  -0.583  -0.733  0.00  0.00    -0.078 A 
ATOM      4  C2  OXE d   1       0.075  -0.884  -0.093  0.00  0.00    -0.078 A 
ATOM      5  C3  OXE d   1       0.527  -0.068   0.940  0.00  0.00     0.003 A 
ATOM      6  C4  OXE d   1      -0.281   0.964   1.433  0.00  0.00    -0.002 A 
ATOM      7  C5  OXE d   1      -1.503   1.264   0.821  0.00  0.00    -0.002 A 
ATOM      8  C6  OXE d   1      -1.908   0.528  -0.287  0.00  0.00     0.003 A 
ENDROOT
TORSDOF 0
ENDMDL
