MODEL 1
REMARK minimizedAffinity -4.92035723
REMARK minimizedRMSD -1
REMARK  0 active torsions:
REMARK  status: ('A' for Active; 'I' for Inactive)
ROOT
ATOM      1  C2' OXE d   1      -0.749   1.127   1.476  0.00  0.00     0.078 C 
ATOM      2  C1' OXE d   1      -0.385  -0.884  -0.449  0.00  0.00     0.078 C 
ATOM      3  C1  OXE d   1       0.843  -0.189   0.084  0.00  0.00    -0.078 A 
ATOM      4  C2  OXE d   1       0.653   0.825   0.991  0.00  0.00    -0.078 A 
ATOM      5  C3  OXE d   1       1.754   1.461   1.555  0.00  0.00     0.003 A 
ATOM      6  C4  OXE d   1       3.047   1.183   1.094  0.00  0.00    -0.002 A 
ATOM      7  C5  OXE d   1       3.260   0.181   0.141  0.00  0.00    -0.002 A 
ATOM      8  C6  OXE d   1       2.175  -0.542  -0.342  0.00  0.00     0.003 A 
ENDROOT
TORSDOF 0
ENDMDL
