MODEL 1
REMARK minimizedAffinity -2.21451545
REMARK minimizedRMSD -1
REMARK  0 active torsions:
REMARK  status: ('A' for Active; 'I' for Inactive)
ROOT
ATOM      1  C2' OXE d   1       2.952   1.890   1.448  0.00  0.00     0.078 C 
ATOM      2  C1' OXE d   1       3.039  -0.099  -0.531  0.00  0.00     0.078 C 
ATOM      3  C1  OXE d   1       1.697   0.234   0.073  0.00  0.00    -0.078 A 
ATOM      4  C2  OXE d   1       1.671   1.176   1.074  0.00  0.00    -0.078 A 
ATOM      5  C3  OXE d   1       0.453   1.560   1.627  0.00  0.00     0.003 A 
ATOM      6  C4  OXE d   1      -0.726   0.887   1.282  0.00  0.00    -0.002 A 
ATOM      7  C5  OXE d   1      -0.715  -0.103   0.293  0.00  0.00    -0.002 A 
ATOM      8  C6  OXE d   1       0.479  -0.410  -0.350  0.00  0.00     0.003 A 
ENDROOT
TORSDOF 0
ENDMDL
