MODEL 1
REMARK minimizedAffinity -2.77005482
REMARK minimizedRMSD -1
REMARK  0 active torsions:
REMARK  status: ('A' for Active; 'I' for Inactive)
ROOT
ATOM      1  C2' OXE d   1       0.726  -1.766  -0.767  0.00  0.00     0.078 C 
ATOM      2  C1' OXE d   1       2.633   0.228  -0.250  0.00  0.00     0.078 C 
ATOM      3  C1  OXE d   1       1.281   0.361   0.406  0.00  0.00    -0.078 A 
ATOM      4  C2  OXE d   1       0.339  -0.595   0.110  0.00  0.00    -0.078 A 
ATOM      5  C3  OXE d   1      -0.906  -0.550   0.731  0.00  0.00     0.003 A 
ATOM      6  C4  OXE d   1      -1.260   0.542   1.533  0.00  0.00    -0.002 A 
ATOM      7  C5  OXE d   1      -0.328   1.546   1.815  0.00  0.00    -0.002 A 
ATOM      8  C6  OXE d   1       0.957   1.449   1.295  0.00  0.00     0.003 A 
ENDROOT
TORSDOF 0
ENDMDL
