MODEL 1
REMARK minimizedAffinity 0.979339182
REMARK minimizedRMSD -1
REMARK  0 active torsions:
REMARK  status: ('A' for Active; 'I' for Inactive)
ROOT
ATOM      1  C2' OXE d   1       2.133  -0.474  -0.874  0.00  0.00     0.078 C 
ATOM      2  C1' OXE d   1      -0.209   0.087  -2.316  0.00  0.00     0.078 C 
ATOM      3  C1  OXE d   1      -0.172   0.469  -0.857  0.00  0.00    -0.078 A 
ATOM      4  C2  OXE d   1       0.960   0.148  -0.148  0.00  0.00    -0.078 A 
ATOM      5  C3  OXE d   1       1.068   0.527   1.187  0.00  0.00     0.003 A 
ATOM      6  C4  OXE d   1      -0.025   1.093   1.853  0.00  0.00    -0.002 A 
ATOM      7  C5  OXE d   1      -1.203   1.392   1.160  0.00  0.00    -0.002 A 
ATOM      8  C6  OXE d   1      -1.277   1.126  -0.203  0.00  0.00     0.003 A 
ENDROOT
TORSDOF 0
ENDMDL
