MODEL 1
REMARK minimizedAffinity -2.44651604
REMARK minimizedRMSD -1
REMARK  0 active torsions:
REMARK  status: ('A' for Active; 'I' for Inactive)
ROOT
ATOM      1  C2' OXE d   1      -0.743  -1.215   0.626  0.00  0.00     0.078 C 
ATOM      2  C1' OXE d   1       1.365  -1.515  -1.204  0.00  0.00     0.078 C 
ATOM      3  C1  OXE d   1      -0.044  -1.594  -1.735  0.00  0.00    -0.078 A 
ATOM      4  C2  OXE d   1      -1.070  -1.493  -0.826  0.00  0.00    -0.078 A 
ATOM      5  C3  OXE d   1      -2.389  -1.504  -1.270  0.00  0.00     0.003 A 
ATOM      6  C4  OXE d   1      -2.682  -1.771  -2.613  0.00  0.00    -0.002 A 
ATOM      7  C5  OXE d   1      -1.653  -1.917  -3.549  0.00  0.00    -0.002 A 
ATOM      8  C6  OXE d   1      -0.332  -1.789  -3.135  0.00  0.00     0.003 A 
ENDROOT
TORSDOF 0
ENDMDL
