MODEL 1
REMARK minimizedAffinity 0.0278541204
REMARK minimizedRMSD -1
REMARK  0 active torsions:
REMARK  status: ('A' for Active; 'I' for Inactive)
ROOT
ATOM      1  C2' OXE d   1       0.624  -2.200  -0.594  0.00  0.00     0.078 C 
ATOM      2  C1' OXE d   1      -1.730  -1.528  -1.969  0.00  0.00     0.078 C 
ATOM      3  C1  OXE d   1      -1.314  -0.650  -0.815  0.00  0.00    -0.078 A 
ATOM      4  C2  OXE d   1      -0.187  -1.013  -0.119  0.00  0.00    -0.078 A 
ATOM      5  C3  OXE d   1       0.271  -0.208   0.920  0.00  0.00     0.003 A 
ATOM      6  C4  OXE d   1      -0.489   0.882   1.360  0.00  0.00    -0.002 A 
ATOM      7  C5  OXE d   1      -1.662   1.246   0.689  0.00  0.00    -0.002 A 
ATOM      8  C6  OXE d   1      -2.065   0.517  -0.424  0.00  0.00     0.003 A 
ENDROOT
TORSDOF 0
ENDMDL
