MODEL 1
REMARK minimizedAffinity -1.35549831
REMARK minimizedRMSD -1
REMARK  0 active torsions:
REMARK  status: ('A' for Active; 'I' for Inactive)
ROOT
ATOM      1  C2' OXE d   1      -1.934   1.267   1.548  0.00  0.00     0.078 C 
ATOM      2  C1' OXE d   1      -0.793  -0.166  -0.579  0.00  0.00     0.078 C 
ATOM      3  C1  OXE d   1       0.138   0.556   0.363  0.00  0.00    -0.078 A 
ATOM      4  C2  OXE d   1      -0.431   1.293   1.373  0.00  0.00    -0.078 A 
ATOM      5  C3  OXE d   1       0.384   1.933   2.303  0.00  0.00     0.003 A 
ATOM      6  C4  OXE d   1       1.773   1.960   2.128  0.00  0.00    -0.002 A 
ATOM      7  C5  OXE d   1       2.371   1.249   1.082  0.00  0.00    -0.002 A 
ATOM      8  C6  OXE d   1       1.572   0.508   0.218  0.00  0.00     0.003 A 
ENDROOT
TORSDOF 0
ENDMDL
