MODEL 1
REMARK minimizedAffinity -2.03153038
REMARK minimizedRMSD -1
REMARK  0 active torsions:
REMARK  status: ('A' for Active; 'I' for Inactive)
ROOT
ATOM      1  C2' OXE d   1      -1.144  -1.488  -1.015  0.00  0.00     0.078 C 
ATOM      2  C1' OXE d   1       1.576  -0.815  -0.855  0.00  0.00     0.078 C 
ATOM      3  C1  OXE d   1       0.622  -0.114   0.079  0.00  0.00    -0.078 A 
ATOM      4  C2  OXE d   1      -0.713  -0.415  -0.038  0.00  0.00    -0.078 A 
ATOM      5  C3  OXE d   1      -1.630   0.162   0.837  0.00  0.00     0.003 A 
ATOM      6  C4  OXE d   1      -1.224   1.161   1.731  0.00  0.00    -0.002 A 
ATOM      7  C5  OXE d   1       0.126   1.511   1.839  0.00  0.00    -0.002 A 
ATOM      8  C6  OXE d   1       1.066   0.854   1.052  0.00  0.00     0.003 A 
ENDROOT
TORSDOF 0
ENDMDL
