MODEL 1
REMARK minimizedAffinity -0.302563846
REMARK minimizedRMSD -1
REMARK  0 active torsions:
REMARK  status: ('A' for Active; 'I' for Inactive)
ROOT
ATOM      1  C2' OXE d   1       1.233  -0.919  -0.716  0.00  0.00     0.078 C 
ATOM      2  C1' OXE d   1      -1.519  -0.725  -1.234  0.00  0.00     0.078 C 
ATOM      3  C1  OXE d   1      -0.950   0.127  -0.127  0.00  0.00    -0.078 A 
ATOM      4  C2  OXE d   1       0.389  -0.009   0.150  0.00  0.00    -0.078 A 
ATOM      5  C3  OXE d   1       0.976   0.794   1.124  0.00  0.00     0.003 A 
ATOM      6  C4  OXE d   1       0.187   1.626   1.928  0.00  0.00    -0.002 A 
ATOM      7  C5  OXE d   1      -1.185   1.750   1.688  0.00  0.00    -0.002 A 
ATOM      8  C6  OXE d   1      -1.761   1.041   0.639  0.00  0.00     0.003 A 
ENDROOT
TORSDOF 0
ENDMDL
