MODEL 1
REMARK minimizedAffinity -1.48724699
REMARK minimizedRMSD -1
REMARK  0 active torsions:
REMARK  status: ('A' for Active; 'I' for Inactive)
ROOT
ATOM      1  C2' OXE d   1      -1.358  -1.580  -1.011  0.00  0.00     0.078 C 
ATOM      2  C1' OXE d   1       1.437  -1.403  -1.206  0.00  0.00     0.078 C 
ATOM      3  C1  OXE d   1       0.743  -0.506  -0.212  0.00  0.00    -0.078 A 
ATOM      4  C2  OXE d   1      -0.629  -0.565  -0.157  0.00  0.00    -0.078 A 
ATOM      5  C3  OXE d   1      -1.315   0.201   0.781  0.00  0.00     0.003 A 
ATOM      6  C4  OXE d   1      -0.634   1.144   1.560  0.00  0.00    -0.002 A 
ATOM      7  C5  OXE d   1       0.759   1.250   1.491  0.00  0.00    -0.002 A 
ATOM      8  C6  OXE d   1       1.465   0.404   0.643  0.00  0.00     0.003 A 
ENDROOT
TORSDOF 0
ENDMDL
