MODEL 1
REMARK minimizedAffinity -0.683384955
REMARK minimizedRMSD -1
REMARK  0 active torsions:
REMARK  status: ('A' for Active; 'I' for Inactive)
ROOT
ATOM      1  C2' OXE d   1       0.822   2.089   1.940  0.00  0.00     0.078 C 
ATOM      2  C1' OXE d   1       2.561   0.676   0.250  0.00  0.00     0.078 C 
ATOM      3  C1  OXE d   1       1.124   0.223   0.318  0.00  0.00    -0.078 A 
ATOM      4  C2  OXE d   1       0.291   0.891   1.183  0.00  0.00    -0.078 A 
ATOM      5  C3  OXE d   1      -1.057   0.549   1.245  0.00  0.00     0.003 A 
ATOM      6  C4  OXE d   1      -1.537  -0.567   0.549  0.00  0.00    -0.002 A 
ATOM      7  C5  OXE d   1      -0.696  -1.286  -0.307  0.00  0.00    -0.002 A 
ATOM      8  C6  OXE d   1       0.624  -0.879  -0.466  0.00  0.00     0.003 A 
ENDROOT
TORSDOF 0
ENDMDL
