MODEL 1
REMARK minimizedAffinity -2.98351455
REMARK minimizedRMSD -1
REMARK  0 active torsions:
REMARK  status: ('A' for Active; 'I' for Inactive)
ROOT
ATOM      1  C2' OXE d   1      -2.159  -2.505  -3.202  0.00  0.00     0.078 C 
ATOM      2  C1' OXE d   1      -4.021  -1.939  -1.178  0.00  0.00     0.078 C 
ATOM      3  C1  OXE d   1      -2.585  -1.540  -0.945  0.00  0.00    -0.078 A 
ATOM      4  C2  OXE d   1      -1.673  -1.863  -1.920  0.00  0.00    -0.078 A 
ATOM      5  C3  OXE d   1      -0.345  -1.470  -1.780  0.00  0.00     0.003 A 
ATOM      6  C4  OXE d   1       0.098  -0.885  -0.587  0.00  0.00    -0.002 A 
ATOM      7  C5  OXE d   1      -0.807  -0.584   0.435  0.00  0.00    -0.002 A 
ATOM      8  C6  OXE d   1      -2.157  -0.866   0.255  0.00  0.00     0.003 A 
ENDROOT
TORSDOF 0
ENDMDL
