MODEL 1
REMARK minimizedAffinity -0.59784472
REMARK minimizedRMSD -1
REMARK  0 active torsions:
REMARK  status: ('A' for Active; 'I' for Inactive)
ROOT
ATOM      1  C2' OXE d   1      -0.838  -1.442  -0.520  0.00  0.00     0.078 C 
ATOM      2  C1' OXE d   1       1.705  -0.315  -0.137  0.00  0.00     0.078 C 
ATOM      3  C1  OXE d   1       0.585   0.156   0.756  0.00  0.00    -0.078 A 
ATOM      4  C2  OXE d   1      -0.666  -0.366   0.531  0.00  0.00    -0.078 A 
ATOM      5  C3  OXE d   1      -1.724  -0.006   1.362  0.00  0.00     0.003 A 
ATOM      6  C4  OXE d   1      -1.559   0.997   2.325  0.00  0.00    -0.002 A 
ATOM      7  C5  OXE d   1      -0.302   1.571   2.544  0.00  0.00    -0.002 A 
ATOM      8  C6  OXE d   1       0.787   1.132   1.799  0.00  0.00     0.003 A 
ENDROOT
TORSDOF 0
ENDMDL
