MODEL 1
REMARK minimizedAffinity -4.75037575
REMARK minimizedRMSD -1
REMARK  0 active torsions:
REMARK  status: ('A' for Active; 'I' for Inactive)
ROOT
ATOM      1  C2' OXE d   1      -0.365  -1.226  -0.693  0.00  0.00     0.078 C 
ATOM      2  C1' OXE d   1       2.419  -0.930  -0.893  0.00  0.00     0.078 C 
ATOM      3  C1  OXE d   1       1.693  -0.084   0.123  0.00  0.00    -0.078 A 
ATOM      4  C2  OXE d   1       0.325  -0.201   0.181  0.00  0.00    -0.078 A 
ATOM      5  C3  OXE d   1      -0.388   0.516   1.138  0.00  0.00     0.003 A 
ATOM      6  C4  OXE d   1       0.257   1.469   1.936  0.00  0.00    -0.002 A 
ATOM      7  C5  OXE d   1       1.645   1.633   1.864  0.00  0.00    -0.002 A 
ATOM      8  C6  OXE d   1       2.381   0.836   0.995  0.00  0.00     0.003 A 
ENDROOT
TORSDOF 0
ENDMDL
