MODEL 1
REMARK minimizedAffinity -1.16961634
REMARK minimizedRMSD -1
REMARK  0 active torsions:
REMARK  status: ('A' for Active; 'I' for Inactive)
ROOT
ATOM      1  C2' OXE d   1      -3.386  -1.437  -1.182  0.00  0.00     0.078 C 
ATOM      2  C1' OXE d   1      -1.306  -0.677   0.545  0.00  0.00     0.078 C 
ATOM      3  C1  OXE d   1      -0.932  -1.307  -0.773  0.00  0.00    -0.078 A 
ATOM      4  C2  OXE d   1      -1.956  -1.718  -1.592  0.00  0.00    -0.078 A 
ATOM      5  C3  OXE d   1      -1.666  -2.255  -2.843  0.00  0.00     0.003 A 
ATOM      6  C4  OXE d   1      -0.341  -2.521  -3.210  0.00  0.00    -0.002 A 
ATOM      7  C5  OXE d   1       0.716  -2.147  -2.374  0.00  0.00    -0.002 A 
ATOM      8  C6  OXE d   1       0.440  -1.501  -1.174  0.00  0.00     0.003 A 
ENDROOT
TORSDOF 0
ENDMDL
