MODEL 1
REMARK minimizedAffinity 0.58577323
REMARK minimizedRMSD -1
REMARK  0 active torsions:
REMARK  status: ('A' for Active; 'I' for Inactive)
ROOT
ATOM      1  C2' OXE d   1      -0.683  -0.963   0.583  0.00  0.00     0.078 C 
ATOM      2  C1' OXE d   1       1.008  -2.308  -1.210  0.00  0.00     0.078 C 
ATOM      3  C1  OXE d   1      -0.393  -1.988  -1.668  0.00  0.00    -0.078 A 
ATOM      4  C2  OXE d   1      -1.228  -1.372  -0.768  0.00  0.00    -0.078 A 
ATOM      5  C3  OXE d   1      -2.513  -1.006  -1.158  0.00  0.00     0.003 A 
ATOM      6  C4  OXE d   1      -3.013  -1.397  -2.406  0.00  0.00    -0.002 A 
ATOM      7  C5  OXE d   1      -2.192  -2.061  -3.324  0.00  0.00    -0.002 A 
ATOM      8  C6  OXE d   1      -0.869  -2.326  -2.987  0.00  0.00     0.003 A 
ENDROOT
TORSDOF 0
ENDMDL
