MODEL 1
REMARK minimizedAffinity 3.42950034
REMARK minimizedRMSD -1
REMARK  0 active torsions:
REMARK  status: ('A' for Active; 'I' for Inactive)
ROOT
ATOM      1  C2' OXE d   1       0.511  -1.511  -3.689  0.00  0.00     0.078 C 
ATOM      2  C1' OXE d   1       1.031  -1.205  -0.948  0.00  0.00     0.078 C 
ATOM      3  C1  OXE d   1      -0.388  -1.495  -1.366  0.00  0.00    -0.078 A 
ATOM      4  C2  OXE d   1      -0.642  -1.597  -2.713  0.00  0.00    -0.078 A 
ATOM      5  C3  OXE d   1      -1.924  -1.918  -3.150  0.00  0.00     0.003 A 
ATOM      6  C4  OXE d   1      -2.987  -1.986  -2.241  0.00  0.00    -0.002 A 
ATOM      7  C5  OXE d   1      -2.757  -1.846  -0.869  0.00  0.00    -0.002 A 
ATOM      8  C6  OXE d   1      -1.459  -1.643  -0.412  0.00  0.00     0.003 A 
ENDROOT
TORSDOF 0
ENDMDL
