MODEL 1
REMARK minimizedAffinity 5.99942017
REMARK minimizedRMSD -1
REMARK  1 active torsions:
REMARK  status: ('A' for Active; 'I' for Inactive)
REMARK    1  A    between atoms: C1_2  and  C2_3 
ROOT
ATOM      1  C2  UNL d   1       0.535   0.359   1.997  0.00  0.00    -0.076 A 
ATOM      2  C3  UNL d   1       0.277   1.733   2.141  0.00  0.00     0.004 A 
ATOM      3  C4  UNL d   1      -0.828   2.323   1.531  0.00  0.00    -0.003 A 
ATOM      4  C5  UNL d   1      -1.695   1.548   0.768  0.00  0.00     0.000 A 
ATOM      5  C6  UNL d   1      -1.464   0.180   0.629  0.00  0.00     0.000 A 
ATOM      6  C7  UNL d   1      -0.363  -0.434   1.251  0.00  0.00    -0.073 A 
ATOM      7  C8  UNL d   1      -0.159  -1.912   1.062  0.00  0.00     0.078 C 
ENDROOT
BRANCH   1   8
ATOM      8  C1  UNL d   1       1.765  -0.221   2.659  0.00  0.00     0.053 C 
ATOM      9  C   UNL d   1       1.473  -0.780   4.043  0.00  0.00     0.018 C 
ENDBRANCH   1   8
TORSDOF 1
ENDMDL
