MODEL 1
REMARK minimizedAffinity 0.805573344
REMARK minimizedRMSD -1
REMARK  1 active torsions:
REMARK  status: ('A' for Active; 'I' for Inactive)
REMARK    1  A    between atoms: C1_2  and  C2_3 
ROOT
ATOM      1  C2  UNL d   1      -0.798   2.922   1.749  0.00  0.00    -0.076 A 
ATOM      2  C3  UNL d   1       0.265   2.394   0.996  0.00  0.00     0.004 A 
ATOM      3  C4  UNL d   1       0.612   1.047   1.090  0.00  0.00    -0.003 A 
ATOM      4  C5  UNL d   1      -0.100   0.206   1.939  0.00  0.00     0.000 A 
ATOM      5  C6  UNL d   1      -1.169   0.709   2.680  0.00  0.00     0.000 A 
ATOM      6  C7  UNL d   1      -1.541   2.061   2.584  0.00  0.00    -0.073 A 
ATOM      7  C8  UNL d   1      -2.698   2.551   3.411  0.00  0.00     0.078 C 
ENDROOT
BRANCH   1   8
ATOM      8  C1  UNL d   1      -1.110   4.396   1.626  0.00  0.00     0.053 C 
ATOM      9  C   UNL d   1      -2.247   4.672   0.654  0.00  0.00     0.018 C 
ENDBRANCH   1   8
TORSDOF 1
ENDMDL
