MODEL 1
REMARK minimizedAffinity 1.32546961
REMARK minimizedRMSD -1
REMARK  1 active torsions:
REMARK  status: ('A' for Active; 'I' for Inactive)
REMARK    1  A    between atoms: C1_2  and  C2_3 
ROOT
ATOM      1  C2  UNL d   1      -0.291   0.044   2.331  0.00  0.00    -0.076 A 
ATOM      2  C3  UNL d   1      -1.633  -0.170   1.971  0.00  0.00     0.004 A 
ATOM      3  C4  UNL d   1      -2.410  -1.122   2.629  0.00  0.00    -0.003 A 
ATOM      4  C5  UNL d   1      -1.858  -1.874   3.660  0.00  0.00     0.000 A 
ATOM      5  C6  UNL d   1      -0.534  -1.662   4.043  0.00  0.00     0.000 A 
ATOM      6  C7  UNL d   1       0.258  -0.696   3.400  0.00  0.00    -0.073 A 
ATOM      7  C8  UNL d   1       1.682  -0.513   3.850  0.00  0.00     0.078 C 
ENDROOT
BRANCH   1   8
ATOM      8  C1  UNL d   1       0.510   1.070   1.563  0.00  0.00     0.053 C 
ATOM      9  C   UNL d   1       1.432   0.437   0.533  0.00  0.00     0.018 C 
ENDBRANCH   1   8
TORSDOF 1
ENDMDL
