MODEL 1
REMARK minimizedAffinity -0.988722742
REMARK minimizedRMSD -1
REMARK  1 active torsions:
REMARK  status: ('A' for Active; 'I' for Inactive)
REMARK    1  A    between atoms: C1_2  and  C2_3 
ROOT
ATOM      1  C2  UNL d   1      -1.866   0.215   2.122  0.00  0.00    -0.076 A 
ATOM      2  C3  UNL d   1      -1.700   1.176   1.110  0.00  0.00     0.004 A 
ATOM      3  C4  UNL d   1      -0.445   1.430   0.560  0.00  0.00    -0.003 A 
ATOM      4  C5  UNL d   1       0.665   0.727   1.013  0.00  0.00     0.000 A 
ATOM      5  C6  UNL d   1       0.517  -0.243   2.004  0.00  0.00     0.000 A 
ATOM      6  C7  UNL d   1      -0.744  -0.523   2.558  0.00  0.00    -0.073 A 
ATOM      7  C8  UNL d   1      -0.845  -1.575   3.628  0.00  0.00     0.078 C 
ENDROOT
BRANCH   1   8
ATOM      8  C1  UNL d   1      -3.247   0.001   2.699  0.00  0.00     0.053 C 
ATOM      9  C   UNL d   1      -3.896   1.300   3.152  0.00  0.00     0.018 C 
ENDBRANCH   1   8
TORSDOF 1
ENDMDL
