MODEL 1
REMARK minimizedAffinity 6.21348953
REMARK minimizedRMSD -1
REMARK  1 active torsions:
REMARK  status: ('A' for Active; 'I' for Inactive)
REMARK    1  A    between atoms: C1_2  and  C2_3 
ROOT
ATOM      1  C2  UNL d   1      -0.453   1.044   1.984  0.00  0.00    -0.076 A 
ATOM      2  C3  UNL d   1      -1.707   1.227   2.591  0.00  0.00     0.004 A 
ATOM      3  C4  UNL d   1      -2.476   2.358   2.323  0.00  0.00    -0.003 A 
ATOM      4  C5  UNL d   1      -2.004   3.324   1.442  0.00  0.00     0.000 A 
ATOM      5  C6  UNL d   1      -0.769   3.151   0.817  0.00  0.00     0.000 A 
ATOM      6  C7  UNL d   1       0.011   2.009   1.064  0.00  0.00    -0.073 A 
ATOM      7  C8  UNL d   1       1.338   1.876   0.367  0.00  0.00     0.078 C 
ENDROOT
BRANCH   1   8
ATOM      8  C1  UNL d   1       0.349  -0.189   2.335  0.00  0.00     0.053 C 
ATOM      9  C   UNL d   1       1.195   0.002   3.584  0.00  0.00     0.018 C 
ENDBRANCH   1   8
TORSDOF 1
ENDMDL
