MODEL 1
REMARK minimizedAffinity 1.93764746
REMARK minimizedRMSD -1
REMARK  1 active torsions:
REMARK  status: ('A' for Active; 'I' for Inactive)
REMARK    1  A    between atoms: C1_2  and  C2_3 
ROOT
ATOM      1  C2  UNL d   1      -3.737   2.041   4.839  0.00  0.00    -0.076 A 
ATOM      2  C3  UNL d   1      -2.425   2.331   4.426  0.00  0.00     0.004 A 
ATOM      3  C4  UNL d   1      -1.826   1.621   3.387  0.00  0.00    -0.003 A 
ATOM      4  C5  UNL d   1      -2.530   0.610   2.743  0.00  0.00     0.000 A 
ATOM      5  C6  UNL d   1      -3.838   0.320   3.127  0.00  0.00     0.000 A 
ATOM      6  C7  UNL d   1      -4.462   1.037   4.163  0.00  0.00    -0.073 A 
ATOM      7  C8  UNL d   1      -5.874   0.678   4.541  0.00  0.00     0.078 C 
ENDROOT
BRANCH   1   8
ATOM      8  C1  UNL d   1      -4.324   2.826   5.990  0.00  0.00     0.053 C 
ATOM      9  C   UNL d   1      -5.561   3.613   5.587  0.00  0.00     0.018 C 
ENDBRANCH   1   8
TORSDOF 1
ENDMDL
