MODEL 1
REMARK minimizedAffinity -0.195661083
REMARK minimizedRMSD -1
REMARK  1 active torsions:
REMARK  status: ('A' for Active; 'I' for Inactive)
REMARK    1  A    between atoms: C1_2  and  C2_3 
ROOT
ATOM      1  C2  UNL d   1      -2.072   1.373   2.525  0.00  0.00    -0.076 A 
ATOM      2  C3  UNL d   1      -1.800   2.745   2.386  0.00  0.00     0.004 A 
ATOM      3  C4  UNL d   1      -0.697   3.188   1.658  0.00  0.00    -0.003 A 
ATOM      4  C5  UNL d   1       0.152   2.265   1.056  0.00  0.00     0.000 A 
ATOM      5  C6  UNL d   1      -0.113   0.901   1.168  0.00  0.00     0.000 A 
ATOM      6  C7  UNL d   1      -1.230   0.438   1.885  0.00  0.00    -0.073 A 
ATOM      7  C8  UNL d   1      -1.464  -1.045   1.979  0.00  0.00     0.078 C 
ENDROOT
BRANCH   1   8
ATOM      8  C1  UNL d   1      -3.267   0.951   3.349  0.00  0.00     0.053 C 
ATOM      9  C   UNL d   1      -3.752   2.053   4.278  0.00  0.00     0.018 C 
ENDBRANCH   1   8
TORSDOF 1
ENDMDL
