MODEL 1
REMARK minimizedAffinity -1.60482025
REMARK minimizedRMSD -1
REMARK  1 active torsions:
REMARK  status: ('A' for Active; 'I' for Inactive)
REMARK    1  A    between atoms: C1_2  and  C2_3 
ROOT
ATOM      1  C2  UNL d   1      -1.847   1.216   2.511  0.00  0.00    -0.076 A 
ATOM      2  C3  UNL d   1      -1.784   2.531   2.017  0.00  0.00     0.004 A 
ATOM      3  C4  UNL d   1      -0.702   2.958   1.249  0.00  0.00    -0.003 A 
ATOM      4  C5  UNL d   1       0.334   2.076   0.961  0.00  0.00     0.000 A 
ATOM      5  C6  UNL d   1       0.279   0.763   1.427  0.00  0.00     0.000 A 
ATOM      6  C7  UNL d   1      -0.812   0.313   2.189  0.00  0.00    -0.073 A 
ATOM      7  C8  UNL d   1      -0.816  -1.112   2.672  0.00  0.00     0.078 C 
ENDROOT
BRANCH   1   8
ATOM      8  C1  UNL d   1      -3.032   0.818   3.362  0.00  0.00     0.053 C 
ATOM      9  C   UNL d   1      -3.737   2.018   3.976  0.00  0.00     0.018 C 
ENDBRANCH   1   8
TORSDOF 1
ENDMDL
