MODEL 1
REMARK minimizedAffinity 0.953900158
REMARK minimizedRMSD -1
REMARK  1 active torsions:
REMARK  status: ('A' for Active; 'I' for Inactive)
REMARK    1  A    between atoms: C1_2  and  C2_3 
ROOT
ATOM      1  C2  UNL d   1      -1.280   1.244   1.603  0.00  0.00    -0.076 A 
ATOM      2  C3  UNL d   1      -0.101   1.552   0.902  0.00  0.00     0.004 A 
ATOM      3  C4  UNL d   1       0.864   0.577   0.658  0.00  0.00    -0.003 A 
ATOM      4  C5  UNL d   1       0.667  -0.723   1.111  0.00  0.00     0.000 A 
ATOM      5  C6  UNL d   1      -0.505  -1.051   1.793  0.00  0.00     0.000 A 
ATOM      6  C7  UNL d   1      -1.496  -0.083   2.033  0.00  0.00    -0.073 A 
ATOM      7  C8  UNL d   1      -2.737  -0.491   2.778  0.00  0.00     0.078 C 
ENDROOT
BRANCH   1   8
ATOM      8  C1  UNL d   1      -2.279   2.349   1.861  0.00  0.00     0.053 C 
ATOM      9  C   UNL d   1      -2.301   2.786   3.318  0.00  0.00     0.018 C 
ENDBRANCH   1   8
TORSDOF 1
ENDMDL
