MODEL 1
REMARK minimizedAffinity -1.12701118
REMARK minimizedRMSD -1
REMARK  1 active torsions:
REMARK  status: ('A' for Active; 'I' for Inactive)
REMARK    1  A    between atoms: C1_2  and  C2_3 
ROOT
ATOM      1  C2  UNL d   1      -1.983   0.937   2.612  0.00  0.00    -0.076 A 
ATOM      2  C3  UNL d   1      -1.488   2.246   2.486  0.00  0.00     0.004 A 
ATOM      3  C4  UNL d   1      -0.274   2.496   1.848  0.00  0.00    -0.003 A 
ATOM      4  C5  UNL d   1       0.465   1.440   1.326  0.00  0.00     0.000 A 
ATOM      5  C6  UNL d   1      -0.020   0.136   1.427  0.00  0.00     0.000 A 
ATOM      6  C7  UNL d   1      -1.250  -0.131   2.052  0.00  0.00    -0.073 A 
ATOM      7  C8  UNL d   1      -1.721  -1.557   2.139  0.00  0.00     0.078 C 
ENDROOT
BRANCH   1   8
ATOM      8  C1  UNL d   1      -3.292   0.725   3.338  0.00  0.00     0.053 C 
ATOM      9  C   UNL d   1      -3.723   1.948   4.133  0.00  0.00     0.018 C 
ENDBRANCH   1   8
TORSDOF 1
ENDMDL
