MODEL 1
REMARK minimizedAffinity 4.45032978
REMARK minimizedRMSD -1
REMARK  1 active torsions:
REMARK  status: ('A' for Active; 'I' for Inactive)
REMARK    1  A    between atoms: C1_2  and  C2_3 
ROOT
ATOM      1  C2  UNL d   1      -3.209   1.629   3.476  0.00  0.00    -0.076 A 
ATOM      2  C3  UNL d   1      -2.644   2.866   3.121  0.00  0.00     0.004 A 
ATOM      3  C4  UNL d   1      -1.486   2.931   2.348  0.00  0.00    -0.003 A 
ATOM      4  C5  UNL d   1      -0.873   1.760   1.918  0.00  0.00     0.000 A 
ATOM      5  C6  UNL d   1      -1.429   0.524   2.246  0.00  0.00     0.000 A 
ATOM      6  C7  UNL d   1      -2.606   0.441   3.010  0.00  0.00    -0.073 A 
ATOM      7  C8  UNL d   1      -3.158  -0.919   3.340  0.00  0.00     0.078 C 
ENDROOT
BRANCH   1   8
ATOM      8  C1  UNL d   1      -4.450   1.620   4.338  0.00  0.00     0.053 C 
ATOM      9  C   UNL d   1      -4.319   2.517   5.559  0.00  0.00     0.018 C 
ENDBRANCH   1   8
TORSDOF 1
ENDMDL
