MODEL 1
REMARK minimizedAffinity 3.25921822
REMARK minimizedRMSD -1
REMARK  1 active torsions:
REMARK  status: ('A' for Active; 'I' for Inactive)
REMARK    1  A    between atoms: C1_2  and  C2_3 
ROOT
ATOM      1  C2  UNL d   1      -2.993  -3.128  -2.739  0.00  0.00    -0.076 A 
ATOM      2  C3  UNL d   1      -3.172  -1.735  -2.692  0.00  0.00     0.004 A 
ATOM      3  C4  UNL d   1      -3.398  -1.081  -1.482  0.00  0.00    -0.003 A 
ATOM      4  C5  UNL d   1      -3.448  -1.810  -0.299  0.00  0.00     0.000 A 
ATOM      5  C6  UNL d   1      -3.255  -3.190  -0.325  0.00  0.00     0.000 A 
ATOM      6  C7  UNL d   1      -3.010  -3.863  -1.534  0.00  0.00    -0.073 A 
ATOM      7  C8  UNL d   1      -2.815  -5.354  -1.504  0.00  0.00     0.078 C 
ENDROOT
BRANCH   1   8
ATOM      8  C1  UNL d   1      -2.779  -3.786  -4.083  0.00  0.00     0.053 C 
ATOM      9  C   UNL d   1      -2.515  -2.777  -5.190  0.00  0.00     0.018 C 
ENDBRANCH   1   8
TORSDOF 1
ENDMDL
