MODEL 1
REMARK minimizedAffinity 1.63224161
REMARK minimizedRMSD -1
REMARK  1 active torsions:
REMARK  status: ('A' for Active; 'I' for Inactive)
REMARK    1  A    between atoms: C1_2  and  C2_3 
ROOT
ATOM      1  C2  UNL d   1      -1.568   0.614   2.456  0.00  0.00    -0.076 A 
ATOM      2  C3  UNL d   1      -0.500   0.566   1.543  0.00  0.00     0.004 A 
ATOM      3  C4  UNL d   1       0.075   1.736   1.050  0.00  0.00    -0.003 A 
ATOM      4  C5  UNL d   1      -0.408   2.973   1.462  0.00  0.00     0.000 A 
ATOM      5  C6  UNL d   1      -1.455   3.039   2.381  0.00  0.00     0.000 A 
ATOM      6  C7  UNL d   1      -2.035   1.869   2.900  0.00  0.00    -0.073 A 
ATOM      7  C8  UNL d   1      -3.166   1.999   3.884  0.00  0.00     0.078 C 
ENDROOT
BRANCH   1   8
ATOM      8  C1  UNL d   1      -2.169  -0.688   2.936  0.00  0.00     0.053 C 
ATOM      9  C   UNL d   1      -1.320  -1.894   2.564  0.00  0.00     0.018 C 
ENDBRANCH   1   8
TORSDOF 1
ENDMDL
