MODEL 1
REMARK minimizedAffinity -3.13065982
REMARK minimizedRMSD -1
REMARK  0 active torsions:
REMARK  status: ('A' for Active; 'I' for Inactive)
ROOT
ATOM      1  C1  BNZ d   1       0.669  -0.232   0.313  0.00  0.00     0.000 A 
ATOM      2  C2  BNZ d   1       0.784  -0.132   1.674  0.00  0.00     0.000 A 
ATOM      3  C3  BNZ d   1       0.259   0.937   2.344  0.00  0.00     0.000 A 
ATOM      4  C4  BNZ d   1      -0.343   1.924   1.650  0.00  0.00     0.000 A 
ATOM      5  C5  BNZ d   1      -0.459   1.843   0.277  0.00  0.00     0.000 A 
ATOM      6  C6  BNZ d   1       0.036   0.746  -0.391  0.00  0.00     0.000 A 
ENDROOT
TORSDOF 0
ENDMDL
