MODEL 1
REMARK minimizedAffinity -2.66454625
REMARK minimizedRMSD -1
REMARK  0 active torsions:
REMARK  status: ('A' for Active; 'I' for Inactive)
ROOT
ATOM      1  C1  BNZ d   1       0.628  -0.846   0.800  0.00  0.00     0.000 A 
ATOM      2  C2  BNZ d   1       0.625  -0.520   2.130  0.00  0.00     0.000 A 
ATOM      3  C3  BNZ d   1       0.263   0.731   2.544  0.00  0.00     0.000 A 
ATOM      4  C4  BNZ d   1      -0.055   1.667   1.626  0.00  0.00     0.000 A 
ATOM      5  C5  BNZ d   1      -0.048   1.357   0.281  0.00  0.00     0.000 A 
ATOM      6  C6  BNZ d   1       0.279   0.084  -0.130  0.00  0.00     0.000 A 
ENDROOT
TORSDOF 0
ENDMDL
