MODEL 1
REMARK minimizedAffinity -4.12578297
REMARK minimizedRMSD -1
REMARK  0 active torsions:
REMARK  status: ('A' for Active; 'I' for Inactive)
ROOT
ATOM      1  C1  BNZ d   1      -0.065   0.156   0.327  0.00  0.00     0.000 A 
ATOM      2  C2  BNZ d   1      -0.779   1.226  -0.141  0.00  0.00     0.000 A 
ATOM      3  C3  BNZ d   1      -1.235   2.191   0.714  0.00  0.00     0.000 A 
ATOM      4  C4  BNZ d   1      -1.011   2.064   2.037  0.00  0.00     0.000 A 
ATOM      5  C5  BNZ d   1      -0.300   0.986   2.526  0.00  0.00     0.000 A 
ATOM      6  C6  BNZ d   1       0.191   0.037   1.659  0.00  0.00     0.000 A 
ENDROOT
TORSDOF 0
ENDMDL
