MODEL 1
REMARK minimizedAffinity -3.29619646
REMARK minimizedRMSD -1
REMARK  0 active torsions:
REMARK  status: ('A' for Active; 'I' for Inactive)
ROOT
ATOM      1  C1  BNZ d   1      -0.422   0.844   0.265  0.00  0.00     0.000 A 
ATOM      2  C2  BNZ d   1      -0.620   2.038  -0.376  0.00  0.00     0.000 A 
ATOM      3  C3  BNZ d   1      -0.795   3.193   0.335  0.00  0.00     0.000 A 
ATOM      4  C4  BNZ d   1      -0.810   3.146   1.682  0.00  0.00     0.000 A 
ATOM      5  C5  BNZ d   1      -0.621   1.949   2.343  0.00  0.00     0.000 A 
ATOM      6  C6  BNZ d   1      -0.407   0.795   1.625  0.00  0.00     0.000 A 
ENDROOT
TORSDOF 0
ENDMDL
