MODEL 1
REMARK minimizedAffinity -3.42172384
REMARK minimizedRMSD -1
REMARK  0 active torsions:
REMARK  status: ('A' for Active; 'I' for Inactive)
ROOT
ATOM      1  C1  BNZ d   1      -0.250   3.308   1.309  0.00  0.00     0.000 A 
ATOM      2  C2  BNZ d   1      -0.143   2.096   1.937  0.00  0.00     0.000 A 
ATOM      3  C3  BNZ d   1       0.024   0.947   1.216  0.00  0.00     0.000 A 
ATOM      4  C4  BNZ d   1       0.044   1.006  -0.131  0.00  0.00     0.000 A 
ATOM      5  C5  BNZ d   1      -0.071   2.220  -0.779  0.00  0.00     0.000 A 
ATOM      6  C6  BNZ d   1      -0.200   3.379  -0.049  0.00  0.00     0.000 A 
ENDROOT
TORSDOF 0
ENDMDL
