MODEL 1
REMARK minimizedAffinity -0.357862562
REMARK minimizedRMSD -1
REMARK  0 active torsions:
REMARK  status: ('A' for Active; 'I' for Inactive)
ROOT
ATOM      1  C1  BNZ d   1       0.259  -0.742  -0.954  0.00  0.00     0.000 A 
ATOM      2  C2  BNZ d   1       0.546   0.376  -0.217  0.00  0.00     0.000 A 
ATOM      3  C3  BNZ d   1       0.594   0.321   1.148  0.00  0.00     0.000 A 
ATOM      4  C4  BNZ d   1       0.315  -0.840   1.775  0.00  0.00     0.000 A 
ATOM      5  C5  BNZ d   1       0.015  -1.973   1.047  0.00  0.00     0.000 A 
ATOM      6  C6  BNZ d   1       0.006  -1.924  -0.328  0.00  0.00     0.000 A 
ENDROOT
TORSDOF 0
ENDMDL
