MODEL 1
REMARK minimizedAffinity -2.56300855
REMARK minimizedRMSD -1
REMARK  0 active torsions:
REMARK  status: ('A' for Active; 'I' for Inactive)
ROOT
ATOM      1  C1  BNZ d   1       0.129   0.820   2.425  0.00  0.00     0.000 A 
ATOM      2  C2  BNZ d   1       0.198  -0.417   1.842  0.00  0.00     0.000 A 
ATOM      3  C3  BNZ d   1       0.452  -0.548   0.505  0.00  0.00     0.000 A 
ATOM      4  C4  BNZ d   1       0.598   0.557  -0.253  0.00  0.00     0.000 A 
ATOM      5  C5  BNZ d   1       0.522   1.812   0.317  0.00  0.00     0.000 A 
ATOM      6  C6  BNZ d   1       0.305   1.939   1.670  0.00  0.00     0.000 A 
ENDROOT
TORSDOF 0
ENDMDL
