MODEL 1
REMARK minimizedAffinity -4.32788134
REMARK minimizedRMSD -1
REMARK  0 active torsions:
REMARK  status: ('A' for Active; 'I' for Inactive)
ROOT
ATOM      1  C1  BNZ d   1      -0.180   0.936   0.683  0.00  0.00     0.000 A 
ATOM      2  C2  BNZ d   1       0.643  -0.059   1.138  0.00  0.00     0.000 A 
ATOM      3  C3  BNZ d   1       1.529  -0.673   0.297  0.00  0.00     0.000 A 
ATOM      4  C4  BNZ d   1       1.561  -0.321  -1.004  0.00  0.00     0.000 A 
ATOM      5  C5  BNZ d   1       0.731   0.674  -1.480  0.00  0.00     0.000 A 
ATOM      6  C6  BNZ d   1      -0.132   1.317  -0.623  0.00  0.00     0.000 A 
ENDROOT
TORSDOF 0
ENDMDL
