MODEL 1
REMARK minimizedAffinity 8.20754051
REMARK minimizedRMSD -1
REMARK  0 active torsions:
REMARK  status: ('A' for Active; 'I' for Inactive)
ROOT
ATOM      1  C   UNL d   1       0.640   2.021  -2.942  0.00  0.00    -0.002 A 
ATOM      2  C1  UNL d   1       1.094   1.289  -4.030  0.00  0.00     0.010 A 
ATOM      3  C2  UNL d   1       1.326  -0.083  -3.917  0.00  0.00     0.041 A 
ATOM      4  C3  UNL d   1       1.089  -0.714  -2.680  0.00  0.00    -0.075 A 
ATOM      5  S   UNL d   1       1.303  -2.384  -2.307  0.00  0.00     0.015 SA
ATOM      6  C4  UNL d   1       0.795  -2.165  -0.694  0.00  0.00     0.022 A 
ATOM      7  C5  UNL d   1       0.468  -0.857  -0.430  0.00  0.00     0.026 A 
ATOM      8  C6  UNL d   1       0.631   0.001  -1.570  0.00  0.00    -0.082 A 
ATOM      9  C7  UNL d   1       0.406   1.391  -1.716  0.00  0.00     0.045 A 
ENDROOT
TORSDOF 0
ENDMDL
