MODEL 1
REMARK minimizedAffinity 5.06034994
REMARK minimizedRMSD -1
REMARK  0 active torsions:
REMARK  status: ('A' for Active; 'I' for Inactive)
ROOT
ATOM      1  C   UNL d   1       5.280   0.767  -5.999  0.00  0.00    -0.002 A 
ATOM      2  C1  UNL d   1       6.000   0.626  -4.821  0.00  0.00     0.010 A 
ATOM      3  C2  UNL d   1       5.346   0.357  -3.617  0.00  0.00     0.041 A 
ATOM      4  C3  UNL d   1       3.943   0.229  -3.618  0.00  0.00    -0.075 A 
ATOM      5  S   UNL d   1       2.929  -0.100  -2.263  0.00  0.00     0.015 SA
ATOM      6  C4  UNL d   1       1.516  -0.062  -3.216  0.00  0.00     0.022 A 
ATOM      7  C5  UNL d   1       1.793   0.195  -4.538  0.00  0.00     0.026 A 
ATOM      8  C6  UNL d   1       3.196   0.366  -4.791  0.00  0.00    -0.082 A 
ATOM      9  C7  UNL d   1       3.889   0.640  -5.995  0.00  0.00     0.045 A 
ENDROOT
TORSDOF 0
ENDMDL
