MODEL 1
REMARK minimizedAffinity 5.06067753
REMARK minimizedRMSD -1
REMARK  0 active torsions:
REMARK  status: ('A' for Active; 'I' for Inactive)
ROOT
ATOM      1  C   UNL d   1       5.084   0.035  -5.548  0.00  0.00    -0.002 A 
ATOM      2  C1  UNL d   1       6.000   0.712  -4.755  0.00  0.00     0.010 A 
ATOM      3  C2  UNL d   1       5.783   2.044  -4.399  0.00  0.00     0.041 A 
ATOM      4  C3  UNL d   1       4.618   2.691  -4.856  0.00  0.00    -0.075 A 
ATOM      5  S   UNL d   1       4.142   4.319  -4.546  0.00  0.00     0.015 SA
ATOM      6  C4  UNL d   1       2.712   4.154  -5.458  0.00  0.00     0.022 A 
ATOM      7  C5  UNL d   1       2.584   2.894  -5.994  0.00  0.00     0.026 A 
ATOM      8  C6  UNL d   1       3.680   2.030  -5.655  0.00  0.00    -0.082 A 
ATOM      9  C7  UNL d   1       3.929   0.680  -6.000  0.00  0.00     0.045 A 
ENDROOT
TORSDOF 0
ENDMDL
