MODEL 1
REMARK minimizedAffinity 4.21637058
REMARK minimizedRMSD -1
REMARK  0 active torsions:
REMARK  status: ('A' for Active; 'I' for Inactive)
ROOT
ATOM      1  C   UNL d   1       0.824   2.044  -2.665  0.00  0.00    -0.002 A 
ATOM      2  C1  UNL d   1       1.248   1.321  -3.770  0.00  0.00     0.010 A 
ATOM      3  C2  UNL d   1       1.444  -0.059  -3.684  0.00  0.00     0.041 A 
ATOM      4  C3  UNL d   1       1.203  -0.706  -2.456  0.00  0.00    -0.075 A 
ATOM      5  S   UNL d   1       1.375  -2.387  -2.115  0.00  0.00     0.015 SA
ATOM      6  C4  UNL d   1       0.889  -2.185  -0.494  0.00  0.00     0.022 A 
ATOM      7  C5  UNL d   1       0.599  -0.873  -0.203  0.00  0.00     0.026 A 
ATOM      8  C6  UNL d   1       0.774   0.001  -1.328  0.00  0.00    -0.082 A 
ATOM      9  C7  UNL d   1       0.586   1.399  -1.448  0.00  0.00     0.045 A 
ENDROOT
TORSDOF 0
ENDMDL
