MODEL 1
REMARK minimizedAffinity -2.08478069
REMARK minimizedRMSD -1
REMARK  0 active torsions:
REMARK  status: ('A' for Active; 'I' for Inactive)
ROOT
ATOM      1  C   UNL d   1      -4.759   1.174   5.626  0.00  0.00    -0.002 A 
ATOM      2  C1  UNL d   1      -3.560   1.439   4.979  0.00  0.00     0.010 A 
ATOM      3  C2  UNL d   1      -3.184   2.752   4.690  0.00  0.00     0.041 A 
ATOM      4  C3  UNL d   1      -4.041   3.805   5.068  0.00  0.00    -0.075 A 
ATOM      5  S   UNL d   1      -3.788   5.492   4.818  0.00  0.00     0.015 SA
ATOM      6  C4  UNL d   1      -5.265   5.900   5.564  0.00  0.00     0.022 A 
ATOM      7  C5  UNL d   1      -5.947   4.789   5.999  0.00  0.00     0.026 A 
ATOM      8  C6  UNL d   1      -5.253   3.563   5.721  0.00  0.00    -0.082 A 
ATOM      9  C7  UNL d   1      -5.606   2.220   5.999  0.00  0.00     0.045 A 
ENDROOT
TORSDOF 0
ENDMDL
