MODEL 1
REMARK minimizedAffinity 7.53672934
REMARK minimizedRMSD -1
REMARK  0 active torsions:
REMARK  status: ('A' for Active; 'I' for Inactive)
ROOT
ATOM      1  C   UNL d   1       0.747  -2.909  -1.381  0.00  0.00    -0.002 A 
ATOM      2  C1  UNL d   1       0.721  -1.728  -0.654  0.00  0.00     0.010 A 
ATOM      3  C2  UNL d   1       1.016  -0.509  -1.268  0.00  0.00     0.041 A 
ATOM      4  C3  UNL d   1       1.339  -0.497  -2.639  0.00  0.00    -0.075 A 
ATOM      5  S   UNL d   1       1.734   0.877  -3.602  0.00  0.00     0.015 SA
ATOM      6  C4  UNL d   1       1.947  -0.072  -5.002  0.00  0.00     0.022 A 
ATOM      7  C5  UNL d   1       1.726  -1.407  -4.758  0.00  0.00     0.026 A 
ATOM      8  C6  UNL d   1       1.371  -1.674  -3.393  0.00  0.00    -0.082 A 
ATOM      9  C7  UNL d   1       1.068  -2.894  -2.741  0.00  0.00     0.045 A 
ENDROOT
TORSDOF 0
ENDMDL
