MODEL 1
REMARK minimizedAffinity 6.58449173
REMARK minimizedRMSD -1
REMARK  0 active torsions:
REMARK  status: ('A' for Active; 'I' for Inactive)
ROOT
ATOM      1  C   UNL d   1       0.639   0.723  -0.798  0.00  0.00    -0.002 A 
ATOM      2  C1  UNL d   1       0.650   1.446  -1.983  0.00  0.00     0.010 A 
ATOM      3  C2  UNL d   1       0.827   0.799  -3.207  0.00  0.00     0.041 A 
ATOM      4  C3  UNL d   1       0.994  -0.600  -3.221  0.00  0.00    -0.075 A 
ATOM      5  S   UNL d   1       1.227  -1.606  -4.602  0.00  0.00     0.015 SA
ATOM      6  C4  UNL d   1       1.317  -3.018  -3.652  0.00  0.00     0.022 A 
ATOM      7  C5  UNL d   1       1.175  -2.747  -2.311  0.00  0.00     0.026 A 
ATOM      8  C6  UNL d   1       0.987  -1.349  -2.041  0.00  0.00    -0.082 A 
ATOM      9  C7  UNL d   1       0.805  -0.664  -0.815  0.00  0.00     0.045 A 
ENDROOT
TORSDOF 0
ENDMDL
