MODEL 1
REMARK minimizedAffinity 9.02910519
REMARK minimizedRMSD -1
REMARK  0 active torsions:
REMARK  status: ('A' for Active; 'I' for Inactive)
ROOT
ATOM      1  C   UNL d   1       0.689   1.500  -3.354  0.00  0.00    -0.002 A 
ATOM      2  C1  UNL d   1       0.359   1.635  -2.013  0.00  0.00     0.010 A 
ATOM      3  C2  UNL d   1       0.431   0.540  -1.151  0.00  0.00     0.041 A 
ATOM      4  C3  UNL d   1       0.847  -0.705  -1.663  0.00  0.00    -0.075 A 
ATOM      5  S   UNL d   1       1.011  -2.185  -0.793  0.00  0.00     0.015 SA
ATOM      6  C4  UNL d   1       1.525  -3.030  -2.181  0.00  0.00     0.022 A 
ATOM      7  C5  UNL d   1       1.575  -2.219  -3.290  0.00  0.00     0.026 A 
ATOM      8  C6  UNL d   1       1.185  -0.865  -3.010  0.00  0.00    -0.082 A 
ATOM      9  C7  UNL d   1       1.101   0.264  -3.859  0.00  0.00     0.045 A 
ENDROOT
TORSDOF 0
ENDMDL
