MODEL 1
REMARK minimizedAffinity 7.45838594
REMARK minimizedRMSD -1
REMARK  0 active torsions:
REMARK  status: ('A' for Active; 'I' for Inactive)
ROOT
ATOM      1  C   UNL d   1       5.998   1.134  -5.034  0.00  0.00    -0.002 A 
ATOM      2  C1  UNL d   1       4.950   0.825  -5.890  0.00  0.00     0.010 A 
ATOM      3  C2  UNL d   1       3.842   1.669  -5.989  0.00  0.00     0.041 A 
ATOM      4  C3  UNL d   1       3.805   2.840  -5.207  0.00  0.00    -0.075 A 
ATOM      5  S   UNL d   1       2.550   4.022  -5.164  0.00  0.00     0.015 SA
ATOM      6  C4  UNL d   1       3.376   4.965  -4.009  0.00  0.00     0.022 A 
ATOM      7  C5  UNL d   1       4.581   4.407  -3.654  0.00  0.00     0.026 A 
ATOM      8  C6  UNL d   1       4.849   3.173  -4.339  0.00  0.00    -0.082 A 
ATOM      9  C7  UNL d   1       5.958   2.297  -4.260  0.00  0.00     0.045 A 
ENDROOT
TORSDOF 0
ENDMDL
