MODEL 1
REMARK minimizedAffinity -0.249272853
REMARK minimizedRMSD -1
REMARK  0 active torsions:
REMARK  status: ('A' for Active; 'I' for Inactive)
ROOT
ATOM      1  C   UNL d   1       0.831   1.843  -1.935  0.00  0.00    -0.002 A 
ATOM      2  C1  UNL d   1       1.213   1.200  -3.104  0.00  0.00     0.010 A 
ATOM      3  C2  UNL d   1       1.268  -0.194  -3.163  0.00  0.00     0.041 A 
ATOM      4  C3  UNL d   1       0.926  -0.938  -2.017  0.00  0.00    -0.075 A 
ATOM      5  S   UNL d   1       0.919  -2.655  -1.856  0.00  0.00     0.015 SA
ATOM      6  C4  UNL d   1       0.407  -2.576  -0.233  0.00  0.00     0.022 A 
ATOM      7  C5  UNL d   1       0.241  -1.279   0.193  0.00  0.00     0.026 A 
ATOM      8  C6  UNL d   1       0.537  -0.314  -0.828  0.00  0.00    -0.082 A 
ATOM      9  C7  UNL d   1       0.493   1.101  -0.800  0.00  0.00     0.045 A 
ENDROOT
TORSDOF 0
ENDMDL
