MODEL 1
REMARK minimizedAffinity 6.48187208
REMARK minimizedRMSD -1
REMARK  0 active torsions:
REMARK  status: ('A' for Active; 'I' for Inactive)
ROOT
ATOM      1  C   UNL d   1      -3.402   1.617   5.066  0.00  0.00    -0.002 A 
ATOM      2  C1  UNL d   1      -2.633   2.170   4.052  0.00  0.00     0.010 A 
ATOM      3  C2  UNL d   1      -2.771   3.517   3.710  0.00  0.00     0.041 A 
ATOM      4  C3  UNL d   1      -3.702   4.307   4.413  0.00  0.00    -0.075 A 
ATOM      5  S   UNL d   1      -4.041   5.979   4.167  0.00  0.00     0.015 SA
ATOM      6  C4  UNL d   1      -5.214   6.000   5.404  0.00  0.00     0.022 A 
ATOM      7  C5  UNL d   1      -5.356   4.769   6.000  0.00  0.00     0.026 A 
ATOM      8  C6  UNL d   1      -4.487   3.773   5.439  0.00  0.00    -0.082 A 
ATOM      9  C7  UNL d   1      -4.325   2.404   5.761  0.00  0.00     0.045 A 
ENDROOT
TORSDOF 0
ENDMDL
