MODEL 1
REMARK minimizedAffinity 3.87072945
REMARK minimizedRMSD -1
REMARK  0 active torsions:
REMARK  status: ('A' for Active; 'I' for Inactive)
ROOT
ATOM      1  C   UNL d   1       1.034  -2.404  -2.706  0.00  0.00    -0.002 A 
ATOM      2  C1  UNL d   1       1.353  -1.799  -3.913  0.00  0.00     0.010 A 
ATOM      3  C2  UNL d   1       1.463  -0.410  -4.004  0.00  0.00     0.041 A 
ATOM      4  C3  UNL d   1       1.246   0.368  -2.849  0.00  0.00    -0.075 A 
ATOM      5  S   UNL d   1       1.328   2.085  -2.722  0.00  0.00     0.015 SA
ATOM      6  C4  UNL d   1       0.942   2.056  -1.062  0.00  0.00     0.022 A 
ATOM      7  C5  UNL d   1       0.752   0.775  -0.600  0.00  0.00     0.026 A 
ATOM      8  C6  UNL d   1       0.925  -0.219  -1.622  0.00  0.00    -0.082 A 
ATOM      9  C7  UNL d   1       0.820  -1.629  -1.563  0.00  0.00     0.045 A 
ENDROOT
TORSDOF 0
ENDMDL
