MODEL 1
REMARK minimizedAffinity 2.71087193
REMARK minimizedRMSD -1
REMARK  0 active torsions:
REMARK  status: ('A' for Active; 'I' for Inactive)
ROOT
ATOM      1  C   UNL d   1       5.851   0.026  -4.750  0.00  0.00    -0.002 A 
ATOM      2  C1  UNL d   1       5.166   0.191  -5.945  0.00  0.00     0.010 A 
ATOM      3  C2  UNL d   1       3.777   0.057  -5.992  0.00  0.00     0.041 A 
ATOM      4  C3  UNL d   1       3.081  -0.245  -4.805  0.00  0.00    -0.075 A 
ATOM      5  S   UNL d   1       1.379  -0.455  -4.622  0.00  0.00     0.015 SA
ATOM      6  C4  UNL d   1       1.522  -0.767  -2.952  0.00  0.00     0.022 A 
ATOM      7  C5  UNL d   1       2.829  -0.717  -2.528  0.00  0.00     0.026 A 
ATOM      8  C6  UNL d   1       3.749  -0.415  -3.589  0.00  0.00    -0.082 A 
ATOM      9  C7  UNL d   1       5.157  -0.274  -3.575  0.00  0.00     0.045 A 
ENDROOT
TORSDOF 0
ENDMDL
