MODEL 1
REMARK minimizedAffinity 3.1173203
REMARK minimizedRMSD -1
REMARK  1 active torsions:
REMARK  status: ('A' for Active; 'I' for Inactive)
REMARK    1  A    between atoms: C1_2  and  C2_3 
ROOT
ATOM      1  C2  UNL d   1      -2.071   1.922   2.842  0.00  0.00    -0.081 A 
ATOM      2  C3  UNL d   1      -2.158   0.550   2.576  0.00  0.00     0.006 A 
ATOM      3  C4  UNL d   1      -1.185  -0.084   1.801  0.00  0.00     0.002 A 
ATOM      4  C5  UNL d   1      -0.104   0.640   1.287  0.00  0.00    -0.080 A 
ATOM      5  C6  UNL d   1       0.965  -0.035   0.479  0.00  0.00     0.076 C 
ATOM      6  C7  UNL d   1      -0.025   2.014   1.538  0.00  0.00     0.002 A 
ATOM      7  C8  UNL d   1      -0.999   2.649   2.313  0.00  0.00     0.006 A 
ENDROOT
BRANCH   1   8
ATOM      8  C1  UNL d   1      -3.084   2.596   3.731  0.00  0.00     0.054 C 
ATOM      9  C   UNL d   1      -4.176   1.627   4.160  0.00  0.00     0.018 C 
ENDBRANCH   1   8
TORSDOF 1
ENDMDL
