MODEL 1
REMARK minimizedAffinity -1.63594055
REMARK minimizedRMSD -1
REMARK  1 active torsions:
REMARK  status: ('A' for Active; 'I' for Inactive)
REMARK    1  A    between atoms: C1_2  and  C2_3 
ROOT
ATOM      1  C2  UNL d   1      -2.739   0.412   3.215  0.00  0.00    -0.081 A 
ATOM      2  C3  UNL d   1      -2.133  -0.712   2.641  0.00  0.00     0.006 A 
ATOM      3  C4  UNL d   1      -0.972  -0.578   1.876  0.00  0.00     0.002 A 
ATOM      4  C5  UNL d   1      -0.394   0.680   1.679  0.00  0.00    -0.080 A 
ATOM      5  C6  UNL d   1       0.869   0.834   0.884  0.00  0.00     0.076 C 
ATOM      6  C7  UNL d   1      -1.009   1.806   2.238  0.00  0.00     0.002 A 
ATOM      7  C8  UNL d   1      -2.170   1.672   3.002  0.00  0.00     0.006 A 
ENDROOT
BRANCH   1   8
ATOM      8  C1  UNL d   1      -3.954   0.263   4.094  0.00  0.00     0.054 C 
ATOM      9  C   UNL d   1      -4.503   1.619   4.515  0.00  0.00     0.018 C 
ENDBRANCH   1   8
TORSDOF 1
ENDMDL
