MODEL 1
REMARK minimizedAffinity -3.23833537
REMARK minimizedRMSD -1
REMARK  1 active torsions:
REMARK  status: ('A' for Active; 'I' for Inactive)
REMARK    1  A    between atoms: C1_2  and  C2_3 
ROOT
ATOM      1  C2  UNL d   1      -0.440   0.538   1.541  0.00  0.00    -0.081 A 
ATOM      2  C3  UNL d   1      -0.510   1.890   1.900  0.00  0.00     0.006 A 
ATOM      3  C4  UNL d   1      -1.605   2.376   2.619  0.00  0.00     0.002 A 
ATOM      4  C5  UNL d   1      -2.643   1.518   2.997  0.00  0.00    -0.080 A 
ATOM      5  C6  UNL d   1      -3.809   2.020   3.795  0.00  0.00     0.076 C 
ATOM      6  C7  UNL d   1      -2.582   0.171   2.623  0.00  0.00     0.002 A 
ATOM      7  C8  UNL d   1      -1.488  -0.315   1.903  0.00  0.00     0.006 A 
ENDROOT
BRANCH   1   8
ATOM      8  C1  UNL d   1       0.769  -0.002   0.822  0.00  0.00     0.054 C 
ATOM      9  C   UNL d   1       1.132   0.861  -0.378  0.00  0.00     0.018 C 
ENDBRANCH   1   8
TORSDOF 1
ENDMDL
