MODEL 1
REMARK minimizedAffinity -0.505731642
REMARK minimizedRMSD -1
REMARK  1 active torsions:
REMARK  status: ('A' for Active; 'I' for Inactive)
REMARK    1  A    between atoms: C1_2  and  C2_3 
ROOT
ATOM      1  C2  UNL d   1      -3.328   1.601   3.707  0.00  0.00    -0.081 A 
ATOM      2  C3  UNL d   1      -2.508   2.716   3.497  0.00  0.00     0.006 A 
ATOM      3  C4  UNL d   1      -1.322   2.596   2.770  0.00  0.00     0.002 A 
ATOM      4  C5  UNL d   1      -0.939   1.362   2.234  0.00  0.00    -0.080 A 
ATOM      5  C6  UNL d   1       0.317   1.226   1.425  0.00  0.00     0.076 C 
ATOM      6  C7  UNL d   1      -1.749   0.244   2.458  0.00  0.00     0.002 A 
ATOM      7  C8  UNL d   1      -2.936   0.363   3.186  0.00  0.00     0.006 A 
ENDROOT
BRANCH   1   8
ATOM      8  C1  UNL d   1      -4.640   1.740   4.435  0.00  0.00     0.054 C 
ATOM      9  C   UNL d   1      -4.491   2.594   5.686  0.00  0.00     0.018 C 
ENDBRANCH   1   8
TORSDOF 1
ENDMDL
