MODEL 1
REMARK minimizedAffinity -4.2946105
REMARK minimizedRMSD -1
REMARK  1 active torsions:
REMARK  status: ('A' for Active; 'I' for Inactive)
REMARK    1  A    between atoms: C1_2  and  C2_3 
ROOT
ATOM      1  C2  UNL d   1      -1.844   0.420   2.181  0.00  0.00    -0.081 A 
ATOM      2  C3  UNL d   1      -1.386  -0.622   1.365  0.00  0.00     0.006 A 
ATOM      3  C4  UNL d   1      -0.184  -0.498   0.666  0.00  0.00     0.002 A 
ATOM      4  C5  UNL d   1       0.585   0.666   0.776  0.00  0.00    -0.080 A 
ATOM      5  C6  UNL d   1       1.893   0.800   0.055  0.00  0.00     0.076 C 
ATOM      6  C7  UNL d   1       0.119   1.714   1.577  0.00  0.00     0.002 A 
ATOM      7  C8  UNL d   1      -1.084   1.591   2.276  0.00  0.00     0.006 A 
ENDROOT
BRANCH   1   8
ATOM      8  C1  UNL d   1      -3.108   0.264   2.987  0.00  0.00     0.054 C 
ATOM      9  C   UNL d   1      -3.526   1.583   3.622  0.00  0.00     0.018 C 
ENDBRANCH   1   8
TORSDOF 1
ENDMDL
