MODEL 1
REMARK minimizedAffinity -2.26535916
REMARK minimizedRMSD -1
REMARK  1 active torsions:
REMARK  status: ('A' for Active; 'I' for Inactive)
REMARK    1  A    between atoms: C1_2  and  C2_3 
ROOT
ATOM      1  C2  UNL d   1      -1.003   1.146   2.015  0.00  0.00    -0.081 A 
ATOM      2  C3  UNL d   1       0.094   0.287   1.873  0.00  0.00     0.006 A 
ATOM      3  C4  UNL d   1       1.323   0.776   1.423  0.00  0.00     0.002 A 
ATOM      4  C5  UNL d   1       1.477   2.132   1.115  0.00  0.00    -0.080 A 
ATOM      5  C6  UNL d   1       2.799   2.675   0.660  0.00  0.00     0.076 C 
ATOM      6  C7  UNL d   1       0.377   2.987   1.240  0.00  0.00     0.002 A 
ATOM      7  C8  UNL d   1      -0.852   2.498   1.689  0.00  0.00     0.006 A 
ENDROOT
BRANCH   1   8
ATOM      8  C1  UNL d   1      -2.311   0.634   2.561  0.00  0.00     0.054 C 
ATOM      9  C   UNL d   1      -3.043   1.714   3.346  0.00  0.00     0.018 C 
ENDBRANCH   1   8
TORSDOF 1
ENDMDL
