MODEL 1
REMARK minimizedAffinity -0.412528247
REMARK minimizedRMSD -1
REMARK  1 active torsions:
REMARK  status: ('A' for Active; 'I' for Inactive)
REMARK    1  A    between atoms: C1_2  and  C2_3 
ROOT
ATOM      1  C2  UNL d   1       0.622   0.907   1.272  0.00  0.00    -0.081 A 
ATOM      2  C3  UNL d   1      -0.051   1.851   2.056  0.00  0.00     0.006 A 
ATOM      3  C4  UNL d   1      -1.254   1.521   2.686  0.00  0.00     0.002 A 
ATOM      4  C5  UNL d   1      -1.799   0.240   2.548  0.00  0.00    -0.080 A 
ATOM      5  C6  UNL d   1      -3.074  -0.136   3.243  0.00  0.00     0.076 C 
ATOM      6  C7  UNL d   1      -1.136  -0.698   1.749  0.00  0.00     0.002 A 
ATOM      7  C8  UNL d   1       0.066  -0.368   1.119  0.00  0.00     0.006 A 
ENDROOT
BRANCH   1   8
ATOM      8  C1  UNL d   1       1.951   1.240   0.644  0.00  0.00     0.054 C 
ATOM      9  C   UNL d   1       2.955   0.113   0.845  0.00  0.00     0.018 C 
ENDBRANCH   1   8
TORSDOF 1
ENDMDL
