MODEL 1
REMARK minimizedAffinity 1.08197975
REMARK minimizedRMSD -1
REMARK  1 active torsions:
REMARK  status: ('A' for Active; 'I' for Inactive)
REMARK    1  A    between atoms: C1_2  and  C2_3 
ROOT
ATOM      1  C2  UNL d   1       0.369   0.203   1.137  0.00  0.00    -0.081 A 
ATOM      2  C3  UNL d   1       0.296   1.595   1.270  0.00  0.00     0.006 A 
ATOM      3  C4  UNL d   1      -0.797   2.190   1.904  0.00  0.00     0.002 A 
ATOM      4  C5  UNL d   1      -1.831   1.403   2.422  0.00  0.00    -0.080 A 
ATOM      5  C6  UNL d   1      -2.996   2.026   3.132  0.00  0.00     0.076 C 
ATOM      6  C7  UNL d   1      -1.767   0.013   2.273  0.00  0.00     0.002 A 
ATOM      7  C8  UNL d   1      -0.674  -0.582   1.639  0.00  0.00     0.006 A 
ENDROOT
BRANCH   1   8
ATOM      8  C1  UNL d   1       1.578  -0.444   0.511  0.00  0.00     0.054 C 
ATOM      9  C   UNL d   1       2.553   0.598  -0.019  0.00  0.00     0.018 C 
ENDBRANCH   1   8
TORSDOF 1
ENDMDL
