MODEL 1
REMARK minimizedAffinity 4.50372791
REMARK minimizedRMSD -1
REMARK  1 active torsions:
REMARK  status: ('A' for Active; 'I' for Inactive)
REMARK    1  A    between atoms: C1_2  and  C2_3 
ROOT
ATOM      1  C2  UNL d   1       2.006   0.472   0.035  0.00  0.00    -0.081 A 
ATOM      2  C3  UNL d   1       1.378  -0.312   1.010  0.00  0.00     0.006 A 
ATOM      3  C4  UNL d   1       0.365   0.225   1.807  0.00  0.00     0.002 A 
ATOM      4  C5  UNL d   1      -0.043   1.552   1.638  0.00  0.00    -0.080 A 
ATOM      5  C6  UNL d   1      -1.150   2.133   2.467  0.00  0.00     0.076 C 
ATOM      6  C7  UNL d   1       0.596   2.342   0.676  0.00  0.00     0.002 A 
ATOM      7  C8  UNL d   1       1.610   1.805  -0.121  0.00  0.00     0.006 A 
ENDROOT
BRANCH   1   8
ATOM      8  C1  UNL d   1       3.054  -0.123  -0.870  0.00  0.00     0.054 C 
ATOM      9  C   UNL d   1       3.136   0.629  -2.191  0.00  0.00     0.018 C 
ENDBRANCH   1   8
TORSDOF 1
ENDMDL
