MODEL 1
REMARK minimizedAffinity 0.286642373
REMARK minimizedRMSD -1
REMARK  1 active torsions:
REMARK  status: ('A' for Active; 'I' for Inactive)
REMARK    1  A    between atoms: C1_2  and  C2_3 
ROOT
ATOM      1  C2  UNL d   1      -1.567   1.003   2.085  0.00  0.00    -0.081 A 
ATOM      2  C3  UNL d   1      -0.285   0.871   2.631  0.00  0.00     0.006 A 
ATOM      3  C4  UNL d   1       0.786   1.599   2.108  0.00  0.00     0.002 A 
ATOM      4  C5  UNL d   1       0.592   2.476   1.035  0.00  0.00    -0.080 A 
ATOM      5  C6  UNL d   1       1.728   3.286   0.484  0.00  0.00     0.076 C 
ATOM      6  C7  UNL d   1      -0.685   2.595   0.478  0.00  0.00     0.002 A 
ATOM      7  C8  UNL d   1      -1.757   1.867   1.000  0.00  0.00     0.006 A 
ENDROOT
BRANCH   1   8
ATOM      8  C1  UNL d   1      -2.737   0.269   2.688  0.00  0.00     0.054 C 
ATOM      9  C   UNL d   1      -3.591   1.195   3.541  0.00  0.00     0.018 C 
ENDBRANCH   1   8
TORSDOF 1
ENDMDL
