MODEL 1
REMARK minimizedAffinity -4.55822086
REMARK minimizedRMSD -1
REMARK  1 active torsions:
REMARK  status: ('A' for Active; 'I' for Inactive)
REMARK    1  A    between atoms: N_2  and  C1_3 
ROOT
ATOM      1  C1  UNL d   1      -0.009  -0.020   0.158  0.00  0.00     0.143 A 
ATOM      2  C2  UNL d   1      -1.401   0.021   0.292  0.00  0.00    -0.057 A 
ATOM      3  C3  UNL d   1      -2.134  -1.126   0.619  0.00  0.00     0.033 A 
ATOM      4  C4  UNL d   1      -1.487  -2.346   0.790  0.00  0.00    -0.042 A 
ATOM      5  C5  UNL d   1      -0.107  -2.415   0.637  0.00  0.00     0.033 A 
ATOM      6  C6  UNL d   1       0.620  -1.264   0.317  0.00  0.00    -0.057 A 
ENDROOT
BRANCH   1   7
ATOM      7  N   UNL d   1       0.764   1.065  -0.262  0.00  0.00    -0.732 N 
ATOM      8  C   UNL d   1       0.835   1.421  -1.663  0.00  0.00     0.284 C 
ATOM      9  H3  UNL d   1       0.689   1.862   0.366  0.00  0.00     0.395 HD
ENDBRANCH   1   7
TORSDOF 1
ENDMDL
