MODEL 1
REMARK minimizedAffinity -5.39176989
REMARK minimizedRMSD -1
REMARK  1 active torsions:
REMARK  status: ('A' for Active; 'I' for Inactive)
REMARK    1  A    between atoms: N_2  and  C1_3 
ROOT
ATOM      1  C1  UNL d   1      -0.193  -0.680   0.626  0.00  0.00     0.143 A 
ATOM      2  C2  UNL d   1      -0.119  -2.028   0.993  0.00  0.00    -0.057 A 
ATOM      3  C3  UNL d   1      -1.177  -2.657   1.661  0.00  0.00     0.033 A 
ATOM      4  C4  UNL d   1      -2.319  -1.939   2.000  0.00  0.00    -0.042 A 
ATOM      5  C5  UNL d   1      -2.403  -0.592   1.667  0.00  0.00     0.033 A 
ATOM      6  C6  UNL d   1      -1.346   0.029   0.994  0.00  0.00    -0.057 A 
ENDROOT
BRANCH   1   7
ATOM      7  N   UNL d   1       0.865   0.027   0.048  0.00  0.00    -0.732 N 
ATOM      8  C   UNL d   1       0.704   1.415  -0.329  0.00  0.00     0.284 C 
ATOM      9  H3  UNL d   1       1.758  -0.184   0.486  0.00  0.00     0.395 HD
ENDBRANCH   1   7
TORSDOF 1
ENDMDL
