MODEL 1
REMARK minimizedAffinity -4.61259604
REMARK minimizedRMSD -1
REMARK  1 active torsions:
REMARK  status: ('A' for Active; 'I' for Inactive)
REMARK    1  A    between atoms: N_2  and  C1_3 
ROOT
ATOM      1  C1  UNL d   1      -0.287   0.192   0.029  0.00  0.00     0.143 A 
ATOM      2  C2  UNL d   1       0.433  -0.687   0.846  0.00  0.00    -0.057 A 
ATOM      3  C3  UNL d   1      -0.130  -1.888   1.293  0.00  0.00     0.033 A 
ATOM      4  C4  UNL d   1      -1.438  -2.220   0.953  0.00  0.00    -0.042 A 
ATOM      5  C5  UNL d   1      -2.180  -1.350   0.162  0.00  0.00     0.033 A 
ATOM      6  C6  UNL d   1      -1.610  -0.155  -0.287  0.00  0.00    -0.057 A 
ENDROOT
BRANCH   1   7
ATOM      7  N   UNL d   1       0.183   1.447  -0.367  0.00  0.00    -0.732 N 
ATOM      8  C   UNL d   1       0.981   1.591  -1.565  0.00  0.00     0.284 C 
ATOM      9  H3  UNL d   1      -0.512   2.179  -0.240  0.00  0.00     0.395 HD
ENDBRANCH   1   7
TORSDOF 1
ENDMDL
