MODEL 1
REMARK minimizedAffinity -2.83840871
REMARK minimizedRMSD -1
REMARK  1 active torsions:
REMARK  status: ('A' for Active; 'I' for Inactive)
REMARK    1  A    between atoms: N_2  and  C1_3 
ROOT
ATOM      1  C1  UNL d   1       0.276  -0.003  -0.048  0.00  0.00     0.143 A 
ATOM      2  C2  UNL d   1       0.934  -1.108   0.505  0.00  0.00    -0.057 A 
ATOM      3  C3  UNL d   1       0.218  -2.174   1.063  0.00  0.00     0.033 A 
ATOM      4  C4  UNL d   1      -1.172  -2.141   1.104  0.00  0.00    -0.042 A 
ATOM      5  C5  UNL d   1      -1.846  -1.041   0.583  0.00  0.00     0.033 A 
ATOM      6  C6  UNL d   1      -1.125   0.017   0.021  0.00  0.00    -0.057 A 
ENDROOT
BRANCH   1   7
ATOM      7  N   UNL d   1       0.933   1.132  -0.529  0.00  0.00    -0.732 N 
ATOM      8  C   UNL d   1       0.993   1.404  -1.949  0.00  0.00     0.284 C 
ATOM      9  H3  UNL d   1       0.758   1.954   0.045  0.00  0.00     0.395 HD
ENDBRANCH   1   7
TORSDOF 1
ENDMDL
