MODEL 1
REMARK minimizedAffinity -5.00400639
REMARK minimizedRMSD -1
REMARK  1 active torsions:
REMARK  status: ('A' for Active; 'I' for Inactive)
REMARK    1  A    between atoms: N_2  and  C1_3 
ROOT
ATOM      1  C1  UNL d   1      -0.519  -0.712   0.477  0.00  0.00     0.143 A 
ATOM      2  C2  UNL d   1      -0.665  -2.084   0.708  0.00  0.00    -0.057 A 
ATOM      3  C3  UNL d   1      -1.772  -2.590   1.401  0.00  0.00     0.033 A 
ATOM      4  C4  UNL d   1      -2.740  -1.727   1.902  0.00  0.00    -0.042 A 
ATOM      5  C5  UNL d   1      -2.602  -0.357   1.707  0.00  0.00     0.033 A 
ATOM      6  C6  UNL d   1      -1.498   0.141   1.008  0.00  0.00    -0.057 A 
ENDROOT
BRANCH   1   7
ATOM      7  N   UNL d   1       0.608  -0.140  -0.119  0.00  0.00    -0.732 N 
ATOM      8  C   UNL d   1       0.541   1.183  -0.702  0.00  0.00     0.284 C 
ATOM      9  H3  UNL d   1       1.459  -0.319   0.408  0.00  0.00     0.395 HD
ENDBRANCH   1   7
TORSDOF 1
ENDMDL
