MODEL 1
REMARK minimizedAffinity -3.40380812
REMARK minimizedRMSD -1
REMARK  1 active torsions:
REMARK  status: ('A' for Active; 'I' for Inactive)
REMARK    1  A    between atoms: N_2  and  C1_3 
ROOT
ATOM      1  C1  UNL d   1       0.257   0.034   0.169  0.00  0.00     0.143 A 
ATOM      2  C2  UNL d   1       0.975  -1.142   0.415  0.00  0.00    -0.057 A 
ATOM      3  C3  UNL d   1       0.331  -2.310   0.842  0.00  0.00     0.033 A 
ATOM      4  C4  UNL d   1      -1.043  -2.314   1.060  0.00  0.00    -0.042 A 
ATOM      5  C5  UNL d   1      -1.773  -1.149   0.846  0.00  0.00     0.033 A 
ATOM      6  C6  UNL d   1      -1.125   0.012   0.413  0.00  0.00    -0.057 A 
ENDROOT
BRANCH   1   7
ATOM      7  N   UNL d   1       0.853   1.254  -0.162  0.00  0.00    -0.732 N 
ATOM      8  C   UNL d   1       1.494   1.436  -1.446  0.00  0.00     0.284 C 
ATOM      9  H3  UNL d   1       0.300   2.051   0.144  0.00  0.00     0.395 HD
ENDBRANCH   1   7
TORSDOF 1
ENDMDL
