MODEL 1
REMARK minimizedAffinity 0.0469653495
REMARK minimizedRMSD -1
REMARK  1 active torsions:
REMARK  status: ('A' for Active; 'I' for Inactive)
REMARK    1  A    between atoms: N_2  and  C1_3 
ROOT
ATOM      1  C1  UNL d   1       0.722   1.626  -1.270  0.00  0.00     0.143 A 
ATOM      2  C2  UNL d   1       2.065   1.740  -1.643  0.00  0.00    -0.057 A 
ATOM      3  C3  UNL d   1       2.459   2.581  -2.692  0.00  0.00     0.033 A 
ATOM      4  C4  UNL d   1       1.509   3.302  -3.407  0.00  0.00    -0.042 A 
ATOM      5  C5  UNL d   1       0.165   3.185  -3.070  0.00  0.00     0.033 A 
ATOM      6  C6  UNL d   1      -0.221   2.350  -2.018  0.00  0.00    -0.057 A 
ENDROOT
BRANCH   1   7
ATOM      7  N   UNL d   1       0.257   0.734  -0.302  0.00  0.00    -0.732 N 
ATOM      8  C   UNL d   1       0.221  -0.689  -0.567  0.00  0.00     0.284 C 
ATOM      9  H3  UNL d   1       0.576   0.974   0.634  0.00  0.00     0.395 HD
ENDBRANCH   1   7
TORSDOF 1
ENDMDL
