MODEL 1
REMARK minimizedAffinity -3.09630084
REMARK minimizedRMSD -1
REMARK  1 active torsions:
REMARK  status: ('A' for Active; 'I' for Inactive)
REMARK    1  A    between atoms: N_2  and  C1_3 
ROOT
ATOM      1  C1  UNL d   1      -0.289  -1.545   0.609  0.00  0.00     0.143 A 
ATOM      2  C2  UNL d   1      -1.132  -0.478   0.282  0.00  0.00    -0.057 A 
ATOM      3  C3  UNL d   1      -0.620   0.730  -0.207  0.00  0.00     0.033 A 
ATOM      4  C4  UNL d   1       0.753   0.902  -0.351  0.00  0.00    -0.042 A 
ATOM      5  C5  UNL d   1       1.612  -0.136  -0.009  0.00  0.00     0.033 A 
ATOM      6  C6  UNL d   1       1.094  -1.342   0.473  0.00  0.00    -0.057 A 
ENDROOT
BRANCH   1   7
ATOM      7  N   UNL d   1      -0.730  -2.735   1.192  0.00  0.00    -0.732 N 
ATOM      8  C   UNL d   1      -2.128  -3.106   1.142  0.00  0.00     0.284 C 
ATOM      9  H3  UNL d   1      -0.088  -3.508   1.031  0.00  0.00     0.395 HD
ENDBRANCH   1   7
TORSDOF 1
ENDMDL
