MODEL 1
REMARK minimizedAffinity -3.02360129
REMARK minimizedRMSD -1
REMARK  1 active torsions:
REMARK  status: ('A' for Active; 'I' for Inactive)
REMARK    1  A    between atoms: N_2  and  C1_3 
ROOT
ATOM      1  C1  UNL d   1       0.121  -0.419   0.109  0.00  0.00     0.143 A 
ATOM      2  C2  UNL d   1       0.884  -1.465   0.641  0.00  0.00    -0.057 A 
ATOM      3  C3  UNL d   1       0.277  -2.612   1.165  0.00  0.00     0.033 A 
ATOM      4  C4  UNL d   1      -1.109  -2.722   1.194  0.00  0.00    -0.042 A 
ATOM      5  C5  UNL d   1      -1.888  -1.685   0.693  0.00  0.00     0.033 A 
ATOM      6  C6  UNL d   1      -1.276  -0.544   0.165  0.00  0.00    -0.057 A 
ENDROOT
BRANCH   1   7
ATOM      7  N   UNL d   1       0.662   0.789  -0.337  0.00  0.00    -0.732 N 
ATOM      8  C   UNL d   1       0.706   1.100  -1.750  0.00  0.00     0.284 C 
ATOM      9  H3  UNL d   1       0.398   1.574   0.253  0.00  0.00     0.395 HD
ENDBRANCH   1   7
TORSDOF 1
ENDMDL
