MODEL 1
REMARK minimizedAffinity -5.06566238
REMARK minimizedRMSD -1
REMARK  1 active torsions:
REMARK  status: ('A' for Active; 'I' for Inactive)
REMARK    1  A    between atoms: N_2  and  C1_3 
ROOT
ATOM      1  C1  UNL d   1      -0.171  -0.657   0.107  0.00  0.00     0.143 A 
ATOM      2  C2  UNL d   1      -1.539  -0.714   0.396  0.00  0.00    -0.057 A 
ATOM      3  C3  UNL d   1      -2.036  -1.573   1.384  0.00  0.00     0.033 A 
ATOM      4  C4  UNL d   1      -1.175  -2.414   2.081  0.00  0.00    -0.042 A 
ATOM      5  C5  UNL d   1       0.184  -2.392   1.792  0.00  0.00     0.033 A 
ATOM      6  C6  UNL d   1       0.676  -1.527   0.810  0.00  0.00    -0.057 A 
ENDROOT
BRANCH   1   7
ATOM      7  N   UNL d   1       0.373   0.105  -0.931  0.00  0.00    -0.732 N 
ATOM      8  C   UNL d   1       0.720   1.494  -0.722  0.00  0.00     0.284 C 
ATOM      9  H3  UNL d   1       1.054  -0.416  -1.478  0.00  0.00     0.395 HD
ENDBRANCH   1   7
TORSDOF 1
ENDMDL
