MODEL 1
REMARK minimizedAffinity -5.0601716
REMARK minimizedRMSD -1
REMARK  1 active torsions:
REMARK  status: ('A' for Active; 'I' for Inactive)
REMARK    1  A    between atoms: N_2  and  C1_3 
ROOT
ATOM      1  C1  UNL d   1      -0.557  -0.562   0.584  0.00  0.00     0.143 A 
ATOM      2  C2  UNL d   1      -0.895  -1.877   0.921  0.00  0.00    -0.057 A 
ATOM      3  C3  UNL d   1      -2.064  -2.165   1.635  0.00  0.00     0.033 A 
ATOM      4  C4  UNL d   1      -2.904  -1.138   2.051  0.00  0.00    -0.042 A 
ATOM      5  C5  UNL d   1      -2.575   0.179   1.749  0.00  0.00     0.033 A 
ATOM      6  C6  UNL d   1      -1.410   0.460   1.030  0.00  0.00    -0.057 A 
ENDROOT
BRANCH   1   7
ATOM      7  N   UNL d   1       0.641  -0.202  -0.038  0.00  0.00    -0.732 N 
ATOM      8  C   UNL d   1       0.861   1.158  -0.483  0.00  0.00     0.284 C 
ATOM      9  H3  UNL d   1       1.452  -0.632   0.401  0.00  0.00     0.395 HD
ENDBRANCH   1   7
TORSDOF 1
ENDMDL
