MODEL 1
REMARK minimizedAffinity -3.95260954
REMARK minimizedRMSD -1
REMARK  1 active torsions:
REMARK  status: ('A' for Active; 'I' for Inactive)
REMARK    1  A    between atoms: N_2  and  C1_3 
ROOT
ATOM      1  C1  UNL d   1      -0.112   0.038   0.556  0.00  0.00     0.143 A 
ATOM      2  C2  UNL d   1      -1.501   0.173   0.458  0.00  0.00    -0.057 A 
ATOM      3  C3  UNL d   1      -2.350  -0.931   0.608  0.00  0.00     0.033 A 
ATOM      4  C4  UNL d   1      -1.820  -2.198   0.829  0.00  0.00    -0.042 A 
ATOM      5  C5  UNL d   1      -0.442  -2.359   0.904  0.00  0.00     0.033 A 
ATOM      6  C6  UNL d   1       0.400  -1.252   0.761  0.00  0.00    -0.057 A 
ENDROOT
BRANCH   1   7
ATOM      7  N   UNL d   1       0.789   1.080   0.319  0.00  0.00    -0.732 N 
ATOM      8  C   UNL d   1       1.180   1.423  -1.031  0.00  0.00     0.284 C 
ATOM      9  H3  UNL d   1       0.620   1.883   0.920  0.00  0.00     0.395 HD
ENDBRANCH   1   7
TORSDOF 1
ENDMDL
