MODEL 1
REMARK minimizedAffinity -4.13431215
REMARK minimizedRMSD -1
REMARK  1 active torsions:
REMARK  status: ('A' for Active; 'I' for Inactive)
REMARK    1  A    between atoms: N_2  and  C1_3 
ROOT
ATOM      1  C1  UNL d   1       0.139  -0.049  -0.018  0.00  0.00     0.143 A 
ATOM      2  C2  UNL d   1      -1.188  -0.355  -0.339  0.00  0.00    -0.057 A 
ATOM      3  C3  UNL d   1      -1.847  -1.439   0.254  0.00  0.00     0.033 A 
ATOM      4  C4  UNL d   1      -1.179  -2.255   1.160  0.00  0.00    -0.042 A 
ATOM      5  C5  UNL d   1       0.148  -1.985   1.476  0.00  0.00     0.033 A 
ATOM      6  C6  UNL d   1       0.799  -0.898   0.885  0.00  0.00    -0.057 A 
ENDROOT
BRANCH   1   7
ATOM      7  N   UNL d   1       0.880   0.954  -0.647  0.00  0.00    -0.732 N 
ATOM      8  C   UNL d   1       0.878   1.079  -2.089  0.00  0.00     0.284 C 
ATOM      9  H3  UNL d   1       0.829   1.843  -0.153  0.00  0.00     0.395 HD
ENDBRANCH   1   7
TORSDOF 1
ENDMDL
