MODEL 1
REMARK minimizedAffinity -5.88390446
REMARK minimizedRMSD -1
REMARK  1 active torsions:
REMARK  status: ('A' for Active; 'I' for Inactive)
REMARK    1  A    between atoms: C1_2  and  C2_3 
ROOT
ATOM      1  C2  UNL d   1      -1.283  -0.353   0.443  0.00  0.00    -0.073 A 
ATOM      2  C3  UNL d   1      -0.009  -0.648  -0.056  0.00  0.00    -0.002 A 
ATOM      3  C4  UNL d   1       1.126  -0.399   0.717  0.00  0.00     0.004 A 
ATOM      4  C5  UNL d   1       0.999   0.141   1.997  0.00  0.00    -0.004 A 
ATOM      5  C6  UNL d   1      -0.266   0.432   2.518  0.00  0.00    -0.075 A 
ATOM      6  C7  UNL d   1      -0.419   1.015   3.892  0.00  0.00     0.076 C 
ATOM      7  C8  UNL d   1      -1.401   0.181   1.735  0.00  0.00     0.001 A 
ENDROOT
BRANCH   1   8
ATOM      8  C1  UNL d   1      -2.512  -0.626  -0.385  0.00  0.00     0.053 C 
ATOM      9  C   UNL d   1      -2.609  -2.087  -0.795  0.00  0.00     0.018 C 
ENDBRANCH   1   8
TORSDOF 1
ENDMDL
