MODEL 1
REMARK minimizedAffinity 1.49447989
REMARK minimizedRMSD -1
REMARK  1 active torsions:
REMARK  status: ('A' for Active; 'I' for Inactive)
REMARK    1  A    between atoms: C1_2  and  C2_3 
ROOT
ATOM      1  C2  UNL d   1      -1.079  -1.231  -0.242  0.00  0.00    -0.073 A 
ATOM      2  C3  UNL d   1      -2.464  -1.214  -0.046  0.00  0.00    -0.002 A 
ATOM      3  C4  UNL d   1      -3.241  -2.314  -0.412  0.00  0.00     0.004 A 
ATOM      4  C5  UNL d   1      -2.642  -3.443  -0.970  0.00  0.00    -0.004 A 
ATOM      5  C6  UNL d   1      -1.257  -3.484  -1.162  0.00  0.00    -0.075 A 
ATOM      6  C7  UNL d   1      -0.597  -4.690  -1.763  0.00  0.00     0.076 C 
ATOM      7  C8  UNL d   1      -0.484  -2.374  -0.795  0.00  0.00     0.001 A 
ENDROOT
BRANCH   1   8
ATOM      8  C1  UNL d   1      -0.234  -0.049   0.158  0.00  0.00     0.053 C 
ATOM      9  C   UNL d   1       0.419  -0.247   1.516  0.00  0.00     0.018 C 
ENDBRANCH   1   8
TORSDOF 1
ENDMDL
