MODEL 1
REMARK minimizedAffinity -1.76944017
REMARK minimizedRMSD -1
REMARK  1 active torsions:
REMARK  status: ('A' for Active; 'I' for Inactive)
REMARK    1  A    between atoms: C1_2  and  C2_3 
ROOT
ATOM      1  C2  UNL d   1       0.613  -0.278  -1.813  0.00  0.00    -0.073 A 
ATOM      2  C3  UNL d   1      -0.006   0.739  -2.549  0.00  0.00    -0.002 A 
ATOM      3  C4  UNL d   1       0.595   1.237  -3.706  0.00  0.00     0.004 A 
ATOM      4  C5  UNL d   1       1.814   0.719  -4.143  0.00  0.00    -0.004 A 
ATOM      5  C6  UNL d   1       2.442  -0.306  -3.428  0.00  0.00    -0.075 A 
ATOM      6  C7  UNL d   1       3.755  -0.872  -3.884  0.00  0.00     0.076 C 
ATOM      7  C8  UNL d   1       1.834  -0.799  -2.265  0.00  0.00     0.001 A 
ENDROOT
BRANCH   1   8
ATOM      8  C1  UNL d   1      -0.034  -0.823  -0.567  0.00  0.00     0.053 C 
ATOM      9  C   UNL d   1      -0.334   0.271   0.445  0.00  0.00     0.018 C 
ENDBRANCH   1   8
TORSDOF 1
ENDMDL
