MODEL 1
REMARK minimizedAffinity -0.309172183
REMARK minimizedRMSD -1
REMARK  1 active torsions:
REMARK  status: ('A' for Active; 'I' for Inactive)
REMARK    1  A    between atoms: C1_2  and  C2_3 
ROOT
ATOM      1  C2  UNL d   1       0.341   0.564  -1.171  0.00  0.00    -0.073 A 
ATOM      2  C3  UNL d   1       1.073  -0.625  -1.069  0.00  0.00    -0.002 A 
ATOM      3  C4  UNL d   1       1.453  -1.113   0.182  0.00  0.00     0.004 A 
ATOM      4  C5  UNL d   1       1.100  -0.424   1.342  0.00  0.00    -0.004 A 
ATOM      5  C6  UNL d   1       0.359   0.760   1.261  0.00  0.00    -0.075 A 
ATOM      6  C7  UNL d   1      -0.027   1.514   2.499  0.00  0.00     0.076 C 
ATOM      7  C8  UNL d   1      -0.017   1.245   0.001  0.00  0.00     0.001 A 
ENDROOT
BRANCH   1   8
ATOM      8  C1  UNL d   1      -0.077   1.092  -2.519  0.00  0.00     0.053 C 
ATOM      9  C   UNL d   1       1.004   0.892  -3.570  0.00  0.00     0.018 C 
ENDBRANCH   1   8
TORSDOF 1
ENDMDL
