MODEL 1
REMARK minimizedAffinity 2.48301554
REMARK minimizedRMSD -1
REMARK  1 active torsions:
REMARK  status: ('A' for Active; 'I' for Inactive)
REMARK    1  A    between atoms: C1_2  and  C2_3 
ROOT
ATOM      1  C2  UNL d   1       2.484  -1.209   5.244  0.00  0.00    -0.073 A 
ATOM      2  C3  UNL d   1       2.653  -2.581   5.460  0.00  0.00    -0.002 A 
ATOM      3  C4  UNL d   1       3.899  -3.088   5.832  0.00  0.00     0.004 A 
ATOM      4  C5  UNL d   1       4.985  -2.229   6.000  0.00  0.00    -0.004 A 
ATOM      5  C6  UNL d   1       4.833  -0.853   5.801  0.00  0.00    -0.075 A 
ATOM      6  C7  UNL d   1       5.992   0.084   5.974  0.00  0.00     0.076 C 
ATOM      7  C8  UNL d   1       3.580  -0.352   5.424  0.00  0.00     0.001 A 
ENDROOT
BRANCH   1   8
ATOM      8  C1  UNL d   1       1.139  -0.656   4.848  0.00  0.00     0.053 C 
ATOM      9  C   UNL d   1       1.217   0.814   4.468  0.00  0.00     0.018 C 
ENDBRANCH   1   8
TORSDOF 1
ENDMDL
