MODEL 1
REMARK minimizedAffinity 13.1519375
REMARK minimizedRMSD -1
REMARK  0 active torsions:
REMARK  status: ('A' for Active; 'I' for Inactive)
ROOT
ATOM      1  C1  DEN d   1       2.080  -3.820   1.118  0.00  0.00     0.130 A 
ATOM      2  C2  DEN d   1       2.196  -3.382   2.506  0.00  0.00    -0.031 A 
ATOM      3  C3  DEN d   1       3.603  -3.551   2.922  0.00  0.00     0.027 A 
ATOM      4  C4  DEN d   1       5.603  -4.438   1.556  0.00  0.00     0.027 A 
ATOM      5  C5  DEN d   1       5.993  -4.942   0.335  0.00  0.00    -0.003 A 
ATOM      6  C6  DEN d   1       5.107  -5.138  -0.691  0.00  0.00     0.001 A 
ATOM      7  C7  DEN d   1       3.793  -4.785  -0.530  0.00  0.00     0.017 A 
ATOM      8  C8  DEN d   1       3.391  -4.283   0.701  0.00  0.00    -0.094 A 
ATOM      9  C9  DEN d   1       4.304  -4.081   1.722  0.00  0.00    -0.072 A 
ENDROOT
TORSDOF 0
ENDMDL
