MODEL 1
REMARK minimizedAffinity 6.59099627
REMARK minimizedRMSD -1
REMARK  0 active torsions:
REMARK  status: ('A' for Active; 'I' for Inactive)
ROOT
ATOM      1  C1  DEN d   1       1.972  -4.705   1.302  0.00  0.00     0.130 A 
ATOM      2  C2  DEN d   1       1.872  -3.370   1.886  0.00  0.00    -0.031 A 
ATOM      3  C3  DEN d   1       3.204  -2.739   1.813  0.00  0.00     0.027 A 
ATOM      4  C4  DEN d   1       5.401  -3.691   0.853  0.00  0.00     0.027 A 
ATOM      5  C5  DEN d   1       5.983  -4.788   0.258  0.00  0.00    -0.003 A 
ATOM      6  C6  DEN d   1       5.284  -5.937   0.002  0.00  0.00     0.001 A 
ATOM      7  C7  DEN d   1       3.948  -6.000   0.301  0.00  0.00     0.017 A 
ATOM      8  C8  DEN d   1       3.356  -4.900   0.908  0.00  0.00    -0.094 A 
ATOM      9  C9  DEN d   1       4.077  -3.743   1.148  0.00  0.00    -0.072 A 
ENDROOT
TORSDOF 0
ENDMDL
