MODEL 1
REMARK minimizedAffinity 19.1571159
REMARK minimizedRMSD -1
REMARK  0 active torsions:
REMARK  status: ('A' for Active; 'I' for Inactive)
ROOT
ATOM      1  C1  DEN d   1      -5.456  -1.411  -4.017  0.00  0.00     0.130 A 
ATOM      2  C2  DEN d   1      -5.009  -2.765  -4.333  0.00  0.00    -0.031 A 
ATOM      3  C3  DEN d   1      -4.095  -3.207  -3.261  0.00  0.00     0.027 A 
ATOM      4  C4  DEN d   1      -3.335  -1.934  -1.150  0.00  0.00     0.027 A 
ATOM      5  C5  DEN d   1      -3.439  -0.748  -0.456  0.00  0.00    -0.003 A 
ATOM      6  C6  DEN d   1      -4.188   0.303  -0.914  0.00  0.00     0.001 A 
ATOM      7  C7  DEN d   1      -4.901   0.173  -2.076  0.00  0.00     0.017 A 
ATOM      8  C8  DEN d   1      -4.796  -1.016  -2.786  0.00  0.00    -0.094 A 
ATOM      9  C9  DEN d   1      -4.042  -2.072  -2.300  0.00  0.00    -0.072 A 
ENDROOT
TORSDOF 0
ENDMDL
