MODEL 1
REMARK minimizedAffinity 9.83565807
REMARK minimizedRMSD -1
REMARK  0 active torsions:
REMARK  status: ('A' for Active; 'I' for Inactive)
ROOT
ATOM      1  C1  DEN d   1       2.182  -1.510   2.233  0.00  0.00     0.130 A 
ATOM      2  C2  DEN d   1       1.442  -2.769   2.200  0.00  0.00    -0.031 A 
ATOM      3  C3  DEN d   1       0.519  -2.725   1.048  0.00  0.00     0.027 A 
ATOM      4  C4  DEN d   1       0.168  -0.843  -0.680  0.00  0.00     0.027 A 
ATOM      5  C5  DEN d   1       0.560   0.423  -1.057  0.00  0.00    -0.003 A 
ATOM      6  C6  DEN d   1       1.487   1.141  -0.349  0.00  0.00     0.001 A 
ATOM      7  C7  DEN d   1       2.088   0.580   0.747  0.00  0.00     0.017 A 
ATOM      8  C8  DEN d   1       1.693  -0.693   1.137  0.00  0.00    -0.094 A 
ATOM      9  C9  DEN d   1       0.762  -1.408   0.401  0.00  0.00    -0.072 A 
ENDROOT
TORSDOF 0
ENDMDL
