MODEL 1
REMARK minimizedAffinity 12.1506805
REMARK minimizedRMSD -1
REMARK  0 active torsions:
REMARK  status: ('A' for Active; 'I' for Inactive)
ROOT
ATOM      1  C1  DEN d   1      -5.790  -1.398  -4.217  0.00  0.00     0.130 A 
ATOM      2  C2  DEN d   1      -5.237  -2.672  -4.667  0.00  0.00    -0.031 A 
ATOM      3  C3  DEN d   1      -4.066  -2.985  -3.822  0.00  0.00     0.027 A 
ATOM      4  C4  DEN d   1      -3.065  -1.629  -1.870  0.00  0.00     0.027 A 
ATOM      5  C5  DEN d   1      -3.184  -0.475  -1.128  0.00  0.00    -0.003 A 
ATOM      6  C6  DEN d   1      -4.150   0.461  -1.383  0.00  0.00     0.001 A 
ATOM      7  C7  DEN d   1      -5.066   0.238  -2.378  0.00  0.00     0.017 A 
ATOM      8  C8  DEN d   1      -4.948  -0.920  -3.135  0.00  0.00    -0.094 A 
ATOM      9  C9  DEN d   1      -3.971  -1.860  -2.854  0.00  0.00    -0.072 A 
ENDROOT
TORSDOF 0
ENDMDL
