MODEL 1
REMARK minimizedAffinity 14.2465162
REMARK minimizedRMSD -1
REMARK  0 active torsions:
REMARK  status: ('A' for Active; 'I' for Inactive)
ROOT
ATOM      1  C1  DEN d   1       1.062  -1.229   3.206  0.00  0.00     0.130 A 
ATOM      2  C2  DEN d   1      -0.368  -1.463   3.021  0.00  0.00    -0.031 A 
ATOM      3  C3  DEN d   1      -0.531  -2.734   2.286  0.00  0.00     0.027 A 
ATOM      4  C4  DEN d   1       1.282  -4.355   1.426  0.00  0.00     0.027 A 
ATOM      5  C5  DEN d   1       2.638  -4.576   1.335  0.00  0.00    -0.003 A 
ATOM      6  C6  DEN d   1       3.557  -3.688   1.827  0.00  0.00     0.001 A 
ATOM      7  C7  DEN d   1       3.131  -2.558   2.474  0.00  0.00     0.017 A 
ATOM      8  C8  DEN d   1       1.765  -2.324   2.563  0.00  0.00    -0.094 A 
ATOM      9  C9  DEN d   1       0.851  -3.240   2.070  0.00  0.00    -0.072 A 
ENDROOT
TORSDOF 0
ENDMDL
