MODEL 1
REMARK minimizedAffinity 8.83710766
REMARK minimizedRMSD -1
REMARK  0 active torsions:
REMARK  status: ('A' for Active; 'I' for Inactive)
ROOT
ATOM      1  C   UNL d   1      -0.151  -3.471  -0.036  0.00  0.00    -0.002 A 
ATOM      2  C1  UNL d   1      -0.859  -2.327   0.302  0.00  0.00     0.010 A 
ATOM      3  C2  UNL d   1      -0.445  -1.524   1.367  0.00  0.00     0.041 A 
ATOM      4  C3  UNL d   1       0.705  -1.893   2.092  0.00  0.00    -0.075 A 
ATOM      5  S   UNL d   1       1.399  -1.062   3.433  0.00  0.00     0.015 SA
ATOM      6  C4  UNL d   1       2.653  -2.206   3.588  0.00  0.00     0.022 A 
ATOM      7  C5  UNL d   1       2.560  -3.204   2.648  0.00  0.00     0.026 A 
ATOM      8  C6  UNL d   1       1.436  -3.040   1.769  0.00  0.00    -0.082 A 
ATOM      9  C7  UNL d   1       0.990  -3.834   0.685  0.00  0.00     0.045 A 
ENDROOT
TORSDOF 0
ENDMDL
