MODEL 1
REMARK minimizedAffinity 9.15494919
REMARK minimizedRMSD -1
REMARK  0 active torsions:
REMARK  status: ('A' for Active; 'I' for Inactive)
ROOT
ATOM      1  C   UNL d   1       5.428  -2.684   6.000  0.00  0.00    -0.002 A 
ATOM      2  C1  UNL d   1       5.969  -1.865   5.019  0.00  0.00     0.010 A 
ATOM      3  C2  UNL d   1       5.159  -1.325   4.018  0.00  0.00     0.041 A 
ATOM      4  C3  UNL d   1       3.782  -1.623   4.021  0.00  0.00    -0.075 A 
ATOM      5  S   UNL d   1       2.597  -1.074   2.896  0.00  0.00     0.015 SA
ATOM      6  C4  UNL d   1       1.344  -1.912   3.692  0.00  0.00     0.022 A 
ATOM      7  C5  UNL d   1       1.801  -2.600   4.791  0.00  0.00     0.026 A 
ATOM      8  C6  UNL d   1       3.214  -2.444   5.000  0.00  0.00    -0.082 A 
ATOM      9  C7  UNL d   1       4.062  -2.977   6.000  0.00  0.00     0.045 A 
ENDROOT
TORSDOF 0
ENDMDL
