MODEL 1
REMARK minimizedAffinity 12.6280451
REMARK minimizedRMSD -1
REMARK  0 active torsions:
REMARK  status: ('A' for Active; 'I' for Inactive)
ROOT
ATOM      1  C   UNL d   1       2.295   1.686   3.011  0.00  0.00    -0.002 A 
ATOM      2  C1  UNL d   1       2.342   1.865   4.386  0.00  0.00     0.010 A 
ATOM      3  C2  UNL d   1       2.395   0.766   5.244  0.00  0.00     0.041 A 
ATOM      4  C3  UNL d   1       2.401  -0.530   4.692  0.00  0.00    -0.075 A 
ATOM      5  S   UNL d   1       2.463  -2.025   5.549  0.00  0.00     0.015 SA
ATOM      6  C4  UNL d   1       2.429  -2.937   4.110  0.00  0.00     0.022 A 
ATOM      7  C5  UNL d   1       2.372  -2.137   2.994  0.00  0.00     0.026 A 
ATOM      8  C6  UNL d   1       2.355  -0.737   3.311  0.00  0.00    -0.082 A 
ATOM      9  C7  UNL d   1       2.302   0.399   2.467  0.00  0.00     0.045 A 
ENDROOT
TORSDOF 0
ENDMDL
