MODEL 1
REMARK minimizedAffinity 18.5238228
REMARK minimizedRMSD -1
REMARK  0 active torsions:
REMARK  status: ('A' for Active; 'I' for Inactive)
ROOT
ATOM      1  C   UNL d   1       1.396  -1.064   3.288  0.00  0.00    -0.002 A 
ATOM      2  C1  UNL d   1       1.827  -0.354   2.176  0.00  0.00     0.010 A 
ATOM      3  C2  UNL d   1       3.179  -0.331   1.828  0.00  0.00     0.041 A 
ATOM      4  C3  UNL d   1       4.099  -1.043   2.621  0.00  0.00    -0.075 A 
ATOM      5  S   UNL d   1       5.803  -1.160   2.385  0.00  0.00     0.015 SA
ATOM      6  C4  UNL d   1       6.000  -2.157   3.754  0.00  0.00     0.022 A 
ATOM      7  C5  UNL d   1       4.805  -2.404   4.387  0.00  0.00     0.026 A 
ATOM      8  C6  UNL d   1       3.690  -1.767   3.745  0.00  0.00    -0.082 A 
ATOM      9  C7  UNL d   1       2.313  -1.770   4.072  0.00  0.00     0.045 A 
ENDROOT
TORSDOF 0
ENDMDL
