MODEL 1
REMARK minimizedAffinity 13.2042274
REMARK minimizedRMSD -1
REMARK  0 active torsions:
REMARK  status: ('A' for Active; 'I' for Inactive)
ROOT
ATOM      1  C   UNL d   1      -5.895  -1.556  -4.614  0.00  0.00    -0.002 A 
ATOM      2  C1  UNL d   1      -5.728  -0.941  -5.846  0.00  0.00     0.010 A 
ATOM      3  C2  UNL d   1      -5.654   0.450  -5.942  0.00  0.00     0.041 A 
ATOM      4  C3  UNL d   1      -5.751   1.220  -4.766  0.00  0.00    -0.075 A 
ATOM      5  S   UNL d   1      -5.687   2.938  -4.640  0.00  0.00     0.015 SA
ATOM      6  C4  UNL d   1      -5.879   2.896  -2.947  0.00  0.00     0.022 A 
ATOM      7  C5  UNL d   1      -5.992   1.611  -2.473  0.00  0.00     0.026 A 
ATOM      8  C6  UNL d   1      -5.919   0.623  -3.513  0.00  0.00    -0.082 A 
ATOM      9  C7  UNL d   1      -5.991  -0.789  -3.449  0.00  0.00     0.045 A 
ENDROOT
TORSDOF 0
ENDMDL
