MODEL 1
REMARK minimizedAffinity -5.33867884
REMARK minimizedRMSD -1
REMARK  0 active torsions:
REMARK  status: ('A' for Active; 'I' for Inactive)
ROOT
ATOM      1  C4' PXY d   1       1.248  -1.783  -1.117  0.00  0.00     0.077 C 
ATOM      2  C1' PXY d   1      -2.025   2.242   1.433  0.00  0.00     0.077 C 
ATOM      3  C1  PXY d   1      -1.163   1.182   0.776  0.00  0.00    -0.082 A 
ATOM      4  C2  PXY d   1      -0.703   1.380  -0.449  0.00  0.00     0.003 A 
ATOM      5  C3  PXY d   1       0.051   0.417  -1.070  0.00  0.00     0.003 A 
ATOM      6  C4  PXY d   1       0.382  -0.736  -0.411  0.00  0.00    -0.082 A 
ATOM      7  C5  PXY d   1      -0.075  -0.940   0.843  0.00  0.00     0.003 A 
ATOM      8  C6  PXY d   1      -0.873   0.031   1.440  0.00  0.00     0.003 A 
ENDROOT
TORSDOF 0
ENDMDL
