MODEL 1
REMARK minimizedAffinity -2.52654958
REMARK minimizedRMSD -1
REMARK  0 active torsions:
REMARK  status: ('A' for Active; 'I' for Inactive)
ROOT
ATOM      1  C4' PXY d   1       1.407  -2.085  -1.506  0.00  0.00     0.077 C 
ATOM      2  C1' PXY d   1      -1.200   1.570   2.135  0.00  0.00     0.077 C 
ATOM      3  C1  PXY d   1      -0.520   0.618   1.170  0.00  0.00    -0.082 A 
ATOM      4  C2  PXY d   1      -0.267  -0.625   1.547  0.00  0.00     0.003 A 
ATOM      5  C3  PXY d   1       0.375  -1.489   0.698  0.00  0.00     0.003 A 
ATOM      6  C4  PXY d   1       0.715  -1.093  -0.568  0.00  0.00    -0.082 A 
ATOM      7  C5  PXY d   1       0.450   0.171  -0.963  0.00  0.00     0.003 A 
ATOM      8  C6  PXY d   1      -0.166   1.045  -0.072  0.00  0.00     0.003 A 
ENDROOT
TORSDOF 0
ENDMDL
