MODEL 1
REMARK minimizedAffinity -4.3445425
REMARK minimizedRMSD -1
REMARK  0 active torsions:
REMARK  status: ('A' for Active; 'I' for Inactive)
ROOT
ATOM      1  C4' PXY d   1       1.194  -1.572  -0.895  0.00  0.00     0.077 C 
ATOM      2  C1' PXY d   1      -1.985   2.588   1.554  0.00  0.00     0.077 C 
ATOM      3  C1  PXY d   1      -1.145   1.494   0.924  0.00  0.00    -0.082 A 
ATOM      4  C2  PXY d   1      -0.917   1.515  -0.380  0.00  0.00     0.003 A 
ATOM      5  C3  PXY d   1      -0.187   0.516  -0.971  0.00  0.00     0.003 A 
ATOM      6  C4  PXY d   1       0.360  -0.484  -0.214  0.00  0.00    -0.082 A 
ATOM      7  C5  PXY d   1       0.141  -0.506   1.118  0.00  0.00     0.003 A 
ATOM      8  C6  PXY d   1      -0.638   0.494   1.694  0.00  0.00     0.003 A 
ENDROOT
TORSDOF 0
ENDMDL
