MODEL 1
REMARK minimizedAffinity -4.69607639
REMARK minimizedRMSD -1
REMARK  0 active torsions:
REMARK  status: ('A' for Active; 'I' for Inactive)
ROOT
ATOM      1  C4' PXY d   1      -0.704   3.756  -0.726  0.00  0.00     0.077 C 
ATOM      2  C1' PXY d   1      -0.305  -1.222   2.186  0.00  0.00     0.077 C 
ATOM      3  C1  PXY d   1      -0.421   0.086   1.428  0.00  0.00    -0.082 A 
ATOM      4  C2  PXY d   1       0.224   0.238   0.283  0.00  0.00     0.003 A 
ATOM      5  C3  PXY d   1       0.156   1.426  -0.399  0.00  0.00     0.003 A 
ATOM      6  C4  PXY d   1      -0.624   2.449   0.069  0.00  0.00    -0.082 A 
ATOM      7  C5  PXY d   1      -1.294   2.298   1.231  0.00  0.00     0.003 A 
ATOM      8  C6  PXY d   1      -1.178   1.100   1.929  0.00  0.00     0.003 A 
ENDROOT
TORSDOF 0
ENDMDL
