MODEL 1
REMARK minimizedAffinity -4.24068832
REMARK minimizedRMSD -1
REMARK  0 active torsions:
REMARK  status: ('A' for Active; 'I' for Inactive)
ROOT
ATOM      1  C4' PXY d   1       0.875  -0.821   0.363  0.00  0.00     0.077 C 
ATOM      2  C1' PXY d   1      -2.949   3.391   1.387  0.00  0.00     0.077 C 
ATOM      3  C1  PXY d   1      -1.952   2.279   1.127  0.00  0.00    -0.082 A 
ATOM      4  C2  PXY d   1      -0.770   2.568   0.606  0.00  0.00     0.003 A 
ATOM      5  C3  PXY d   1       0.131   1.571   0.335  0.00  0.00     0.003 A 
ATOM      6  C4  PXY d   1      -0.159   0.270   0.650  0.00  0.00    -0.082 A 
ATOM      7  C5  PXY d   1      -1.358  -0.031   1.192  0.00  0.00     0.003 A 
ATOM      8  C6  PXY d   1      -2.275   0.990   1.421  0.00  0.00     0.003 A 
ENDROOT
TORSDOF 0
ENDMDL
