MODEL 1
REMARK minimizedAffinity -4.24465656
REMARK minimizedRMSD -1
REMARK  0 active torsions:
REMARK  status: ('A' for Active; 'I' for Inactive)
ROOT
ATOM      1  C4' PXY d   1       0.369   3.456  -0.932  0.00  0.00     0.077 C 
ATOM      2  C1' PXY d   1      -1.075  -0.966   2.500  0.00  0.00     0.077 C 
ATOM      3  C1  PXY d   1      -0.707   0.200   1.604  0.00  0.00    -0.082 A 
ATOM      4  C2  PXY d   1       0.022  -0.012   0.520  0.00  0.00     0.003 A 
ATOM      5  C3  PXY d   1       0.391   1.036  -0.283  0.00  0.00     0.003 A 
ATOM      6  C4  PXY d   1      -0.035   2.307  -0.004  0.00  0.00    -0.082 A 
ATOM      7  C5  PXY d   1      -0.787   2.530   1.095  0.00  0.00     0.003 A 
ATOM      8  C6  PXY d   1      -1.116   1.459   1.920  0.00  0.00     0.003 A 
ENDROOT
TORSDOF 0
ENDMDL
