MODEL 1
REMARK minimizedAffinity -6.30477762
REMARK minimizedRMSD -1
REMARK  0 active torsions:
REMARK  status: ('A' for Active; 'I' for Inactive)
ROOT
ATOM      1  C4' PXY d   1       1.509  -0.752  -1.065  0.00  0.00     0.077 C 
ATOM      2  C1' PXY d   1      -2.323   2.805   1.401  0.00  0.00     0.077 C 
ATOM      3  C1  PXY d   1      -1.321   1.877   0.742  0.00  0.00    -0.082 A 
ATOM      4  C2  PXY d   1      -0.970   0.755   1.350  0.00  0.00     0.003 A 
ATOM      5  C3  PXY d   1      -0.042  -0.080   0.784  0.00  0.00     0.003 A 
ATOM      6  C4  PXY d   1       0.494   0.210  -0.442  0.00  0.00    -0.082 A 
ATOM      7  C5  PXY d   1       0.134   1.347  -1.074  0.00  0.00     0.003 A 
ATOM      8  C6  PXY d   1      -0.780   2.202  -0.463  0.00  0.00     0.003 A 
ENDROOT
TORSDOF 0
ENDMDL
