MODEL 1
REMARK minimizedAffinity -3.97091866
REMARK minimizedRMSD -1
REMARK  0 active torsions:
REMARK  status: ('A' for Active; 'I' for Inactive)
ROOT
ATOM      1  C4' PXY d   1      -0.394   4.036  -0.728  0.00  0.00     0.077 C 
ATOM      2  C1' PXY d   1      -1.363  -0.868   2.175  0.00  0.00     0.077 C 
ATOM      3  C1  PXY d   1      -1.099   0.412   1.409  0.00  0.00    -0.082 A 
ATOM      4  C2  PXY d   1      -1.565   1.560   1.872  0.00  0.00     0.003 A 
ATOM      5  C3  PXY d   1      -1.363   2.723   1.174  0.00  0.00     0.003 A 
ATOM      6  C4  PXY d   1      -0.629   2.719   0.018  0.00  0.00    -0.082 A 
ATOM      7  C5  PXY d   1      -0.140   1.553  -0.455  0.00  0.00     0.003 A 
ATOM      8  C6  PXY d   1      -0.392   0.378   0.246  0.00  0.00     0.003 A 
ENDROOT
TORSDOF 0
ENDMDL
