MODEL 1
REMARK minimizedAffinity -4.62200499
REMARK minimizedRMSD -1
REMARK  0 active torsions:
REMARK  status: ('A' for Active; 'I' for Inactive)
ROOT
ATOM      1  C4' PXY d   1       0.611  -1.200  -0.836  0.00  0.00     0.077 C 
ATOM      2  C1' PXY d   1      -2.365   3.103   1.622  0.00  0.00     0.077 C 
ATOM      3  C1  PXY d   1      -1.579   1.972   0.989  0.00  0.00    -0.082 A 
ATOM      4  C2  PXY d   1      -1.352   1.983  -0.315  0.00  0.00     0.003 A 
ATOM      5  C3  PXY d   1      -0.670   0.952  -0.909  0.00  0.00     0.003 A 
ATOM      6  C4  PXY d   1      -0.170  -0.074  -0.153  0.00  0.00    -0.082 A 
ATOM      7  C5  PXY d   1      -0.387  -0.087   1.180  0.00  0.00     0.003 A 
ATOM      8  C6  PXY d   1      -1.117   0.948   1.757  0.00  0.00     0.003 A 
ENDROOT
TORSDOF 0
ENDMDL
