MODEL 1
REMARK minimizedAffinity -4.55902052
REMARK minimizedRMSD -1
REMARK  0 active torsions:
REMARK  status: ('A' for Active; 'I' for Inactive)
ROOT
ATOM      1  C4' PXY d   1       1.159  -1.015  -0.752  0.00  0.00     0.077 C 
ATOM      2  C1' PXY d   1      -2.530   2.831   1.489  0.00  0.00     0.077 C 
ATOM      3  C1  PXY d   1      -1.560   1.817   0.913  0.00  0.00    -0.082 A 
ATOM      4  C2  PXY d   1      -0.971   2.061  -0.247  0.00  0.00     0.003 A 
ATOM      5  C3  PXY d   1      -0.116   1.141  -0.797  0.00  0.00     0.003 A 
ATOM      6  C4  PXY d   1       0.180  -0.016  -0.129  0.00  0.00    -0.082 A 
ATOM      7  C5  PXY d   1      -0.408  -0.267   1.060  0.00  0.00     0.003 A 
ATOM      8  C6  PXY d   1      -1.305   0.660   1.582  0.00  0.00     0.003 A 
ENDROOT
TORSDOF 0
ENDMDL
