MODEL 1
REMARK minimizedAffinity -5.11176777
REMARK minimizedRMSD -1
REMARK  0 active torsions:
REMARK  status: ('A' for Active; 'I' for Inactive)
ROOT
ATOM      1  C4' PXY d   1       1.135  -0.899  -1.111  0.00  0.00     0.077 C 
ATOM      2  C1' PXY d   1      -2.261   2.937   1.568  0.00  0.00     0.077 C 
ATOM      3  C1  PXY d   1      -1.367   1.926   0.877  0.00  0.00    -0.082 A 
ATOM      4  C2  PXY d   1      -0.917   2.176  -0.342  0.00  0.00     0.003 A 
ATOM      5  C3  PXY d   1      -0.134   1.259  -0.994  0.00  0.00     0.003 A 
ATOM      6  C4  PXY d   1       0.237   0.097  -0.371  0.00  0.00    -0.082 A 
ATOM      7  C5  PXY d   1      -0.209  -0.160   0.877  0.00  0.00     0.003 A 
ATOM      8  C6  PXY d   1      -1.037   0.765   1.505  0.00  0.00     0.003 A 
ENDROOT
TORSDOF 0
ENDMDL
