MODEL 1
REMARK minimizedAffinity -5.74182463
REMARK minimizedRMSD -1
REMARK  0 active torsions:
REMARK  status: ('A' for Active; 'I' for Inactive)
ROOT
ATOM      1  C4' PXY d   1      -0.369  -1.251   2.045  0.00  0.00     0.077 C 
ATOM      2  C1' PXY d   1      -1.122   3.824  -0.618  0.00  0.00     0.077 C 
ATOM      3  C1  PXY d   1      -0.926   2.499   0.092  0.00  0.00    -0.082 A 
ATOM      4  C2  PXY d   1      -0.249   1.531  -0.505  0.00  0.00     0.003 A 
ATOM      5  C3  PXY d   1      -0.090   0.316   0.110  0.00  0.00     0.003 A 
ATOM      6  C4  PXY d   1      -0.583   0.106   1.370  0.00  0.00    -0.082 A 
ATOM      7  C5  PXY d   1      -1.265   1.093   1.990  0.00  0.00     0.003 A 
ATOM      8  C6  PXY d   1      -1.451   2.305   1.332  0.00  0.00     0.003 A 
ENDROOT
TORSDOF 0
ENDMDL
