MODEL 1
REMARK minimizedAffinity -4.33992672
REMARK minimizedRMSD -1
REMARK  0 active torsions:
REMARK  status: ('A' for Active; 'I' for Inactive)
ROOT
ATOM      1  C4' PXY d   1       1.568  -1.473  -1.056  0.00  0.00     0.077 C 
ATOM      2  C1' PXY d   1      -1.902   2.214   1.733  0.00  0.00     0.077 C 
ATOM      3  C1  PXY d   1      -0.985   1.245   1.013  0.00  0.00    -0.082 A 
ATOM      4  C2  PXY d   1      -0.834   1.340  -0.298  0.00  0.00     0.003 A 
ATOM      5  C3  PXY d   1      -0.034   0.451  -0.970  0.00  0.00     0.003 A 
ATOM      6  C4  PXY d   1       0.660  -0.510  -0.286  0.00  0.00    -0.082 A 
ATOM      7  C5  PXY d   1       0.520  -0.606   1.054  0.00  0.00     0.003 A 
ATOM      8  C6  PXY d   1      -0.329   0.279   1.711  0.00  0.00     0.003 A 
ENDROOT
TORSDOF 0
ENDMDL
