MODEL 1
REMARK minimizedAffinity -4.40890169
REMARK minimizedRMSD -1
REMARK  0 active torsions:
REMARK  status: ('A' for Active; 'I' for Inactive)
ROOT
ATOM      1  C4' PXY d   1      -1.528  -0.888   2.586  0.00  0.00     0.077 C 
ATOM      2  C1' PXY d   1      -0.564   3.632  -0.886  0.00  0.00     0.077 C 
ATOM      3  C1  PXY d   1      -0.812   2.438   0.015  0.00  0.00    -0.082 A 
ATOM      4  C2  PXY d   1      -1.727   2.517   0.968  0.00  0.00     0.003 A 
ATOM      5  C3  PXY d   1      -1.942   1.458   1.813  0.00  0.00     0.003 A 
ATOM      6  C4  PXY d   1      -1.251   0.288   1.646  0.00  0.00    -0.082 A 
ATOM      7  C5  PXY d   1      -0.323   0.196   0.670  0.00  0.00     0.003 A 
ATOM      8  C6  PXY d   1      -0.091   1.297  -0.150  0.00  0.00     0.003 A 
ENDROOT
TORSDOF 0
ENDMDL
