MODEL 1
REMARK minimizedAffinity -5.33661699
REMARK minimizedRMSD -1
REMARK  0 active torsions:
REMARK  status: ('A' for Active; 'I' for Inactive)
ROOT
ATOM      1  C4' PXY d   1      -0.714  -0.928   2.278  0.00  0.00     0.077 C 
ATOM      2  C1' PXY d   1      -0.950   3.906  -0.883  0.00  0.00     0.077 C 
ATOM      3  C1  PXY d   1      -0.887   2.631  -0.065  0.00  0.00    -0.082 A 
ATOM      4  C2  PXY d   1      -1.430   2.600   1.141  0.00  0.00     0.003 A 
ATOM      5  C3  PXY d   1      -1.354   1.466   1.907  0.00  0.00     0.003 A 
ATOM      6  C4  PXY d   1      -0.762   0.334   1.413  0.00  0.00    -0.082 A 
ATOM      7  C5  PXY d   1      -0.215   0.354   0.179  0.00  0.00     0.003 A 
ATOM      8  C6  PXY d   1      -0.267   1.529  -0.567  0.00  0.00     0.003 A 
ENDROOT
TORSDOF 0
ENDMDL
