MODEL 1
REMARK minimizedAffinity -5.19590521
REMARK minimizedRMSD -1
REMARK  0 active torsions:
REMARK  status: ('A' for Active; 'I' for Inactive)
ROOT
ATOM      1  C4' PXY d   1      -0.345  -0.895   2.604  0.00  0.00     0.077 C 
ATOM      2  C1' PXY d   1      -0.168   3.812  -0.748  0.00  0.00     0.077 C 
ATOM      3  C1  PXY d   1      -0.216   2.570   0.121  0.00  0.00    -0.082 A 
ATOM      4  C2  PXY d   1      -0.557   2.676   1.395  0.00  0.00     0.003 A 
ATOM      5  C3  PXY d   1      -0.575   1.568   2.202  0.00  0.00     0.003 A 
ATOM      6  C4  PXY d   1      -0.292   0.331   1.688  0.00  0.00    -0.082 A 
ATOM      7  C5  PXY d   1       0.046   0.213   0.386  0.00  0.00     0.003 A 
ATOM      8  C6  PXY d   1       0.098   1.356  -0.407  0.00  0.00     0.003 A 
ENDROOT
TORSDOF 0
ENDMDL
