MODEL 1
REMARK minimizedAffinity -4.94679928
REMARK minimizedRMSD -1
REMARK  0 active torsions:
REMARK  status: ('A' for Active; 'I' for Inactive)
ROOT
ATOM      1  C4' PXY d   1       1.231  -1.610  -0.921  0.00  0.00     0.077 C 
ATOM      2  C1' PXY d   1      -2.377   2.119   1.627  0.00  0.00     0.077 C 
ATOM      3  C1  PXY d   1      -1.426   1.138   0.970  0.00  0.00    -0.082 A 
ATOM      4  C2  PXY d   1      -1.048   1.332  -0.283  0.00  0.00     0.003 A 
ATOM      5  C3  PXY d   1      -0.214   0.437  -0.902  0.00  0.00     0.003 A 
ATOM      6  C4  PXY d   1       0.280  -0.639  -0.215  0.00  0.00    -0.082 A 
ATOM      7  C5  PXY d   1      -0.093  -0.839   1.067  0.00  0.00     0.003 A 
ATOM      8  C6  PXY d   1      -0.973   0.059   1.664  0.00  0.00     0.003 A 
ENDROOT
TORSDOF 0
ENDMDL
