MODEL 1
REMARK minimizedAffinity -4.99578714
REMARK minimizedRMSD -1
REMARK  0 active torsions:
REMARK  status: ('A' for Active; 'I' for Inactive)
ROOT
ATOM      1  C4' PXY d   1       0.089   4.297  -2.072  0.00  0.00     0.077 C 
ATOM      2  C1' PXY d   1      -1.956   0.542   1.818  0.00  0.00     0.077 C 
ATOM      3  C1  PXY d   1      -1.411   1.518   0.794  0.00  0.00    -0.082 A 
ATOM      4  C2  PXY d   1      -1.573   2.818   0.978  0.00  0.00     0.003 A 
ATOM      5  C3  PXY d   1      -1.115   3.713   0.046  0.00  0.00     0.003 A 
ATOM      6  C4  PXY d   1      -0.437   3.275  -1.060  0.00  0.00    -0.082 A 
ATOM      7  C5  PXY d   1      -0.258   1.951  -1.250  0.00  0.00     0.003 A 
ATOM      8  C6  PXY d   1      -0.767   1.057  -0.313  0.00  0.00     0.003 A 
ENDROOT
TORSDOF 0
ENDMDL
