MODEL 1
REMARK minimizedAffinity -4.08283186
REMARK minimizedRMSD -1
REMARK  0 active torsions:
REMARK  status: ('A' for Active; 'I' for Inactive)
ROOT
ATOM      1  C4' PXY d   1      -0.764   3.598  -0.755  0.00  0.00     0.077 C 
ATOM      2  C1' PXY d   1      -1.346  -1.296   2.266  0.00  0.00     0.077 C 
ATOM      3  C1  PXY d   1      -1.205  -0.008   1.478  0.00  0.00    -0.082 A 
ATOM      4  C2  PXY d   1      -0.471   0.008   0.377  0.00  0.00     0.003 A 
ATOM      5  C3  PXY d   1      -0.307   1.172  -0.329  0.00  0.00     0.003 A 
ATOM      6  C4  PXY d   1      -0.942   2.318   0.066  0.00  0.00    -0.082 A 
ATOM      7  C5  PXY d   1      -1.701   2.307   1.183  0.00  0.00     0.003 A 
ATOM      8  C6  PXY d   1      -1.822   1.126   1.909  0.00  0.00     0.003 A 
ENDROOT
TORSDOF 0
ENDMDL
