MODEL 1
REMARK minimizedAffinity -4.33321238
REMARK minimizedRMSD -1
REMARK  0 active torsions:
REMARK  status: ('A' for Active; 'I' for Inactive)
ROOT
ATOM      1  C4' PXY d   1       1.110  -1.532  -0.507  0.00  0.00     0.077 C 
ATOM      2  C1' PXY d   1      -1.593   3.214   1.386  0.00  0.00     0.077 C 
ATOM      3  C1  PXY d   1      -0.884   1.965   0.902  0.00  0.00    -0.082 A 
ATOM      4  C2  PXY d   1      -0.200   1.998  -0.230  0.00  0.00     0.003 A 
ATOM      5  C3  PXY d   1       0.421   0.869  -0.699  0.00  0.00     0.003 A 
ATOM      6  C4  PXY d   1       0.386  -0.292   0.025  0.00  0.00    -0.082 A 
ATOM      7  C5  PXY d   1      -0.301  -0.331   1.187  0.00  0.00     0.003 A 
ATOM      8  C6  PXY d   1      -0.958   0.815   1.625  0.00  0.00     0.003 A 
ENDROOT
TORSDOF 0
ENDMDL
