MODEL 1
REMARK minimizedAffinity 12.6724606
REMARK minimizedRMSD -1
REMARK  0 active torsions:
REMARK  status: ('A' for Active; 'I' for Inactive)
ROOT
ATOM      1  C   UNL d   1      -0.427   1.069   1.935  0.00  0.00     0.020 A 
ATOM      2  C1  UNL d   1      -1.185   1.164   0.768  0.00  0.00     0.020 A 
ATOM      3  C2  UNL d   1      -2.433   0.541   0.694  0.00  0.00     0.034 A 
ATOM      4  C3  UNL d   1      -2.926  -0.179   1.787  0.00  0.00     0.017 A 
ATOM      5  C4  UNL d   1      -2.165  -0.274   2.958  0.00  0.00     0.017 A 
ATOM      6  C5  UNL d   1      -0.916   0.351   3.027  0.00  0.00     0.034 A 
ATOM      7 Cl   UNL d   1      -2.707  -1.146   4.348  0.00  0.00    -0.070 Cl
ATOM      8 Cl1  UNL d   1      -4.477  -0.924   1.625  0.00  0.00    -0.070 Cl
ENDROOT
TORSDOF 0
ENDMDL
