MODEL 1
REMARK minimizedAffinity 6.84363699
REMARK minimizedRMSD -1
REMARK  0 active torsions:
REMARK  status: ('A' for Active; 'I' for Inactive)
ROOT
ATOM      1  C   UNL d   1      -5.460  -2.444  -0.807  0.00  0.00     0.020 A 
ATOM      2  C1  UNL d   1      -5.458  -3.758  -1.272  0.00  0.00     0.020 A 
ATOM      3  C2  UNL d   1      -5.625  -4.017  -2.635  0.00  0.00     0.034 A 
ATOM      4  C3  UNL d   1      -5.795  -2.960  -3.536  0.00  0.00     0.017 A 
ATOM      5  C4  UNL d   1      -5.796  -1.641  -3.068  0.00  0.00     0.017 A 
ATOM      6  C5  UNL d   1      -5.628  -1.387  -1.703  0.00  0.00     0.034 A 
ATOM      7 Cl   UNL d   1      -6.000  -0.284  -4.119  0.00  0.00    -0.070 Cl
ATOM      8 Cl1  UNL d   1      -5.996  -3.353  -5.207  0.00  0.00    -0.070 Cl
ENDROOT
TORSDOF 0
ENDMDL
