MODEL 1
REMARK minimizedAffinity 9.86425781
REMARK minimizedRMSD -1
REMARK  0 active torsions:
REMARK  status: ('A' for Active; 'I' for Inactive)
ROOT
ATOM      1  C   UNL d   1      -1.714   0.054   1.727  0.00  0.00     0.020 A 
ATOM      2  C1  UNL d   1      -1.456   1.417   1.872  0.00  0.00     0.020 A 
ATOM      3  C2  UNL d   1      -2.512   2.331   1.880  0.00  0.00     0.034 A 
ATOM      4  C3  UNL d   1      -3.831   1.883   1.741  0.00  0.00     0.017 A 
ATOM      5  C4  UNL d   1      -4.089   0.515   1.596  0.00  0.00     0.017 A 
ATOM      6  C5  UNL d   1      -3.028  -0.395   1.590  0.00  0.00     0.034 A 
ATOM      7 Cl   UNL d   1      -5.690  -0.112   1.421  0.00  0.00    -0.070 Cl
ATOM      8 Cl1  UNL d   1      -5.088   3.069   1.759  0.00  0.00    -0.070 Cl
ENDROOT
TORSDOF 0
ENDMDL
