MODEL 1
REMARK minimizedAffinity 13.8995752
REMARK minimizedRMSD -1
REMARK  0 active torsions:
REMARK  status: ('A' for Active; 'I' for Inactive)
ROOT
ATOM      1  C   UNL d   1       1.411   1.079  -1.477  0.00  0.00     0.020 A 
ATOM      2  C1  UNL d   1       2.751   1.413  -1.664  0.00  0.00     0.020 A 
ATOM      3  C2  UNL d   1       3.434   0.955  -2.793  0.00  0.00     0.034 A 
ATOM      4  C3  UNL d   1       2.777   0.160  -3.739  0.00  0.00     0.017 A 
ATOM      5  C4  UNL d   1       1.431  -0.175  -3.550  0.00  0.00     0.017 A 
ATOM      6  C5  UNL d   1       0.752   0.287  -2.418  0.00  0.00     0.034 A 
ATOM      7 Cl   UNL d   1       0.553  -1.151  -4.674  0.00  0.00    -0.070 Cl
ATOM      8 Cl1  UNL d   1       3.683  -0.371  -5.111  0.00  0.00    -0.070 Cl
ENDROOT
TORSDOF 0
ENDMDL
