MODEL 1
REMARK minimizedAffinity 2.45347142
REMARK minimizedRMSD -1
REMARK  0 active torsions:
REMARK  status: ('A' for Active; 'I' for Inactive)
ROOT
ATOM      1  C   UNL d   1      -4.671   3.332   1.731  0.00  0.00     0.020 A 
ATOM      2  C1  UNL d   1      -3.340   3.524   2.101  0.00  0.00     0.020 A 
ATOM      3  C2  UNL d   1      -2.496   2.424   2.267  0.00  0.00     0.034 A 
ATOM      4  C3  UNL d   1      -2.981   1.127   2.062  0.00  0.00     0.017 A 
ATOM      5  C4  UNL d   1      -4.317   0.936   1.691  0.00  0.00     0.017 A 
ATOM      6  C5  UNL d   1      -5.158   2.041   1.527  0.00  0.00     0.034 A 
ATOM      7 Cl   UNL d   1      -4.988  -0.634   1.421  0.00  0.00    -0.070 Cl
ATOM      8 Cl1  UNL d   1      -1.882  -0.187   2.284  0.00  0.00    -0.070 Cl
ENDROOT
TORSDOF 0
ENDMDL
