MODEL 1
REMARK minimizedAffinity 7.48059368
REMARK minimizedRMSD -1
REMARK  0 active torsions:
REMARK  status: ('A' for Active; 'I' for Inactive)
ROOT
ATOM      1  C   UNL d   1      -4.975  -3.679  -6.000  0.00  0.00     0.020 A 
ATOM      2  C1  UNL d   1      -5.698  -4.454  -5.094  0.00  0.00     0.020 A 
ATOM      3  C2  UNL d   1      -6.000  -3.949  -3.827  0.00  0.00     0.034 A 
ATOM      4  C3  UNL d   1      -5.579  -2.665  -3.463  0.00  0.00     0.017 A 
ATOM      5  C4  UNL d   1      -4.853  -1.887  -4.373  0.00  0.00     0.017 A 
ATOM      6  C5  UNL d   1      -4.554  -2.398  -5.640  0.00  0.00     0.034 A 
ATOM      7 Cl   UNL d   1      -4.300  -0.294  -3.996  0.00  0.00    -0.070 Cl
ATOM      8 Cl1  UNL d   1      -5.988  -2.104  -1.881  0.00  0.00    -0.070 Cl
ENDROOT
TORSDOF 0
ENDMDL
