MODEL 1
REMARK minimizedAffinity 15.7914715
REMARK minimizedRMSD -1
REMARK  0 active torsions:
REMARK  status: ('A' for Active; 'I' for Inactive)
ROOT
ATOM      1  C   UNL d   1      -4.397  -4.262  -5.997  0.00  0.00     0.020 A 
ATOM      2  C1  UNL d   1      -5.406  -4.765  -5.176  0.00  0.00     0.020 A 
ATOM      3  C2  UNL d   1      -5.884  -4.001  -4.110  0.00  0.00     0.034 A 
ATOM      4  C3  UNL d   1      -5.354  -2.729  -3.861  0.00  0.00     0.017 A 
ATOM      5  C4  UNL d   1      -4.341  -2.225  -4.685  0.00  0.00     0.017 A 
ATOM      6  C5  UNL d   1      -3.866  -2.995  -5.752  0.00  0.00     0.034 A 
ATOM      7 Cl   UNL d   1      -3.637  -0.666  -4.440  0.00  0.00    -0.070 Cl
ATOM      8 Cl1  UNL d   1      -5.993  -1.840  -2.525  0.00  0.00    -0.070 Cl
ENDROOT
TORSDOF 0
ENDMDL
