MODEL 1
REMARK minimizedAffinity 12.796855
REMARK minimizedRMSD -1
REMARK  0 active torsions:
REMARK  status: ('A' for Active; 'I' for Inactive)
ROOT
ATOM      1  C   UNL d   1      -5.626  -3.864  -1.637  0.00  0.00     0.020 A 
ATOM      2  C1  UNL d   1      -5.626  -2.551  -1.167  0.00  0.00     0.020 A 
ATOM      3  C2  UNL d   1      -5.742  -1.488  -2.065  0.00  0.00     0.034 A 
ATOM      4  C3  UNL d   1      -5.859  -1.736  -3.438  0.00  0.00     0.017 A 
ATOM      5  C4  UNL d   1      -5.859  -3.054  -3.908  0.00  0.00     0.017 A 
ATOM      6  C5  UNL d   1      -5.742  -4.114  -3.004  0.00  0.00     0.034 A 
ATOM      7 Cl   UNL d   1      -6.000  -3.438  -5.587  0.00  0.00    -0.070 Cl
ATOM      8 Cl1  UNL d   1      -6.000  -0.373  -4.491  0.00  0.00    -0.070 Cl
ENDROOT
TORSDOF 0
ENDMDL
