MODEL 1
REMARK minimizedAffinity 21.807579
REMARK minimizedRMSD -1
REMARK  0 active torsions:
REMARK  status: ('A' for Active; 'I' for Inactive)
ROOT
ATOM      1  C   UNL d   1      -2.968  -0.412   0.068  0.00  0.00     0.020 A 
ATOM      2  C1  UNL d   1      -1.939   0.409  -0.392  0.00  0.00     0.020 A 
ATOM      3  C2  UNL d   1      -0.968   0.876   0.496  0.00  0.00     0.034 A 
ATOM      4  C3  UNL d   1      -1.024   0.523   1.849  0.00  0.00     0.017 A 
ATOM      5  C4  UNL d   1      -2.057  -0.301   2.311  0.00  0.00     0.017 A 
ATOM      6  C5  UNL d   1      -3.027  -0.766   1.417  0.00  0.00     0.034 A 
ATOM      7 Cl   UNL d   1      -2.192  -0.780   3.966  0.00  0.00    -0.070 Cl
ATOM      8 Cl1  UNL d   1       0.210   1.137   2.892  0.00  0.00    -0.070 Cl
ENDROOT
TORSDOF 0
ENDMDL
