MODEL 1
REMARK minimizedAffinity 6.75301266
REMARK minimizedRMSD -1
REMARK  0 active torsions:
REMARK  status: ('A' for Active; 'I' for Inactive)
ROOT
ATOM      1  C   UNL d   1      -2.462  -0.700  -1.525  0.00  0.00     0.020 A 
ATOM      2  C1  UNL d   1      -3.009  -1.831  -0.919  0.00  0.00     0.020 A 
ATOM      3  C2  UNL d   1      -2.980  -1.961   0.471  0.00  0.00     0.034 A 
ATOM      4  C3  UNL d   1      -2.403  -0.960   1.260  0.00  0.00     0.017 A 
ATOM      5  C4  UNL d   1      -1.853   0.174   0.651  0.00  0.00     0.017 A 
ATOM      6  C5  UNL d   1      -1.885   0.300  -0.741  0.00  0.00     0.034 A 
ATOM      7 Cl   UNL d   1      -1.124   1.451   1.559  0.00  0.00    -0.070 Cl
ATOM      8 Cl1  UNL d   1      -2.402  -1.188   2.973  0.00  0.00    -0.070 Cl
ENDROOT
TORSDOF 0
ENDMDL
