MODEL 1
REMARK minimizedAffinity 5.20199299
REMARK minimizedRMSD -1
REMARK  0 active torsions:
REMARK  status: ('A' for Active; 'I' for Inactive)
ROOT
ATOM      1  C   UNL d   1      -5.772  -3.006  -4.948  0.00  0.00     0.020 A 
ATOM      2  C1  UNL d   1      -5.991  -1.629  -4.946  0.00  0.00     0.020 A 
ATOM      3  C2  UNL d   1      -4.952  -0.756  -5.272  0.00  0.00     0.034 A 
ATOM      4  C3  UNL d   1      -3.687  -1.259  -5.602  0.00  0.00     0.017 A 
ATOM      5  C4  UNL d   1      -3.468  -2.641  -5.603  0.00  0.00     0.017 A 
ATOM      6  C5  UNL d   1      -4.513  -3.511  -5.276  0.00  0.00     0.034 A 
ATOM      7 Cl   UNL d   1      -1.936  -3.336  -5.999  0.00  0.00    -0.070 Cl
ATOM      8 Cl1  UNL d   1      -2.448  -0.121  -5.995  0.00  0.00    -0.070 Cl
ENDROOT
TORSDOF 0
ENDMDL
