MODEL 1
REMARK minimizedAffinity 7.20417738
REMARK minimizedRMSD -1
REMARK  0 active torsions:
REMARK  status: ('A' for Active; 'I' for Inactive)
ROOT
ATOM      1  C   UNL d   1      -1.177   0.293   1.787  0.00  0.00     0.020 A 
ATOM      2  C1  UNL d   1      -2.126   1.071   1.126  0.00  0.00     0.020 A 
ATOM      3  C2  UNL d   1      -3.438   1.124   1.600  0.00  0.00     0.034 A 
ATOM      4  C3  UNL d   1      -3.805   0.398   2.739  0.00  0.00     0.017 A 
ATOM      5  C4  UNL d   1      -2.851  -0.383   3.402  0.00  0.00     0.017 A 
ATOM      6  C5  UNL d   1      -1.538  -0.432   2.923  0.00  0.00     0.034 A 
ATOM      7 Cl   UNL d   1      -3.228  -1.306   4.814  0.00  0.00    -0.070 Cl
ATOM      8 Cl1  UNL d   1      -5.445   0.510   3.271  0.00  0.00    -0.070 Cl
ENDROOT
TORSDOF 0
ENDMDL
