MODEL 1
REMARK minimizedAffinity 2.4873991
REMARK minimizedRMSD -1
REMARK  0 active torsions:
REMARK  status: ('A' for Active; 'I' for Inactive)
ROOT
ATOM      1  C   UNL d   1      -1.253   1.291   1.349  0.00  0.00     0.020 A 
ATOM      2  C1  UNL d   1      -2.182   1.866   2.215  0.00  0.00     0.020 A 
ATOM      3  C2  UNL d   1      -3.481   1.358   2.282  0.00  0.00     0.034 A 
ATOM      4  C3  UNL d   1      -3.854   0.272   1.483  0.00  0.00     0.017 A 
ATOM      5  C4  UNL d   1      -2.921  -0.305   0.614  0.00  0.00     0.017 A 
ATOM      6  C5  UNL d   1      -1.621   0.208   0.550  0.00  0.00     0.034 A 
ATOM      7 Cl   UNL d   1      -3.307  -1.648  -0.404  0.00  0.00    -0.070 Cl
ATOM      8 Cl1  UNL d   1      -5.477  -0.305   1.618  0.00  0.00    -0.070 Cl
ENDROOT
TORSDOF 0
ENDMDL
