MODEL 1
REMARK minimizedAffinity 15.6552629
REMARK minimizedRMSD -1
REMARK  0 active torsions:
REMARK  status: ('A' for Active; 'I' for Inactive)
ROOT
ATOM      1  C   UNL d   1       5.559   3.951  -5.111  0.00  0.00     0.020 A 
ATOM      2  C1  UNL d   1       4.521   3.663  -5.996  0.00  0.00     0.020 A 
ATOM      3  C2  UNL d   1       3.921   2.402  -5.982  0.00  0.00     0.034 A 
ATOM      4  C3  UNL d   1       4.358   1.424  -5.081  0.00  0.00     0.017 A 
ATOM      5  C4  UNL d   1       5.400   1.714  -4.193  0.00  0.00     0.017 A 
ATOM      6  C5  UNL d   1       5.998   2.978  -4.212  0.00  0.00     0.034 A 
ATOM      7 Cl   UNL d   1       5.995   0.559  -3.053  0.00  0.00    -0.070 Cl
ATOM      8 Cl1  UNL d   1       3.570  -0.113  -5.119  0.00  0.00    -0.070 Cl
ENDROOT
TORSDOF 0
ENDMDL
