MODEL 1
REMARK minimizedAffinity 4.1887331
REMARK minimizedRMSD -1
REMARK  0 active torsions:
REMARK  status: ('A' for Active; 'I' for Inactive)
ROOT
ATOM      1  C   UNL d   1       5.959   0.297   1.394  0.00  0.00     0.020 A 
ATOM      2  C1  UNL d   1       5.397  -0.361   2.487  0.00  0.00     0.020 A 
ATOM      3  C2  UNL d   1       4.055  -0.153   2.813  0.00  0.00     0.034 A 
ATOM      4  C3  UNL d   1       3.271   0.716   2.045  0.00  0.00     0.017 A 
ATOM      5  C4  UNL d   1       3.837   1.376   0.948  0.00  0.00     0.017 A 
ATOM      6  C5  UNL d   1       5.181   1.163   0.626  0.00  0.00     0.034 A 
ATOM      7 Cl   UNL d   1       2.933   2.462  -0.047  0.00  0.00    -0.070 Cl
ATOM      8 Cl1  UNL d   1       1.619   0.926   2.505  0.00  0.00    -0.070 Cl
ENDROOT
TORSDOF 0
ENDMDL
