MODEL 1
REMARK minimizedAffinity 7.60028315
REMARK minimizedRMSD -1
REMARK  0 active torsions:
REMARK  status: ('A' for Active; 'I' for Inactive)
ROOT
ATOM      1  C   UNL d   1      -1.867   1.665  -2.968  0.00  0.00     0.020 A 
ATOM      2  C1  UNL d   1      -1.738   0.582  -3.837  0.00  0.00     0.020 A 
ATOM      3  C2  UNL d   1      -0.516  -0.085  -3.944  0.00  0.00     0.034 A 
ATOM      4  C3  UNL d   1       0.582   0.331  -3.182  0.00  0.00     0.017 A 
ATOM      5  C4  UNL d   1       0.451   1.418  -2.310  0.00  0.00     0.017 A 
ATOM      6  C5  UNL d   1      -0.775   2.082  -2.207  0.00  0.00     0.034 A 
ATOM      7 Cl   UNL d   1       1.761   1.989  -1.337  0.00  0.00    -0.070 Cl
ATOM      8 Cl1  UNL d   1       2.063  -0.540  -3.364  0.00  0.00    -0.070 Cl
ENDROOT
TORSDOF 0
ENDMDL
