MODEL 1
REMARK minimizedAffinity 8.95342827
REMARK minimizedRMSD -1
REMARK  0 active torsions:
REMARK  status: ('A' for Active; 'I' for Inactive)
ROOT
ATOM      1  C   UNL d   1      -2.361   0.538   0.769  0.00  0.00     0.020 A 
ATOM      2  C1  UNL d   1      -1.754   1.232   1.815  0.00  0.00     0.020 A 
ATOM      3  C2  UNL d   1      -2.457   1.463   3.000  0.00  0.00     0.034 A 
ATOM      4  C3  UNL d   1      -3.771   1.001   3.140  0.00  0.00     0.017 A 
ATOM      5  C4  UNL d   1      -4.379   0.305   2.089  0.00  0.00     0.017 A 
ATOM      6  C5  UNL d   1      -3.670   0.076   0.906  0.00  0.00     0.034 A 
ATOM      7 Cl   UNL d   1      -5.996  -0.297   2.189  0.00  0.00    -0.070 Cl
ATOM      8 Cl1  UNL d   1      -4.580   1.322   4.633  0.00  0.00    -0.070 Cl
ENDROOT
TORSDOF 0
ENDMDL
