MODEL 1
REMARK minimizedAffinity 5.88703585
REMARK minimizedRMSD -1
REMARK  0 active torsions:
REMARK  status: ('A' for Active; 'I' for Inactive)
ROOT
ATOM      1  C   UNL d   1       2.251  -2.502  -4.813  0.00  0.00     0.020 A 
ATOM      2  C1  UNL d   1       1.594  -1.866  -5.866  0.00  0.00     0.020 A 
ATOM      3  C2  UNL d   1       1.671  -0.478  -5.999  0.00  0.00     0.034 A 
ATOM      4  C3  UNL d   1       2.405   0.278  -5.078  0.00  0.00     0.017 A 
ATOM      5  C4  UNL d   1       3.064  -0.361  -4.022  0.00  0.00     0.017 A 
ATOM      6  C5  UNL d   1       2.984  -1.751  -3.893  0.00  0.00     0.034 A 
ATOM      7 Cl   UNL d   1       3.989   0.505  -2.847  0.00  0.00    -0.070 Cl
ATOM      8 Cl1  UNL d   1       2.457   1.991  -5.304  0.00  0.00    -0.070 Cl
ENDROOT
TORSDOF 0
ENDMDL
