MODEL 1
REMARK minimizedAffinity -3.98520947
REMARK minimizedRMSD -1
REMARK  1 active torsions:
REMARK  status: ('A' for Active; 'I' for Inactive)
REMARK    1  A    between atoms: C3_4  and  O_7 
ROOT
ATOM      1  C   UNL d   1      -0.515  -0.294   0.356  0.00  0.00    -0.033 A 
ATOM      2  C1  UNL d   1      -1.456  -0.243   1.386  0.00  0.00     0.039 A 
ATOM      3  C2  UNL d   1      -1.749   0.973   2.006  0.00  0.00    -0.080 A 
ATOM      4  C3  UNL d   1      -1.097   2.129   1.587  0.00  0.00     0.150 A 
ATOM      5  C4  UNL d   1      -0.161   2.086   0.558  0.00  0.00    -0.007 A 
ATOM      6  C5  UNL d   1       0.131   0.870  -0.059  0.00  0.00     0.039 A 
ENDROOT
BRANCH   4   7
ATOM      7  O   UNL d   1      -1.347   3.338   2.165  0.00  0.00    -0.526 OA
ATOM      8  H5  UNL d   1      -1.994   3.209   2.879  0.00  0.00     0.418 HD
ENDBRANCH   4   7
TORSDOF 1
ENDMDL
