MODEL 1
REMARK minimizedAffinity -4.3723731
REMARK minimizedRMSD -1
REMARK  1 active torsions:
REMARK  status: ('A' for Active; 'I' for Inactive)
REMARK    1  A    between atoms: C3_4  and  O_7 
ROOT
ATOM      1  C   UNL d   1      -1.023   2.425   2.114  0.00  0.00    -0.033 A 
ATOM      2  C1  UNL d   1      -1.755   1.308   2.521  0.00  0.00     0.039 A 
ATOM      3  C2  UNL d   1      -1.767   0.155   1.733  0.00  0.00    -0.080 A 
ATOM      4  C3  UNL d   1      -1.043   0.132   0.544  0.00  0.00     0.150 A 
ATOM      5  C4  UNL d   1      -0.308   1.240   0.136  0.00  0.00    -0.007 A 
ATOM      6  C5  UNL d   1      -0.298   2.391   0.923  0.00  0.00     0.039 A 
ENDROOT
BRANCH   4   7
ATOM      7  O   UNL d   1      -1.028  -0.969  -0.260  0.00  0.00    -0.526 OA
ATOM      8  H5  UNL d   1      -1.602  -1.646   0.135  0.00  0.00     0.418 HD
ENDBRANCH   4   7
TORSDOF 1
ENDMDL
