MODEL 1
REMARK minimizedAffinity -2.29878974
REMARK minimizedRMSD -1
REMARK  1 active torsions:
REMARK  status: ('A' for Active; 'I' for Inactive)
REMARK    1  A    between atoms: C3_4  and  O_7 
ROOT
ATOM      1  C   UNL d   1       0.053   2.220   0.428  0.00  0.00    -0.033 A 
ATOM      2  C1  UNL d   1      -0.238   0.929  -0.019  0.00  0.00     0.039 A 
ATOM      3  C2  UNL d   1      -1.116   0.120   0.704  0.00  0.00    -0.080 A 
ATOM      4  C3  UNL d   1      -1.697   0.613   1.870  0.00  0.00     0.150 A 
ATOM      5  C4  UNL d   1      -1.415   1.899   2.318  0.00  0.00    -0.007 A 
ATOM      6  C5  UNL d   1      -0.536   2.705   1.595  0.00  0.00     0.039 A 
ENDROOT
BRANCH   4   7
ATOM      7  O   UNL d   1      -2.557  -0.142   2.611  0.00  0.00    -0.526 OA
ATOM      8  H5  UNL d   1      -2.635  -1.017   2.196  0.00  0.00     0.418 HD
ENDBRANCH   4   7
TORSDOF 1
ENDMDL
