MODEL 1
REMARK minimizedAffinity -3.94089961
REMARK minimizedRMSD -1
REMARK  1 active torsions:
REMARK  status: ('A' for Active; 'I' for Inactive)
REMARK    1  A    between atoms: C3_4  and  O_7 
ROOT
ATOM      1  C   UNL d   1       2.480  -0.139  -2.749  0.00  0.00    -0.033 A 
ATOM      2  C1  UNL d   1       2.141  -0.961  -1.673  0.00  0.00     0.039 A 
ATOM      3  C2  UNL d   1       1.229  -0.518  -0.713  0.00  0.00    -0.080 A 
ATOM      4  C3  UNL d   1       0.664   0.748  -0.841  0.00  0.00     0.150 A 
ATOM      5  C4  UNL d   1       0.994   1.571  -1.913  0.00  0.00    -0.007 A 
ATOM      6  C5  UNL d   1       1.906   1.127  -2.870  0.00  0.00     0.039 A 
ENDROOT
BRANCH   4   7
ATOM      7  O   UNL d   1      -0.227   1.226   0.073  0.00  0.00    -0.526 OA
ATOM      8  H5  UNL d   1      -0.338   0.561   0.772  0.00  0.00     0.418 HD
ENDBRANCH   4   7
TORSDOF 1
ENDMDL
