MODEL 1
REMARK minimizedAffinity -1.45599163
REMARK minimizedRMSD -1
REMARK  1 active torsions:
REMARK  status: ('A' for Active; 'I' for Inactive)
REMARK    1  A    between atoms: C3_4  and  O_7 
ROOT
ATOM      1  C   UNL d   1       0.988  -2.111  -0.279  0.00  0.00    -0.033 A 
ATOM      2  C1  UNL d   1      -0.069  -1.475   0.375  0.00  0.00     0.039 A 
ATOM      3  C2  UNL d   1      -0.459  -0.191  -0.012  0.00  0.00    -0.080 A 
ATOM      4  C3  UNL d   1       0.213   0.443  -1.052  0.00  0.00     0.150 A 
ATOM      5  C4  UNL d   1       1.265  -0.186  -1.710  0.00  0.00    -0.007 A 
ATOM      6  C5  UNL d   1       1.654  -1.468  -1.322  0.00  0.00     0.039 A 
ENDROOT
BRANCH   4   7
ATOM      7  O   UNL d   1      -0.129   1.698  -1.461  0.00  0.00    -0.526 OA
ATOM      8  H5  UNL d   1      -0.852   2.019  -0.897  0.00  0.00     0.418 HD
ENDBRANCH   4   7
TORSDOF 1
ENDMDL
