MODEL 1
REMARK minimizedAffinity -3.31440043
REMARK minimizedRMSD -1
REMARK  1 active torsions:
REMARK  status: ('A' for Active; 'I' for Inactive)
REMARK    1  A    between atoms: C3_4  and  O_7 
ROOT
ATOM      1  C   UNL d   1       1.702  -1.887  -0.965  0.00  0.00    -0.033 A 
ATOM      2  C1  UNL d   1       1.695  -0.871  -1.924  0.00  0.00     0.039 A 
ATOM      3  C2  UNL d   1       0.806   0.198  -1.803  0.00  0.00    -0.080 A 
ATOM      4  C3  UNL d   1      -0.069   0.241  -0.721  0.00  0.00     0.150 A 
ATOM      5  C4  UNL d   1      -0.064  -0.765   0.240  0.00  0.00    -0.007 A 
ATOM      6  C5  UNL d   1       0.824  -1.833   0.117  0.00  0.00     0.039 A 
ENDROOT
BRANCH   4   7
ATOM      7  O   UNL d   1      -0.958   1.262  -0.563  0.00  0.00    -0.526 OA
ATOM      8  H5  UNL d   1      -0.867   1.869  -1.317  0.00  0.00     0.418 HD
ENDBRANCH   4   7
TORSDOF 1
ENDMDL
