MODEL 1
REMARK minimizedAffinity -4.46504831
REMARK minimizedRMSD -1
REMARK  1 active torsions:
REMARK  status: ('A' for Active; 'I' for Inactive)
REMARK    1  A    between atoms: C3_4  and  O_7 
ROOT
ATOM      1  C   UNL d   1      -0.660   0.383   1.735  0.00  0.00    -0.033 A 
ATOM      2  C1  UNL d   1      -1.953   0.894   1.603  0.00  0.00     0.039 A 
ATOM      3  C2  UNL d   1      -2.320   1.578   0.443  0.00  0.00    -0.080 A 
ATOM      4  C3  UNL d   1      -1.387   1.744  -0.577  0.00  0.00     0.150 A 
ATOM      5  C4  UNL d   1      -0.099   1.234  -0.454  0.00  0.00    -0.007 A 
ATOM      6  C5  UNL d   1       0.266   0.552   0.706  0.00  0.00     0.039 A 
ENDROOT
BRANCH   4   7
ATOM      7  O   UNL d   1      -1.698   2.409  -1.726  0.00  0.00    -0.526 OA
ATOM      8  H5  UNL d   1      -2.612   2.730  -1.658  0.00  0.00     0.418 HD
ENDBRANCH   4   7
TORSDOF 1
ENDMDL
