MODEL 1
REMARK minimizedAffinity -4.55711222
REMARK minimizedRMSD -1
REMARK  1 active torsions:
REMARK  status: ('A' for Active; 'I' for Inactive)
REMARK    1  A    between atoms: C3_4  and  O_7 
ROOT
ATOM      1  C   UNL d   1       0.275  -1.444   0.125  0.00  0.00    -0.033 A 
ATOM      2  C1  UNL d   1       1.253  -1.202  -0.842  0.00  0.00     0.039 A 
ATOM      3  C2  UNL d   1       1.277   0.017  -1.523  0.00  0.00    -0.080 A 
ATOM      4  C3  UNL d   1       0.320   0.984  -1.228  0.00  0.00     0.150 A 
ATOM      5  C4  UNL d   1      -0.655   0.750  -0.263  0.00  0.00    -0.007 A 
ATOM      6  C5  UNL d   1      -0.678  -0.467   0.415  0.00  0.00     0.039 A 
ENDROOT
BRANCH   4   7
ATOM      7  O   UNL d   1       0.300   2.186  -1.870  0.00  0.00    -0.526 OA
ATOM      8  H5  UNL d   1       1.014   2.195  -2.529  0.00  0.00     0.418 HD
ENDBRANCH   4   7
TORSDOF 1
ENDMDL
