MODEL 1
REMARK minimizedAffinity -3.0936842
REMARK minimizedRMSD -1
REMARK  1 active torsions:
REMARK  status: ('A' for Active; 'I' for Inactive)
REMARK    1  A    between atoms: C3_4  and  O_7 
ROOT
ATOM      1  C   UNL d   1       5.278   2.878   4.138  0.00  0.00    -0.033 A 
ATOM      2  C1  UNL d   1       5.999   2.520   5.279  0.00  0.00     0.039 A 
ATOM      3  C2  UNL d   1       5.998   1.196   5.721  0.00  0.00    -0.080 A 
ATOM      4  C3  UNL d   1       5.274   0.240   5.014  0.00  0.00     0.150 A 
ATOM      5  C4  UNL d   1       4.557   0.589   3.874  0.00  0.00    -0.007 A 
ATOM      6  C5  UNL d   1       4.558   1.912   3.435  0.00  0.00     0.039 A 
ENDROOT
BRANCH   4   7
ATOM      7  O   UNL d   1       5.238  -1.064   5.409  0.00  0.00    -0.526 OA
ATOM      8  H5  UNL d   1       5.756  -1.151   6.227  0.00  0.00     0.418 HD
ENDBRANCH   4   7
TORSDOF 1
ENDMDL
