MODEL 1
REMARK minimizedAffinity -4.42545795
REMARK minimizedRMSD -1
REMARK  1 active torsions:
REMARK  status: ('A' for Active; 'I' for Inactive)
REMARK    1  A    between atoms: C3_4  and  O_7 
ROOT
ATOM      1  C   UNL d   1      -1.927   0.782   2.538  0.00  0.00    -0.033 A 
ATOM      2  C1  UNL d   1      -1.351   2.053   2.476  0.00  0.00     0.039 A 
ATOM      3  C2  UNL d   1      -0.675   2.459   1.324  0.00  0.00    -0.080 A 
ATOM      4  C3  UNL d   1      -0.583   1.587   0.242  0.00  0.00     0.150 A 
ATOM      5  C4  UNL d   1      -1.158   0.322   0.296  0.00  0.00    -0.007 A 
ATOM      6  C5  UNL d   1      -1.832  -0.083   1.448  0.00  0.00     0.039 A 
ENDROOT
BRANCH   4   7
ATOM      7  O   UNL d   1       0.071   1.937  -0.902  0.00  0.00    -0.526 OA
ATOM      8  H5  UNL d   1       0.441   2.828  -0.784  0.00  0.00     0.418 HD
ENDBRANCH   4   7
TORSDOF 1
ENDMDL
