MODEL 1
REMARK minimizedAffinity -4.49341059
REMARK minimizedRMSD -1
REMARK  1 active torsions:
REMARK  status: ('A' for Active; 'I' for Inactive)
REMARK    1  A    between atoms: C3_4  and  O_7 
ROOT
ATOM      1  C   UNL d   1      -0.800   0.095  -0.386  0.00  0.00    -0.033 A 
ATOM      2  C1  UNL d   1      -0.213  -1.129  -0.710  0.00  0.00     0.039 A 
ATOM      3  C2  UNL d   1       1.177  -1.238  -0.797  0.00  0.00    -0.080 A 
ATOM      4  C3  UNL d   1       1.966  -0.117  -0.557  0.00  0.00     0.150 A 
ATOM      5  C4  UNL d   1       1.388   1.106  -0.230  0.00  0.00    -0.007 A 
ATOM      6  C5  UNL d   1       0.000   1.212  -0.145  0.00  0.00     0.039 A 
ENDROOT
BRANCH   4   7
ATOM      7  O   UNL d   1       3.326  -0.173  -0.635  0.00  0.00    -0.526 OA
ATOM      8  H5  UNL d   1       3.582  -1.072  -0.897  0.00  0.00     0.418 HD
ENDBRANCH   4   7
TORSDOF 1
ENDMDL
