MODEL 1
REMARK minimizedAffinity -3.20875645
REMARK minimizedRMSD -1
REMARK  1 active torsions:
REMARK  status: ('A' for Active; 'I' for Inactive)
REMARK    1  A    between atoms: C3_4  and  O_7 
ROOT
ATOM      1  C   UNL d   1      -0.513   0.158   1.512  0.00  0.00    -0.033 A 
ATOM      2  C1  UNL d   1       0.422   0.180   0.475  0.00  0.00     0.039 A 
ATOM      3  C2  UNL d   1       0.194   0.967  -0.655  0.00  0.00    -0.080 A 
ATOM      4  C3  UNL d   1      -0.970   1.727  -0.737  0.00  0.00     0.150 A 
ATOM      5  C4  UNL d   1      -1.903   1.712   0.294  0.00  0.00    -0.007 A 
ATOM      6  C5  UNL d   1      -1.675   0.925   1.422  0.00  0.00     0.039 A 
ENDROOT
BRANCH   4   7
ATOM      7  O   UNL d   1      -1.237   2.506  -1.823  0.00  0.00    -0.526 OA
ATOM      8  H5  UNL d   1      -0.518   2.394  -2.467  0.00  0.00     0.418 HD
ENDBRANCH   4   7
TORSDOF 1
ENDMDL
