MODEL 1
REMARK minimizedAffinity -5.35181856
REMARK minimizedRMSD -1
REMARK  1 active torsions:
REMARK  status: ('A' for Active; 'I' for Inactive)
REMARK    1  A    between atoms: C3_4  and  O_7 
ROOT
ATOM      1  C   UNL d   1      -0.381  -0.088  -0.237  0.00  0.00    -0.033 A 
ATOM      2  C1  UNL d   1       0.056  -1.313  -0.744  0.00  0.00     0.039 A 
ATOM      3  C2  UNL d   1       1.418  -1.535  -0.959  0.00  0.00    -0.080 A 
ATOM      4  C3  UNL d   1       2.330  -0.526  -0.663  0.00  0.00     0.150 A 
ATOM      5  C4  UNL d   1       1.901   0.695  -0.154  0.00  0.00    -0.007 A 
ATOM      6  C5  UNL d   1       0.541   0.916   0.059  0.00  0.00     0.039 A 
ENDROOT
BRANCH   4   7
ATOM      7  O   UNL d   1       3.668  -0.695  -0.861  0.00  0.00    -0.526 OA
ATOM      8  H5  UNL d   1       3.814  -1.576  -1.243  0.00  0.00     0.418 HD
ENDBRANCH   4   7
TORSDOF 1
ENDMDL
