MODEL 1
REMARK minimizedAffinity -2.042732
REMARK minimizedRMSD -1
REMARK  1 active torsions:
REMARK  status: ('A' for Active; 'I' for Inactive)
REMARK    1  A    between atoms: C3_4  and  O_7 
ROOT
ATOM      1  C   UNL d   1       0.312  -1.633  -0.036  0.00  0.00    -0.033 A 
ATOM      2  C1  UNL d   1      -0.643  -0.927   0.698  0.00  0.00     0.039 A 
ATOM      3  C2  UNL d   1      -0.939   0.397   0.371  0.00  0.00    -0.080 A 
ATOM      4  C3  UNL d   1      -0.275   1.003  -0.692  0.00  0.00     0.150 A 
ATOM      5  C4  UNL d   1       0.675   0.305  -1.430  0.00  0.00    -0.007 A 
ATOM      6  C5  UNL d   1       0.970  -1.017  -1.101  0.00  0.00     0.039 A 
ENDROOT
BRANCH   4   7
ATOM      7  O   UNL d   1      -0.527   2.295  -1.046  0.00  0.00    -0.526 OA
ATOM      8  H5  UNL d   1      -1.184   2.661  -0.430  0.00  0.00     0.418 HD
ENDBRANCH   4   7
TORSDOF 1
ENDMDL
