MODEL 1
REMARK minimizedAffinity -1.98373342
REMARK minimizedRMSD -1
REMARK  1 active torsions:
REMARK  status: ('A' for Active; 'I' for Inactive)
REMARK    1  A    between atoms: C3_4  and  O_7 
ROOT
ATOM      1  C   UNL d   1      -0.696   0.374   1.834  0.00  0.00    -0.033 A 
ATOM      2  C1  UNL d   1      -0.823  -0.219   0.577  0.00  0.00     0.039 A 
ATOM      3  C2  UNL d   1      -0.584   0.530  -0.577  0.00  0.00    -0.080 A 
ATOM      4  C3  UNL d   1      -0.219   1.868  -0.460  0.00  0.00     0.150 A 
ATOM      5  C4  UNL d   1      -0.086   2.464   0.790  0.00  0.00    -0.007 A 
ATOM      6  C5  UNL d   1      -0.326   1.715   1.941  0.00  0.00     0.039 A 
ENDROOT
BRANCH   4   7
ATOM      7  O   UNL d   1       0.020   2.641  -1.558  0.00  0.00    -0.526 OA
ATOM      8  H5  UNL d   1      -0.138   2.103  -2.352  0.00  0.00     0.418 HD
ENDBRANCH   4   7
TORSDOF 1
ENDMDL
