MODEL 1
REMARK minimizedAffinity -4.89777422
REMARK minimizedRMSD -1
REMARK  1 active torsions:
REMARK  status: ('A' for Active; 'I' for Inactive)
REMARK    1  A    between atoms: C3_4  and  O_7 
ROOT
ATOM      1  C   UNL d   1      -0.065  -0.247   0.351  0.00  0.00    -0.033 A 
ATOM      2  C1  UNL d   1       0.318  -1.520  -0.076  0.00  0.00     0.039 A 
ATOM      3  C2  UNL d   1       1.598  -1.729  -0.593  0.00  0.00    -0.080 A 
ATOM      4  C3  UNL d   1       2.484  -0.659  -0.677  0.00  0.00     0.150 A 
ATOM      5  C4  UNL d   1       2.111   0.611  -0.250  0.00  0.00    -0.007 A 
ATOM      6  C5  UNL d   1       0.832   0.818   0.266  0.00  0.00     0.039 A 
ENDROOT
BRANCH   4   7
ATOM      7  O   UNL d   1       3.742  -0.813  -1.179  0.00  0.00    -0.526 OA
ATOM      8  H5  UNL d   1       3.850  -1.737  -1.461  0.00  0.00     0.418 HD
ENDBRANCH   4   7
TORSDOF 1
ENDMDL
