MODEL 1
REMARK minimizedAffinity -4.26731825
REMARK minimizedRMSD -1
REMARK  0 active torsions:
REMARK  status: ('A' for Active; 'I' for Inactive)
ROOT
ATOM      1  C   UNL d   1       1.175   4.625   0.000  0.00  0.00     0.077 C 
ATOM      2  C1  UNL d   1       0.397   3.387   0.332  0.00  0.00    -0.074 A 
ATOM      3  C2  UNL d   1      -0.902   3.470   0.844  0.00  0.00    -0.005 A 
ATOM      4  C3  UNL d   1      -1.617   2.310   1.140  0.00  0.00     0.006 A 
ATOM      5  C4  UNL d   1      -1.042   1.056   0.927  0.00  0.00    -0.005 A 
ATOM      6  C5  UNL d   1       0.255   0.953   0.414  0.00  0.00    -0.074 A 
ATOM      7  C6  UNL d   1       0.884  -0.386   0.170  0.00  0.00     0.077 C 
ATOM      8  C7  UNL d   1       0.965   2.124   0.114  0.00  0.00    -0.001 A 
ENDROOT
TORSDOF 0
ENDMDL
