MODEL 1
REMARK minimizedAffinity -3.82088351
REMARK minimizedRMSD -1
REMARK  0 active torsions:
REMARK  status: ('A' for Active; 'I' for Inactive)
ROOT
ATOM      1  C   UNL d   1       0.732   3.446  -0.709  0.00  0.00     0.077 C 
ATOM      2  C1  UNL d   1       0.073   2.258  -0.074  0.00  0.00    -0.074 A 
ATOM      3  C2  UNL d   1      -0.723   2.402   1.067  0.00  0.00    -0.005 A 
ATOM      4  C3  UNL d   1      -1.338   1.290   1.641  0.00  0.00     0.006 A 
ATOM      5  C4  UNL d   1      -1.164   0.024   1.081  0.00  0.00    -0.005 A 
ATOM      6  C5  UNL d   1      -0.373  -0.140  -0.060  0.00  0.00    -0.074 A 
ATOM      7  C6  UNL d   1      -0.183  -1.492  -0.681  0.00  0.00     0.077 C 
ATOM      8  C7  UNL d   1       0.236   0.984  -0.635  0.00  0.00    -0.001 A 
ENDROOT
TORSDOF 0
ENDMDL
