MODEL 1
REMARK minimizedAffinity -3.53746033
REMARK minimizedRMSD -1
REMARK  0 active torsions:
REMARK  status: ('A' for Active; 'I' for Inactive)
ROOT
ATOM      1  C   UNL d   1       1.358   2.622  -0.415  0.00  0.00     0.077 C 
ATOM      2  C1  UNL d   1       0.330   1.655   0.091  0.00  0.00    -0.074 A 
ATOM      3  C2  UNL d   1      -0.640   2.055   1.015  0.00  0.00    -0.005 A 
ATOM      4  C3  UNL d   1      -1.596   1.147   1.469  0.00  0.00     0.006 A 
ATOM      5  C4  UNL d   1      -1.592  -0.169   1.004  0.00  0.00    -0.005 A 
ATOM      6  C5  UNL d   1      -0.630  -0.587   0.079  0.00  0.00    -0.074 A 
ATOM      7  C6  UNL d   1      -0.618  -1.995  -0.439  0.00  0.00     0.077 C 
ATOM      8  C7  UNL d   1       0.323   0.334  -0.378  0.00  0.00    -0.001 A 
ENDROOT
TORSDOF 0
ENDMDL
