MODEL 1
REMARK minimizedAffinity -1.67398691
REMARK minimizedRMSD -1
REMARK  0 active torsions:
REMARK  status: ('A' for Active; 'I' for Inactive)
ROOT
ATOM      1  C   UNL d   1       0.249   3.576   0.242  0.00  0.00     0.077 C 
ATOM      2  C1  UNL d   1       0.249   2.076   0.265  0.00  0.00    -0.074 A 
ATOM      3  C2  UNL d   1      -0.951   1.358   0.286  0.00  0.00    -0.005 A 
ATOM      4  C3  UNL d   1      -0.936  -0.037   0.297  0.00  0.00     0.006 A 
ATOM      5  C4  UNL d   1       0.278  -0.726   0.287  0.00  0.00    -0.005 A 
ATOM      6  C5  UNL d   1       1.487  -0.025   0.265  0.00  0.00    -0.074 A 
ATOM      7  C6  UNL d   1       2.800  -0.750   0.243  0.00  0.00     0.077 C 
ATOM      8  C7  UNL d   1       1.463   1.377   0.246  0.00  0.00    -0.001 A 
ENDROOT
TORSDOF 0
ENDMDL
