MODEL 1
REMARK minimizedAffinity -4.48095179
REMARK minimizedRMSD -1
REMARK  0 active torsions:
REMARK  status: ('A' for Active; 'I' for Inactive)
ROOT
ATOM      1  C   UNL d   1      -0.833   3.320   2.498  0.00  0.00     0.077 C 
ATOM      2  C1  UNL d   1      -0.409   2.810   1.153  0.00  0.00    -0.074 A 
ATOM      3  C2  UNL d   1       0.051   3.686   0.164  0.00  0.00    -0.005 A 
ATOM      4  C3  UNL d   1       0.451   3.197  -1.079  0.00  0.00     0.006 A 
ATOM      5  C4  UNL d   1       0.395   1.828  -1.346  0.00  0.00    -0.005 A 
ATOM      6  C5  UNL d   1      -0.061   0.937  -0.370  0.00  0.00    -0.074 A 
ATOM      7  C6  UNL d   1      -0.118  -0.538  -0.637  0.00  0.00     0.077 C 
ATOM      8  C7  UNL d   1      -0.455   1.436   0.879  0.00  0.00    -0.001 A 
ENDROOT
TORSDOF 0
ENDMDL
