MODEL 1
REMARK minimizedAffinity -3.64015341
REMARK minimizedRMSD -1
REMARK  0 active torsions:
REMARK  status: ('A' for Active; 'I' for Inactive)
ROOT
ATOM      1  C   UNL d   1       0.402  -1.753  -0.072  0.00  0.00     0.077 C 
ATOM      2  C1  UNL d   1      -0.344  -0.473   0.163  0.00  0.00    -0.074 A 
ATOM      3  C2  UNL d   1      -1.542  -0.461   0.884  0.00  0.00    -0.005 A 
ATOM      4  C3  UNL d   1      -2.220   0.738   1.102  0.00  0.00     0.006 A 
ATOM      5  C4  UNL d   1      -1.708   1.936   0.602  0.00  0.00    -0.005 A 
ATOM      6  C5  UNL d   1      -0.511   1.944  -0.121  0.00  0.00    -0.074 A 
ATOM      7  C6  UNL d   1       0.058   3.223  -0.658  0.00  0.00     0.077 C 
ATOM      8  C7  UNL d   1       0.168   0.736  -0.330  0.00  0.00    -0.001 A 
ENDROOT
TORSDOF 0
ENDMDL
