MODEL 1
REMARK minimizedAffinity -4.3780942
REMARK minimizedRMSD -1
REMARK  0 active torsions:
REMARK  status: ('A' for Active; 'I' for Inactive)
ROOT
ATOM      1  C   UNL d   1       0.372   3.558  -0.045  0.00  0.00     0.077 C 
ATOM      2  C1  UNL d   1      -0.320   2.285   0.342  0.00  0.00    -0.074 A 
ATOM      3  C2  UNL d   1      -1.427   2.300   1.197  0.00  0.00    -0.005 A 
ATOM      4  C3  UNL d   1      -2.066   1.108   1.541  0.00  0.00     0.006 A 
ATOM      5  C4  UNL d   1      -1.605  -0.108   1.035  0.00  0.00    -0.005 A 
ATOM      6  C5  UNL d   1      -0.501  -0.142   0.178  0.00  0.00    -0.074 A 
ATOM      7  C6  UNL d   1       0.001  -1.440  -0.383  0.00  0.00     0.077 C 
ATOM      8  C7  UNL d   1       0.132   1.060  -0.169  0.00  0.00    -0.001 A 
ENDROOT
TORSDOF 0
ENDMDL
