MODEL 1
REMARK minimizedAffinity -4.79890633
REMARK minimizedRMSD -1
REMARK  0 active torsions:
REMARK  status: ('A' for Active; 'I' for Inactive)
ROOT
ATOM      1  C   UNL d   1       3.489   1.269   0.861  0.00  0.00     0.077 C 
ATOM      2  C1  UNL d   1       1.990   1.263   0.816  0.00  0.00    -0.074 A 
ATOM      3  C2  UNL d   1       1.258   2.423   1.089  0.00  0.00    -0.005 A 
ATOM      4  C3  UNL d   1      -0.135   2.405   1.035  0.00  0.00     0.006 A 
ATOM      5  C4  UNL d   1      -0.810   1.228   0.707  0.00  0.00    -0.005 A 
ATOM      6  C5  UNL d   1      -0.096   0.059   0.430  0.00  0.00    -0.074 A 
ATOM      7  C6  UNL d   1      -0.805  -1.212   0.067  0.00  0.00     0.077 C 
ATOM      8  C7  UNL d   1       1.305   0.087   0.480  0.00  0.00    -0.001 A 
ENDROOT
TORSDOF 0
ENDMDL
