MODEL 1
REMARK minimizedAffinity -2.74614167
REMARK minimizedRMSD -1
REMARK  0 active torsions:
REMARK  status: ('A' for Active; 'I' for Inactive)
ROOT
ATOM      1  C   UNL d   1      -0.154  -0.968  -0.297  0.00  0.00     0.077 C 
ATOM      2  C1  UNL d   1      -0.503   0.335   0.360  0.00  0.00    -0.074 A 
ATOM      3  C2  UNL d   1      -1.477   0.397   1.361  0.00  0.00    -0.005 A 
ATOM      4  C3  UNL d   1      -1.784   1.614   1.970  0.00  0.00     0.006 A 
ATOM      5  C4  UNL d   1      -1.120   2.779   1.585  0.00  0.00    -0.005 A 
ATOM      6  C5  UNL d   1      -0.141   2.736   0.586  0.00  0.00    -0.074 A 
ATOM      7  C6  UNL d   1       0.589   3.977   0.167  0.00  0.00     0.077 C 
ATOM      8  C7  UNL d   1       0.166   1.508  -0.016  0.00  0.00    -0.001 A 
ENDROOT
TORSDOF 0
ENDMDL
