MODEL 1
REMARK minimizedAffinity -4.6508379
REMARK minimizedRMSD -1
REMARK  0 active torsions:
REMARK  status: ('A' for Active; 'I' for Inactive)
ROOT
ATOM      1  C   UNL d   1       0.702   2.950  -0.949  0.00  0.00     0.077 C 
ATOM      2  C1  UNL d   1       0.189   1.722  -0.258  0.00  0.00    -0.074 A 
ATOM      3  C2  UNL d   1      -0.519   1.817   0.945  0.00  0.00    -0.005 A 
ATOM      4  C3  UNL d   1      -0.998   0.667   1.571  0.00  0.00     0.006 A 
ATOM      5  C4  UNL d   1      -0.775  -0.588   1.003  0.00  0.00    -0.005 A 
ATOM      6  C5  UNL d   1      -0.070  -0.703  -0.199  0.00  0.00    -0.074 A 
ATOM      7  C6  UNL d   1       0.170  -2.043  -0.828  0.00  0.00     0.077 C 
ATOM      8  C7  UNL d   1       0.403   0.458  -0.826  0.00  0.00    -0.001 A 
ENDROOT
TORSDOF 0
ENDMDL
