MODEL 1
REMARK minimizedAffinity -3.85450435
REMARK minimizedRMSD -1
REMARK  0 active torsions:
REMARK  status: ('A' for Active; 'I' for Inactive)
ROOT
ATOM      1  C   UNL d   1      -0.663  -2.209  -0.209  0.00  0.00     0.077 C 
ATOM      2  C1  UNL d   1       0.169  -0.965  -0.105  0.00  0.00    -0.074 A 
ATOM      3  C2  UNL d   1       1.554  -1.040   0.080  0.00  0.00    -0.005 A 
ATOM      4  C3  UNL d   1       2.316   0.125   0.166  0.00  0.00     0.006 A 
ATOM      5  C4  UNL d   1       1.703   1.375   0.068  0.00  0.00    -0.005 A 
ATOM      6  C5  UNL d   1       0.320   1.469  -0.118  0.00  0.00    -0.074 A 
ATOM      7  C6  UNL d   1      -0.354   2.804  -0.235  0.00  0.00     0.077 C 
ATOM      8  C7  UNL d   1      -0.438   0.294  -0.210  0.00  0.00    -0.001 A 
ENDROOT
TORSDOF 0
ENDMDL
