MODEL 1
REMARK minimizedAffinity -2.25566196
REMARK minimizedRMSD -1
REMARK  0 active torsions:
REMARK  status: ('A' for Active; 'I' for Inactive)
ROOT
ATOM      1  C   UNL d   1      -1.110   2.490   0.420  0.00  0.00     0.077 C 
ATOM      2  C1  UNL d   1      -0.379   1.195   0.223  0.00  0.00    -0.074 A 
ATOM      3  C2  UNL d   1       1.018   1.141   0.283  0.00  0.00    -0.005 A 
ATOM      4  C3  UNL d   1       1.683  -0.072   0.107  0.00  0.00     0.006 A 
ATOM      5  C4  UNL d   1       0.960  -1.242  -0.130  0.00  0.00    -0.005 A 
ATOM      6  C5  UNL d   1      -0.436  -1.207  -0.193  0.00  0.00    -0.074 A 
ATOM      7  C6  UNL d   1      -1.229  -2.457  -0.438  0.00  0.00     0.077 C 
ATOM      8  C7  UNL d   1      -1.098   0.014  -0.009  0.00  0.00    -0.001 A 
ENDROOT
TORSDOF 0
ENDMDL
