MODEL 1
REMARK minimizedAffinity -4.70744181
REMARK minimizedRMSD -1
REMARK  0 active torsions:
REMARK  status: ('A' for Active; 'I' for Inactive)
ROOT
ATOM      1  C   UNL d   1      -2.354   0.541   1.046  0.00  0.00     0.077 C 
ATOM      2  C1  UNL d   1      -0.981   0.964   0.617  0.00  0.00    -0.074 A 
ATOM      3  C2  UNL d   1      -0.742   2.260   0.148  0.00  0.00    -0.005 A 
ATOM      4  C3  UNL d   1       0.543   2.642  -0.238  0.00  0.00     0.006 A 
ATOM      5  C4  UNL d   1       1.599   1.734  -0.161  0.00  0.00    -0.005 A 
ATOM      6  C5  UNL d   1       1.380   0.434   0.306  0.00  0.00    -0.074 A 
ATOM      7  C6  UNL d   1       2.506  -0.551   0.405  0.00  0.00     0.077 C 
ATOM      8  C7  UNL d   1       0.088   0.060   0.699  0.00  0.00    -0.001 A 
ENDROOT
TORSDOF 0
ENDMDL
