MODEL 1
REMARK minimizedAffinity -3.39232326
REMARK minimizedRMSD -1
REMARK  0 active torsions:
REMARK  status: ('A' for Active; 'I' for Inactive)
ROOT
ATOM      1  C   UNL d   1      -1.929   2.903   2.316  0.00  0.00     0.077 C 
ATOM      2  C1  UNL d   1      -1.054   2.264   1.279  0.00  0.00    -0.074 A 
ATOM      3  C2  UNL d   1      -0.240   3.040   0.448  0.00  0.00    -0.005 A 
ATOM      4  C3  UNL d   1       0.576   2.430  -0.505  0.00  0.00     0.006 A 
ATOM      5  C4  UNL d   1       0.587   1.041  -0.637  0.00  0.00    -0.005 A 
ATOM      6  C5  UNL d   1      -0.220   0.249   0.186  0.00  0.00    -0.074 A 
ATOM      7  C6  UNL d   1      -0.213  -1.246   0.065  0.00  0.00     0.077 C 
ATOM      8  C7  UNL d   1      -1.032   0.868   1.147  0.00  0.00    -0.001 A 
ENDROOT
TORSDOF 0
ENDMDL
