MODEL 1
REMARK minimizedAffinity 5.0958724
REMARK minimizedRMSD -1
REMARK  0 active torsions:
REMARK  status: ('A' for Active; 'I' for Inactive)
ROOT
ATOM      1  N1  IND d   1      -0.152  -1.166   1.823  0.00  0.00    -0.196 N 
ATOM      2  C2  IND d   1       1.054  -1.589   2.306  0.00  0.00     0.054 A 
ATOM      3  C3  IND d   1       1.622  -2.469   1.451  0.00  0.00    -0.031 A 
ATOM      4  C4  IND d   1       0.796  -3.279  -0.849  0.00  0.00     0.051 A 
ATOM      5  C5  IND d   1      -0.271  -3.199  -1.700  0.00  0.00    -0.031 A 
ATOM      6  C6  IND d   1      -1.374  -2.420  -1.415  0.00  0.00     0.015 A 
ATOM      7  C7  IND d   1      -1.446  -1.679  -0.269  0.00  0.00    -0.016 A 
ATOM      8  C8  IND d   1      -0.368  -1.763   0.600  0.00  0.00    -0.047 A 
ATOM      9  C9  IND d   1       0.735  -2.585   0.337  0.00  0.00    -0.096 A 
ATOM     10  HN1 IND d   1      -0.686  -0.619   2.216  0.00  0.00     0.298 HD
ENDROOT
TORSDOF 0
ENDMDL
