MODEL 1
REMARK minimizedAffinity 6.57370901
REMARK minimizedRMSD -1
REMARK  0 active torsions:
REMARK  status: ('A' for Active; 'I' for Inactive)
ROOT
ATOM      1  N1  IND d   1       1.330  -0.983   1.857  0.00  0.00    -0.196 N 
ATOM      2  C2  IND d   1       2.309  -0.040   1.717  0.00  0.00     0.054 A 
ATOM      3  C3  IND d   1       3.390  -0.368   2.460  0.00  0.00    -0.031 A 
ATOM      4  C4  IND d   1       3.808  -2.460   3.901  0.00  0.00     0.051 A 
ATOM      5  C5  IND d   1       3.192  -3.587   4.368  0.00  0.00    -0.031 A 
ATOM      6  C6  IND d   1       1.899  -3.912   4.012  0.00  0.00     0.015 A 
ATOM      7  C7  IND d   1       1.174  -3.124   3.163  0.00  0.00    -0.016 A 
ATOM      8  C8  IND d   1       1.794  -1.975   2.693  0.00  0.00    -0.047 A 
ATOM      9  C9  IND d   1       3.091  -1.618   3.085  0.00  0.00    -0.096 A 
ATOM     10  HN1 IND d   1       0.555  -0.961   1.485  0.00  0.00     0.298 HD
ENDROOT
TORSDOF 0
ENDMDL
