MODEL 1
REMARK minimizedAffinity 2.03279781
REMARK minimizedRMSD -1
REMARK  0 active torsions:
REMARK  status: ('A' for Active; 'I' for Inactive)
ROOT
ATOM      1  N1  IND d   1       0.795  -2.028   2.797  0.00  0.00    -0.196 N 
ATOM      2  C2  IND d   1       1.747  -1.979   3.776  0.00  0.00     0.054 A 
ATOM      3  C3  IND d   1       2.557  -0.912   3.592  0.00  0.00    -0.031 A 
ATOM      4  C4  IND d   1       2.441   0.940   1.808  0.00  0.00     0.051 A 
ATOM      5  C5  IND d   1       1.767   1.306   0.676  0.00  0.00    -0.031 A 
ATOM      6  C6  IND d   1       0.711   0.565   0.186  0.00  0.00     0.015 A 
ATOM      7  C7  IND d   1       0.281  -0.568   0.817  0.00  0.00    -0.016 A 
ATOM      8  C8  IND d   1       0.968  -0.946   1.962  0.00  0.00    -0.047 A 
ATOM      9  C9  IND d   1       2.067  -0.221   2.441  0.00  0.00    -0.096 A 
ATOM     10  HN1 IND d   1       0.190  -2.634   2.715  0.00  0.00     0.298 HD
ENDROOT
TORSDOF 0
ENDMDL
