MODEL 1
REMARK minimizedAffinity -0.286999434
REMARK minimizedRMSD -1
REMARK  0 active torsions:
REMARK  status: ('A' for Active; 'I' for Inactive)
ROOT
ATOM      1  N1  IND d   1       0.962   0.556   0.858  0.00  0.00    -0.196 N 
ATOM      2  C2  IND d   1       1.753   1.632   1.146  0.00  0.00     0.054 A 
ATOM      3  C3  IND d   1       2.385   1.448   2.327  0.00  0.00    -0.031 A 
ATOM      4  C4  IND d   1       2.346  -0.587   3.904  0.00  0.00     0.051 A 
ATOM      5  C5  IND d   1       1.740  -1.798   4.083  0.00  0.00    -0.031 A 
ATOM      6  C6  IND d   1       0.827  -2.299   3.177  0.00  0.00     0.015 A 
ATOM      7  C7  IND d   1       0.494  -1.608   2.047  0.00  0.00    -0.016 A 
ATOM      8  C8  IND d   1       1.101  -0.374   1.865  0.00  0.00    -0.047 A 
ATOM      9  C9  IND d   1       1.996   0.158   2.802  0.00  0.00    -0.096 A 
ATOM     10  HN1 IND d   1       0.460   0.473   0.164  0.00  0.00     0.298 HD
ENDROOT
TORSDOF 0
ENDMDL
