MODEL 1
REMARK minimizedAffinity 7.43252754
REMARK minimizedRMSD -1
REMARK  0 active torsions:
REMARK  status: ('A' for Active; 'I' for Inactive)
ROOT
ATOM      1  N1  IND d   1      -1.084   0.225  -1.006  0.00  0.00    -0.196 N 
ATOM      2  C2  IND d   1      -0.917   0.976   0.125  0.00  0.00     0.054 A 
ATOM      3  C3  IND d   1      -0.633   0.180   1.180  0.00  0.00    -0.031 A 
ATOM      4  C4  IND d   1      -0.293  -2.371   1.261  0.00  0.00     0.051 A 
ATOM      5  C5  IND d   1      -0.377  -3.494   0.486  0.00  0.00    -0.031 A 
ATOM      6  C6  IND d   1      -0.706  -3.433  -0.853  0.00  0.00     0.015 A 
ATOM      7  C7  IND d   1      -0.952  -2.241  -1.472  0.00  0.00    -0.016 A 
ATOM      8  C8  IND d   1      -0.874  -1.099  -0.688  0.00  0.00    -0.047 A 
ATOM      9  C9  IND d   1      -0.582  -1.158   0.681  0.00  0.00    -0.096 A 
ATOM     10  HN1 IND d   1      -1.286   0.529  -1.784  0.00  0.00     0.298 HD
ENDROOT
TORSDOF 0
ENDMDL
