MODEL 1
REMARK minimizedAffinity -1.21146834
REMARK minimizedRMSD -1
REMARK  0 active torsions:
REMARK  status: ('A' for Active; 'I' for Inactive)
ROOT
ATOM      1  N1  IND d   1       0.359   0.525   0.037  0.00  0.00    -0.196 N 
ATOM      2  C2  IND d   1       1.026   1.694  -0.201  0.00  0.00     0.054 A 
ATOM      3  C3  IND d   1       1.962   1.904   0.752  0.00  0.00    -0.031 A 
ATOM      4  C4  IND d   1       2.640   0.409   2.735  0.00  0.00     0.051 A 
ATOM      5  C5  IND d   1       2.292  -0.742   3.385  0.00  0.00    -0.031 A 
ATOM      6  C6  IND d   1       1.262  -1.547   2.942  0.00  0.00     0.015 A 
ATOM      7  C7  IND d   1       0.547  -1.235   1.820  0.00  0.00    -0.016 A 
ATOM      8  C8  IND d   1       0.893  -0.064   1.162  0.00  0.00    -0.047 A 
ATOM      9  C9  IND d   1       1.909   0.779   1.631  0.00  0.00    -0.096 A 
ATOM     10  HN1 IND d   1      -0.286   0.211  -0.436  0.00  0.00     0.298 HD
ENDROOT
TORSDOF 0
ENDMDL
