MODEL 1
REMARK minimizedAffinity -1.80937862
REMARK minimizedRMSD -1
REMARK  0 active torsions:
REMARK  status: ('A' for Active; 'I' for Inactive)
ROOT
ATOM      1  N1  IND d   1       0.721  -3.280   3.326  0.00  0.00    -0.196 N 
ATOM      2  C2  IND d   1       1.611  -3.230   4.362  0.00  0.00     0.054 A 
ATOM      3  C3  IND d   1       2.355  -2.103   4.290  0.00  0.00    -0.031 A 
ATOM      4  C4  IND d   1       2.210  -0.153   2.614  0.00  0.00     0.051 A 
ATOM      5  C5  IND d   1       1.577   0.238   1.468  0.00  0.00    -0.031 A 
ATOM      6  C6  IND d   1       0.603  -0.538   0.873  0.00  0.00     0.015 A 
ATOM      7  C7  IND d   1       0.218  -1.734   1.409  0.00  0.00    -0.016 A 
ATOM      8  C8  IND d   1       0.865  -2.138   2.569  0.00  0.00    -0.047 A 
ATOM      9  C9  IND d   1       1.883  -1.375   3.155  0.00  0.00    -0.096 A 
ATOM     10  HN1 IND d   1       0.165  -3.917   3.173  0.00  0.00     0.298 HD
ENDROOT
TORSDOF 0
ENDMDL
