MODEL 1
REMARK minimizedAffinity -1.06656837
REMARK minimizedRMSD -1
REMARK  0 active torsions:
REMARK  status: ('A' for Active; 'I' for Inactive)
ROOT
ATOM      1  N1  IND d   1       0.660  -1.872   2.605  0.00  0.00    -0.196 N 
ATOM      2  C2  IND d   1       1.437  -1.958   3.727  0.00  0.00     0.054 A 
ATOM      3  C3  IND d   1       2.336  -0.949   3.755  0.00  0.00    -0.031 A 
ATOM      4  C4  IND d   1       2.646   1.012   2.115  0.00  0.00     0.051 A 
ATOM      5  C5  IND d   1       2.196   1.497   0.920  0.00  0.00    -0.031 A 
ATOM      6  C6  IND d   1       1.189   0.873   0.212  0.00  0.00     0.015 A 
ATOM      7  C7  IND d   1       0.584  -0.258   0.681  0.00  0.00    -0.016 A 
ATOM      8  C8  IND d   1       1.043  -0.758   1.891  0.00  0.00    -0.047 A 
ATOM      9  C9  IND d   1       2.094  -0.153   2.594  0.00  0.00    -0.096 A 
ATOM     10  HN1 IND d   1       0.038  -2.422   2.383  0.00  0.00     0.298 HD
ENDROOT
TORSDOF 0
ENDMDL
