MODEL 1
REMARK minimizedAffinity 0.427064717
REMARK minimizedRMSD -1
REMARK  0 active torsions:
REMARK  status: ('A' for Active; 'I' for Inactive)
ROOT
ATOM      1  N1  IND d   1       0.714  -2.289   3.048  0.00  0.00    -0.196 N 
ATOM      2  C2  IND d   1       1.383  -2.365   4.238  0.00  0.00     0.054 A 
ATOM      3  C3  IND d   1       2.254  -1.339   4.354  0.00  0.00    -0.031 A 
ATOM      4  C4  IND d   1       2.676   0.637   2.758  0.00  0.00     0.051 A 
ATOM      5  C5  IND d   1       2.331   1.120   1.527  0.00  0.00    -0.031 A 
ATOM      6  C6  IND d   1       1.409   0.480   0.725  0.00  0.00     0.015 A 
ATOM      7  C7  IND d   1       0.786  -0.666   1.131  0.00  0.00    -0.016 A 
ATOM      8  C8  IND d   1       1.139  -1.164   2.377  0.00  0.00    -0.047 A 
ATOM      9  C9  IND d   1       2.105  -0.541   3.178  0.00  0.00    -0.096 A 
ATOM     10  HN1 IND d   1       0.127  -2.851   2.765  0.00  0.00     0.298 HD
ENDROOT
TORSDOF 0
ENDMDL
