MODEL 1
REMARK minimizedAffinity 5.69776487
REMARK minimizedRMSD -1
REMARK  0 active torsions:
REMARK  status: ('A' for Active; 'I' for Inactive)
ROOT
ATOM      1  N1  IND d   1      -0.459  -1.180   1.185  0.00  0.00    -0.196 N 
ATOM      2  C2  IND d   1       0.283  -1.887   2.090  0.00  0.00     0.054 A 
ATOM      3  C3  IND d   1       1.448  -1.251   2.342  0.00  0.00    -0.031 A 
ATOM      4  C4  IND d   1       2.301   1.012   1.460  0.00  0.00     0.051 A 
ATOM      5  C5  IND d   1       1.990   2.012   0.581  0.00  0.00    -0.031 A 
ATOM      6  C6  IND d   1       0.823   2.000  -0.154  0.00  0.00     0.015 A 
ATOM      7  C7  IND d   1      -0.087   0.989  -0.029  0.00  0.00    -0.016 A 
ATOM      8  C8  IND d   1       0.228  -0.032   0.857  0.00  0.00    -0.047 A 
ATOM      9  C9  IND d   1       1.431  -0.046   1.575  0.00  0.00    -0.096 A 
ATOM     10  HN1 IND d   1      -1.226  -1.413   0.873  0.00  0.00     0.298 HD
ENDROOT
TORSDOF 0
ENDMDL
