MODEL 1
REMARK minimizedAffinity -0.720311105
REMARK minimizedRMSD -1
REMARK  0 active torsions:
REMARK  status: ('A' for Active; 'I' for Inactive)
ROOT
ATOM      1  N1  IND d   1       2.711   0.173   5.793  0.00  0.00    -0.196 N 
ATOM      2  C2  IND d   1       2.832  -1.186   5.715  0.00  0.00     0.054 A 
ATOM      3  C3  IND d   1       2.923  -1.578   4.424  0.00  0.00    -0.031 A 
ATOM      4  C4  IND d   1       2.997  -0.149   2.284  0.00  0.00     0.051 A 
ATOM      5  C5  IND d   1       2.883   1.140   1.845  0.00  0.00    -0.031 A 
ATOM      6  C6  IND d   1       2.705   2.194   2.717  0.00  0.00     0.015 A 
ATOM      7  C7  IND d   1       2.645   1.999   4.068  0.00  0.00    -0.016 A 
ATOM      8  C8  IND d   1       2.754   0.691   4.517  0.00  0.00    -0.047 A 
ATOM      9  C9  IND d   1       2.892  -0.388   3.634  0.00  0.00    -0.096 A 
ATOM     10  HN1 IND d   1       2.623   0.628   6.517  0.00  0.00     0.298 HD
ENDROOT
TORSDOF 0
ENDMDL
