MODEL 1
REMARK minimizedAffinity 3.36898756
REMARK minimizedRMSD -1
REMARK  0 active torsions:
REMARK  status: ('A' for Active; 'I' for Inactive)
ROOT
ATOM      1  N1  IND d   1       0.544  -1.378   1.305  0.00  0.00    -0.196 N 
ATOM      2  C2  IND d   1      -0.497  -0.506   1.146  0.00  0.00     0.054 A 
ATOM      3  C3  IND d   1      -1.287  -0.898   0.121  0.00  0.00    -0.031 A 
ATOM      4  C4  IND d   1      -1.115  -2.992  -1.367  0.00  0.00     0.051 A 
ATOM      5  C5  IND d   1      -0.312  -4.066  -1.626  0.00  0.00    -0.031 A 
ATOM      6  C6  IND d   1       0.840  -4.306  -0.905  0.00  0.00     0.015 A 
ATOM      7  C7  IND d   1       1.227  -3.483   0.114  0.00  0.00    -0.016 A 
ATOM      8  C8  IND d   1       0.417  -2.386   0.375  0.00  0.00    -0.047 A 
ATOM      9  C9  IND d   1      -0.730  -2.114  -0.381  0.00  0.00    -0.096 A 
ATOM     10  HN1 IND d   1       1.173  -1.307   1.887  0.00  0.00     0.298 HD
ENDROOT
TORSDOF 0
ENDMDL
