MODEL 1
REMARK minimizedAffinity 6.10499096
REMARK minimizedRMSD -1
REMARK  0 active torsions:
REMARK  status: ('A' for Active; 'I' for Inactive)
ROOT
ATOM      1  N1  IND d   1       0.657   0.334   1.541  0.00  0.00    -0.196 N 
ATOM      2  C2  IND d   1       1.976   0.183   1.215  0.00  0.00     0.054 A 
ATOM      3  C3  IND d   1       2.404   1.239   0.486  0.00  0.00    -0.031 A 
ATOM      4  C4  IND d   1       1.138   3.372  -0.202  0.00  0.00     0.051 A 
ATOM      5  C5  IND d   1      -0.101   3.948  -0.167  0.00  0.00    -0.031 A 
ATOM      6  C6  IND d   1      -1.172   3.337   0.453  0.00  0.00     0.015 A 
ATOM      7  C7  IND d   1      -1.040   2.128   1.075  0.00  0.00    -0.016 A 
ATOM      8  C8  IND d   1       0.215   1.537   1.036  0.00  0.00    -0.047 A 
ATOM      9  C9  IND d   1       1.295   2.132   0.371  0.00  0.00    -0.096 A 
ATOM     10  HN1 IND d   1       0.182  -0.229   1.986  0.00  0.00     0.298 HD
ENDROOT
TORSDOF 0
ENDMDL
