MODEL 1
REMARK minimizedAffinity -4.55244446
REMARK minimizedRMSD -1
REMARK  1 active torsions:
REMARK  status: ('A' for Active; 'I' for Inactive)
REMARK    1  A    between atoms: C3_4  and  O_7 
ROOT
ATOM      1  C   UNL d   1       0.644  -0.873   0.529  0.00  0.00    -0.033 A 
ATOM      2  C1  UNL d   1       2.037  -0.882   0.438  0.00  0.00     0.039 A 
ATOM      3  C2  UNL d   1       2.720  -2.088   0.265  0.00  0.00    -0.080 A 
ATOM      4  C3  UNL d   1       1.998  -3.275   0.183  0.00  0.00     0.150 A 
ATOM      5  C4  UNL d   1       0.610  -3.274   0.269  0.00  0.00    -0.007 A 
ATOM      6  C5  UNL d   1      -0.070  -2.069   0.443  0.00  0.00     0.039 A 
ENDROOT
BRANCH   4   7
ATOM      7  O   UNL d   1       2.621  -4.477   0.020  0.00  0.00    -0.526 OA
ATOM      8  H5  UNL d   1       3.581  -4.327   0.005  0.00  0.00     0.418 HD
ENDBRANCH   4   7
TORSDOF 1
ENDMDL
