MODEL 1
REMARK minimizedAffinity -2.96400023
REMARK minimizedRMSD -1
REMARK  1 active torsions:
REMARK  status: ('A' for Active; 'I' for Inactive)
REMARK    1  A    between atoms: C3_4  and  O_7 
ROOT
ATOM      1  C   UNL d   1       0.240  -1.704   0.612  0.00  0.00    -0.033 A 
ATOM      2  C1  UNL d   1       1.495  -1.098   0.706  0.00  0.00     0.039 A 
ATOM      3  C2  UNL d   1       2.646  -1.816   0.375  0.00  0.00    -0.080 A 
ATOM      4  C3  UNL d   1       2.529  -3.137  -0.049  0.00  0.00     0.150 A 
ATOM      5  C4  UNL d   1       1.282  -3.746  -0.148  0.00  0.00    -0.007 A 
ATOM      6  C5  UNL d   1       0.134  -3.027   0.183  0.00  0.00     0.039 A 
ENDROOT
BRANCH   4   7
ATOM      7  O   UNL d   1       3.624  -3.880  -0.378  0.00  0.00    -0.526 OA
ATOM      8  H5  UNL d   1       4.417  -3.338  -0.233  0.00  0.00     0.418 HD
ENDBRANCH   4   7
TORSDOF 1
ENDMDL
