MODEL 1
REMARK minimizedAffinity -5.30613184
REMARK minimizedRMSD -1
REMARK  1 active torsions:
REMARK  status: ('A' for Active; 'I' for Inactive)
REMARK    1  A    between atoms: C3_4  and  O_7 
ROOT
ATOM      1  C   UNL d   1       2.852  -3.372   0.059  0.00  0.00    -0.033 A 
ATOM      2  C1  UNL d   1       2.862  -2.000   0.319  0.00  0.00     0.039 A 
ATOM      3  C2  UNL d   1       1.683  -1.260   0.220  0.00  0.00    -0.080 A 
ATOM      4  C3  UNL d   1       0.501  -1.903  -0.139  0.00  0.00     0.150 A 
ATOM      5  C4  UNL d   1       0.483  -3.270  -0.397  0.00  0.00    -0.007 A 
ATOM      6  C5  UNL d   1       1.662  -4.007  -0.298  0.00  0.00     0.039 A 
ENDROOT
BRANCH   4   7
ATOM      7  O   UNL d   1      -0.674  -1.222  -0.254  0.00  0.00    -0.526 OA
ATOM      8  H5  UNL d   1      -0.504  -0.282  -0.075  0.00  0.00     0.418 HD
ENDBRANCH   4   7
TORSDOF 1
ENDMDL
