MODEL 1
REMARK minimizedAffinity -3.08116436
REMARK minimizedRMSD -1
REMARK  1 active torsions:
REMARK  status: ('A' for Active; 'I' for Inactive)
REMARK    1  A    between atoms: C3_4  and  O_7 
ROOT
ATOM      1  C   UNL d   1       1.090   0.057   0.686  0.00  0.00    -0.033 A 
ATOM      2  C1  UNL d   1       2.256  -0.552   0.219  0.00  0.00     0.039 A 
ATOM      3  C2  UNL d   1       2.275  -1.926  -0.034  0.00  0.00    -0.080 A 
ATOM      4  C3  UNL d   1       1.122  -2.676   0.183  0.00  0.00     0.150 A 
ATOM      5  C4  UNL d   1      -0.044  -2.075   0.645  0.00  0.00    -0.007 A 
ATOM      6  C5  UNL d   1      -0.060  -0.704   0.898  0.00  0.00     0.039 A 
ENDROOT
BRANCH   4   7
ATOM      7  O   UNL d   1       1.094  -4.020  -0.045  0.00  0.00    -0.526 OA
ATOM      8  H5  UNL d   1       1.978  -4.302  -0.333  0.00  0.00     0.418 HD
ENDBRANCH   4   7
TORSDOF 1
ENDMDL
