MODEL 1
REMARK minimizedAffinity -3.48585963
REMARK minimizedRMSD -1
REMARK  1 active torsions:
REMARK  status: ('A' for Active; 'I' for Inactive)
REMARK    1  A    between atoms: C3_4  and  O_7 
ROOT
ATOM      1  C   UNL d   1       2.230  -2.797  -0.072  0.00  0.00    -0.033 A 
ATOM      2  C1  UNL d   1       1.425  -3.415   0.887  0.00  0.00     0.039 A 
ATOM      3  C2  UNL d   1       0.432  -2.685   1.542  0.00  0.00    -0.080 A 
ATOM      4  C3  UNL d   1       0.254  -1.340   1.230  0.00  0.00     0.150 A 
ATOM      5  C4  UNL d   1       1.050  -0.719   0.273  0.00  0.00    -0.007 A 
ATOM      6  C5  UNL d   1       2.042  -1.450  -0.380  0.00  0.00     0.039 A 
ENDROOT
BRANCH   4   7
ATOM      7  O   UNL d   1      -0.700  -0.585   1.847  0.00  0.00    -0.526 OA
ATOM      8  H5  UNL d   1      -1.153  -1.139   2.504  0.00  0.00     0.418 HD
ENDBRANCH   4   7
TORSDOF 1
ENDMDL
