MODEL 1
REMARK minimizedAffinity -3.22107697
REMARK minimizedRMSD -1
REMARK  1 active torsions:
REMARK  status: ('A' for Active; 'I' for Inactive)
REMARK    1  A    between atoms: C3_4  and  O_7 
ROOT
ATOM      1  C   UNL d   1       1.550  -0.756   0.364  0.00  0.00    -0.033 A 
ATOM      2  C1  UNL d   1       0.209  -0.515   0.668  0.00  0.00     0.039 A 
ATOM      3  C2  UNL d   1      -0.704  -1.571   0.693  0.00  0.00    -0.080 A 
ATOM      4  C3  UNL d   1      -0.263  -2.862   0.413  0.00  0.00     0.150 A 
ATOM      5  C4  UNL d   1       1.072  -3.110   0.114  0.00  0.00    -0.007 A 
ATOM      6  C5  UNL d   1       1.982  -2.054   0.088  0.00  0.00     0.039 A 
ENDROOT
BRANCH   4   7
ATOM      7  O   UNL d   1      -1.118  -3.924   0.421  0.00  0.00    -0.526 OA
ATOM      8  H5  UNL d   1      -2.012  -3.598   0.615  0.00  0.00     0.418 HD
ENDBRANCH   4   7
TORSDOF 1
ENDMDL
