MODEL 1
REMARK minimizedAffinity -5.23098087
REMARK minimizedRMSD -1
REMARK  1 active torsions:
REMARK  status: ('A' for Active; 'I' for Inactive)
REMARK    1  A    between atoms: C3_4  and  O_7 
ROOT
ATOM      1  C   UNL d   1       0.365  -0.983   0.972  0.00  0.00    -0.033 A 
ATOM      2  C1  UNL d   1       0.124  -2.358   0.962  0.00  0.00     0.039 A 
ATOM      3  C2  UNL d   1       1.133  -3.243   0.577  0.00  0.00    -0.080 A 
ATOM      4  C3  UNL d   1       2.377  -2.740   0.206  0.00  0.00     0.150 A 
ATOM      5  C4  UNL d   1       2.625  -1.372   0.218  0.00  0.00    -0.007 A 
ATOM      6  C5  UNL d   1       1.616  -0.490   0.601  0.00  0.00     0.039 A 
ENDROOT
BRANCH   4   7
ATOM      7  O   UNL d   1       3.392  -3.564  -0.181  0.00  0.00    -0.526 OA
ATOM      8  H5  UNL d   1       3.067  -4.480  -0.168  0.00  0.00     0.418 HD
ENDBRANCH   4   7
TORSDOF 1
ENDMDL
