MODEL 1
REMARK minimizedAffinity -3.75269866
REMARK minimizedRMSD -1
REMARK  1 active torsions:
REMARK  status: ('A' for Active; 'I' for Inactive)
REMARK    1  A    between atoms: C3_4  and  O_7 
ROOT
ATOM      1  C   UNL d   1       0.403  -0.814   0.804  0.00  0.00    -0.033 A 
ATOM      2  C1  UNL d   1       0.049  -2.119   0.454  0.00  0.00     0.039 A 
ATOM      3  C2  UNL d   1       1.029  -3.024   0.043  0.00  0.00    -0.080 A 
ATOM      4  C3  UNL d   1       2.358  -2.613  -0.014  0.00  0.00     0.150 A 
ATOM      5  C4  UNL d   1       2.718  -1.316   0.337  0.00  0.00    -0.007 A 
ATOM      6  C5  UNL d   1       1.738  -0.413   0.747  0.00  0.00     0.039 A 
ENDROOT
BRANCH   4   7
ATOM      7  O   UNL d   1       3.349  -3.459  -0.414  0.00  0.00    -0.526 OA
ATOM      8  H5  UNL d   1       2.949  -4.311  -0.653  0.00  0.00     0.418 HD
ENDBRANCH   4   7
TORSDOF 1
ENDMDL
