MODEL 1
REMARK minimizedAffinity -0.845497727
REMARK minimizedRMSD -1
REMARK  1 active torsions:
REMARK  status: ('A' for Active; 'I' for Inactive)
REMARK    1  A    between atoms: C3_4  and  O_7 
ROOT
ATOM      1  C   UNL d   1       0.330  -0.037   0.868  0.00  0.00    -0.033 A 
ATOM      2  C1  UNL d   1      -0.660  -0.977   0.577  0.00  0.00     0.039 A 
ATOM      3  C2  UNL d   1      -0.377  -2.342   0.666  0.00  0.00    -0.080 A 
ATOM      4  C3  UNL d   1       0.898  -2.751   1.047  0.00  0.00     0.150 A 
ATOM      5  C4  UNL d   1       1.888  -1.819   1.343  0.00  0.00    -0.007 A 
ATOM      6  C5  UNL d   1       1.603  -0.458   1.252  0.00  0.00     0.039 A 
ENDROOT
BRANCH   4   7
ATOM      7  O   UNL d   1       1.223  -4.072   1.144  0.00  0.00    -0.526 OA
ATOM      8  H5  UNL d   1       0.450  -4.599   0.882  0.00  0.00     0.418 HD
ENDBRANCH   4   7
TORSDOF 1
ENDMDL
