MODEL 1
REMARK minimizedAffinity 0.157886595
REMARK minimizedRMSD -1
REMARK  1 active torsions:
REMARK  status: ('A' for Active; 'I' for Inactive)
REMARK    1  A    between atoms: C3_4  and  O_7 
ROOT
ATOM      1  C   UNL d   1      -0.137  -0.063   1.098  0.00  0.00    -0.033 A 
ATOM      2  C1  UNL d   1       1.202  -0.378   1.336  0.00  0.00     0.039 A 
ATOM      3  C2  UNL d   1       1.702  -1.631   0.973  0.00  0.00    -0.080 A 
ATOM      4  C3  UNL d   1       0.853  -2.557   0.373  0.00  0.00     0.150 A 
ATOM      5  C4  UNL d   1      -0.481  -2.248   0.129  0.00  0.00    -0.007 A 
ATOM      6  C5  UNL d   1      -0.978  -0.998   0.493  0.00  0.00     0.039 A 
ENDROOT
BRANCH   4   7
ATOM      7  O   UNL d   1       1.294  -3.794   0.006  0.00  0.00    -0.526 OA
ATOM      8  H5  UNL d   1       2.228  -3.876   0.262  0.00  0.00     0.418 HD
ENDBRANCH   4   7
TORSDOF 1
ENDMDL
