MODEL 1
REMARK minimizedAffinity -0.566460907
REMARK minimizedRMSD -1
REMARK  1 active torsions:
REMARK  status: ('A' for Active; 'I' for Inactive)
REMARK    1  A    between atoms: C3_4  and  O_7 
ROOT
ATOM      1  C   UNL d   1      -0.069  -0.575   1.035  0.00  0.00    -0.033 A 
ATOM      2  C1  UNL d   1      -0.803  -1.554   0.362  0.00  0.00     0.039 A 
ATOM      3  C2  UNL d   1      -0.214  -2.781   0.053  0.00  0.00    -0.080 A 
ATOM      4  C3  UNL d   1       1.108  -3.018   0.423  0.00  0.00     0.150 A 
ATOM      5  C4  UNL d   1       1.843  -2.048   1.097  0.00  0.00    -0.007 A 
ATOM      6  C5  UNL d   1       1.254  -0.823   1.404  0.00  0.00     0.039 A 
ENDROOT
BRANCH   4   7
ATOM      7  O   UNL d   1       1.727  -4.198   0.139  0.00  0.00    -0.526 OA
ATOM      8  H5  UNL d   1       1.106  -4.760  -0.355  0.00  0.00     0.418 HD
ENDBRANCH   4   7
TORSDOF 1
ENDMDL
