MODEL 1
REMARK minimizedAffinity -2.90279603
REMARK minimizedRMSD -1
REMARK  1 active torsions:
REMARK  status: ('A' for Active; 'I' for Inactive)
REMARK    1  A    between atoms: C3_4  and  O_7 
ROOT
ATOM      1  C   UNL d   1       0.741  -1.333   0.375  0.00  0.00    -0.033 A 
ATOM      2  C1  UNL d   1       2.112  -1.078   0.444  0.00  0.00     0.039 A 
ATOM      3  C2  UNL d   1       3.027  -2.122   0.288  0.00  0.00    -0.080 A 
ATOM      4  C3  UNL d   1       2.558  -3.413   0.064  0.00  0.00     0.150 A 
ATOM      5  C4  UNL d   1       1.193  -3.673  -0.009  0.00  0.00    -0.007 A 
ATOM      6  C5  UNL d   1       0.282  -2.630   0.147  0.00  0.00     0.039 A 
ENDROOT
BRANCH   4   7
ATOM      7  O   UNL d   1       3.412  -4.465  -0.088  0.00  0.00    -0.526 OA
ATOM      8  H5  UNL d   1       4.322  -4.140   0.015  0.00  0.00     0.418 HD
ENDBRANCH   4   7
TORSDOF 1
ENDMDL
