MODEL 1
REMARK minimizedAffinity -5.11813927
REMARK minimizedRMSD -1
REMARK  1 active torsions:
REMARK  status: ('A' for Active; 'I' for Inactive)
REMARK    1  A    between atoms: C3_4  and  O_7 
ROOT
ATOM      1  C   UNL d   1       0.187  -0.749   0.920  0.00  0.00    -0.033 A 
ATOM      2  C1  UNL d   1       1.520  -0.496   0.590  0.00  0.00     0.039 A 
ATOM      3  C2  UNL d   1       2.369  -1.550   0.249  0.00  0.00    -0.080 A 
ATOM      4  C3  UNL d   1       1.873  -2.851   0.241  0.00  0.00     0.150 A 
ATOM      5  C4  UNL d   1       0.546  -3.110   0.564  0.00  0.00    -0.007 A 
ATOM      6  C5  UNL d   1      -0.301  -2.056   0.906  0.00  0.00     0.039 A 
ENDROOT
BRANCH   4   7
ATOM      7  O   UNL d   1       2.665  -3.913  -0.081  0.00  0.00    -0.526 OA
ATOM      8  H5  UNL d   1       3.564  -3.586  -0.254  0.00  0.00     0.418 HD
ENDBRANCH   4   7
TORSDOF 1
ENDMDL
