MODEL 1
REMARK minimizedAffinity -2.9199698
REMARK minimizedRMSD -1
REMARK  1 active torsions:
REMARK  status: ('A' for Active; 'I' for Inactive)
REMARK    1  A    between atoms: C3_4  and  O_7 
ROOT
ATOM      1  C   UNL d   1      -0.017  -0.705   0.805  0.00  0.00    -0.033 A 
ATOM      2  C1  UNL d   1       1.179  -0.753   0.086  0.00  0.00     0.039 A 
ATOM      3  C2  UNL d   1       1.812  -1.978  -0.136  0.00  0.00    -0.080 A 
ATOM      4  C3  UNL d   1       1.241  -3.144   0.365  0.00  0.00     0.150 A 
ATOM      5  C4  UNL d   1       0.048  -3.103   1.079  0.00  0.00    -0.007 A 
ATOM      6  C5  UNL d   1      -0.583  -1.880   1.301  0.00  0.00     0.039 A 
ENDROOT
BRANCH   4   7
ATOM      7  O   UNL d   1       1.825  -4.361   0.177  0.00  0.00    -0.526 OA
ATOM      8  H5  UNL d   1       2.657  -4.232  -0.308  0.00  0.00     0.418 HD
ENDBRANCH   4   7
TORSDOF 1
ENDMDL
