MODEL 1
REMARK minimizedAffinity 7.57897377
REMARK minimizedRMSD -1
REMARK  1 active torsions:
REMARK  status: ('A' for Active; 'I' for Inactive)
REMARK    1  A    between atoms: N_2  and  C1_3 
ROOT
ATOM      1  C1  UNL d   1      -0.664  -2.408  -1.076  0.00  0.00     0.143 A 
ATOM      2  C2  UNL d   1      -0.184  -3.606  -0.536  0.00  0.00    -0.057 A 
ATOM      3  C3  UNL d   1      -0.392  -3.931   0.809  0.00  0.00     0.033 A 
ATOM      4  C4  UNL d   1      -1.063  -3.048   1.649  0.00  0.00    -0.042 A 
ATOM      5  C5  UNL d   1      -1.527  -1.840   1.140  0.00  0.00     0.033 A 
ATOM      6  C6  UNL d   1      -1.322  -1.524  -0.206  0.00  0.00    -0.057 A 
ENDROOT
BRANCH   1   7
ATOM      7  N   UNL d   1      -0.403  -1.983  -2.381  0.00  0.00    -0.732 N 
ATOM      8  C   UNL d   1      -0.798  -2.793  -3.513  0.00  0.00     0.284 C 
ATOM      9  H3  UNL d   1      -0.569  -0.987  -2.506  0.00  0.00     0.395 HD
ENDBRANCH   1   7
TORSDOF 1
ENDMDL
