MODEL 1
REMARK minimizedAffinity 3.41129661
REMARK minimizedRMSD -1
REMARK  1 active torsions:
REMARK  status: ('A' for Active; 'I' for Inactive)
REMARK    1  A    between atoms: N_2  and  C1_3 
ROOT
ATOM      1  C1  UNL d   1       4.915  -3.482   5.276  0.00  0.00     0.143 A 
ATOM      2  C2  UNL d   1       4.645  -2.315   5.999  0.00  0.00    -0.057 A 
ATOM      3  C3  UNL d   1       3.621  -1.442   5.611  0.00  0.00     0.033 A 
ATOM      4  C4  UNL d   1       2.866  -1.706   4.473  0.00  0.00    -0.042 A 
ATOM      5  C5  UNL d   1       3.134  -2.847   3.725  0.00  0.00     0.033 A 
ATOM      6  C6  UNL d   1       4.153  -3.719   4.121  0.00  0.00    -0.057 A 
ENDROOT
BRANCH   1   7
ATOM      7  N   UNL d   1       5.983  -4.339   5.554  0.00  0.00    -0.732 N 
ATOM      8  C   UNL d   1       5.744  -5.694   5.999  0.00  0.00     0.284 C 
ATOM      9  H3  UNL d   1       6.738  -4.251   4.877  0.00  0.00     0.395 HD
ENDBRANCH   1   7
TORSDOF 1
ENDMDL
