MODEL 1
REMARK minimizedAffinity 14.1749706
REMARK minimizedRMSD -1
REMARK  1 active torsions:
REMARK  status: ('A' for Active; 'I' for Inactive)
REMARK    1  A    between atoms: N_2  and  C1_3 
ROOT
ATOM      1  C1  UNL d   1       2.915  -2.333  -1.967  0.00  0.00     0.143 A 
ATOM      2  C2  UNL d   1       2.990  -3.188  -3.072  0.00  0.00    -0.057 A 
ATOM      3  C3  UNL d   1       1.840  -3.571  -3.772  0.00  0.00     0.033 A 
ATOM      4  C4  UNL d   1       0.587  -3.127  -3.361  0.00  0.00    -0.042 A 
ATOM      5  C5  UNL d   1       0.487  -2.297  -2.250  0.00  0.00     0.033 A 
ATOM      6  C6  UNL d   1       1.640  -1.913  -1.559  0.00  0.00    -0.057 A 
ENDROOT
BRANCH   1   7
ATOM      7  N   UNL d   1       4.012  -1.995  -1.169  0.00  0.00    -0.732 N 
ATOM      8  C   UNL d   1       3.975  -2.206   0.262  0.00  0.00     0.284 C 
ATOM      9  H3  UNL d   1       4.898  -2.243  -1.603  0.00  0.00     0.395 HD
ENDBRANCH   1   7
TORSDOF 1
ENDMDL
