MODEL 1
REMARK minimizedAffinity 7.06616211
REMARK minimizedRMSD -1
REMARK  1 active torsions:
REMARK  status: ('A' for Active; 'I' for Inactive)
REMARK    1  A    between atoms: N_2  and  C1_3 
ROOT
ATOM      1  C1  UNL d   1      -0.963  -2.580  -0.683  0.00  0.00     0.143 A 
ATOM      2  C2  UNL d   1       0.265  -2.297  -1.290  0.00  0.00    -0.057 A 
ATOM      3  C3  UNL d   1       0.469  -2.524  -2.656  0.00  0.00     0.033 A 
ATOM      4  C4  UNL d   1      -0.546  -3.068  -3.436  0.00  0.00    -0.042 A 
ATOM      5  C5  UNL d   1      -1.767  -3.380  -2.849  0.00  0.00     0.033 A 
ATOM      6  C6  UNL d   1      -1.967  -3.145  -1.485  0.00  0.00    -0.057 A 
ENDROOT
BRANCH   1   7
ATOM      7  N   UNL d   1      -1.196  -2.468   0.690  0.00  0.00    -0.732 N 
ATOM      8  C   UNL d   1      -2.540  -2.288   1.198  0.00  0.00     0.284 C 
ATOM      9  H3  UNL d   1      -0.630  -3.115   1.234  0.00  0.00     0.395 HD
ENDBRANCH   1   7
TORSDOF 1
ENDMDL
