MODEL 1
REMARK minimizedAffinity 11.1070957
REMARK minimizedRMSD -1
REMARK  1 active torsions:
REMARK  status: ('A' for Active; 'I' for Inactive)
REMARK    1  A    between atoms: N_2  and  C1_3 
ROOT
ATOM      1  C1  UNL d   1       5.020  -3.329   5.256  0.00  0.00     0.143 A 
ATOM      2  C2  UNL d   1       4.503  -3.725   4.018  0.00  0.00    -0.057 A 
ATOM      3  C3  UNL d   1       3.520  -2.972   3.367  0.00  0.00     0.033 A 
ATOM      4  C4  UNL d   1       3.012  -1.820   3.959  0.00  0.00    -0.042 A 
ATOM      5  C5  UNL d   1       3.492  -1.421   5.201  0.00  0.00     0.033 A 
ATOM      6  C6  UNL d   1       4.480  -2.174   5.843  0.00  0.00    -0.057 A 
ENDROOT
BRANCH   1   7
ATOM      7  N   UNL d   1       5.927  -4.088   6.000  0.00  0.00    -0.732 N 
ATOM      8  C   UNL d   1       5.873  -5.534   5.975  0.00  0.00     0.284 C 
ATOM      9  H3  UNL d   1       6.870  -3.707   5.967  0.00  0.00     0.395 HD
ENDBRANCH   1   7
TORSDOF 1
ENDMDL
