MODEL 1
REMARK minimizedAffinity 3.64126515
REMARK minimizedRMSD -1
REMARK  1 active torsions:
REMARK  status: ('A' for Active; 'I' for Inactive)
REMARK    1  A    between atoms: N_2  and  C1_3 
ROOT
ATOM      1  C1  UNL d   1      -0.294  -3.006  -0.972  0.00  0.00     0.143 A 
ATOM      2  C2  UNL d   1      -0.046  -4.258  -1.546  0.00  0.00    -0.057 A 
ATOM      3  C3  UNL d   1      -0.028  -4.429  -2.935  0.00  0.00     0.033 A 
ATOM      4  C4  UNL d   1      -0.289  -3.353  -3.778  0.00  0.00    -0.042 A 
ATOM      5  C5  UNL d   1      -0.563  -2.105  -3.229  0.00  0.00     0.033 A 
ATOM      6  C6  UNL d   1      -0.572  -1.940  -1.841  0.00  0.00    -0.057 A 
ENDROOT
BRANCH   1   7
ATOM      7  N   UNL d   1      -0.423  -2.793   0.403  0.00  0.00    -0.732 N 
ATOM      8  C   UNL d   1      -1.670  -2.316   0.961  0.00  0.00     0.284 C 
ATOM      9  H3  UNL d   1       0.028  -3.520   0.953  0.00  0.00     0.395 HD
ENDBRANCH   1   7
TORSDOF 1
ENDMDL
