MODEL 1
REMARK minimizedAffinity 4.87555456
REMARK minimizedRMSD -1
REMARK  1 active torsions:
REMARK  status: ('A' for Active; 'I' for Inactive)
REMARK    1  A    between atoms: N_2  and  C1_3 
ROOT
ATOM      1  C1  UNL d   1      -1.609  -2.576  -0.365  0.00  0.00     0.143 A 
ATOM      2  C2  UNL d   1      -2.227  -2.731  -1.610  0.00  0.00    -0.057 A 
ATOM      3  C3  UNL d   1      -1.482  -2.731  -2.796  0.00  0.00     0.033 A 
ATOM      4  C4  UNL d   1      -0.104  -2.547  -2.758  0.00  0.00    -0.042 A 
ATOM      5  C5  UNL d   1       0.529  -2.366  -1.533  0.00  0.00     0.033 A 
ATOM      6  C6  UNL d   1      -0.220  -2.374  -0.352  0.00  0.00    -0.057 A 
ENDROOT
BRANCH   1   7
ATOM      7  N   UNL d   1      -2.306  -2.468   0.841  0.00  0.00    -0.732 N 
ATOM      8  C   UNL d   1      -3.750  -2.380   0.853  0.00  0.00     0.284 C 
ATOM      9  H3  UNL d   1      -1.921  -3.068   1.567  0.00  0.00     0.395 HD
ENDBRANCH   1   7
TORSDOF 1
ENDMDL
