MODEL 1
REMARK minimizedAffinity 5.65256071
REMARK minimizedRMSD -1
REMARK  1 active torsions:
REMARK  status: ('A' for Active; 'I' for Inactive)
REMARK    1  A    between atoms: N_2  and  C1_3 
ROOT
ATOM      1  C1  UNL d   1       1.783  -4.142  -4.832  0.00  0.00     0.143 A 
ATOM      2  C2  UNL d   1       0.923  -4.388  -5.908  0.00  0.00    -0.057 A 
ATOM      3  C3  UNL d   1      -0.439  -4.072  -5.835  0.00  0.00     0.033 A 
ATOM      4  C4  UNL d   1      -0.972  -3.530  -4.671  0.00  0.00    -0.042 A 
ATOM      5  C5  UNL d   1      -0.141  -3.301  -3.580  0.00  0.00     0.033 A 
ATOM      6  C6  UNL d   1       1.220  -3.612  -3.661  0.00  0.00    -0.057 A 
ENDROOT
BRANCH   1   7
ATOM      7  N   UNL d   1       3.127  -4.524  -4.807  0.00  0.00    -0.732 N 
ATOM      8  C   UNL d   1       3.592  -5.521  -3.867  0.00  0.00     0.284 C 
ATOM      9  H3  UNL d   1       3.521  -4.617  -5.741  0.00  0.00     0.395 HD
ENDBRANCH   1   7
TORSDOF 1
ENDMDL
