MODEL 1
REMARK minimizedAffinity 2.75371599
REMARK minimizedRMSD -1
REMARK  1 active torsions:
REMARK  status: ('A' for Active; 'I' for Inactive)
REMARK    1  A    between atoms: N_2  and  C1_3 
ROOT
ATOM      1  C1  UNL d   1      -0.792  -2.520  -1.202  0.00  0.00     0.143 A 
ATOM      2  C2  UNL d   1       0.130  -3.177  -0.380  0.00  0.00    -0.057 A 
ATOM      3  C3  UNL d   1      -0.051  -3.243   1.006  0.00  0.00     0.033 A 
ATOM      4  C4  UNL d   1      -1.147  -2.626   1.601  0.00  0.00    -0.042 A 
ATOM      5  C5  UNL d   1      -2.063  -1.946   0.806  0.00  0.00     0.033 A 
ATOM      6  C6  UNL d   1      -1.880  -1.889  -0.579  0.00  0.00    -0.057 A 
ENDROOT
BRANCH   1   7
ATOM      7  N   UNL d   1      -0.616  -2.335  -2.576  0.00  0.00    -0.732 N 
ATOM      8  C   UNL d   1      -1.399  -3.094  -3.528  0.00  0.00     0.284 C 
ATOM      9  H3  UNL d   1      -0.495  -1.356  -2.824  0.00  0.00     0.395 HD
ENDBRANCH   1   7
TORSDOF 1
ENDMDL
