MODEL 1
REMARK minimizedAffinity 8.13443375
REMARK minimizedRMSD -1
REMARK  1 active torsions:
REMARK  status: ('A' for Active; 'I' for Inactive)
REMARK    1  A    between atoms: N_2  and  C1_3 
ROOT
ATOM      1  C1  UNL d   1       0.656  -3.276  -3.554  0.00  0.00     0.143 A 
ATOM      2  C2  UNL d   1      -0.721  -3.066  -3.681  0.00  0.00    -0.057 A 
ATOM      3  C3  UNL d   1      -1.511  -2.740  -2.571  0.00  0.00     0.033 A 
ATOM      4  C4  UNL d   1      -0.940  -2.647  -1.307  0.00  0.00    -0.042 A 
ATOM      5  C5  UNL d   1       0.422  -2.876  -1.153  0.00  0.00     0.033 A 
ATOM      6  C6  UNL d   1       1.207  -3.194  -2.266  0.00  0.00    -0.057 A 
ENDROOT
BRANCH   1   7
ATOM      7  N   UNL d   1       1.478  -3.699  -4.601  0.00  0.00    -0.732 N 
ATOM      8  C   UNL d   1       2.915  -3.745  -4.438  0.00  0.00     0.284 C 
ATOM      9  H3  UNL d   1       1.090  -4.495  -5.102  0.00  0.00     0.395 HD
ENDBRANCH   1   7
TORSDOF 1
ENDMDL
