MODEL 1
REMARK minimizedAffinity 3.67637777
REMARK minimizedRMSD -1
REMARK  1 active torsions:
REMARK  status: ('A' for Active; 'I' for Inactive)
REMARK    1  A    between atoms: N_2  and  C1_3 
ROOT
ATOM      1  C1  UNL d   1      -1.907  -2.218  -0.482  0.00  0.00     0.143 A 
ATOM      2  C2  UNL d   1      -2.644  -2.532  -1.629  0.00  0.00    -0.057 A 
ATOM      3  C3  UNL d   1      -2.018  -2.705  -2.869  0.00  0.00     0.033 A 
ATOM      4  C4  UNL d   1      -0.642  -2.537  -2.990  0.00  0.00    -0.042 A 
ATOM      5  C5  UNL d   1       0.107  -2.200  -1.868  0.00  0.00     0.033 A 
ATOM      6  C6  UNL d   1      -0.523  -2.035  -0.631  0.00  0.00    -0.057 A 
ENDROOT
BRANCH   1   7
ATOM      7  N   UNL d   1      -2.483  -1.936   0.760  0.00  0.00    -0.732 N 
ATOM      8  C   UNL d   1      -3.888  -2.194   0.996  0.00  0.00     0.284 C 
ATOM      9  H3  UNL d   1      -1.877  -2.192   1.536  0.00  0.00     0.395 HD
ENDBRANCH   1   7
TORSDOF 1
ENDMDL
