MODEL 1
REMARK minimizedAffinity 7.94345284
REMARK minimizedRMSD -1
REMARK  1 active torsions:
REMARK  status: ('A' for Active; 'I' for Inactive)
REMARK    1  A    between atoms: N_2  and  C1_3 
ROOT
ATOM      1  C1  UNL d   1      -3.331   0.713   5.805  0.00  0.00     0.143 A 
ATOM      2  C2  UNL d   1      -3.231   2.108   5.771  0.00  0.00    -0.057 A 
ATOM      3  C3  UNL d   1      -4.366   2.920   5.877  0.00  0.00     0.033 A 
ATOM      4  C4  UNL d   1      -5.629   2.349   5.990  0.00  0.00    -0.042 A 
ATOM      5  C5  UNL d   1      -5.755   0.965   6.000  0.00  0.00     0.033 A 
ATOM      6  C6  UNL d   1      -4.617   0.159   5.901  0.00  0.00    -0.057 A 
ENDROOT
BRANCH   1   7
ATOM      7  N   UNL d   1      -2.250  -0.150   5.606  0.00  0.00    -0.732 N 
ATOM      8  C   UNL d   1      -2.469  -1.538   5.261  0.00  0.00     0.284 C 
ATOM      9  H3  UNL d   1      -1.491   0.292   5.092  0.00  0.00     0.395 HD
ENDBRANCH   1   7
TORSDOF 1
ENDMDL
