MODEL 1
REMARK minimizedAffinity 9.83024025
REMARK minimizedRMSD -1
REMARK  1 active torsions:
REMARK  status: ('A' for Active; 'I' for Inactive)
REMARK    1  A    between atoms: N_2  and  C1_3 
ROOT
ATOM      1  C1  UNL d   1      -1.237  -3.109  -3.223  0.00  0.00     0.143 A 
ATOM      2  C2  UNL d   1      -2.047  -2.540  -2.235  0.00  0.00    -0.057 A 
ATOM      3  C3  UNL d   1      -1.526  -2.180  -0.987  0.00  0.00     0.033 A 
ATOM      4  C4  UNL d   1      -0.186  -2.412  -0.693  0.00  0.00    -0.042 A 
ATOM      5  C5  UNL d   1       0.632  -3.000  -1.651  0.00  0.00     0.033 A 
ATOM      6  C6  UNL d   1       0.107  -3.350  -2.898  0.00  0.00    -0.057 A 
ENDROOT
BRANCH   1   7
ATOM      7  N   UNL d   1      -1.718  -3.578  -4.448  0.00  0.00    -0.732 N 
ATOM      8  C   UNL d   1      -0.874  -3.568  -5.624  0.00  0.00     0.284 C 
ATOM      9  H3  UNL d   1      -2.281  -4.420  -4.348  0.00  0.00     0.395 HD
ENDBRANCH   1   7
TORSDOF 1
ENDMDL
