MODEL 1
REMARK minimizedAffinity -2.72169495
REMARK minimizedRMSD -1
REMARK  0 active torsions:
REMARK  status: ('A' for Active; 'I' for Inactive)
ROOT
ATOM      1  C   UNL d   1       2.397  -1.889  -1.975  0.00  0.00     0.077 C 
ATOM      2  C1  UNL d   1       1.337  -1.596  -0.955  0.00  0.00    -0.074 A 
ATOM      3  C2  UNL d   1       1.158  -2.429   0.154  0.00  0.00    -0.005 A 
ATOM      4  C3  UNL d   1       0.174  -2.138   1.099  0.00  0.00     0.006 A 
ATOM      5  C4  UNL d   1      -0.639  -1.014   0.944  0.00  0.00    -0.005 A 
ATOM      6  C5  UNL d   1      -0.474  -0.170  -0.158  0.00  0.00    -0.074 A 
ATOM      7  C6  UNL d   1      -1.332   1.047  -0.335  0.00  0.00     0.077 C 
ATOM      8  C7  UNL d   1       0.522  -0.465  -1.100  0.00  0.00    -0.001 A 
ENDROOT
TORSDOF 0
ENDMDL
