MODEL 1
REMARK minimizedAffinity -4.44178629
REMARK minimizedRMSD -1
REMARK  0 active torsions:
REMARK  status: ('A' for Active; 'I' for Inactive)
ROOT
ATOM      1  C   UNL d   1       4.518  -1.009   0.648  0.00  0.00     0.077 C 
ATOM      2  C1  UNL d   1       3.151  -0.393   0.686  0.00  0.00    -0.074 A 
ATOM      3  C2  UNL d   1       2.954   0.886   1.216  0.00  0.00    -0.005 A 
ATOM      4  C3  UNL d   1       1.678   1.451   1.236  0.00  0.00     0.006 A 
ATOM      5  C4  UNL d   1       0.589   0.743   0.727  0.00  0.00    -0.005 A 
ATOM      6  C5  UNL d   1       0.767  -0.537   0.192  0.00  0.00    -0.074 A 
ATOM      7  C6  UNL d   1      -0.392  -1.308  -0.368  0.00  0.00     0.077 C 
ATOM      8  C7  UNL d   1       2.053  -1.094   0.169  0.00  0.00    -0.001 A 
ENDROOT
TORSDOF 0
ENDMDL
