MODEL 1
REMARK minimizedAffinity -3.33324099
REMARK minimizedRMSD -1
REMARK  0 active torsions:
REMARK  status: ('A' for Active; 'I' for Inactive)
ROOT
ATOM      1  C   UNL d   1      -1.791  -1.475   0.694  0.00  0.00     0.077 C 
ATOM      2  C1  UNL d   1      -0.928  -0.272   0.452  0.00  0.00    -0.074 A 
ATOM      3  C2  UNL d   1      -1.418   0.835  -0.248  0.00  0.00    -0.005 A 
ATOM      4  C3  UNL d   1      -0.607   1.950  -0.457  0.00  0.00     0.006 A 
ATOM      5  C4  UNL d   1       0.700   1.969   0.031  0.00  0.00    -0.005 A 
ATOM      6  C5  UNL d   1       1.208   0.872   0.733  0.00  0.00    -0.074 A 
ATOM      7  C6  UNL d   1       2.607   0.880   1.272  0.00  0.00     0.077 C 
ATOM      8  C7  UNL d   1       0.384  -0.242   0.946  0.00  0.00    -0.001 A 
ENDROOT
TORSDOF 0
ENDMDL
