MODEL 1
REMARK minimizedAffinity -5.18467045
REMARK minimizedRMSD -1
REMARK  0 active torsions:
REMARK  status: ('A' for Active; 'I' for Inactive)
ROOT
ATOM      1  C   UNL d   1      -1.653   0.992   0.026  0.00  0.00     0.077 C 
ATOM      2  C1  UNL d   1      -0.497   0.037   0.048  0.00  0.00    -0.074 A 
ATOM      3  C2  UNL d   1      -0.686  -1.326  -0.206  0.00  0.00    -0.005 A 
ATOM      4  C3  UNL d   1       0.400  -2.201  -0.191  0.00  0.00     0.006 A 
ATOM      5  C4  UNL d   1       1.684  -1.723   0.077  0.00  0.00    -0.005 A 
ATOM      6  C5  UNL d   1       1.892  -0.364   0.333  0.00  0.00    -0.074 A 
ATOM      7  C6  UNL d   1       3.266   0.167   0.613  0.00  0.00     0.077 C 
ATOM      8  C7  UNL d   1       0.796   0.510   0.309  0.00  0.00    -0.001 A 
ENDROOT
TORSDOF 0
ENDMDL
