MODEL 1
REMARK minimizedAffinity -5.14879417
REMARK minimizedRMSD -1
REMARK  0 active torsions:
REMARK  status: ('A' for Active; 'I' for Inactive)
ROOT
ATOM      1  C   UNL d   1       0.030  -2.464  -0.395  0.00  0.00     0.077 C 
ATOM      2  C1  UNL d   1       1.024  -1.433   0.053  0.00  0.00    -0.074 A 
ATOM      3  C2  UNL d   1       2.225  -1.810   0.662  0.00  0.00    -0.005 A 
ATOM      4  C3  UNL d   1       3.144  -0.841   1.065  0.00  0.00     0.006 A 
ATOM      5  C4  UNL d   1       2.871   0.512   0.863  0.00  0.00    -0.005 A 
ATOM      6  C5  UNL d   1       1.676   0.908   0.256  0.00  0.00    -0.074 A 
ATOM      7  C6  UNL d   1       1.371   2.358   0.023  0.00  0.00     0.077 C 
ATOM      8  C7  UNL d   1       0.761  -0.072  -0.153  0.00  0.00    -0.001 A 
ENDROOT
TORSDOF 0
ENDMDL
