MODEL 1
REMARK minimizedAffinity -5.39604378
REMARK minimizedRMSD -1
REMARK  0 active torsions:
REMARK  status: ('A' for Active; 'I' for Inactive)
ROOT
ATOM      1  C   UNL d   1       4.050  -0.514   0.765  0.00  0.00     0.077 C 
ATOM      2  C1  UNL d   1       2.709  -0.150   0.200  0.00  0.00    -0.074 A 
ATOM      3  C2  UNL d   1       2.295   1.184   0.133  0.00  0.00    -0.005 A 
ATOM      4  C3  UNL d   1       1.049   1.509  -0.403  0.00  0.00     0.006 A 
ATOM      5  C4  UNL d   1       0.205   0.503  -0.877  0.00  0.00    -0.005 A 
ATOM      6  C5  UNL d   1       0.602  -0.836  -0.819  0.00  0.00    -0.074 A 
ATOM      7  C6  UNL d   1      -0.289  -1.928  -1.333  0.00  0.00     0.077 C 
ATOM      8  C7  UNL d   1       1.858  -1.154  -0.285  0.00  0.00    -0.001 A 
ENDROOT
TORSDOF 0
ENDMDL
