MODEL 1
REMARK minimizedAffinity -4.47553444
REMARK minimizedRMSD -1
REMARK  0 active torsions:
REMARK  status: ('A' for Active; 'I' for Inactive)
ROOT
ATOM      1  C   UNL d   1       3.519  -0.810   0.538  0.00  0.00     0.077 C 
ATOM      2  C1  UNL d   1       2.113  -0.873   0.019  0.00  0.00    -0.074 A 
ATOM      3  C2  UNL d   1       1.749  -1.805  -0.959  0.00  0.00    -0.005 A 
ATOM      4  C3  UNL d   1       0.435  -1.858  -1.424  0.00  0.00     0.006 A 
ATOM      5  C4  UNL d   1      -0.526  -0.982  -0.919  0.00  0.00    -0.005 A 
ATOM      6  C5  UNL d   1      -0.181  -0.045   0.060  0.00  0.00    -0.074 A 
ATOM      7  C6  UNL d   1      -1.204   0.897   0.621  0.00  0.00     0.077 C 
ATOM      8  C7  UNL d   1       1.140  -0.002   0.528  0.00  0.00    -0.001 A 
ENDROOT
TORSDOF 0
ENDMDL
