MODEL 1
REMARK minimizedAffinity -0.13169764
REMARK minimizedRMSD -1
REMARK  1 active torsions:
REMARK  status: ('A' for Active; 'I' for Inactive)
REMARK    1  A    between atoms: C1_2  and  C2_3 
ROOT
ATOM      1  C2  UNL d   1       0.779  -1.382   0.878  0.00  0.00    -0.076 A 
ATOM      2  C3  UNL d   1       0.530  -2.505   1.687  0.00  0.00     0.004 A 
ATOM      3  C4  UNL d   1       1.182  -3.715   1.455  0.00  0.00    -0.003 A 
ATOM      4  C5  UNL d   1       2.094  -3.822   0.411  0.00  0.00     0.000 A 
ATOM      5  C6  UNL d   1       2.367  -2.714  -0.390  0.00  0.00     0.000 A 
ATOM      6  C7  UNL d   1       1.730  -1.482  -0.160  0.00  0.00    -0.073 A 
ATOM      7  C8  UNL d   1       2.057  -0.321  -1.059  0.00  0.00     0.078 C 
ENDROOT
BRANCH   1   8
ATOM      8  C1  UNL d   1       0.022  -0.104   1.160  0.00  0.00     0.053 C 
ATOM      9  C   UNL d   1      -1.410  -0.361   1.603  0.00  0.00     0.018 C 
ENDBRANCH   1   8
TORSDOF 1
ENDMDL
