MODEL 1
REMARK minimizedAffinity -3.60202718
REMARK minimizedRMSD -1
REMARK  1 active torsions:
REMARK  status: ('A' for Active; 'I' for Inactive)
REMARK    1  A    between atoms: C1_2  and  C2_3 
ROOT
ATOM      1  C2  UNL d   1       0.202  -1.201   1.006  0.00  0.00    -0.076 A 
ATOM      2  C3  UNL d   1      -0.402  -2.320   0.405  0.00  0.00     0.004 A 
ATOM      3  C4  UNL d   1       0.370  -3.333  -0.161  0.00  0.00    -0.003 A 
ATOM      4  C5  UNL d   1       1.757  -3.245  -0.136  0.00  0.00     0.000 A 
ATOM      5  C6  UNL d   1       2.373  -2.151   0.471  0.00  0.00     0.000 A 
ATOM      6  C7  UNL d   1       1.610  -1.128   1.061  0.00  0.00    -0.073 A 
ATOM      7  C8  UNL d   1       2.327   0.032   1.697  0.00  0.00     0.078 C 
ENDROOT
BRANCH   1   8
ATOM      8  C1  UNL d   1      -0.686  -0.120   1.579  0.00  0.00     0.053 C 
ATOM      9  C   UNL d   1      -2.137  -0.266   1.146  0.00  0.00     0.018 C 
ENDBRANCH   1   8
TORSDOF 1
ENDMDL
