MODEL 1
REMARK minimizedAffinity 6.38567734
REMARK minimizedRMSD -1
REMARK  1 active torsions:
REMARK  status: ('A' for Active; 'I' for Inactive)
REMARK    1  A    between atoms: C1_2  and  C2_3 
ROOT
ATOM      1  C2  UNL d   1       1.955  -3.051  -0.097  0.00  0.00    -0.076 A 
ATOM      2  C3  UNL d   1       2.756  -1.917   0.127  0.00  0.00     0.004 A 
ATOM      3  C4  UNL d   1       2.208  -0.743   0.641  0.00  0.00    -0.003 A 
ATOM      4  C5  UNL d   1       0.851  -0.683   0.939  0.00  0.00     0.000 A 
ATOM      5  C6  UNL d   1       0.046  -1.804   0.740  0.00  0.00     0.000 A 
ATOM      6  C7  UNL d   1       0.586  -3.001   0.238  0.00  0.00    -0.073 A 
ATOM      7  C8  UNL d   1      -0.330  -4.177   0.038  0.00  0.00     0.078 C 
ENDROOT
BRANCH   1   8
ATOM      8  C1  UNL d   1       2.599  -4.288  -0.682  0.00  0.00     0.053 C 
ATOM      9  C   UNL d   1       4.053  -4.442  -0.261  0.00  0.00     0.018 C 
ENDBRANCH   1   8
TORSDOF 1
ENDMDL
