MODEL 1
REMARK minimizedAffinity -4.07035875
REMARK minimizedRMSD -1
REMARK  1 active torsions:
REMARK  status: ('A' for Active; 'I' for Inactive)
REMARK    1  A    between atoms: C1_2  and  C2_3 
ROOT
ATOM      1  C2  UNL d   1       2.208  -2.311   0.282  0.00  0.00    -0.076 A 
ATOM      2  C3  UNL d   1       1.310  -3.282   0.757  0.00  0.00     0.004 A 
ATOM      3  C4  UNL d   1       0.042  -2.925   1.214  0.00  0.00    -0.003 A 
ATOM      4  C5  UNL d   1      -0.348  -1.590   1.203  0.00  0.00     0.000 A 
ATOM      5  C6  UNL d   1       0.523  -0.616   0.718  0.00  0.00     0.000 A 
ATOM      6  C7  UNL d   1       1.799  -0.961   0.238  0.00  0.00    -0.073 A 
ATOM      7  C8  UNL d   1       2.700   0.132  -0.267  0.00  0.00     0.078 C 
ENDROOT
BRANCH   1   8
ATOM      8  C1  UNL d   1       3.579  -2.754  -0.176  0.00  0.00     0.053 C 
ATOM      9  C   UNL d   1       3.753  -4.264  -0.117  0.00  0.00     0.018 C 
ENDBRANCH   1   8
TORSDOF 1
ENDMDL
