MODEL 1
REMARK minimizedAffinity -3.10012627
REMARK minimizedRMSD -1
REMARK  1 active torsions:
REMARK  status: ('A' for Active; 'I' for Inactive)
REMARK    1  A    between atoms: C1_2  and  C2_3 
ROOT
ATOM      1  C2  UNL d   1       1.930  -1.505   0.226  0.00  0.00    -0.076 A 
ATOM      2  C3  UNL d   1       0.976  -1.974  -0.695  0.00  0.00     0.004 A 
ATOM      3  C4  UNL d   1      -0.367  -1.618  -0.581  0.00  0.00    -0.003 A 
ATOM      4  C5  UNL d   1      -0.778  -0.788   0.456  0.00  0.00     0.000 A 
ATOM      5  C6  UNL d   1       0.157  -0.300   1.368  0.00  0.00     0.000 A 
ATOM      6  C7  UNL d   1       1.517  -0.635   1.258  0.00  0.00    -0.073 A 
ATOM      7  C8  UNL d   1       2.481  -0.085   2.273  0.00  0.00     0.078 C 
ENDROOT
BRANCH   1   8
ATOM      8  C1  UNL d   1       3.367  -1.946   0.068  0.00  0.00     0.053 C 
ATOM      9  C   UNL d   1       3.494  -3.440  -0.188  0.00  0.00     0.018 C 
ENDBRANCH   1   8
TORSDOF 1
ENDMDL
