MODEL 1
REMARK minimizedAffinity 2.85120773
REMARK minimizedRMSD -1
REMARK  1 active torsions:
REMARK  status: ('A' for Active; 'I' for Inactive)
REMARK    1  A    between atoms: C1_2  and  C2_3 
ROOT
ATOM      1  C2  UNL d   1       1.504  -3.505   0.362  0.00  0.00    -0.076 A 
ATOM      2  C3  UNL d   1       1.850  -2.438   1.208  0.00  0.00     0.004 A 
ATOM      3  C4  UNL d   1       1.055  -1.295   1.283  0.00  0.00    -0.003 A 
ATOM      4  C5  UNL d   1      -0.099  -1.202   0.513  0.00  0.00     0.000 A 
ATOM      5  C6  UNL d   1      -0.467  -2.259  -0.319  0.00  0.00     0.000 A 
ATOM      6  C7  UNL d   1       0.315  -3.425  -0.394  0.00  0.00    -0.073 A 
ATOM      7  C8  UNL d   1      -0.126  -4.531  -1.312  0.00  0.00     0.078 C 
ENDROOT
BRANCH   1   8
ATOM      8  C1  UNL d   1       2.419  -4.707   0.302  0.00  0.00     0.053 C 
ATOM      9  C   UNL d   1       3.890  -4.320   0.290  0.00  0.00     0.018 C 
ENDBRANCH   1   8
TORSDOF 1
ENDMDL
