MODEL 1
REMARK minimizedAffinity 0.385206908
REMARK minimizedRMSD -1
REMARK  1 active torsions:
REMARK  status: ('A' for Active; 'I' for Inactive)
REMARK    1  A    between atoms: C1_2  and  C2_3 
ROOT
ATOM      1  C2  UNL d   1       0.840  -2.680   0.198  0.00  0.00    -0.076 A 
ATOM      2  C3  UNL d   1      -0.292  -2.963   0.982  0.00  0.00     0.004 A 
ATOM      3  C4  UNL d   1      -0.974  -1.948   1.650  0.00  0.00    -0.003 A 
ATOM      4  C5  UNL d   1      -0.536  -0.633   1.545  0.00  0.00     0.000 A 
ATOM      5  C6  UNL d   1       0.575  -0.331   0.758  0.00  0.00     0.000 A 
ATOM      6  C7  UNL d   1       1.264  -1.341   0.064  0.00  0.00    -0.073 A 
ATOM      7  C8  UNL d   1       2.459  -0.960  -0.766  0.00  0.00     0.078 C 
ENDROOT
BRANCH   1   8
ATOM      8  C1  UNL d   1       1.555  -3.826  -0.482  0.00  0.00     0.053 C 
ATOM      9  C   UNL d   1       2.791  -4.276   0.280  0.00  0.00     0.018 C 
ENDBRANCH   1   8
TORSDOF 1
ENDMDL
