MODEL 1
REMARK minimizedAffinity -2.23755407
REMARK minimizedRMSD -1
REMARK  3 active torsions:
REMARK  status: ('A' for Active; 'I' for Inactive)
REMARK    1  A    between atoms: C3'_2  and  C2'_3 
REMARK    2  A    between atoms: C2'_3  and  C1'_4 
REMARK    3  A    between atoms: C1'_4  and  C1_5 
ROOT
ATOM      1  C1  N4B d   1      -0.251   0.001  -0.426  0.00  0.00    -0.075 A 
ATOM      2  C2  N4B d   1      -0.826  -0.504   0.761  0.00  0.00     0.002 A 
ATOM      3  C3  N4B d   1      -1.198  -1.823   0.836  0.00  0.00     0.002 A 
ATOM      4  C4  N4B d   1      -1.023  -2.650  -0.263  0.00  0.00    -0.004 A 
ATOM      5  C5  N4B d   1      -0.443  -2.161  -1.397  0.00  0.00     0.002 A 
ATOM      6  C6  N4B d   1      -0.060  -0.838  -1.486  0.00  0.00     0.002 A 
ENDROOT
BRANCH   1   7
ATOM      7  C1' N4B d   1       0.093   1.456  -0.586  0.00  0.00     0.057 C 
BRANCH   7   8
ATOM      8  C2' N4B d   1       0.264   2.085   0.794  0.00  0.00     0.009 C 
BRANCH   8   9
ATOM      9  C3' N4B d   1       1.141   3.325   0.748  0.00  0.00     0.004 C 
ATOM     10  C4' N4B d   1       2.446   3.088   0.049  0.00  0.00     0.003 C 
ENDBRANCH   8   9
ENDBRANCH   7   8
ENDBRANCH   1   7
TORSDOF 3
ENDMDL
