MODEL 1
REMARK minimizedAffinity -3.24718642
REMARK minimizedRMSD -1
REMARK  3 active torsions:
REMARK  status: ('A' for Active; 'I' for Inactive)
REMARK    1  A    between atoms: C3'_2  and  C2'_3 
REMARK    2  A    between atoms: C2'_3  and  C1'_4 
REMARK    3  A    between atoms: C1'_4  and  C1_5 
ROOT
ATOM      1  C1  N4B d   1      -0.405   0.034   0.242  0.00  0.00    -0.075 A 
ATOM      2  C2  N4B d   1      -0.668  -1.086  -0.577  0.00  0.00     0.002 A 
ATOM      3  C3  N4B d   1      -1.002  -2.290  -0.007  0.00  0.00     0.002 A 
ATOM      4  C4  N4B d   1      -1.061  -2.403   1.374  0.00  0.00    -0.004 A 
ATOM      5  C5  N4B d   1      -0.831  -1.310   2.157  0.00  0.00     0.002 A 
ATOM      6  C6  N4B d   1      -0.498  -0.092   1.598  0.00  0.00     0.002 A 
ENDROOT
BRANCH   1   7
ATOM      7  C1' N4B d   1       0.048   1.349  -0.332  0.00  0.00     0.057 C 
BRANCH   7   8
ATOM      8  C2' N4B d   1       1.423   1.693   0.231  0.00  0.00     0.009 C 
BRANCH   8   9
ATOM      9  C3' N4B d   1       1.468   3.101   0.801  0.00  0.00     0.004 C 
ATOM     10  C4' N4B d   1       2.851   3.524   1.194  0.00  0.00     0.003 C 
ENDBRANCH   8   9
ENDBRANCH   7   8
ENDBRANCH   1   7
TORSDOF 3
ENDMDL
