MODEL 1
REMARK minimizedAffinity 0.0515116975
REMARK minimizedRMSD -1
REMARK  3 active torsions:
REMARK  status: ('A' for Active; 'I' for Inactive)
REMARK    1  A    between atoms: C3'_2  and  C2'_3 
REMARK    2  A    between atoms: C2'_3  and  C1'_4 
REMARK    3  A    between atoms: C1'_4  and  C1_5 
ROOT
ATOM      1  C1  N4B d   1      -0.624   0.433   0.784  0.00  0.00    -0.075 A 
ATOM      2  C2  N4B d   1      -1.382  -0.167   1.813  0.00  0.00     0.002 A 
ATOM      3  C3  N4B d   1      -1.644  -1.515   1.776  0.00  0.00     0.002 A 
ATOM      4  C4  N4B d   1      -1.175  -2.276   0.716  0.00  0.00    -0.004 A 
ATOM      5  C5  N4B d   1      -0.422  -1.693  -0.261  0.00  0.00     0.002 A 
ATOM      6  C6  N4B d   1      -0.148  -0.341  -0.234  0.00  0.00     0.002 A 
ENDROOT
BRANCH   1   7
ATOM      7  C1' N4B d   1      -0.385   1.917   0.736  0.00  0.00     0.057 C 
BRANCH   7   8
ATOM      8  C2' N4B d   1       1.067   2.203   1.110  0.00  0.00     0.009 C 
BRANCH   8   9
ATOM      9  C3' N4B d   1       1.286   3.665   1.458  0.00  0.00     0.004 C 
ATOM     10  C4' N4B d   1       2.735   4.052   1.454  0.00  0.00     0.003 C 
ENDBRANCH   8   9
ENDBRANCH   7   8
ENDBRANCH   1   7
TORSDOF 3
ENDMDL
