MODEL 1
REMARK minimizedAffinity 2.55026913
REMARK minimizedRMSD -1
REMARK  3 active torsions:
REMARK  status: ('A' for Active; 'I' for Inactive)
REMARK    1  A    between atoms: C3'_2  and  C2'_3 
REMARK    2  A    between atoms: C2'_3  and  C1'_4 
REMARK    3  A    between atoms: C1'_4  and  C1_5 
ROOT
ATOM      1  C1  N4B d   1      -0.274   0.650  -0.153  0.00  0.00    -0.075 A 
ATOM      2  C2  N4B d   1      -0.801  -0.551   0.371  0.00  0.00     0.002 A 
ATOM      3  C3  N4B d   1      -0.758  -1.703  -0.375  0.00  0.00     0.002 A 
ATOM      4  C4  N4B d   1      -0.214  -1.674  -1.651  0.00  0.00    -0.004 A 
ATOM      5  C5  N4B d   1       0.316  -0.516  -2.140  0.00  0.00     0.002 A 
ATOM      6  C6  N4B d   1       0.284   0.649  -1.399  0.00  0.00     0.002 A 
ENDROOT
BRANCH   1   7
ATOM      7  C1' N4B d   1      -0.375   1.953   0.592  0.00  0.00     0.057 C 
BRANCH   7   8
ATOM      8  C2' N4B d   1       0.892   2.769   0.348  0.00  0.00     0.009 C 
BRANCH   8   9
ATOM      9  C3' N4B d   1       0.966   3.987   1.252  0.00  0.00     0.004 C 
ATOM     10  C4' N4B d   1       2.370   4.331   1.650  0.00  0.00     0.003 C 
ENDBRANCH   8   9
ENDBRANCH   7   8
ENDBRANCH   1   7
TORSDOF 3
ENDMDL
