MODEL 1
REMARK minimizedAffinity -2.43947554
REMARK minimizedRMSD -1
REMARK  3 active torsions:
REMARK  status: ('A' for Active; 'I' for Inactive)
REMARK    1  A    between atoms: C3'_2  and  C2'_3 
REMARK    2  A    between atoms: C2'_3  and  C1'_4 
REMARK    3  A    between atoms: C1'_4  and  C1_5 
ROOT
ATOM      1  C1  N4B d   1       0.077   0.954  -0.346  0.00  0.00    -0.075 A 
ATOM      2  C2  N4B d   1       0.472   0.599  -1.654  0.00  0.00     0.002 A 
ATOM      3  C3  N4B d   1       0.327  -0.697  -2.087  0.00  0.00     0.002 A 
ATOM      4  C4  N4B d   1      -0.191  -1.653  -1.227  0.00  0.00    -0.004 A 
ATOM      5  C5  N4B d   1      -0.594  -1.296   0.026  0.00  0.00     0.002 A 
ATOM      6  C6  N4B d   1      -0.458   0.003   0.473  0.00  0.00     0.002 A 
ENDROOT
BRANCH   1   7
ATOM      7  C1' N4B d   1       0.295   2.339   0.201  0.00  0.00     0.057 C 
BRANCH   7   8
ATOM      8  C2' N4B d   1       1.694   2.813  -0.182  0.00  0.00     0.009 C 
BRANCH   8   9
ATOM      9  C3' N4B d   1       2.181   3.933   0.722  0.00  0.00     0.004 C 
ATOM     10  C4' N4B d   1       1.331   4.103   1.946  0.00  0.00     0.003 C 
ENDBRANCH   8   9
ENDBRANCH   7   8
ENDBRANCH   1   7
TORSDOF 3
ENDMDL
