MODEL 1
REMARK minimizedAffinity -6.62463951
REMARK minimizedRMSD -1
REMARK  3 active torsions:
REMARK  status: ('A' for Active; 'I' for Inactive)
REMARK    1  A    between atoms: C3'_2  and  C2'_3 
REMARK    2  A    between atoms: C2'_3  and  C1'_4 
REMARK    3  A    between atoms: C1'_4  and  C1_5 
ROOT
ATOM      1  C1  N4B d   1      -0.061  -0.635  -0.701  0.00  0.00    -0.075 A 
ATOM      2  C2  N4B d   1       0.903  -1.577  -1.124  0.00  0.00     0.002 A 
ATOM      3  C3  N4B d   1       1.027  -2.776  -0.466  0.00  0.00     0.002 A 
ATOM      4  C4  N4B d   1       0.215  -3.046   0.625  0.00  0.00    -0.004 A 
ATOM      5  C5  N4B d   1      -0.731  -2.142   1.012  0.00  0.00     0.002 A 
ATOM      6  C6  N4B d   1      -0.869  -0.935   0.357  0.00  0.00     0.002 A 
ENDROOT
BRANCH   1   7
ATOM      7  C1' N4B d   1      -0.175   0.724  -1.335  0.00  0.00     0.057 C 
BRANCH   7   8
ATOM      8  C2' N4B d   1       0.103   1.793  -0.282  0.00  0.00     0.009 C 
BRANCH   8   9
ATOM      9  C3' N4B d   1       1.583   1.900   0.041  0.00  0.00     0.004 C 
ATOM     10  C4' N4B d   1       1.876   2.937   1.084  0.00  0.00     0.003 C 
ENDBRANCH   8   9
ENDBRANCH   7   8
ENDBRANCH   1   7
TORSDOF 3
ENDMDL
