MODEL 1
REMARK minimizedAffinity -3.28615355
REMARK minimizedRMSD -1
REMARK  3 active torsions:
REMARK  status: ('A' for Active; 'I' for Inactive)
REMARK    1  A    between atoms: C3'_2  and  C2'_3 
REMARK    2  A    between atoms: C2'_3  and  C1'_4 
REMARK    3  A    between atoms: C1'_4  and  C1_5 
ROOT
ATOM      1  C1  N4B d   1      -0.362   0.367  -0.261  0.00  0.00    -0.075 A 
ATOM      2  C2  N4B d   1       0.024  -0.817  -0.927  0.00  0.00     0.002 A 
ATOM      3  C3  N4B d   1      -0.288  -2.041  -0.388  0.00  0.00     0.002 A 
ATOM      4  C4  N4B d   1      -0.967  -2.106   0.819  0.00  0.00    -0.004 A 
ATOM      5  C5  N4B d   1      -1.359  -0.958   1.443  0.00  0.00     0.002 A 
ATOM      6  C6  N4B d   1      -1.055   0.279   0.912  0.00  0.00     0.002 A 
ENDROOT
BRANCH   1   7
ATOM      7  C1' N4B d   1       0.033   1.727  -0.767  0.00  0.00     0.057 C 
BRANCH   7   8
ATOM      8  C2' N4B d   1       1.372   2.122  -0.150  0.00  0.00     0.009 C 
BRANCH   8   9
ATOM      9  C3' N4B d   1       1.361   3.552   0.364  0.00  0.00     0.004 C 
ATOM     10  C4' N4B d   1       2.394   3.795   1.423  0.00  0.00     0.003 C 
ENDBRANCH   8   9
ENDBRANCH   7   8
ENDBRANCH   1   7
TORSDOF 3
ENDMDL
