MODEL 1
REMARK minimizedAffinity -6.33291531
REMARK minimizedRMSD -1
REMARK  3 active torsions:
REMARK  status: ('A' for Active; 'I' for Inactive)
REMARK    1  A    between atoms: C3'_2  and  C2'_3 
REMARK    2  A    between atoms: C2'_3  and  C1'_4 
REMARK    3  A    between atoms: C1'_4  and  C1_5 
ROOT
ATOM      1  C1  N4B d   1      -0.278  -0.053   0.183  0.00  0.00    -0.075 A 
ATOM      2  C2  N4B d   1      -0.670  -0.495   1.465  0.00  0.00     0.002 A 
ATOM      3  C3  N4B d   1      -1.002  -1.812   1.666  0.00  0.00     0.002 A 
ATOM      4  C4  N4B d   1      -0.967  -2.698   0.599  0.00  0.00    -0.004 A 
ATOM      5  C5  N4B d   1      -0.563  -2.269  -0.631  0.00  0.00     0.002 A 
ATOM      6  C6  N4B d   1      -0.222  -0.948  -0.846  0.00  0.00     0.002 A 
ENDROOT
BRANCH   1   7
ATOM      7  C1' N4B d   1       0.012   1.395  -0.104  0.00  0.00     0.057 C 
BRANCH   7   8
ATOM      8  C2' N4B d   1       1.489   1.672   0.158  0.00  0.00     0.009 C 
BRANCH   8   9
ATOM      9  C3' N4B d   1       1.748   3.139   0.458  0.00  0.00     0.004 C 
ATOM     10  C4' N4B d   1       2.286   3.363   1.839  0.00  0.00     0.003 C 
ENDBRANCH   8   9
ENDBRANCH   7   8
ENDBRANCH   1   7
TORSDOF 3
ENDMDL
