MODEL 1
REMARK minimizedAffinity 0.56051898
REMARK minimizedRMSD -1
REMARK  3 active torsions:
REMARK  status: ('A' for Active; 'I' for Inactive)
REMARK    1  A    between atoms: C3'_2  and  C2'_3 
REMARK    2  A    between atoms: C2'_3  and  C1'_4 
REMARK    3  A    between atoms: C1'_4  and  C1_5 
ROOT
ATOM      1  C1  N4B d   1      -0.094   1.118  -0.313  0.00  0.00    -0.075 A 
ATOM      2  C2  N4B d   1       0.113   1.257  -1.703  0.00  0.00     0.002 A 
ATOM      3  C3  N4B d   1       0.301   0.143  -2.484  0.00  0.00     0.002 A 
ATOM      4  C4  N4B d   1       0.306  -1.113  -1.898  0.00  0.00    -0.004 A 
ATOM      5  C5  N4B d   1       0.080  -1.241  -0.558  0.00  0.00     0.002 A 
ATOM      6  C6  N4B d   1      -0.114  -0.130   0.238  0.00  0.00     0.002 A 
ENDROOT
BRANCH   1   7
ATOM      7  C1' N4B d   1      -0.218   2.311   0.594  0.00  0.00     0.057 C 
BRANCH   7   8
ATOM      8  C2' N4B d   1       0.524   3.491  -0.025  0.00  0.00     0.009 C 
BRANCH   8   9
ATOM      9  C3' N4B d   1       1.673   3.962   0.850  0.00  0.00     0.004 C 
ATOM     10  C4' N4B d   1       2.966   4.079   0.098  0.00  0.00     0.003 C 
ENDBRANCH   8   9
ENDBRANCH   7   8
ENDBRANCH   1   7
TORSDOF 3
ENDMDL
