MODEL 1
REMARK minimizedAffinity -4.3471117
REMARK minimizedRMSD -1
REMARK  3 active torsions:
REMARK  status: ('A' for Active; 'I' for Inactive)
REMARK    1  A    between atoms: C3'_2  and  C2'_3 
REMARK    2  A    between atoms: C2'_3  and  C1'_4 
REMARK    3  A    between atoms: C1'_4  and  C1_5 
ROOT
ATOM      1  C1  N4B d   1      -0.318   0.375  -0.447  0.00  0.00    -0.075 A 
ATOM      2  C2  N4B d   1      -0.967   0.190   0.794  0.00  0.00     0.002 A 
ATOM      3  C3  N4B d   1      -1.210  -1.079   1.259  0.00  0.00     0.002 A 
ATOM      4  C4  N4B d   1      -0.832  -2.174   0.495  0.00  0.00    -0.004 A 
ATOM      5  C5  N4B d   1      -0.184  -1.986  -0.691  0.00  0.00     0.002 A 
ATOM      6  C6  N4B d   1       0.071  -0.716  -1.168  0.00  0.00     0.002 A 
ENDROOT
BRANCH   1   7
ATOM      7  C1' N4B d   1      -0.108   1.743  -1.037  0.00  0.00     0.057 C 
BRANCH   7   8
ATOM      8  C2' N4B d   1       0.205   2.729   0.085  0.00  0.00     0.009 C 
BRANCH   8   9
ATOM      9  C3' N4B d   1       1.700   2.889   0.301  0.00  0.00     0.004 C 
ATOM     10  C4' N4B d   1       2.066   3.026   1.748  0.00  0.00     0.003 C 
ENDBRANCH   8   9
ENDBRANCH   7   8
ENDBRANCH   1   7
TORSDOF 3
ENDMDL
