MODEL 1
REMARK minimizedAffinity -1.99648738
REMARK minimizedRMSD -1
REMARK  0 active torsions:
REMARK  status: ('A' for Active; 'I' for Inactive)
ROOT
ATOM      1  N1  IND d   1       0.065  -1.164   0.709  0.00  0.00    -0.196 N 
ATOM      2  C2  IND d   1      -0.441  -1.888   1.753  0.00  0.00     0.054 A 
ATOM      3  C3  IND d   1      -0.713  -3.152   1.360  0.00  0.00    -0.031 A 
ATOM      4  C4  IND d   1      -0.310  -4.280  -0.919  0.00  0.00     0.051 A 
ATOM      5  C5  IND d   1       0.099  -4.013  -2.196  0.00  0.00    -0.031 A 
ATOM      6  C6  IND d   1       0.530  -2.758  -2.576  0.00  0.00     0.015 A 
ATOM      7  C7  IND d   1       0.578  -1.722  -1.687  0.00  0.00    -0.016 A 
ATOM      8  C8  IND d   1       0.156  -1.987  -0.392  0.00  0.00    -0.047 A 
ATOM      9  C9  IND d   1      -0.322  -3.248  -0.011  0.00  0.00    -0.096 A 
ATOM     10  HN1 IND d   1       0.290  -0.334   0.736  0.00  0.00     0.298 HD
ENDROOT
TORSDOF 0
ENDMDL
