MODEL 1
REMARK minimizedAffinity 3.04998088
REMARK minimizedRMSD -1
REMARK  0 active torsions:
REMARK  status: ('A' for Active; 'I' for Inactive)
ROOT
ATOM      1  N1  IND d   1       0.627  -4.070  -0.451  0.00  0.00    -0.196 N 
ATOM      2  C2  IND d   1      -0.211  -4.633   0.472  0.00  0.00     0.054 A 
ATOM      3  C3  IND d   1      -0.933  -3.675   1.097  0.00  0.00    -0.031 A 
ATOM      4  C4  IND d   1      -0.974  -1.133   0.693  0.00  0.00     0.051 A 
ATOM      5  C5  IND d   1      -0.357  -0.146  -0.022  0.00  0.00    -0.031 A 
ATOM      6  C6  IND d   1       0.639  -0.422  -0.937  0.00  0.00     0.015 A 
ATOM      7  C7  IND d   1       1.047  -1.703  -1.180  0.00  0.00    -0.016 A 
ATOM      8  C8  IND d   1       0.427  -2.707  -0.451  0.00  0.00    -0.047 A 
ATOM      9  C9  IND d   1      -0.553  -2.429   0.510  0.00  0.00    -0.096 A 
ATOM     10  HN1 IND d   1       1.185  -4.496  -0.947  0.00  0.00     0.298 HD
ENDROOT
TORSDOF 0
ENDMDL
