MODEL 1
REMARK minimizedAffinity -0.539448202
REMARK minimizedRMSD -1
REMARK  0 active torsions:
REMARK  status: ('A' for Active; 'I' for Inactive)
ROOT
ATOM      1  N1  IND d   1       5.443  -4.412   3.756  0.00  0.00    -0.196 N 
ATOM      2  C2  IND d   1       5.993  -4.859   4.925  0.00  0.00     0.054 A 
ATOM      3  C3  IND d   1       5.532  -4.133   5.969  0.00  0.00    -0.031 A 
ATOM      4  C4  IND d   1       3.796  -2.233   6.000  0.00  0.00     0.051 A 
ATOM      5  C5  IND d   1       3.041  -1.450   5.172  0.00  0.00    -0.031 A 
ATOM      6  C6  IND d   1       3.047  -1.619   3.803  0.00  0.00     0.015 A 
ATOM      7  C7  IND d   1       3.802  -2.590   3.208  0.00  0.00    -0.016 A 
ATOM      8  C8  IND d   1       4.575  -3.383   4.045  0.00  0.00    -0.047 A 
ATOM      9  C9  IND d   1       4.606  -3.188   5.432  0.00  0.00    -0.096 A 
ATOM     10  HN1 IND d   1       5.612  -4.722   2.972  0.00  0.00     0.298 HD
ENDROOT
TORSDOF 0
ENDMDL
