MODEL 1
REMARK minimizedAffinity 10.0242252
REMARK minimizedRMSD -1
REMARK  0 active torsions:
REMARK  status: ('A' for Active; 'I' for Inactive)
ROOT
ATOM      1  N1  IND d   1      -0.129  -0.581  -1.449  0.00  0.00    -0.196 N 
ATOM      2  C2  IND d   1       1.013  -0.659  -2.197  0.00  0.00     0.054 A 
ATOM      3  C3  IND d   1       1.700  -1.783  -1.891  0.00  0.00    -0.031 A 
ATOM      4  C4  IND d   1       1.084  -3.685  -0.269  0.00  0.00     0.051 A 
ATOM      5  C5  IND d   1       0.155  -4.045   0.667  0.00  0.00    -0.031 A 
ATOM      6  C6  IND d   1      -0.939  -3.253   0.949  0.00  0.00     0.015 A 
ATOM      7  C7  IND d   1      -1.153  -2.073   0.294  0.00  0.00    -0.016 A 
ATOM      8  C8  IND d   1      -0.208  -1.702  -0.652  0.00  0.00    -0.047 A 
ATOM      9  C9  IND d   1       0.928  -2.480  -0.912  0.00  0.00    -0.096 A 
ATOM     10  HN1 IND d   1      -0.701   0.060  -1.474  0.00  0.00     0.298 HD
ENDROOT
TORSDOF 0
ENDMDL
