MODEL 1
REMARK minimizedAffinity 6.95661354
REMARK minimizedRMSD -1
REMARK  0 active torsions:
REMARK  status: ('A' for Active; 'I' for Inactive)
ROOT
ATOM      1  N1  IND d   1      -0.116  -0.401  -1.563  0.00  0.00    -0.196 N 
ATOM      2  C2  IND d   1       1.035  -0.580  -2.277  0.00  0.00     0.054 A 
ATOM      3  C3  IND d   1       1.657  -1.716  -1.889  0.00  0.00    -0.031 A 
ATOM      4  C4  IND d   1       0.912  -3.485  -0.174  0.00  0.00     0.051 A 
ATOM      5  C5  IND d   1      -0.053  -3.741   0.759  0.00  0.00    -0.031 A 
ATOM      6  C6  IND d   1      -1.112  -2.880   0.968  0.00  0.00     0.015 A 
ATOM      7  C7  IND d   1      -1.251  -1.733   0.241  0.00  0.00    -0.016 A 
ATOM      8  C8  IND d   1      -0.269  -1.466  -0.703  0.00  0.00    -0.047 A 
ATOM      9  C9  IND d   1       0.830  -2.314  -0.890  0.00  0.00    -0.096 A 
ATOM     10  HN1 IND d   1      -0.655   0.266  -1.638  0.00  0.00     0.298 HD
ENDROOT
TORSDOF 0
ENDMDL
