MODEL 1
REMARK minimizedAffinity 1.7778101
REMARK minimizedRMSD -1
REMARK  0 active torsions:
REMARK  status: ('A' for Active; 'I' for Inactive)
ROOT
ATOM      1  N1  IND d   1      -0.534  -0.666  -1.476  0.00  0.00    -0.196 N 
ATOM      2  C2  IND d   1       0.439  -1.227  -2.256  0.00  0.00     0.054 A 
ATOM      3  C3  IND d   1       0.994  -2.286  -1.626  0.00  0.00    -0.031 A 
ATOM      4  C4  IND d   1       0.394  -3.337   0.647  0.00  0.00     0.051 A 
ATOM      5  C5  IND d   1      -0.403  -3.153   1.741  0.00  0.00    -0.031 A 
ATOM      6  C6  IND d   1      -1.305  -2.111   1.820  0.00  0.00     0.015 A 
ATOM      7  C7  IND d   1      -1.451  -1.217   0.798  0.00  0.00    -0.016 A 
ATOM      8  C8  IND d   1      -0.639  -1.396  -0.313  0.00  0.00    -0.047 A 
ATOM      9  C9  IND d   1       0.308  -2.427  -0.381  0.00  0.00    -0.096 A 
ATOM     10  HN1 IND d   1      -1.001   0.027  -1.678  0.00  0.00     0.298 HD
ENDROOT
TORSDOF 0
ENDMDL
