MODEL 1
REMARK minimizedAffinity 10.6369877
REMARK minimizedRMSD -1
REMARK  0 active torsions:
REMARK  status: ('A' for Active; 'I' for Inactive)
ROOT
ATOM      1  N1  IND d   1       0.054  -0.865  -1.517  0.00  0.00    -0.196 N 
ATOM      2  C2  IND d   1       1.147  -1.110  -2.301  0.00  0.00     0.054 A 
ATOM      3  C3  IND d   1       1.726  -2.280  -1.949  0.00  0.00    -0.031 A 
ATOM      4  C4  IND d   1       0.988  -4.003  -0.184  0.00  0.00     0.051 A 
ATOM      5  C5  IND d   1       0.069  -4.204   0.808  0.00  0.00    -0.031 A 
ATOM      6  C6  IND d   1      -0.923  -3.284   1.079  0.00  0.00     0.015 A 
ATOM      7  C7  IND d   1      -1.041  -2.130   0.358  0.00  0.00    -0.016 A 
ATOM      8  C8  IND d   1      -0.106  -1.920  -0.645  0.00  0.00    -0.047 A 
ATOM      9  C9  IND d   1       0.929  -2.830  -0.897  0.00  0.00    -0.096 A 
ATOM     10  HN1 IND d   1      -0.449  -0.169  -1.561  0.00  0.00     0.298 HD
ENDROOT
TORSDOF 0
ENDMDL
