MODEL 1
REMARK minimizedAffinity 11.6089249
REMARK minimizedRMSD -1
REMARK  0 active torsions:
REMARK  status: ('A' for Active; 'I' for Inactive)
ROOT
ATOM      1  N1  IND d   1       0.684   0.218  -2.821  0.00  0.00    -0.196 N 
ATOM      2  C2  IND d   1       1.059  -1.053  -3.156  0.00  0.00     0.054 A 
ATOM      3  C3  IND d   1       2.029  -1.493  -2.325  0.00  0.00    -0.031 A 
ATOM      4  C4  IND d   1       3.082  -0.334  -0.281  0.00  0.00     0.051 A 
ATOM      5  C5  IND d   1       3.090   0.852   0.399  0.00  0.00    -0.031 A 
ATOM      6  C6  IND d   1       2.279   1.907   0.035  0.00  0.00     0.015 A 
ATOM      7  C7  IND d   1       1.416   1.811  -1.021  0.00  0.00    -0.016 A 
ATOM      8  C8  IND d   1       1.410   0.612  -1.718  0.00  0.00    -0.047 A 
ATOM      9  C9  IND d   1       2.262  -0.448  -1.379  0.00  0.00    -0.096 A 
ATOM     10  HN1 IND d   1       0.095   0.692  -3.229  0.00  0.00     0.298 HD
ENDROOT
TORSDOF 0
ENDMDL
