MODEL 1
REMARK minimizedAffinity 10.5031261
REMARK minimizedRMSD -1
REMARK  0 active torsions:
REMARK  status: ('A' for Active; 'I' for Inactive)
ROOT
ATOM      1  N1  IND d   1       0.242  -0.914  -1.900  0.00  0.00    -0.196 N 
ATOM      2  C2  IND d   1       0.984  -1.347  -2.963  0.00  0.00     0.054 A 
ATOM      3  C3  IND d   1       1.427  -2.606  -2.746  0.00  0.00    -0.031 A 
ATOM      4  C4  IND d   1       0.970  -4.180  -0.761  0.00  0.00     0.051 A 
ATOM      5  C5  IND d   1       0.377  -4.218   0.470  0.00  0.00    -0.031 A 
ATOM      6  C6  IND d   1      -0.308  -3.135   0.983  0.00  0.00     0.015 A 
ATOM      7  C7  IND d   1      -0.435  -1.973   0.276  0.00  0.00    -0.016 A 
ATOM      8  C8  IND d   1       0.172  -1.929  -0.971  0.00  0.00    -0.047 A 
ATOM      9  C9  IND d   1       0.905  -3.010  -1.479  0.00  0.00    -0.096 A 
ATOM     10  HN1 IND d   1      -0.120  -0.137  -1.824  0.00  0.00     0.298 HD
ENDROOT
TORSDOF 0
ENDMDL
