MODEL 1
REMARK minimizedAffinity 14.0152874
REMARK minimizedRMSD -1
REMARK  0 active torsions:
REMARK  status: ('A' for Active; 'I' for Inactive)
ROOT
ATOM      1  N1  IND d   1       0.110   5.337   0.453  0.00  0.00    -0.196 N 
ATOM      2  C2  IND d   1      -1.053   6.000   0.176  0.00  0.00     0.054 A 
ATOM      3  C3  IND d   1      -1.910   5.189  -0.483  0.00  0.00    -0.031 A 
ATOM      4  C4  IND d   1      -1.651   2.708  -1.122  0.00  0.00     0.051 A 
ATOM      5  C5  IND d   1      -0.749   1.682  -1.112  0.00  0.00    -0.031 A 
ATOM      6  C6  IND d   1       0.510   1.824  -0.567  0.00  0.00     0.015 A 
ATOM      7  C7  IND d   1       0.912   2.999   0.002  0.00  0.00    -0.016 A 
ATOM      8  C8  IND d   1       0.001   4.045  -0.012  0.00  0.00    -0.047 A 
ATOM      9  C9  IND d   1      -1.263   3.921  -0.603  0.00  0.00    -0.096 A 
ATOM     10  HN1 IND d   1       0.795   5.672   0.852  0.00  0.00     0.298 HD
ENDROOT
TORSDOF 0
ENDMDL
