MODEL 1
REMARK minimizedAffinity 8.72821426
REMARK minimizedRMSD -1
REMARK  0 active torsions:
REMARK  status: ('A' for Active; 'I' for Inactive)
ROOT
ATOM      1  N1  IND d   1       1.177  -3.957   1.304  0.00  0.00    -0.196 N 
ATOM      2  C2  IND d   1       0.282  -4.159   0.291  0.00  0.00     0.054 A 
ATOM      3  C3  IND d   1       0.359  -3.155  -0.611  0.00  0.00    -0.031 A 
ATOM      4  C4  IND d   1       1.953  -1.135  -0.678  0.00  0.00     0.051 A 
ATOM      5  C5  IND d   1       2.923  -0.504   0.049  0.00  0.00    -0.031 A 
ATOM      6  C6  IND d   1       3.372  -1.003   1.254  0.00  0.00     0.015 A 
ATOM      7  C7  IND d   1       2.873  -2.163   1.775  0.00  0.00    -0.016 A 
ATOM      8  C8  IND d   1       1.883  -2.803   1.043  0.00  0.00    -0.047 A 
ATOM      9  C9  IND d   1       1.393  -2.279  -0.160  0.00  0.00    -0.096 A 
ATOM     10  HN1 IND d   1       1.282  -4.466   1.990  0.00  0.00     0.298 HD
ENDROOT
TORSDOF 0
ENDMDL
