MODEL 1
REMARK minimizedAffinity 1.99612308
REMARK minimizedRMSD -1
REMARK  0 active torsions:
REMARK  status: ('A' for Active; 'I' for Inactive)
ROOT
ATOM      1  N1  IND d   1      -0.498   0.328  -1.232  0.00  0.00    -0.196 N 
ATOM      2  C2  IND d   1       0.040  -0.339  -2.297  0.00  0.00     0.054 A 
ATOM      3  C3  IND d   1       0.167  -1.655  -2.013  0.00  0.00    -0.031 A 
ATOM      4  C4  IND d   1      -0.537  -2.947   0.100  0.00  0.00     0.051 A 
ATOM      5  C5  IND d   1      -1.038  -2.763   1.358  0.00  0.00    -0.031 A 
ATOM      6  C6  IND d   1      -1.395  -1.515   1.825  0.00  0.00     0.015 A 
ATOM      7  C7  IND d   1      -1.274  -0.400   1.044  0.00  0.00    -0.016 A 
ATOM      8  C8  IND d   1      -0.758  -0.582  -0.231  0.00  0.00    -0.047 A 
ATOM      9  C9  IND d   1      -0.355  -1.840  -0.696  0.00  0.00    -0.096 A 
ATOM     10  HN1 IND d   1      -0.649   1.174  -1.194  0.00  0.00     0.298 HD
ENDROOT
TORSDOF 0
ENDMDL
