MODEL 1
REMARK minimizedAffinity 0.266330302
REMARK minimizedRMSD -1
REMARK  0 active torsions:
REMARK  status: ('A' for Active; 'I' for Inactive)
ROOT
ATOM      1  N1  IND d   1       0.110   1.469   0.785  0.00  0.00    -0.196 N 
ATOM      2  C2  IND d   1       0.975   1.941  -0.162  0.00  0.00     0.054 A 
ATOM      3  C3  IND d   1       1.237   0.983  -1.079  0.00  0.00    -0.031 A 
ATOM      4  C4  IND d   1       0.277  -1.397  -1.278  0.00  0.00     0.051 A 
ATOM      5  C5  IND d   1      -0.523  -2.294  -0.627  0.00  0.00    -0.031 A 
ATOM      6  C6  IND d   1      -1.168  -1.975   0.550  0.00  0.00     0.015 A 
ATOM      7  C7  IND d   1      -1.046  -0.737   1.117  0.00  0.00    -0.016 A 
ATOM      8  C8  IND d   1      -0.229   0.173   0.462  0.00  0.00    -0.047 A 
ATOM      9  C9  IND d   1       0.462  -0.158  -0.710  0.00  0.00    -0.096 A 
ATOM     10  HN1 IND d   1      -0.175   1.908   1.467  0.00  0.00     0.298 HD
ENDROOT
TORSDOF 0
ENDMDL
