MODEL 1
REMARK minimizedAffinity -5.39450455
REMARK minimizedRMSD -1
REMARK  0 active torsions:
REMARK  status: ('A' for Active; 'I' for Inactive)
ROOT
ATOM      1  N1  IND d   1       0.490   0.502  -1.050  0.00  0.00    -0.196 N 
ATOM      2  C2  IND d   1      -0.381   1.166  -0.232  0.00  0.00     0.054 A 
ATOM      3  C3  IND d   1      -1.070   0.289   0.532  0.00  0.00    -0.031 A 
ATOM      4  C4  IND d   1      -0.858  -2.272   0.679  0.00  0.00     0.051 A 
ATOM      5  C5  IND d   1      -0.223  -3.335   0.101  0.00  0.00    -0.031 A 
ATOM      6  C6  IND d   1       0.702  -3.170  -0.909  0.00  0.00     0.015 A 
ATOM      7  C7  IND d   1       1.038  -1.929  -1.373  0.00  0.00    -0.016 A 
ATOM      8  C8  IND d   1       0.390  -0.848  -0.793  0.00  0.00    -0.047 A 
ATOM      9  C9  IND d   1      -0.581  -1.012   0.203  0.00  0.00    -0.096 A 
ATOM     10  HN1 IND d   1       1.013   0.866  -1.627  0.00  0.00     0.298 HD
ENDROOT
TORSDOF 0
ENDMDL
