MODEL 1
REMARK minimizedAffinity 5.32724524
REMARK minimizedRMSD -1
REMARK  0 active torsions:
REMARK  status: ('A' for Active; 'I' for Inactive)
ROOT
ATOM      1  N1  IND d   1      -0.026  -0.705  -1.623  0.00  0.00    -0.196 N 
ATOM      2  C2  IND d   1      -0.398  -1.836  -2.294  0.00  0.00     0.054 A 
ATOM      3  C3  IND d   1      -1.131  -2.640  -1.491  0.00  0.00    -0.031 A 
ATOM      4  C4  IND d   1      -1.927  -2.250   0.926  0.00  0.00     0.051 A 
ATOM      5  C5  IND d   1      -1.808  -1.379   1.972  0.00  0.00    -0.031 A 
ATOM      6  C6  IND d   1      -1.076  -0.213   1.870  0.00  0.00     0.015 A 
ATOM      7  C7  IND d   1      -0.443   0.131   0.710  0.00  0.00    -0.016 A 
ATOM      8  C8  IND d   1      -0.556  -0.755  -0.352  0.00  0.00    -0.047 A 
ATOM      9  C9  IND d   1      -1.262  -1.960  -0.242  0.00  0.00    -0.096 A 
ATOM     10  HN1 IND d   1       0.457  -0.069  -1.941  0.00  0.00     0.298 HD
ENDROOT
TORSDOF 0
ENDMDL
