MODEL 1
REMARK minimizedAffinity 13.7590017
REMARK minimizedRMSD -1
REMARK  0 active torsions:
REMARK  status: ('A' for Active; 'I' for Inactive)
ROOT
ATOM      1  N1  IND d   1       4.642  -1.971  -3.240  0.00  0.00    -0.196 N 
ATOM      2  C2  IND d   1       3.603  -2.065  -2.356  0.00  0.00     0.054 A 
ATOM      3  C3  IND d   1       2.798  -3.100  -2.684  0.00  0.00    -0.031 A 
ATOM      4  C4  IND d   1       3.050  -4.834  -4.570  0.00  0.00     0.051 A 
ATOM      5  C5  IND d   1       3.819  -5.139  -5.657  0.00  0.00    -0.031 A 
ATOM      6  C6  IND d   1       4.927  -4.390  -5.999  0.00  0.00     0.015 A 
ATOM      7  C7  IND d   1       5.314  -3.310  -5.257  0.00  0.00    -0.016 A 
ATOM      8  C8  IND d   1       4.530  -2.994  -4.157  0.00  0.00    -0.047 A 
ATOM      9  C9  IND d   1       3.381  -3.724  -3.829  0.00  0.00    -0.096 A 
ATOM     10  HN1 IND d   1       5.261  -1.375  -3.226  0.00  0.00     0.298 HD
ENDROOT
TORSDOF 0
ENDMDL
