MODEL 1
REMARK minimizedAffinity 0.04102543
REMARK minimizedRMSD -1
REMARK  0 active torsions:
REMARK  status: ('A' for Active; 'I' for Inactive)
ROOT
ATOM      1  N1  IND d   1      -0.793  -2.278  -2.521  0.00  0.00    -0.196 N 
ATOM      2  C2  IND d   1      -1.378  -3.471  -2.196  0.00  0.00     0.054 A 
ATOM      3  C3  IND d   1      -1.472  -3.598  -0.854  0.00  0.00    -0.031 A 
ATOM      4  C4  IND d   1      -0.824  -1.930   0.997  0.00  0.00     0.051 A 
ATOM      5  C5  IND d   1      -0.218  -0.721   1.194  0.00  0.00    -0.031 A 
ATOM      6  C6  IND d   1       0.233   0.048   0.140  0.00  0.00     0.015 A 
ATOM      7  C7  IND d   1       0.085  -0.361  -1.155  0.00  0.00    -0.016 A 
ATOM      8  C8  IND d   1      -0.523  -1.591  -1.358  0.00  0.00    -0.047 A 
ATOM      9  C9  IND d   1      -0.945  -2.396  -0.291  0.00  0.00    -0.096 A 
ATOM     10  HN1 IND d   1      -0.622  -2.004  -3.318  0.00  0.00     0.298 HD
ENDROOT
TORSDOF 0
ENDMDL
