MODEL 1
REMARK minimizedAffinity -2.50090194
REMARK minimizedRMSD -1
REMARK  0 active torsions:
REMARK  status: ('A' for Active; 'I' for Inactive)
ROOT
ATOM      1  N1  IND d   1       0.147   0.985   0.214  0.00  0.00    -0.196 N 
ATOM      2  C2  IND d   1      -0.944   1.400   0.925  0.00  0.00     0.054 A 
ATOM      3  C3  IND d   1      -1.728   0.345   1.243  0.00  0.00    -0.031 A 
ATOM      4  C4  IND d   1      -1.360  -2.162   0.786  0.00  0.00     0.051 A 
ATOM      5  C5  IND d   1      -0.525  -3.027   0.138  0.00  0.00    -0.031 A 
ATOM      6  C6  IND d   1       0.602  -2.591  -0.530  0.00  0.00     0.015 A 
ATOM      7  C7  IND d   1       0.942  -1.268  -0.564  0.00  0.00    -0.016 A 
ATOM      8  C8  IND d   1       0.092  -0.386   0.088  0.00  0.00    -0.047 A 
ATOM      9  C9  IND d   1      -1.075  -0.818   0.731  0.00  0.00    -0.096 A 
ATOM     10  HN1 IND d   1       0.764   1.494  -0.101  0.00  0.00     0.298 HD
ENDROOT
TORSDOF 0
ENDMDL
