MODEL 1
REMARK minimizedAffinity -0.161844611
REMARK minimizedRMSD -1
REMARK  1 active torsions:
REMARK  status: ('A' for Active; 'I' for Inactive)
REMARK    1  A    between atoms: C1_2  and  C2_3 
ROOT
ATOM      1  C2  UNL d   1       0.793   3.813   0.393  0.00  0.00    -0.077 A 
ATOM      2  C3  UNL d   1       0.397   2.692  -0.351  0.00  0.00     0.002 A 
ATOM      3  C4  UNL d   1       0.007   2.831  -1.685  0.00  0.00     0.002 A 
ATOM      4  C5  UNL d   1       0.014   4.088  -2.287  0.00  0.00    -0.004 A 
ATOM      5  C6  UNL d   1       0.404   5.209  -1.555  0.00  0.00     0.002 A 
ATOM      6  C7  UNL d   1       0.793   5.072  -0.222  0.00  0.00     0.002 A 
ENDROOT
BRANCH   1   7
ATOM      7  C1  UNL d   1       1.260   3.658   1.816  0.00  0.00     0.055 C 
ATOM      8  C   UNL d   1       0.648   2.427   2.469  0.00  0.00     0.019 C 
ENDBRANCH   1   7
TORSDOF 1
ENDMDL
