MODEL 1
REMARK minimizedAffinity -3.97200441
REMARK minimizedRMSD -1
REMARK  1 active torsions:
REMARK  status: ('A' for Active; 'I' for Inactive)
REMARK    1  A    between atoms: C1_2  and  C2_3 
ROOT
ATOM      1  C2  UNL d   1       2.152   1.325   3.166  0.00  0.00    -0.077 A 
ATOM      2  C3  UNL d   1       2.888   0.305   3.785  0.00  0.00     0.002 A 
ATOM      3  C4  UNL d   1       2.765  -1.017   3.354  0.00  0.00     0.002 A 
ATOM      4  C5  UNL d   1       1.909  -1.331   2.300  0.00  0.00    -0.004 A 
ATOM      5  C6  UNL d   1       1.171  -0.324   1.679  0.00  0.00     0.002 A 
ATOM      6  C7  UNL d   1       1.293   0.998   2.109  0.00  0.00     0.002 A 
ENDROOT
BRANCH   1   7
ATOM      7  C1  UNL d   1       2.322   2.758   3.597  0.00  0.00     0.055 C 
ATOM      8  C   UNL d   1       3.196   2.864   4.838  0.00  0.00     0.019 C 
ENDBRANCH   1   7
TORSDOF 1
ENDMDL
