MODEL 1
REMARK minimizedAffinity -0.871149838
REMARK minimizedRMSD -1
REMARK  1 active torsions:
REMARK  status: ('A' for Active; 'I' for Inactive)
REMARK    1  A    between atoms: C1_2  and  C2_3 
ROOT
ATOM      1  C2  UNL d   1       0.519   2.478  -0.312  0.00  0.00    -0.077 A 
ATOM      2  C3  UNL d   1       0.485   2.747   1.063  0.00  0.00     0.002 A 
ATOM      3  C4  UNL d   1       0.702   1.724   1.988  0.00  0.00     0.002 A 
ATOM      4  C5  UNL d   1       0.958   0.427   1.548  0.00  0.00    -0.004 A 
ATOM      5  C6  UNL d   1       0.991   0.149   0.182  0.00  0.00     0.002 A 
ATOM      6  C7  UNL d   1       0.774   1.170  -0.744  0.00  0.00     0.002 A 
ENDROOT
BRANCH   1   7
ATOM      7  C1  UNL d   1       0.334   3.589  -1.312  0.00  0.00     0.055 C 
ATOM      8  C   UNL d   1       0.627   4.947  -0.691  0.00  0.00     0.019 C 
ENDBRANCH   1   7
TORSDOF 1
ENDMDL
