MODEL 1
REMARK minimizedAffinity 7.33170748
REMARK minimizedRMSD -1
REMARK  1 active torsions:
REMARK  status: ('A' for Active; 'I' for Inactive)
REMARK    1  A    between atoms: C1_2  and  C2_3 
ROOT
ATOM      1  C2  UNL d   1       3.194  -5.469   0.179  0.00  0.00    -0.077 A 
ATOM      2  C3  UNL d   1       2.004  -5.999   0.695  0.00  0.00     0.002 A 
ATOM      3  C4  UNL d   1       0.768  -5.539   0.236  0.00  0.00     0.002 A 
ATOM      4  C5  UNL d   1       0.712  -4.549  -0.744  0.00  0.00    -0.004 A 
ATOM      5  C6  UNL d   1       1.890  -4.014  -1.262  0.00  0.00     0.002 A 
ATOM      6  C7  UNL d   1       3.126  -4.472  -0.803  0.00  0.00     0.002 A 
ENDROOT
BRANCH   1   7
ATOM      7  C1  UNL d   1       4.528  -5.999   0.637  0.00  0.00     0.055 C 
ATOM      8  C   UNL d   1       4.632  -5.999   2.155  0.00  0.00     0.019 C 
ENDBRANCH   1   7
TORSDOF 1
ENDMDL
