MODEL 1
REMARK minimizedAffinity 3.1053822
REMARK minimizedRMSD -1
REMARK  1 active torsions:
REMARK  status: ('A' for Active; 'I' for Inactive)
REMARK    1  A    between atoms: C1_2  and  C2_3 
ROOT
ATOM      1  C2  UNL d   1       0.454   2.545  -0.460  0.00  0.00    -0.077 A 
ATOM      2  C3  UNL d   1       0.297   3.285  -1.640  0.00  0.00     0.002 A 
ATOM      3  C4  UNL d   1       0.469   4.671  -1.632  0.00  0.00     0.002 A 
ATOM      4  C5  UNL d   1       0.803   5.326  -0.449  0.00  0.00    -0.004 A 
ATOM      5  C6  UNL d   1       0.959   4.599   0.730  0.00  0.00     0.002 A 
ATOM      6  C7  UNL d   1       0.786   3.214   0.725  0.00  0.00     0.002 A 
ENDROOT
BRANCH   1   7
ATOM      7  C1  UNL d   1       0.317   1.044  -0.477  0.00  0.00     0.055 C 
ATOM      8  C   UNL d   1       0.728   0.436   0.856  0.00  0.00     0.019 C 
ENDBRANCH   1   7
TORSDOF 1
ENDMDL
