MODEL 1
REMARK minimizedAffinity 3.24846053
REMARK minimizedRMSD -1
REMARK  1 active torsions:
REMARK  status: ('A' for Active; 'I' for Inactive)
REMARK    1  A    between atoms: C1_2  and  C2_3 
ROOT
ATOM      1  C2  UNL d   1       1.077   3.826   1.001  0.00  0.00    -0.077 A 
ATOM      2  C3  UNL d   1       2.067   4.046   1.970  0.00  0.00     0.002 A 
ATOM      3  C4  UNL d   1       2.275   3.117   2.991  0.00  0.00     0.002 A 
ATOM      4  C5  UNL d   1       1.502   1.960   3.050  0.00  0.00    -0.004 A 
ATOM      5  C6  UNL d   1       0.514   1.733   2.093  0.00  0.00     0.002 A 
ATOM      6  C7  UNL d   1       0.303   2.661   1.073  0.00  0.00     0.002 A 
ENDROOT
BRANCH   1   7
ATOM      7  C1  UNL d   1       0.884   4.803  -0.129  0.00  0.00     0.055 C 
ATOM      8  C   UNL d   1       0.383   4.105  -1.385  0.00  0.00     0.019 C 
ENDBRANCH   1   7
TORSDOF 1
ENDMDL
