MODEL 1
REMARK minimizedAffinity 14.095479
REMARK minimizedRMSD -1
REMARK  0 active torsions:
REMARK  status: ('A' for Active; 'I' for Inactive)
ROOT
ATOM      1  C   UNL d   1      -0.815   2.222   0.323  0.00  0.00     0.124 A 
ATOM      2  C1  UNL d   1      -1.491   3.033  -0.578  0.00  0.00     0.062 A 
ATOM      3  C2  UNL d   1      -0.842   4.112  -1.172  0.00  0.00     0.162 A 
ATOM      4  C3  UNL d   1       0.491   4.386  -0.867  0.00  0.00    -0.034 A 
ATOM      5  C4  UNL d   1       1.164   3.567   0.041  0.00  0.00     0.162 A 
ATOM      6  C5  UNL d   1       0.511   2.490   0.632  0.00  0.00     0.062 A 
ATOM      7  F   UNL d   1       1.165   1.707   1.503  0.00  0.00    -0.097 F 
ATOM      8  F1  UNL d   1       2.446   3.802   0.357  0.00  0.00    -0.096 F 
ATOM      9  I   UNL d   1       1.465   5.998  -1.753  0.00  0.00    -0.060 I 
ATOM     10  F2  UNL d   1      -1.520   4.879  -2.039  0.00  0.00    -0.096 F 
ATOM     11  F3  UNL d   1      -2.773   2.778  -0.877  0.00  0.00    -0.097 F 
ATOM     12  F4  UNL d   1      -1.442   1.186   0.894  0.00  0.00    -0.092 F 
ENDROOT
TORSDOF 0
ENDMDL
