MODEL 1
REMARK minimizedAffinity 22.4037151
REMARK minimizedRMSD -1
REMARK  0 active torsions:
REMARK  status: ('A' for Active; 'I' for Inactive)
ROOT
ATOM      1  C   UNL d   1       0.629  -2.578  -1.705  0.00  0.00     0.124 A 
ATOM      2  C1  UNL d   1       1.796  -2.308  -1.003  0.00  0.00     0.062 A 
ATOM      3  C2  UNL d   1       2.365  -3.283  -0.189  0.00  0.00     0.162 A 
ATOM      4  C3  UNL d   1       1.769  -4.539  -0.073  0.00  0.00    -0.034 A 
ATOM      5  C4  UNL d   1       0.595  -4.803  -0.782  0.00  0.00     0.162 A 
ATOM      6  C5  UNL d   1       0.030  -3.825  -1.594  0.00  0.00     0.062 A 
ATOM      7  F   UNL d   1      -1.097  -4.088  -2.271  0.00  0.00    -0.097 F 
ATOM      8  F1  UNL d   1      -0.004  -6.000  -0.693  0.00  0.00    -0.096 F 
ATOM      9  I   UNL d   1       2.617  -6.000   1.143  0.00  0.00    -0.060 I 
ATOM     10  F2  UNL d   1       3.492  -2.994   0.478  0.00  0.00    -0.096 F 
ATOM     11  F3  UNL d   1       2.376  -1.104  -1.107  0.00  0.00    -0.097 F 
ATOM     12  F4  UNL d   1       0.084  -1.638  -2.486  0.00  0.00    -0.092 F 
ENDROOT
TORSDOF 0
ENDMDL
