MODEL 1
REMARK minimizedAffinity 17.7766266
REMARK minimizedRMSD -1
REMARK  0 active torsions:
REMARK  status: ('A' for Active; 'I' for Inactive)
ROOT
ATOM      1  C   UNL d   1      -0.830   2.510   0.135  0.00  0.00     0.124 A 
ATOM      2  C1  UNL d   1       0.535   2.589   0.376  0.00  0.00     0.062 A 
ATOM      3  C2  UNL d   1       1.296   3.584  -0.229  0.00  0.00     0.162 A 
ATOM      4  C3  UNL d   1       0.695   4.510  -1.081  0.00  0.00    -0.034 A 
ATOM      5  C4  UNL d   1      -0.678   4.425  -1.319  0.00  0.00     0.162 A 
ATOM      6  C5  UNL d   1      -1.435   3.428  -0.712  0.00  0.00     0.062 A 
ATOM      7  F   UNL d   1      -2.753   3.354  -0.946  0.00  0.00    -0.097 F 
ATOM      8  F1  UNL d   1      -1.288   5.299  -2.133  0.00  0.00    -0.096 F 
ATOM      9  I   UNL d   1       1.831   6.000  -1.988  0.00  0.00    -0.060 I 
ATOM     10  F2  UNL d   1       2.613   3.635   0.022  0.00  0.00    -0.096 F 
ATOM     11  F3  UNL d   1       1.121   1.702   1.194  0.00  0.00    -0.097 F 
ATOM     12  F4  UNL d   1      -1.561   1.551   0.718  0.00  0.00    -0.092 F 
ENDROOT
TORSDOF 0
ENDMDL
