MODEL 1
REMARK minimizedAffinity 22.8784256
REMARK minimizedRMSD -1
REMARK  0 active torsions:
REMARK  status: ('A' for Active; 'I' for Inactive)
ROOT
ATOM      1  C   UNL d   1      -4.848   4.371   1.554  0.00  0.00     0.124 A 
ATOM      2  C1  UNL d   1      -3.663   4.754   2.167  0.00  0.00     0.062 A 
ATOM      3  C2  UNL d   1      -2.465   4.137   1.822  0.00  0.00     0.162 A 
ATOM      4  C3  UNL d   1      -2.444   3.130   0.857  0.00  0.00    -0.034 A 
ATOM      5  C4  UNL d   1      -3.639   2.749   0.245  0.00  0.00     0.162 A 
ATOM      6  C5  UNL d   1      -4.835   3.369   0.594  0.00  0.00     0.062 A 
ATOM      7  F   UNL d   1      -5.978   2.998  -0.000  0.00  0.00    -0.097 F 
ATOM      8  F1  UNL d   1      -3.656   1.785  -0.687  0.00  0.00    -0.096 F 
ATOM      9  I   UNL d   1      -0.653   2.205   0.338  0.00  0.00    -0.060 I 
ATOM     10  F2  UNL d   1      -1.335   4.527   2.431  0.00  0.00    -0.096 F 
ATOM     11  F3  UNL d   1      -3.673   5.721   3.096  0.00  0.00    -0.097 F 
ATOM     12  F4  UNL d   1      -6.000   4.966   1.889  0.00  0.00    -0.092 F 
ENDROOT
TORSDOF 0
ENDMDL
