MODEL 1
REMARK minimizedAffinity 7.28877497
REMARK minimizedRMSD -1
REMARK  0 active torsions:
REMARK  status: ('A' for Active; 'I' for Inactive)
ROOT
ATOM      1  C   UNL d   1       0.156   2.249   0.773  0.00  0.00     0.124 A 
ATOM      2  C1  UNL d   1      -0.397   3.221  -0.049  0.00  0.00     0.062 A 
ATOM      3  C2  UNL d   1       0.377   4.293  -0.484  0.00  0.00     0.162 A 
ATOM      4  C3  UNL d   1       1.713   4.399  -0.099  0.00  0.00    -0.034 A 
ATOM      5  C4  UNL d   1       2.263   3.417   0.728  0.00  0.00     0.162 A 
ATOM      6  C5  UNL d   1       1.485   2.348   1.161  0.00  0.00     0.062 A 
ATOM      7  F   UNL d   1       2.021   1.410   1.955  0.00  0.00    -0.097 F 
ATOM      8  F1  UNL d   1       3.544   3.488   1.117  0.00  0.00    -0.096 F 
ATOM      9  I   UNL d   1       2.874   6.000  -0.748  0.00  0.00    -0.060 I 
ATOM     10  F2  UNL d   1      -0.184   5.218  -1.278  0.00  0.00    -0.096 F 
ATOM     11  F3  UNL d   1      -1.681   3.129  -0.424  0.00  0.00    -0.097 F 
ATOM     12  F4  UNL d   1      -0.591   1.220   1.191  0.00  0.00    -0.092 F 
ENDROOT
TORSDOF 0
ENDMDL
