MODEL 1
REMARK minimizedAffinity 23.6953506
REMARK minimizedRMSD -1
REMARK  0 active torsions:
REMARK  status: ('A' for Active; 'I' for Inactive)
ROOT
ATOM      1  C   UNL d   1       0.370   2.611  -1.669  0.00  0.00     0.124 A 
ATOM      2  C1  UNL d   1       0.448   3.103  -0.374  0.00  0.00     0.062 A 
ATOM      3  C2  UNL d   1      -0.699   3.202   0.408  0.00  0.00     0.162 A 
ATOM      4  C3  UNL d   1      -1.935   2.807  -0.103  0.00  0.00    -0.034 A 
ATOM      5  C4  UNL d   1      -2.006   2.314  -1.407  0.00  0.00     0.162 A 
ATOM      6  C5  UNL d   1      -0.857   2.217  -2.185  0.00  0.00     0.062 A 
ATOM      7  F   UNL d   1      -0.934   1.741  -3.436  0.00  0.00    -0.097 F 
ATOM      8  F1  UNL d   1      -3.179   1.925  -1.930  0.00  0.00    -0.096 F 
ATOM      9  I   UNL d   1      -3.653   2.953   1.062  0.00  0.00    -0.060 I 
ATOM     10  F2  UNL d   1      -0.594   3.681   1.656  0.00  0.00    -0.096 F 
ATOM     11  F3  UNL d   1       1.632   3.485   0.126  0.00  0.00    -0.097 F 
ATOM     12  F4  UNL d   1       1.475   2.518  -2.419  0.00  0.00    -0.092 F 
ENDROOT
TORSDOF 0
ENDMDL
