MODEL 1
REMARK minimizedAffinity 21.2495327
REMARK minimizedRMSD -1
REMARK  0 active torsions:
REMARK  status: ('A' for Active; 'I' for Inactive)
ROOT
ATOM      1  C   UNL d   1      -0.580   2.304   0.219  0.00  0.00     0.124 A 
ATOM      2  C1  UNL d   1      -1.235   3.231  -0.581  0.00  0.00     0.062 A 
ATOM      3  C2  UNL d   1      -0.529   4.287  -1.149  0.00  0.00     0.162 A 
ATOM      4  C3  UNL d   1       0.841   4.422  -0.921  0.00  0.00    -0.034 A 
ATOM      5  C4  UNL d   1       1.492   3.486  -0.116  0.00  0.00     0.162 A 
ATOM      6  C5  UNL d   1       0.782   2.432   0.450  0.00  0.00     0.062 A 
ATOM      7  F   UNL d   1       1.416   1.537   1.222  0.00  0.00    -0.097 F 
ATOM      8  F1  UNL d   1       2.808   3.585   0.124  0.00  0.00    -0.096 F 
ATOM      9  I   UNL d   1       1.900   6.000  -1.769  0.00  0.00    -0.060 I 
ATOM     10  F2  UNL d   1      -1.187   5.169  -1.917  0.00  0.00    -0.096 F 
ATOM     11  F3  UNL d   1      -2.551   3.110  -0.805  0.00  0.00    -0.097 F 
ATOM     12  F4  UNL d   1      -1.262   1.289   0.765  0.00  0.00    -0.092 F 
ENDROOT
TORSDOF 0
ENDMDL
