MODEL 1
REMARK minimizedAffinity 8.78627777
REMARK minimizedRMSD -1
REMARK  0 active torsions:
REMARK  status: ('A' for Active; 'I' for Inactive)
ROOT
ATOM      1  C   UNL d   1       5.076  -2.833   3.462  0.00  0.00     0.124 A 
ATOM      2  C1  UNL d   1       4.141  -2.125   4.204  0.00  0.00     0.062 A 
ATOM      3  C2  UNL d   1       3.181  -1.348   3.562  0.00  0.00     0.162 A 
ATOM      4  C3  UNL d   1       3.150  -1.276   2.169  0.00  0.00    -0.034 A 
ATOM      5  C4  UNL d   1       4.094  -1.990   1.430  0.00  0.00     0.162 A 
ATOM      6  C5  UNL d   1       5.052  -2.765   2.076  0.00  0.00     0.062 A 
ATOM      7  F   UNL d   1       5.954  -3.449   1.357  0.00  0.00    -0.097 F 
ATOM      8  F1  UNL d   1       4.093  -1.943   0.089  0.00  0.00    -0.096 F 
ATOM      9  I   UNL d   1       1.716  -0.115   1.206  0.00  0.00    -0.060 I 
ATOM     10  F2  UNL d   1       2.289  -0.674   4.304  0.00  0.00    -0.096 F 
ATOM     11  F3  UNL d   1       4.162  -2.188   5.543  0.00  0.00    -0.097 F 
ATOM     12  F4  UNL d   1       5.999  -3.579   4.082  0.00  0.00    -0.092 F 
ENDROOT
TORSDOF 0
ENDMDL
