MODEL 1
REMARK minimizedAffinity -4.79209328
REMARK minimizedRMSD -1
REMARK  1 active torsions:
REMARK  status: ('A' for Active; 'I' for Inactive)
REMARK    1  A    between atoms: C1_2  and  C2_3 
ROOT
ATOM      1  C2  UNL d   1       0.793  -0.086   0.269  0.00  0.00    -0.077 A 
ATOM      2  C3  UNL d   1       2.097  -0.543   0.507  0.00  0.00     0.002 A 
ATOM      3  C4  UNL d   1       2.511  -1.783   0.016  0.00  0.00     0.002 A 
ATOM      4  C5  UNL d   1       1.629  -2.573  -0.718  0.00  0.00    -0.004 A 
ATOM      5  C6  UNL d   1       0.330  -2.128  -0.958  0.00  0.00     0.002 A 
ATOM      6  C7  UNL d   1      -0.086  -0.890  -0.467  0.00  0.00     0.002 A 
ENDROOT
BRANCH   1   7
ATOM      7  C1  UNL d   1       0.361   1.273   0.756  0.00  0.00     0.055 C 
ATOM      8  C   UNL d   1       1.518   2.261   0.739  0.00  0.00     0.019 C 
ENDBRANCH   1   7
TORSDOF 1
ENDMDL
