MODEL 1
REMARK minimizedAffinity -1.26722705
REMARK minimizedRMSD -1
REMARK  1 active torsions:
REMARK  status: ('A' for Active; 'I' for Inactive)
REMARK    1  A    between atoms: C1_2  and  C2_3 
ROOT
ATOM      1  C2  UNL d   1       1.073  -0.576  -0.256  0.00  0.00    -0.077 A 
ATOM      2  C3  UNL d   1      -0.284  -0.670  -0.597  0.00  0.00     0.002 A 
ATOM      3  C4  UNL d   1      -1.089   0.471  -0.610  0.00  0.00     0.002 A 
ATOM      4  C5  UNL d   1      -0.547   1.713  -0.287  0.00  0.00    -0.004 A 
ATOM      5  C6  UNL d   1       0.801   1.816   0.056  0.00  0.00     0.002 A 
ATOM      6  C7  UNL d   1       1.607   0.677   0.070  0.00  0.00     0.002 A 
ENDROOT
BRANCH   1   7
ATOM      7  C1  UNL d   1       1.955  -1.796  -0.290  0.00  0.00     0.055 C 
ATOM      8  C   UNL d   1       3.049  -1.719   0.766  0.00  0.00     0.019 C 
ENDBRANCH   1   7
TORSDOF 1
ENDMDL
