MODEL 1
REMARK minimizedAffinity 1.01106024
REMARK minimizedRMSD -1
REMARK  1 active torsions:
REMARK  status: ('A' for Active; 'I' for Inactive)
REMARK    1  A    between atoms: C1_2  and  C2_3 
ROOT
ATOM      1  C2  UNL d   1       1.548  -2.347  -0.728  0.00  0.00    -0.077 A 
ATOM      2  C3  UNL d   1       1.258  -3.587  -0.141  0.00  0.00     0.002 A 
ATOM      3  C4  UNL d   1       0.097  -4.279  -0.490  0.00  0.00     0.002 A 
ATOM      4  C5  UNL d   1      -0.781  -3.742  -1.429  0.00  0.00    -0.004 A 
ATOM      5  C6  UNL d   1      -0.502  -2.509  -2.018  0.00  0.00     0.002 A 
ATOM      6  C7  UNL d   1       0.658  -1.815  -1.669  0.00  0.00     0.002 A 
ENDROOT
BRANCH   1   7
ATOM      7  C1  UNL d   1       2.825  -1.623  -0.390  0.00  0.00     0.055 C 
ATOM      8  C   UNL d   1       3.049  -1.568   1.114  0.00  0.00     0.019 C 
ENDBRANCH   1   7
TORSDOF 1
ENDMDL
