MODEL 1
REMARK minimizedAffinity -2.73604989
REMARK minimizedRMSD -1
REMARK  0 active torsions:
REMARK  status: ('A' for Active; 'I' for Inactive)
ROOT
ATOM      1  N1  IND d   1      -0.662  -0.701   0.471  0.00  0.00    -0.196 N 
ATOM      2  C2  IND d   1       0.368   0.195   0.399  0.00  0.00     0.054 A 
ATOM      3  C3  IND d   1      -0.077   1.445   0.659  0.00  0.00    -0.031 A 
ATOM      4  C4  IND d   1      -2.434   2.236   1.327  0.00  0.00     0.051 A 
ATOM      5  C5  IND d   1      -3.715   1.789   1.487  0.00  0.00    -0.031 A 
ATOM      6  C6  IND d   1      -4.050   0.461   1.316  0.00  0.00     0.015 A 
ATOM      7  C7  IND d   1      -3.110  -0.475   0.988  0.00  0.00    -0.016 A 
ATOM      8  C8  IND d   1      -1.810  -0.023   0.817  0.00  0.00    -0.047 A 
ATOM      9  C9  IND d   1      -1.471   1.330   0.948  0.00  0.00    -0.096 A 
ATOM     10  HN1 IND d   1      -0.603  -1.546   0.324  0.00  0.00     0.298 HD
ENDROOT
TORSDOF 0
ENDMDL
