MODEL 1
REMARK minimizedAffinity -2.95998263
REMARK minimizedRMSD -1
REMARK  0 active torsions:
REMARK  status: ('A' for Active; 'I' for Inactive)
ROOT
ATOM      1  N1  IND d   1      -6.000   0.711  -6.000  0.00  0.00    -0.196 N 
ATOM      2  C2  IND d   1      -5.017  -0.227  -5.850  0.00  0.00     0.054 A 
ATOM      3  C3  IND d   1      -3.817   0.372  -5.677  0.00  0.00    -0.031 A 
ATOM      4  C4  IND d   1      -3.250   2.877  -5.505  0.00  0.00     0.051 A 
ATOM      5  C5  IND d   1      -3.810   4.119  -5.617  0.00  0.00    -0.031 A 
ATOM      6  C6  IND d   1      -5.156   4.291  -5.865  0.00  0.00     0.015 A 
ATOM      7  C7  IND d   1      -5.999   3.224  -5.999  0.00  0.00    -0.016 A 
ATOM      8  C8  IND d   1      -5.432   1.962  -5.893  0.00  0.00    -0.047 A 
ATOM      9  C9  IND d   1      -4.059   1.780  -5.684  0.00  0.00    -0.096 A 
ATOM     10  HN1 IND d   1      -6.832   0.547  -6.138  0.00  0.00     0.298 HD
ENDROOT
TORSDOF 0
ENDMDL
