MODEL 1
REMARK minimizedAffinity -2.46886015
REMARK minimizedRMSD -1
REMARK  0 active torsions:
REMARK  status: ('A' for Active; 'I' for Inactive)
ROOT
ATOM      1  N1  IND d   1      -0.615  -0.607   0.310  0.00  0.00    -0.196 N 
ATOM      2  C2  IND d   1      -0.378   0.002   1.511  0.00  0.00     0.054 A 
ATOM      3  C3  IND d   1       0.763   0.725   1.455  0.00  0.00    -0.031 A 
ATOM      4  C4  IND d   1       2.346   1.131  -0.534  0.00  0.00     0.051 A 
ATOM      5  C5  IND d   1       2.566   0.755  -1.830  0.00  0.00    -0.031 A 
ATOM      6  C6  IND d   1       1.719  -0.109  -2.492  0.00  0.00     0.015 A 
ATOM      7  C7  IND d   1       0.609  -0.623  -1.885  0.00  0.00    -0.016 A 
ATOM      8  C8  IND d   1       0.385  -0.250  -0.567  0.00  0.00    -0.047 A 
ATOM      9  C9  IND d   1       1.265   0.594   0.124  0.00  0.00    -0.096 A 
ATOM     10  HN1 IND d   1      -1.276  -1.127   0.133  0.00  0.00     0.298 HD
ENDROOT
TORSDOF 0
ENDMDL
