MODEL 1
REMARK minimizedAffinity -3.41236186
REMARK minimizedRMSD -1
REMARK  0 active torsions:
REMARK  status: ('A' for Active; 'I' for Inactive)
ROOT
ATOM      1  N1  IND d   1      -5.994   4.042  -5.997  0.00  0.00    -0.196 N 
ATOM      2  C2  IND d   1      -5.008   4.986  -5.935  0.00  0.00     0.054 A 
ATOM      3  C3  IND d   1      -3.810   4.400  -5.712  0.00  0.00    -0.031 A 
ATOM      4  C4  IND d   1      -3.221   1.902  -5.519  0.00  0.00     0.051 A 
ATOM      5  C5  IND d   1      -3.792   0.661  -5.474  0.00  0.00    -0.031 A 
ATOM      6  C6  IND d   1      -5.154   0.480  -5.606  0.00  0.00     0.015 A 
ATOM      7  C7  IND d   1      -5.997   1.536  -5.801  0.00  0.00    -0.016 A 
ATOM      8  C8  IND d   1      -5.422   2.799  -5.840  0.00  0.00    -0.047 A 
ATOM      9  C9  IND d   1      -4.046   2.992  -5.664  0.00  0.00    -0.096 A 
ATOM     10  HN1 IND d   1      -6.832   4.198  -6.115  0.00  0.00     0.298 HD
ENDROOT
TORSDOF 0
ENDMDL
