MODEL 1
REMARK minimizedAffinity -2.16616607
REMARK minimizedRMSD -1
REMARK  0 active torsions:
REMARK  status: ('A' for Active; 'I' for Inactive)
ROOT
ATOM      1  N1  IND d   1      -3.666   0.323   0.045  0.00  0.00    -0.196 N 
ATOM      2  C2  IND d   1      -4.172   0.168   1.305  0.00  0.00     0.054 A 
ATOM      3  C3  IND d   1      -3.174  -0.062   2.188  0.00  0.00    -0.031 A 
ATOM      4  C4  IND d   1      -0.630  -0.124   1.800  0.00  0.00     0.051 A 
ATOM      5  C5  IND d   1       0.310  -0.073   0.810  0.00  0.00    -0.031 A 
ATOM      6  C6  IND d   1      -0.033   0.119  -0.513  0.00  0.00     0.015 A 
ATOM      7  C7  IND d   1      -1.335   0.280  -0.894  0.00  0.00    -0.016 A 
ATOM      8  C8  IND d   1      -2.293   0.221   0.108  0.00  0.00    -0.047 A 
ATOM      9  C9  IND d   1      -1.954  -0.016   1.446  0.00  0.00    -0.096 A 
ATOM     10  HN1 IND d   1      -4.127   0.461  -0.668  0.00  0.00     0.298 HD
ENDROOT
TORSDOF 0
ENDMDL
