MODEL 1
REMARK minimizedAffinity -4.95558977
REMARK minimizedRMSD -1
REMARK  0 active torsions:
REMARK  status: ('A' for Active; 'I' for Inactive)
ROOT
ATOM      1  N1  IND d   1      -0.052  -1.399   0.311  0.00  0.00    -0.196 N 
ATOM      2  C2  IND d   1      -0.433  -0.423   1.189  0.00  0.00     0.054 A 
ATOM      3  C3  IND d   1       0.027   0.781   0.781  0.00  0.00    -0.031 A 
ATOM      4  C4  IND d   1       1.338   1.396  -1.347  0.00  0.00     0.051 A 
ATOM      5  C5  IND d   1       1.948   0.838  -2.435  0.00  0.00    -0.031 A 
ATOM      6  C6  IND d   1       1.920  -0.521  -2.670  0.00  0.00     0.015 A 
ATOM      7  C7  IND d   1       1.267  -1.376  -1.827  0.00  0.00    -0.016 A 
ATOM      8  C8  IND d   1       0.653  -0.814  -0.717  0.00  0.00    -0.047 A 
ATOM      9  C9  IND d   1       0.714   0.560  -0.451  0.00  0.00    -0.096 A 
ATOM     10  HN1 IND d   1      -0.224  -2.238   0.389  0.00  0.00     0.298 HD
ENDROOT
TORSDOF 0
ENDMDL
