MODEL 1
REMARK minimizedAffinity -5.32714605
REMARK minimizedRMSD -1
REMARK  0 active torsions:
REMARK  status: ('A' for Active; 'I' for Inactive)
ROOT
ATOM      1  N1  IND d   1      -0.150  -1.109   0.344  0.00  0.00    -0.196 N 
ATOM      2  C2  IND d   1      -0.292   0.219   0.636  0.00  0.00     0.054 A 
ATOM      3  C3  IND d   1       0.470   0.967  -0.193  0.00  0.00    -0.031 A 
ATOM      4  C4  IND d   1       1.951   0.229  -2.165  0.00  0.00     0.051 A 
ATOM      5  C5  IND d   1       2.427  -0.886  -2.796  0.00  0.00    -0.031 A 
ATOM      6  C6  IND d   1       2.059  -2.158  -2.406  0.00  0.00     0.015 A 
ATOM      7  C7  IND d   1       1.189  -2.362  -1.374  0.00  0.00    -0.016 A 
ATOM      8  C8  IND d   1       0.708  -1.233  -0.726  0.00  0.00    -0.047 A 
ATOM      9  C9  IND d   1       1.111   0.059  -1.090  0.00  0.00    -0.096 A 
ATOM     10  HN1 IND d   1      -0.532  -1.757   0.760  0.00  0.00     0.298 HD
ENDROOT
TORSDOF 0
ENDMDL
