MODEL 1
REMARK minimizedAffinity -3.62892318
REMARK minimizedRMSD -1
REMARK  0 active torsions:
REMARK  status: ('A' for Active; 'I' for Inactive)
ROOT
ATOM      1  N1  IND d   1       0.568   0.774   0.631  0.00  0.00    -0.196 N 
ATOM      2  C2  IND d   1      -0.329   0.073   1.387  0.00  0.00     0.054 A 
ATOM      3  C3  IND d   1      -0.868  -0.935   0.663  0.00  0.00    -0.031 A 
ATOM      4  C4  IND d   1      -0.347  -1.678  -1.746  0.00  0.00     0.051 A 
ATOM      5  C5  IND d   1       0.376  -1.323  -2.850  0.00  0.00    -0.031 A 
ATOM      6  C6  IND d   1       1.219  -0.230  -2.849  0.00  0.00     0.015 A 
ATOM      7  C7  IND d   1       1.380   0.545  -1.736  0.00  0.00    -0.016 A 
ATOM      8  C8  IND d   1       0.642   0.192  -0.615  0.00  0.00    -0.047 A 
ATOM      9  C9  IND d   1      -0.247  -0.891  -0.623  0.00  0.00    -0.096 A 
ATOM     10  HN1 IND d   1       1.011   1.464   0.891  0.00  0.00     0.298 HD
ENDROOT
TORSDOF 0
ENDMDL
