MODEL 1
REMARK minimizedAffinity -4.48455286
REMARK minimizedRMSD -1
REMARK  0 active torsions:
REMARK  status: ('A' for Active; 'I' for Inactive)
ROOT
ATOM      1  N1  IND d   1       2.253   1.075  -1.502  0.00  0.00    -0.196 N 
ATOM      2  C2  IND d   1       2.253   0.193  -2.547  0.00  0.00     0.054 A 
ATOM      3  C3  IND d   1       1.222  -0.674  -2.431  0.00  0.00    -0.031 A 
ATOM      4  C4  IND d   1      -0.647  -0.766  -0.663  0.00  0.00     0.051 A 
ATOM      5  C5  IND d   1      -1.051  -0.189   0.508  0.00  0.00    -0.031 A 
ATOM      6  C6  IND d   1      -0.362   0.861   1.080  0.00  0.00     0.015 A 
ATOM      7  C7  IND d   1       0.755   1.383   0.493  0.00  0.00    -0.016 A 
ATOM      8  C8  IND d   1       1.172   0.796  -0.694  0.00  0.00    -0.047 A 
ATOM      9  C9  IND d   1       0.502  -0.297  -1.256  0.00  0.00    -0.096 A 
ATOM     10  HN1 IND d   1       2.830   1.699  -1.371  0.00  0.00     0.298 HD
ENDROOT
TORSDOF 0
ENDMDL
