MODEL 1
REMARK minimizedAffinity -1.37030375
REMARK minimizedRMSD -1
REMARK  0 active torsions:
REMARK  status: ('A' for Active; 'I' for Inactive)
ROOT
ATOM      1  N1  IND d   1       2.514  -0.518  -1.941  0.00  0.00    -0.196 N 
ATOM      2  C2  IND d   1       2.991   0.763  -1.953  0.00  0.00     0.054 A 
ATOM      3  C3  IND d   1       2.271   1.541  -1.112  0.00  0.00    -0.031 A 
ATOM      4  C4  IND d   1       0.334   0.898   0.456  0.00  0.00     0.051 A 
ATOM      5  C5  IND d   1      -0.478  -0.149   0.792  0.00  0.00    -0.031 A 
ATOM      6  C6  IND d   1      -0.330  -1.398   0.224  0.00  0.00     0.015 A 
ATOM      7  C7  IND d   1       0.647  -1.650  -0.696  0.00  0.00    -0.016 A 
ATOM      8  C8  IND d   1       1.470  -0.588  -1.044  0.00  0.00    -0.047 A 
ATOM      9  C9  IND d   1       1.298   0.692  -0.503  0.00  0.00    -0.096 A 
ATOM     10  HN1 IND d   1       2.815  -1.169  -2.414  0.00  0.00     0.298 HD
ENDROOT
TORSDOF 0
ENDMDL
