MODEL 1
REMARK minimizedAffinity -4.03269815
REMARK minimizedRMSD -1
REMARK  0 active torsions:
REMARK  status: ('A' for Active; 'I' for Inactive)
ROOT
ATOM      1  N1  IND d   1       0.836  -2.668  -0.815  0.00  0.00    -0.196 N 
ATOM      2  C2  IND d   1       1.739  -3.080  -1.755  0.00  0.00     0.054 A 
ATOM      3  C3  IND d   1       2.200  -2.022  -2.459  0.00  0.00    -0.031 A 
ATOM      4  C4  IND d   1       1.686   0.484  -2.171  0.00  0.00     0.051 A 
ATOM      5  C5  IND d   1       0.892   1.347  -1.468  0.00  0.00    -0.031 A 
ATOM      6  C6  IND d   1       0.024   0.907  -0.490  0.00  0.00     0.015 A 
ATOM      7  C7  IND d   1      -0.075  -0.417  -0.169  0.00  0.00    -0.016 A 
ATOM      8  C8  IND d   1       0.724  -1.297  -0.885  0.00  0.00    -0.047 A 
ATOM      9  C9  IND d   1       1.575  -0.861  -1.908  0.00  0.00    -0.096 A 
ATOM     10  HN1 IND d   1       0.409  -3.180  -0.271  0.00  0.00     0.298 HD
ENDROOT
TORSDOF 0
ENDMDL
