MODEL 1
REMARK minimizedAffinity -3.79819393
REMARK minimizedRMSD -1
REMARK  0 active torsions:
REMARK  status: ('A' for Active; 'I' for Inactive)
ROOT
ATOM      1  N1  IND d   1       0.127   0.467   0.832  0.00  0.00    -0.196 N 
ATOM      2  C2  IND d   1      -0.513  -0.732   0.979  0.00  0.00     0.054 A 
ATOM      3  C3  IND d   1      -0.408  -1.463  -0.154  0.00  0.00    -0.031 A 
ATOM      4  C4  IND d   1       0.854  -0.930  -2.333  0.00  0.00     0.051 A 
ATOM      5  C5  IND d   1       1.559   0.062  -2.955  0.00  0.00    -0.031 A 
ATOM      6  C6  IND d   1       1.831   1.263  -2.332  0.00  0.00     0.015 A 
ATOM      7  C7  IND d   1       1.416   1.513  -1.055  0.00  0.00    -0.016 A 
ATOM      8  C8  IND d   1       0.693   0.511  -0.423  0.00  0.00    -0.047 A 
ATOM      9  C9  IND d   1       0.377  -0.694  -1.066  0.00  0.00    -0.096 A 
ATOM     10  HN1 IND d   1       0.169   1.089   1.424  0.00  0.00     0.298 HD
ENDROOT
TORSDOF 0
ENDMDL
