MODEL 1
REMARK minimizedAffinity -4.22417736
REMARK minimizedRMSD -1
REMARK  1 active torsions:
REMARK  status: ('A' for Active; 'I' for Inactive)
REMARK    1  A    between atoms: C3_4  and  O_7 
ROOT
ATOM      1  C   UNL d   1      -0.693  -2.882  -1.584  0.00  0.00    -0.033 A 
ATOM      2  C1  UNL d   1      -1.298  -4.091  -1.236  0.00  0.00     0.039 A 
ATOM      3  C2  UNL d   1      -0.523  -5.149  -0.758  0.00  0.00    -0.080 A 
ATOM      4  C3  UNL d   1       0.854  -4.985  -0.631  0.00  0.00     0.150 A 
ATOM      5  C4  UNL d   1       1.463  -3.782  -0.972  0.00  0.00    -0.007 A 
ATOM      6  C5  UNL d   1       0.687  -2.727  -1.450  0.00  0.00     0.039 A 
ENDROOT
BRANCH   4   7
ATOM      7  O   UNL d   1       1.652  -5.991  -0.174  0.00  0.00    -0.526 OA
ATOM      8  H5  UNL d   1       1.098  -6.771  -0.005  0.00  0.00     0.418 HD
ENDBRANCH   4   7
TORSDOF 1
ENDMDL
