MODEL 1
REMARK minimizedAffinity -2.35966039
REMARK minimizedRMSD -1
REMARK  1 active torsions:
REMARK  status: ('A' for Active; 'I' for Inactive)
REMARK    1  A    between atoms: C3_4  and  O_7 
ROOT
ATOM      1  C   UNL d   1       0.470  -0.638  -0.238  0.00  0.00    -0.033 A 
ATOM      2  C1  UNL d   1      -0.262   0.441  -0.739  0.00  0.00     0.039 A 
ATOM      3  C2  UNL d   1      -0.661   1.472   0.113  0.00  0.00    -0.080 A 
ATOM      4  C3  UNL d   1      -0.322   1.413   1.462  0.00  0.00     0.150 A 
ATOM      5  C4  UNL d   1       0.410   0.344   1.967  0.00  0.00    -0.007 A 
ATOM      6  C5  UNL d   1       0.807  -0.686   1.115  0.00  0.00     0.039 A 
ENDROOT
BRANCH   4   7
ATOM      7  O   UNL d   1      -0.694   2.394   2.333  0.00  0.00    -0.526 OA
ATOM      8  H5  UNL d   1      -1.218   3.053   1.849  0.00  0.00     0.418 HD
ENDBRANCH   4   7
TORSDOF 1
ENDMDL
