MODEL 1
REMARK minimizedAffinity -3.15552187
REMARK minimizedRMSD -1
REMARK  1 active torsions:
REMARK  status: ('A' for Active; 'I' for Inactive)
REMARK    1  A    between atoms: C3_4  and  O_7 
ROOT
ATOM      1  C   UNL d   1       0.036  -0.345  -0.396  0.00  0.00    -0.033 A 
ATOM      2  C1  UNL d   1       0.437  -0.436   0.938  0.00  0.00     0.039 A 
ATOM      3  C2  UNL d   1       0.014   0.521   1.863  0.00  0.00    -0.080 A 
ATOM      4  C3  UNL d   1      -0.809   1.561   1.441  0.00  0.00     0.150 A 
ATOM      5  C4  UNL d   1      -1.215   1.656   0.114  0.00  0.00    -0.007 A 
ATOM      6  C5  UNL d   1      -0.791   0.700  -0.808  0.00  0.00     0.039 A 
ENDROOT
BRANCH   4   7
ATOM      7  O   UNL d   1      -1.244   2.521   2.306  0.00  0.00    -0.526 OA
ATOM      8  H5  UNL d   1      -0.860   2.343   3.181  0.00  0.00     0.418 HD
ENDBRANCH   4   7
TORSDOF 1
ENDMDL
