MODEL 1
REMARK minimizedAffinity -4.5220871
REMARK minimizedRMSD -1
REMARK  1 active torsions:
REMARK  status: ('A' for Active; 'I' for Inactive)
REMARK    1  A    between atoms: C3_4  and  O_7 
ROOT
ATOM      1  C   UNL d   1      -0.872   3.312   1.258  0.00  0.00    -0.033 A 
ATOM      2  C1  UNL d   1      -0.498   2.166   1.962  0.00  0.00     0.039 A 
ATOM      3  C2  UNL d   1      -0.135   1.008   1.271  0.00  0.00    -0.080 A 
ATOM      4  C3  UNL d   1      -0.149   1.011  -0.121  0.00  0.00     0.150 A 
ATOM      5  C4  UNL d   1      -0.517   2.150  -0.828  0.00  0.00    -0.007 A 
ATOM      6  C5  UNL d   1      -0.880   3.305  -0.137  0.00  0.00     0.039 A 
ENDROOT
BRANCH   4   7
ATOM      7  O   UNL d   1       0.193  -0.097  -0.839  0.00  0.00    -0.526 OA
ATOM      8  H5  UNL d   1       0.397  -0.816  -0.218  0.00  0.00     0.418 HD
ENDBRANCH   4   7
TORSDOF 1
ENDMDL
