MODEL 1
REMARK minimizedAffinity -4.1306777
REMARK minimizedRMSD -1
REMARK  1 active torsions:
REMARK  status: ('A' for Active; 'I' for Inactive)
REMARK    1  A    between atoms: C3_4  and  O_7 
ROOT
ATOM      1  C   UNL d   1       0.666   0.298  -0.624  0.00  0.00    -0.033 A 
ATOM      2  C1  UNL d   1       0.618  -0.122   0.707  0.00  0.00     0.039 A 
ATOM      3  C2  UNL d   1      -0.133   0.596   1.640  0.00  0.00    -0.080 A 
ATOM      4  C3  UNL d   1      -0.831   1.728   1.230  0.00  0.00     0.150 A 
ATOM      5  C4  UNL d   1      -0.791   2.150  -0.095  0.00  0.00    -0.007 A 
ATOM      6  C5  UNL d   1      -0.040   1.433  -1.025  0.00  0.00     0.039 A 
ENDROOT
BRANCH   4   7
ATOM      7  O   UNL d   1      -1.573   2.464   2.106  0.00  0.00    -0.526 OA
ATOM      8  H5  UNL d   1      -1.485   2.071   2.990  0.00  0.00     0.418 HD
ENDBRANCH   4   7
TORSDOF 1
ENDMDL
