MODEL 1
REMARK minimizedAffinity -3.34292436
REMARK minimizedRMSD -1
REMARK  1 active torsions:
REMARK  status: ('A' for Active; 'I' for Inactive)
REMARK    1  A    between atoms: C3_4  and  O_7 
ROOT
ATOM      1  C   UNL d   1       0.507  -0.761  -0.641  0.00  0.00    -0.033 A 
ATOM      2  C1  UNL d   1      -0.322   0.116  -1.344  0.00  0.00     0.039 A 
ATOM      3  C2  UNL d   1      -0.956   1.165  -0.677  0.00  0.00    -0.080 A 
ATOM      4  C3  UNL d   1      -0.753   1.327   0.691  0.00  0.00     0.150 A 
ATOM      5  C4  UNL d   1       0.074   0.460   1.396  0.00  0.00    -0.007 A 
ATOM      6  C5  UNL d   1       0.705  -0.589   0.729  0.00  0.00     0.039 A 
ENDROOT
BRANCH   4   7
ATOM      7  O   UNL d   1      -1.355   2.334   1.386  0.00  0.00    -0.526 OA
ATOM      8  H5  UNL d   1      -1.919   2.836   0.774  0.00  0.00     0.418 HD
ENDBRANCH   4   7
TORSDOF 1
ENDMDL
