MODEL 1
REMARK minimizedAffinity -3.1233654
REMARK minimizedRMSD -1
REMARK  0 active torsions:
REMARK  status: ('A' for Active; 'I' for Inactive)
ROOT
ATOM      1  C   UNL d   1      -0.154  -0.588   0.804  0.00  0.00     0.020 A 
ATOM      2  C1  UNL d   1       0.767   0.458   0.781  0.00  0.00     0.020 A 
ATOM      3  C2  UNL d   1       1.399   0.806  -0.415  0.00  0.00     0.034 A 
ATOM      4  C3  UNL d   1       1.110   0.108  -1.593  0.00  0.00     0.017 A 
ATOM      5  C4  UNL d   1       0.184  -0.942  -1.569  0.00  0.00     0.017 A 
ATOM      6  C5  UNL d   1      -0.445  -1.286  -0.369  0.00  0.00     0.034 A 
ATOM      7 Cl   UNL d   1      -0.224  -1.850  -2.982  0.00  0.00    -0.070 Cl
ATOM      8 Cl1  UNL d   1       1.928   0.592  -3.036  0.00  0.00    -0.070 Cl
ENDROOT
TORSDOF 0
ENDMDL
