MODEL 1
REMARK minimizedAffinity -5.85134363
REMARK minimizedRMSD -1
REMARK  0 active torsions:
REMARK  status: ('A' for Active; 'I' for Inactive)
ROOT
ATOM      1  C   UNL d   1      -2.340  -0.541   2.445  0.00  0.00     0.020 A 
ATOM      2  C1  UNL d   1      -1.274  -0.482   3.342  0.00  0.00     0.020 A 
ATOM      3  C2  UNL d   1       0.015  -0.217   2.877  0.00  0.00     0.034 A 
ATOM      4  C3  UNL d   1       0.243  -0.008   1.512  0.00  0.00     0.017 A 
ATOM      5  C4  UNL d   1      -0.828  -0.067   0.612  0.00  0.00     0.017 A 
ATOM      6  C5  UNL d   1      -2.117  -0.333   1.083  0.00  0.00     0.034 A 
ATOM      7 Cl   UNL d   1      -0.625   0.179  -1.087  0.00  0.00    -0.070 Cl
ATOM      8 Cl1  UNL d   1       1.863   0.316   1.007  0.00  0.00    -0.070 Cl
ENDROOT
TORSDOF 0
ENDMDL
