MODEL 1
REMARK minimizedAffinity 0.0309846196
REMARK minimizedRMSD -1
REMARK  0 active torsions:
REMARK  status: ('A' for Active; 'I' for Inactive)
ROOT
ATOM      1  C   UNL d   1       0.345   0.667   0.117  0.00  0.00     0.020 A 
ATOM      2  C1  UNL d   1      -0.568  -0.376  -0.028  0.00  0.00     0.020 A 
ATOM      3  C2  UNL d   1      -0.646  -1.074  -1.235  0.00  0.00     0.034 A 
ATOM      4  C3  UNL d   1       0.190  -0.728  -2.303  0.00  0.00     0.017 A 
ATOM      5  C4  UNL d   1       1.106   0.320  -2.157  0.00  0.00     0.017 A 
ATOM      6  C5  UNL d   1       1.180   1.015  -0.946  0.00  0.00     0.034 A 
ATOM      7 Cl   UNL d   1       2.171   0.804  -3.429  0.00  0.00    -0.070 Cl
ATOM      8 Cl1  UNL d   1       0.040  -1.633  -3.767  0.00  0.00    -0.070 Cl
ENDROOT
TORSDOF 0
ENDMDL
