MODEL 1
REMARK minimizedAffinity -5.4319582
REMARK minimizedRMSD -1
REMARK  0 active torsions:
REMARK  status: ('A' for Active; 'I' for Inactive)
ROOT
ATOM      1  C   UNL d   1      -0.734  -0.118   3.169  0.00  0.00     0.020 A 
ATOM      2  C1  UNL d   1      -1.646  -0.294   2.129  0.00  0.00     0.020 A 
ATOM      3  C2  UNL d   1      -1.194  -0.371   0.810  0.00  0.00     0.034 A 
ATOM      4  C3  UNL d   1       0.173  -0.273   0.527  0.00  0.00     0.017 A 
ATOM      5  C4  UNL d   1       1.088  -0.097   1.572  0.00  0.00     0.017 A 
ATOM      6  C5  UNL d   1       0.630  -0.020   2.891  0.00  0.00     0.034 A 
ATOM      7 Cl   UNL d   1       2.790   0.032   1.302  0.00  0.00    -0.070 Cl
ATOM      8 Cl1  UNL d   1       0.661  -0.378  -1.127  0.00  0.00    -0.070 Cl
ENDROOT
TORSDOF 0
ENDMDL
