MODEL 1
REMARK minimizedAffinity -5.13622141
REMARK minimizedRMSD -1
REMARK  0 active torsions:
REMARK  status: ('A' for Active; 'I' for Inactive)
ROOT
ATOM      1  C   UNL d   1      -0.344  -0.630   3.050  0.00  0.00     0.020 A 
ATOM      2  C1  UNL d   1      -1.202  -0.999   2.015  0.00  0.00     0.020 A 
ATOM      3  C2  UNL d   1      -0.879  -0.683   0.694  0.00  0.00     0.034 A 
ATOM      4  C3  UNL d   1       0.306   0.003   0.404  0.00  0.00     0.017 A 
ATOM      5  C4  UNL d   1       1.167   0.373   1.444  0.00  0.00     0.017 A 
ATOM      6  C5  UNL d   1       0.838   0.055   2.765  0.00  0.00     0.034 A 
ATOM      7 Cl   UNL d   1       2.647   1.222   1.165  0.00  0.00    -0.070 Cl
ATOM      8 Cl1  UNL d   1       0.643   0.360  -1.252  0.00  0.00    -0.070 Cl
ENDROOT
TORSDOF 0
ENDMDL
