MODEL 1
REMARK minimizedAffinity 2.45012188
REMARK minimizedRMSD -1
REMARK  0 active torsions:
REMARK  status: ('A' for Active; 'I' for Inactive)
ROOT
ATOM      1  C   UNL d   1       3.195  -0.915  -3.310  0.00  0.00     0.020 A 
ATOM      2  C1  UNL d   1       2.791  -1.989  -4.102  0.00  0.00     0.020 A 
ATOM      3  C2  UNL d   1       1.432  -2.254  -4.278  0.00  0.00     0.034 A 
ATOM      4  C3  UNL d   1       0.471  -1.444  -3.662  0.00  0.00     0.017 A 
ATOM      5  C4  UNL d   1       0.878  -0.366  -2.867  0.00  0.00     0.017 A 
ATOM      6  C5  UNL d   1       2.240  -0.106  -2.693  0.00  0.00     0.034 A 
ATOM      7 Cl   UNL d   1      -0.249   0.677  -2.074  0.00  0.00    -0.070 Cl
ATOM      8 Cl1  UNL d   1      -1.193  -1.830  -3.924  0.00  0.00    -0.070 Cl
ENDROOT
TORSDOF 0
ENDMDL
