MODEL 1
REMARK minimizedAffinity -3.04942036
REMARK minimizedRMSD -1
REMARK  0 active torsions:
REMARK  status: ('A' for Active; 'I' for Inactive)
ROOT
ATOM      1  C   UNL d   1      -0.450   0.006  -1.203  0.00  0.00     0.020 A 
ATOM      2  C1  UNL d   1      -1.511  -0.488  -0.446  0.00  0.00     0.020 A 
ATOM      3  C2  UNL d   1      -1.372  -0.641   0.935  0.00  0.00     0.034 A 
ATOM      4  C3  UNL d   1      -0.169  -0.298   1.563  0.00  0.00     0.017 A 
ATOM      5  C4  UNL d   1       0.896   0.198   0.802  0.00  0.00     0.017 A 
ATOM      6  C5  UNL d   1       0.751   0.349  -0.581  0.00  0.00     0.034 A 
ATOM      7 Cl   UNL d   1       2.411   0.642   1.506  0.00  0.00    -0.070 Cl
ATOM      8 Cl1  UNL d   1      -0.066  -0.513   3.275  0.00  0.00    -0.070 Cl
ENDROOT
TORSDOF 0
ENDMDL
