MODEL 1
REMARK minimizedAffinity 7.10158205
REMARK minimizedRMSD -1
REMARK  0 active torsions:
REMARK  status: ('A' for Active; 'I' for Inactive)
ROOT
ATOM      1  C   UNL d   1       4.708   0.807  -5.105  0.00  0.00     0.020 A 
ATOM      2  C1  UNL d   1       4.665  -0.557  -5.389  0.00  0.00     0.020 A 
ATOM      3  C2  UNL d   1       3.556  -1.315  -5.007  0.00  0.00     0.034 A 
ATOM      4  C3  UNL d   1       2.486  -0.709  -4.338  0.00  0.00     0.017 A 
ATOM      5  C4  UNL d   1       2.530   0.661  -4.053  0.00  0.00     0.017 A 
ATOM      6  C5  UNL d   1       3.643   1.415  -4.438  0.00  0.00     0.034 A 
ATOM      7 Cl   UNL d   1       1.249   1.479  -3.232  0.00  0.00    -0.070 Cl
ATOM      8 Cl1  UNL d   1       1.146  -1.706  -3.895  0.00  0.00    -0.070 Cl
ENDROOT
TORSDOF 0
ENDMDL
