MODEL 1
REMARK minimizedAffinity -2.53691888
REMARK minimizedRMSD -1
REMARK  0 active torsions:
REMARK  status: ('A' for Active; 'I' for Inactive)
ROOT
ATOM      1  C   UNL d   1       0.251   0.766   2.947  0.00  0.00     0.020 A 
ATOM      2  C1  UNL d   1       1.491   0.476   2.378  0.00  0.00     0.020 A 
ATOM      3  C2  UNL d   1       1.608   0.338   0.993  0.00  0.00     0.034 A 
ATOM      4  C3  UNL d   1       0.484   0.491   0.173  0.00  0.00     0.017 A 
ATOM      5  C4  UNL d   1      -0.759   0.783   0.745  0.00  0.00     0.017 A 
ATOM      6  C5  UNL d   1      -0.871   0.920   2.132  0.00  0.00     0.034 A 
ATOM      7 Cl   UNL d   1      -2.190   0.986  -0.202  0.00  0.00    -0.070 Cl
ATOM      8 Cl1  UNL d   1       0.703   0.307  -1.531  0.00  0.00    -0.070 Cl
ENDROOT
TORSDOF 0
ENDMDL
