MODEL 1
REMARK minimizedAffinity 1.41947961
REMARK minimizedRMSD -1
REMARK  0 active torsions:
REMARK  status: ('A' for Active; 'I' for Inactive)
ROOT
ATOM      1  C   UNL d   1       1.557   0.380   1.732  0.00  0.00     0.020 A 
ATOM      2  C1  UNL d   1       0.430   0.859   2.400  0.00  0.00     0.020 A 
ATOM      3  C2  UNL d   1      -0.798   0.922   1.740  0.00  0.00     0.034 A 
ATOM      4  C3  UNL d   1      -0.904   0.508   0.408  0.00  0.00     0.017 A 
ATOM      5  C4  UNL d   1       0.227   0.028  -0.262  0.00  0.00     0.017 A 
ATOM      6  C5  UNL d   1       1.455  -0.034   0.403  0.00  0.00     0.034 A 
ATOM      7 Cl   UNL d   1       0.175  -0.502  -1.907  0.00  0.00    -0.070 Cl
ATOM      8 Cl1  UNL d   1      -2.455   0.614  -0.347  0.00  0.00    -0.070 Cl
ENDROOT
TORSDOF 0
ENDMDL
