MODEL 1
REMARK minimizedAffinity -3.80243325
REMARK minimizedRMSD -1
REMARK  0 active torsions:
REMARK  status: ('A' for Active; 'I' for Inactive)
ROOT
ATOM      1  C   UNL d   1      -0.498  -0.539   3.147  0.00  0.00     0.020 A 
ATOM      2  C1  UNL d   1      -1.317  -1.019   2.125  0.00  0.00     0.020 A 
ATOM      3  C2  UNL d   1      -0.974  -0.793   0.791  0.00  0.00     0.034 A 
ATOM      4  C3  UNL d   1       0.191  -0.085   0.473  0.00  0.00     0.017 A 
ATOM      5  C4  UNL d   1       1.013   0.396   1.499  0.00  0.00     0.017 A 
ATOM      6  C5  UNL d   1       0.664   0.167   2.834  0.00  0.00     0.034 A 
ATOM      7 Cl   UNL d   1       2.466   1.278   1.186  0.00  0.00    -0.070 Cl
ATOM      8 Cl1  UNL d   1       0.554   0.157  -1.198  0.00  0.00    -0.070 Cl
ENDROOT
TORSDOF 0
ENDMDL
