MODEL 1
REMARK minimizedAffinity -5.37365007
REMARK minimizedRMSD -1
REMARK  0 active torsions:
REMARK  status: ('A' for Active; 'I' for Inactive)
ROOT
ATOM      1  C   UNL d   1      -0.838  -1.129   1.853  0.00  0.00     0.020 A 
ATOM      2  C1  UNL d   1       0.141  -0.846   2.804  0.00  0.00     0.020 A 
ATOM      3  C2  UNL d   1       1.220  -0.025   2.472  0.00  0.00     0.034 A 
ATOM      4  C3  UNL d   1       1.324   0.516   1.185  0.00  0.00     0.017 A 
ATOM      5  C4  UNL d   1       0.341   0.230   0.230  0.00  0.00     0.017 A 
ATOM      6  C5  UNL d   1      -0.738  -0.592   0.568  0.00  0.00     0.034 A 
ATOM      7 Cl   UNL d   1       0.400   0.860  -1.378  0.00  0.00    -0.070 Cl
ATOM      8 Cl1  UNL d   1       2.685   1.523   0.843  0.00  0.00    -0.070 Cl
ENDROOT
TORSDOF 0
ENDMDL
