MODEL 1
REMARK minimizedAffinity 0.501325488
REMARK minimizedRMSD -1
REMARK  0 active torsions:
REMARK  status: ('A' for Active; 'I' for Inactive)
ROOT
ATOM      1  C   UNL d   1       0.284  -1.225  -3.610  0.00  0.00     0.020 A 
ATOM      2  C1  UNL d   1       1.539  -0.622  -3.528  0.00  0.00     0.020 A 
ATOM      3  C2  UNL d   1       1.901   0.080  -2.376  0.00  0.00     0.034 A 
ATOM      4  C3  UNL d   1       1.009   0.180  -1.303  0.00  0.00     0.017 A 
ATOM      5  C4  UNL d   1      -0.250  -0.426  -1.386  0.00  0.00     0.017 A 
ATOM      6  C5  UNL d   1      -0.608  -1.127  -2.542  0.00  0.00     0.034 A 
ATOM      7 Cl   UNL d   1      -1.404  -0.345  -0.102  0.00  0.00    -0.070 Cl
ATOM      8 Cl1  UNL d   1       1.525   1.063   0.090  0.00  0.00    -0.070 Cl
ENDROOT
TORSDOF 0
ENDMDL
