MODEL 1
REMARK minimizedAffinity -3.43495059
REMARK minimizedRMSD -1
REMARK  0 active torsions:
REMARK  status: ('A' for Active; 'I' for Inactive)
ROOT
ATOM      1  C   UNL d   1      -1.963  -0.236   3.144  0.00  0.00     0.020 A 
ATOM      2  C1  UNL d   1      -2.818  -0.379   2.052  0.00  0.00     0.020 A 
ATOM      3  C2  UNL d   1      -2.305  -0.333   0.754  0.00  0.00     0.034 A 
ATOM      4  C3  UNL d   1      -0.934  -0.145   0.545  0.00  0.00     0.017 A 
ATOM      5  C4  UNL d   1      -0.077  -0.002   1.642  0.00  0.00     0.017 A 
ATOM      6  C5  UNL d   1      -0.596  -0.048   2.940  0.00  0.00     0.034 A 
ATOM      7 Cl   UNL d   1       1.626   0.234   1.464  0.00  0.00    -0.070 Cl
ATOM      8 Cl1  UNL d   1      -0.368  -0.100  -1.087  0.00  0.00    -0.070 Cl
ENDROOT
TORSDOF 0
ENDMDL
