MODEL 1
REMARK minimizedAffinity -4.31116343
REMARK minimizedRMSD -1
REMARK  0 active torsions:
REMARK  status: ('A' for Active; 'I' for Inactive)
ROOT
ATOM      1  C   UNL d   1      -0.282  -0.307   3.137  0.00  0.00     0.020 A 
ATOM      2  C1  UNL d   1      -1.156  -0.764   2.152  0.00  0.00     0.020 A 
ATOM      3  C2  UNL d   1      -0.889  -0.504   0.806  0.00  0.00     0.034 A 
ATOM      4  C3  UNL d   1       0.255   0.216   0.442  0.00  0.00     0.017 A 
ATOM      5  C4  UNL d   1       1.132   0.674   1.432  0.00  0.00     0.017 A 
ATOM      6  C5  UNL d   1       0.860   0.411   2.778  0.00  0.00     0.034 A 
ATOM      7 Cl   UNL d   1       2.564   1.568   1.060  0.00  0.00    -0.070 Cl
ATOM      8 Cl1  UNL d   1       0.523   0.501  -1.241  0.00  0.00    -0.070 Cl
ENDROOT
TORSDOF 0
ENDMDL
