MODEL 1
REMARK minimizedAffinity -0.870540977
REMARK minimizedRMSD -1
REMARK  0 active torsions:
REMARK  status: ('A' for Active; 'I' for Inactive)
ROOT
ATOM      1  C   UNL d   1      -0.642   0.617   2.869  0.00  0.00     0.020 A 
ATOM      2  C1  UNL d   1      -1.513   0.258   1.841  0.00  0.00     0.020 A 
ATOM      3  C2  UNL d   1      -1.029   0.093   0.541  0.00  0.00     0.034 A 
ATOM      4  C3  UNL d   1       0.329   0.288   0.266  0.00  0.00     0.017 A 
ATOM      5  C4  UNL d   1       1.203   0.648   1.298  0.00  0.00     0.017 A 
ATOM      6  C5  UNL d   1       0.713   0.812   2.598  0.00  0.00     0.034 A 
ATOM      7 Cl   UNL d   1       2.891   0.906   1.036  0.00  0.00    -0.070 Cl
ATOM      8 Cl1  UNL d   1       0.859   0.067  -1.364  0.00  0.00    -0.070 Cl
ENDROOT
TORSDOF 0
ENDMDL
