MODEL 1
REMARK minimizedAffinity -3.11631632
REMARK minimizedRMSD -1
REMARK  0 active torsions:
REMARK  status: ('A' for Active; 'I' for Inactive)
ROOT
ATOM      1  C   UNL d   1      -0.289   0.280  -0.567  0.00  0.00     0.020 A 
ATOM      2  C1  UNL d   1      -0.546  -1.089  -0.623  0.00  0.00     0.020 A 
ATOM      3  C2  UNL d   1       0.102  -1.882  -1.573  0.00  0.00     0.034 A 
ATOM      4  C3  UNL d   1       1.009  -1.307  -2.470  0.00  0.00     0.017 A 
ATOM      5  C4  UNL d   1       1.266   0.068  -2.413  0.00  0.00     0.017 A 
ATOM      6  C5  UNL d   1       0.615   0.857  -1.460  0.00  0.00     0.034 A 
ATOM      7 Cl   UNL d   1       2.372   0.849  -3.486  0.00  0.00    -0.070 Cl
ATOM      8 Cl1  UNL d   1       1.774  -2.348  -3.617  0.00  0.00    -0.070 Cl
ENDROOT
TORSDOF 0
ENDMDL
