MODEL 1
REMARK minimizedAffinity -1.12614465
REMARK minimizedRMSD -1
REMARK  0 active torsions:
REMARK  status: ('A' for Active; 'I' for Inactive)
ROOT
ATOM      1  C   UNL d   1       1.886   0.176   2.044  0.00  0.00     0.020 A 
ATOM      2  C1  UNL d   1       0.783   0.314   2.886  0.00  0.00     0.020 A 
ATOM      3  C2  UNL d   1      -0.489   0.507   2.344  0.00  0.00     0.034 A 
ATOM      4  C3  UNL d   1      -0.662   0.563   0.957  0.00  0.00     0.017 A 
ATOM      5  C4  UNL d   1       0.445   0.424   0.112  0.00  0.00     0.017 A 
ATOM      6  C5  UNL d   1       1.717   0.231   0.660  0.00  0.00     0.034 A 
ATOM      7 Cl   UNL d   1       0.310   0.482  -1.610  0.00  0.00    -0.070 Cl
ATOM      8 Cl1  UNL d   1      -2.264   0.804   0.356  0.00  0.00    -0.070 Cl
ENDROOT
TORSDOF 0
ENDMDL
