MODEL 1
REMARK minimizedAffinity 9.43867493
REMARK minimizedRMSD -1
REMARK  0 active torsions:
REMARK  status: ('A' for Active; 'I' for Inactive)
ROOT
ATOM      1  C   UNL d   1       5.540   6.000  -0.541  0.00  0.00     0.020 A 
ATOM      2  C1  UNL d   1       4.557   5.103  -0.958  0.00  0.00     0.020 A 
ATOM      3  C2  UNL d   1       4.004   4.200  -0.048  0.00  0.00     0.034 A 
ATOM      4  C3  UNL d   1       4.433   4.192   1.284  0.00  0.00     0.017 A 
ATOM      5  C4  UNL d   1       5.419   5.092   1.702  0.00  0.00     0.017 A 
ATOM      6  C5  UNL d   1       5.969   5.994   0.787  0.00  0.00     0.034 A 
ATOM      7 Cl   UNL d   1       5.999   5.142   3.330  0.00  0.00    -0.070 Cl
ATOM      8 Cl1  UNL d   1       3.705   3.048   2.356  0.00  0.00    -0.070 Cl
ENDROOT
TORSDOF 0
ENDMDL
