MODEL 1
REMARK minimizedAffinity 13.1790781
REMARK minimizedRMSD -1
REMARK  0 active torsions:
REMARK  status: ('A' for Active; 'I' for Inactive)
ROOT
ATOM      1  C   UNL d   1       0.990   0.343  -1.854  0.00  0.00     0.020 A 
ATOM      2  C1  UNL d   1       1.613   1.000  -2.914  0.00  0.00     0.020 A 
ATOM      3  C2  UNL d   1       2.997   0.907  -3.077  0.00  0.00     0.034 A 
ATOM      4  C3  UNL d   1       3.763   0.156  -2.177  0.00  0.00     0.017 A 
ATOM      5  C4  UNL d   1       3.136  -0.502  -1.113  0.00  0.00     0.017 A 
ATOM      6  C5  UNL d   1       1.750  -0.406  -0.955  0.00  0.00     0.034 A 
ATOM      7 Cl   UNL d   1       4.014  -1.448   0.038  0.00  0.00    -0.070 Cl
ATOM      8 Cl1  UNL d   1       5.469   0.084  -2.439  0.00  0.00    -0.070 Cl
ENDROOT
TORSDOF 0
ENDMDL
