MODEL 1
REMARK minimizedAffinity 16.3818245
REMARK minimizedRMSD -1
REMARK  0 active torsions:
REMARK  status: ('A' for Active; 'I' for Inactive)
ROOT
ATOM      1  C   UNL d   1       1.629   1.234  -2.850  0.00  0.00     0.020 A 
ATOM      2  C1  UNL d   1       1.700   0.097  -2.047  0.00  0.00     0.020 A 
ATOM      3  C2  UNL d   1       0.617  -0.254  -1.238  0.00  0.00     0.034 A 
ATOM      4  C3  UNL d   1      -0.540   0.533  -1.230  0.00  0.00     0.017 A 
ATOM      5  C4  UNL d   1      -0.610   1.674  -2.037  0.00  0.00     0.017 A 
ATOM      6  C5  UNL d   1       0.477   2.021  -2.845  0.00  0.00     0.034 A 
ATOM      7 Cl   UNL d   1      -2.004   2.695  -2.081  0.00  0.00    -0.070 Cl
ATOM      8 Cl1  UNL d   1      -1.841   0.039  -0.205  0.00  0.00    -0.070 Cl
ENDROOT
TORSDOF 0
ENDMDL
