MODEL 1
REMARK minimizedAffinity 3.16102743
REMARK minimizedRMSD -1
REMARK  0 active torsions:
REMARK  status: ('A' for Active; 'I' for Inactive)
ROOT
ATOM      1  C   UNL d   1       1.730  -1.014  -1.389  0.00  0.00     0.020 A 
ATOM      2  C1  UNL d   1       2.955  -0.377  -1.192  0.00  0.00     0.020 A 
ATOM      3  C2  UNL d   1       3.114   0.961  -1.558  0.00  0.00     0.034 A 
ATOM      4  C3  UNL d   1       2.046   1.667  -2.124  0.00  0.00     0.017 A 
ATOM      5  C4  UNL d   1       0.817   1.027  -2.322  0.00  0.00     0.017 A 
ATOM      6  C5  UNL d   1       0.664  -0.313  -1.953  0.00  0.00     0.034 A 
ATOM      7 Cl   UNL d   1      -0.546   1.833  -3.014  0.00  0.00    -0.070 Cl
ATOM      8 Cl1  UNL d   1       2.313   3.319  -2.553  0.00  0.00    -0.070 Cl
ENDROOT
TORSDOF 0
ENDMDL
