MODEL 1
REMARK minimizedAffinity 6.4224987
REMARK minimizedRMSD -1
REMARK  0 active torsions:
REMARK  status: ('A' for Active; 'I' for Inactive)
ROOT
ATOM      1  C   UNL d   1       3.455  -1.672  -1.121  0.00  0.00     0.020 A 
ATOM      2  C1  UNL d   1       3.510  -0.309  -1.407  0.00  0.00     0.020 A 
ATOM      3  C2  UNL d   1       2.556   0.267  -2.249  0.00  0.00     0.034 A 
ATOM      4  C3  UNL d   1       1.542  -0.520  -2.807  0.00  0.00     0.017 A 
ATOM      5  C4  UNL d   1       1.488  -1.889  -2.519  0.00  0.00     0.017 A 
ATOM      6  C5  UNL d   1       2.446  -2.460  -1.676  0.00  0.00     0.034 A 
ATOM      7 Cl   UNL d   1       0.267  -2.925  -3.171  0.00  0.00    -0.070 Cl
ATOM      8 Cl1  UNL d   1       0.396   0.259  -3.838  0.00  0.00    -0.070 Cl
ENDROOT
TORSDOF 0
ENDMDL
