MODEL 1
REMARK minimizedAffinity 0.0347564295
REMARK minimizedRMSD -1
REMARK  0 active torsions:
REMARK  status: ('A' for Active; 'I' for Inactive)
ROOT
ATOM      1  C   UNL d   1       0.990   2.616   0.439  0.00  0.00     0.020 A 
ATOM      2  C1  UNL d   1      -0.114   2.568  -0.411  0.00  0.00     0.020 A 
ATOM      3  C2  UNL d   1      -0.027   1.891  -1.630  0.00  0.00     0.034 A 
ATOM      4  C3  UNL d   1       1.166   1.261  -2.002  0.00  0.00     0.017 A 
ATOM      5  C4  UNL d   1       2.273   1.311  -1.147  0.00  0.00     0.017 A 
ATOM      6  C5  UNL d   1       2.181   1.989   0.072  0.00  0.00     0.034 A 
ATOM      7 Cl   UNL d   1       3.779   0.558  -1.537  0.00  0.00    -0.070 Cl
ATOM      8 Cl1  UNL d   1       1.202   0.443  -3.523  0.00  0.00    -0.070 Cl
ENDROOT
TORSDOF 0
ENDMDL
