MODEL 1
REMARK minimizedAffinity 14.1078787
REMARK minimizedRMSD -1
REMARK  0 active torsions:
REMARK  status: ('A' for Active; 'I' for Inactive)
ROOT
ATOM      1  C   UNL d   1      -4.011  -0.487   3.693  0.00  0.00     0.020 A 
ATOM      2  C1  UNL d   1      -5.187  -0.194   3.004  0.00  0.00     0.020 A 
ATOM      3  C2  UNL d   1      -5.396   1.088   2.493  0.00  0.00     0.034 A 
ATOM      4  C3  UNL d   1      -4.428   2.083   2.669  0.00  0.00     0.017 A 
ATOM      5  C4  UNL d   1      -3.247   1.788   3.361  0.00  0.00     0.017 A 
ATOM      6  C5  UNL d   1      -3.043   0.502   3.871  0.00  0.00     0.034 A 
ATOM      7 Cl   UNL d   1      -2.006   2.963   3.619  0.00  0.00    -0.070 Cl
ATOM      8 Cl1  UNL d   1      -4.752   3.647   2.010  0.00  0.00    -0.070 Cl
ENDROOT
TORSDOF 0
ENDMDL
