MODEL 1
REMARK minimizedAffinity 16.8174229
REMARK minimizedRMSD -1
REMARK  0 active torsions:
REMARK  status: ('A' for Active; 'I' for Inactive)
ROOT
ATOM      1  C   UNL d   1       0.874  -3.049  -1.789  0.00  0.00     0.020 A 
ATOM      2  C1  UNL d   1      -0.080  -3.173  -2.798  0.00  0.00     0.020 A 
ATOM      3  C2  UNL d   1      -0.355  -2.090  -3.636  0.00  0.00     0.034 A 
ATOM      4  C3  UNL d   1       0.325  -0.878  -3.466  0.00  0.00     0.017 A 
ATOM      5  C4  UNL d   1       1.283  -0.755  -2.454  0.00  0.00     0.017 A 
ATOM      6  C5  UNL d   1       1.555  -1.843  -1.617  0.00  0.00     0.034 A 
ATOM      7 Cl   UNL d   1       2.164   0.707  -2.183  0.00  0.00    -0.070 Cl
ATOM      8 Cl1  UNL d   1      -0.064   0.419  -4.539  0.00  0.00    -0.070 Cl
ENDROOT
TORSDOF 0
ENDMDL
