MODEL 1
REMARK minimizedAffinity 5.94753122
REMARK minimizedRMSD -1
REMARK  0 active torsions:
REMARK  status: ('A' for Active; 'I' for Inactive)
ROOT
ATOM      1  C   UNL d   1       1.135  -0.065  -2.601  0.00  0.00     0.020 A 
ATOM      2  C1  UNL d   1       2.133   0.590  -1.881  0.00  0.00     0.020 A 
ATOM      3  C2  UNL d   1       2.572   1.852  -2.286  0.00  0.00     0.034 A 
ATOM      4  C3  UNL d   1       2.013   2.463  -3.415  0.00  0.00     0.017 A 
ATOM      5  C4  UNL d   1       1.012   1.804  -4.137  0.00  0.00     0.017 A 
ATOM      6  C5  UNL d   1       0.576   0.540  -3.727  0.00  0.00     0.034 A 
ATOM      7 Cl   UNL d   1       0.275   2.494  -5.540  0.00  0.00    -0.070 Cl
ATOM      8 Cl1  UNL d   1       2.604   4.025  -3.858  0.00  0.00    -0.070 Cl
ENDROOT
TORSDOF 0
ENDMDL
