MODEL 1
REMARK minimizedAffinity 16.9419117
REMARK minimizedRMSD -1
REMARK  0 active torsions:
REMARK  status: ('A' for Active; 'I' for Inactive)
ROOT
ATOM      1  C   UNL d   1      -2.525   5.675   5.679  0.00  0.00     0.020 A 
ATOM      2  C1  UNL d   1      -3.843   6.000   5.999  0.00  0.00     0.020 A 
ATOM      3  C2  UNL d   1      -4.898   5.321   5.385  0.00  0.00     0.034 A 
ATOM      4  C3  UNL d   1      -4.637   4.314   4.448  0.00  0.00     0.017 A 
ATOM      5  C4  UNL d   1      -3.313   3.989   4.128  0.00  0.00     0.017 A 
ATOM      6  C5  UNL d   1      -2.261   4.672   4.745  0.00  0.00     0.034 A 
ATOM      7 Cl   UNL d   1      -2.913   2.759   2.982  0.00  0.00    -0.070 Cl
ATOM      8 Cl1  UNL d   1      -5.989   3.516   3.729  0.00  0.00    -0.070 Cl
ENDROOT
TORSDOF 0
ENDMDL
