MODEL 1
REMARK minimizedAffinity 6.29918861
REMARK minimizedRMSD -1
REMARK  0 active torsions:
REMARK  status: ('A' for Active; 'I' for Inactive)
ROOT
ATOM      1  C   UNL d   1       5.466   5.057   2.621  0.00  0.00     0.020 A 
ATOM      2  C1  UNL d   1       4.195   4.484   2.646  0.00  0.00     0.020 A 
ATOM      3  C2  UNL d   1       3.457   4.370   1.466  0.00  0.00     0.034 A 
ATOM      4  C3  UNL d   1       3.990   4.830   0.256  0.00  0.00     0.017 A 
ATOM      5  C4  UNL d   1       5.265   5.405   0.232  0.00  0.00     0.017 A 
ATOM      6  C5  UNL d   1       6.000   5.516   1.416  0.00  0.00     0.034 A 
ATOM      7 Cl   UNL d   1       5.989   5.995  -1.223  0.00  0.00    -0.070 Cl
ATOM      8 Cl1  UNL d   1       3.021   4.657  -1.165  0.00  0.00    -0.070 Cl
ENDROOT
TORSDOF 0
ENDMDL
