MODEL 1
REMARK minimizedAffinity 2.71497655
REMARK minimizedRMSD -1
REMARK  0 active torsions:
REMARK  status: ('A' for Active; 'I' for Inactive)
ROOT
ATOM      1  C   UNL d   1       1.266   2.104  -3.659  0.00  0.00     0.020 A 
ATOM      2  C1  UNL d   1       0.378   1.509  -2.763  0.00  0.00     0.020 A 
ATOM      3  C2  UNL d   1       0.814   0.476  -1.931  0.00  0.00     0.034 A 
ATOM      4  C3  UNL d   1       2.140   0.034  -1.992  0.00  0.00     0.017 A 
ATOM      5  C4  UNL d   1       3.031   0.631  -2.892  0.00  0.00     0.017 A 
ATOM      6  C5  UNL d   1       2.590   1.666  -3.723  0.00  0.00     0.034 A 
ATOM      7 Cl   UNL d   1       4.683   0.140  -3.025  0.00  0.00    -0.070 Cl
ATOM      8 Cl1  UNL d   1       2.610  -1.248  -0.934  0.00  0.00    -0.070 Cl
ENDROOT
TORSDOF 0
ENDMDL
