MODEL 1
REMARK minimizedAffinity 6.79352188
REMARK minimizedRMSD -1
REMARK  0 active torsions:
REMARK  status: ('A' for Active; 'I' for Inactive)
ROOT
ATOM      1  C   UNL d   1       0.442   0.777  -2.365  0.00  0.00     0.020 A 
ATOM      2  C1  UNL d   1       0.875   1.078  -3.655  0.00  0.00     0.020 A 
ATOM      3  C2  UNL d   1       1.600   2.248  -3.893  0.00  0.00     0.034 A 
ATOM      4  C3  UNL d   1       1.894   3.120  -2.839  0.00  0.00     0.017 A 
ATOM      5  C4  UNL d   1       1.460   2.816  -1.544  0.00  0.00     0.017 A 
ATOM      6  C5  UNL d   1       0.734   1.644  -1.311  0.00  0.00     0.034 A 
ATOM      7 Cl   UNL d   1       1.785   3.844  -0.192  0.00  0.00    -0.070 Cl
ATOM      8 Cl1  UNL d   1       2.796   4.548  -3.205  0.00  0.00    -0.070 Cl
ENDROOT
TORSDOF 0
ENDMDL
