MODEL 1
REMARK minimizedAffinity 2.06070542
REMARK minimizedRMSD -1
REMARK  0 active torsions:
REMARK  status: ('A' for Active; 'I' for Inactive)
ROOT
ATOM      1  C   UNL d   1       0.190   1.054  -1.418  0.00  0.00     0.020 A 
ATOM      2  C1  UNL d   1       0.589   2.187  -0.710  0.00  0.00     0.020 A 
ATOM      3  C2  UNL d   1       1.409   3.139  -1.320  0.00  0.00     0.034 A 
ATOM      4  C3  UNL d   1       1.833   2.960  -2.642  0.00  0.00     0.017 A 
ATOM      5  C4  UNL d   1       1.432   1.822  -3.352  0.00  0.00     0.017 A 
ATOM      6  C5  UNL d   1       0.611   0.872  -2.737  0.00  0.00     0.034 A 
ATOM      7 Cl   UNL d   1       1.914   1.532  -4.986  0.00  0.00    -0.070 Cl
ATOM      8 Cl1  UNL d   1       2.845   4.177  -3.332  0.00  0.00    -0.070 Cl
ENDROOT
TORSDOF 0
ENDMDL
