MODEL 1
REMARK minimizedAffinity 6.75001907
REMARK minimizedRMSD -1
REMARK  0 active torsions:
REMARK  status: ('A' for Active; 'I' for Inactive)
ROOT
ATOM      1  C   UNL d   1       1.302   4.475  -5.569  0.00  0.00     0.020 A 
ATOM      2  C1  UNL d   1       2.627   4.513  -6.000  0.00  0.00     0.020 A 
ATOM      3  C2  UNL d   1       3.525   3.526  -5.586  0.00  0.00     0.034 A 
ATOM      4  C3  UNL d   1       3.098   2.498  -4.738  0.00  0.00     0.017 A 
ATOM      5  C4  UNL d   1       1.768   2.460  -4.305  0.00  0.00     0.017 A 
ATOM      6  C5  UNL d   1       0.873   3.451  -4.723  0.00  0.00     0.034 A 
ATOM      7 Cl   UNL d   1       1.167   1.223  -3.259  0.00  0.00    -0.070 Cl
ATOM      8 Cl1  UNL d   1       4.262   1.311  -4.265  0.00  0.00    -0.070 Cl
ENDROOT
TORSDOF 0
ENDMDL
