MODEL 1
REMARK minimizedAffinity 7.97020435
REMARK minimizedRMSD -1
REMARK  0 active torsions:
REMARK  status: ('A' for Active; 'I' for Inactive)
ROOT
ATOM      1  C   UNL d   1      -5.241  -0.091   2.542  0.00  0.00     0.020 A 
ATOM      2  C1  UNL d   1      -4.637  -1.347   2.559  0.00  0.00     0.020 A 
ATOM      3  C2  UNL d   1      -3.544  -1.585   3.395  0.00  0.00     0.034 A 
ATOM      4  C3  UNL d   1      -3.052  -0.565   4.217  0.00  0.00     0.017 A 
ATOM      5  C4  UNL d   1      -3.659   0.696   4.199  0.00  0.00     0.017 A 
ATOM      6  C5  UNL d   1      -4.754   0.928   3.360  0.00  0.00     0.034 A 
ATOM      7 Cl   UNL d   1      -3.109   2.004   5.186  0.00  0.00    -0.070 Cl
ATOM      8 Cl1  UNL d   1      -1.697  -0.929   5.226  0.00  0.00    -0.070 Cl
ENDROOT
TORSDOF 0
ENDMDL
