MODEL 1
REMARK minimizedAffinity 5.21866322
REMARK minimizedRMSD -1
REMARK  0 active torsions:
REMARK  status: ('A' for Active; 'I' for Inactive)
ROOT
ATOM      1  C   UNL d   1       0.844   0.235  -2.051  0.00  0.00     0.020 A 
ATOM      2  C1  UNL d   1       0.849   1.438  -1.346  0.00  0.00     0.020 A 
ATOM      3  C2  UNL d   1       1.450   2.570  -1.901  0.00  0.00     0.034 A 
ATOM      4  C3  UNL d   1       2.048   2.502  -3.165  0.00  0.00     0.017 A 
ATOM      5  C4  UNL d   1       2.042   1.294  -3.872  0.00  0.00     0.017 A 
ATOM      6  C5  UNL d   1       1.439   0.163  -3.311  0.00  0.00     0.034 A 
ATOM      7 Cl   UNL d   1       2.759   1.132  -5.436  0.00  0.00    -0.070 Cl
ATOM      8 Cl1  UNL d   1       2.771   3.941  -3.791  0.00  0.00    -0.070 Cl
ENDROOT
TORSDOF 0
ENDMDL
