MODEL 1
REMARK minimizedAffinity 4.38456917
REMARK minimizedRMSD -1
REMARK  0 active torsions:
REMARK  status: ('A' for Active; 'I' for Inactive)
ROOT
ATOM      1  C   UNL d   1       2.722   4.442  -1.935  0.00  0.00     0.020 A 
ATOM      2  C1  UNL d   1       3.788   4.533  -2.829  0.00  0.00     0.020 A 
ATOM      3  C2  UNL d   1       4.019   3.506  -3.747  0.00  0.00     0.034 A 
ATOM      4  C3  UNL d   1       3.183   2.384  -3.773  0.00  0.00     0.017 A 
ATOM      5  C4  UNL d   1       2.113   2.293  -2.876  0.00  0.00     0.017 A 
ATOM      6  C5  UNL d   1       1.887   3.324  -1.958  0.00  0.00     0.034 A 
ATOM      7 Cl   UNL d   1       1.039   0.940  -2.848  0.00  0.00    -0.070 Cl
ATOM      8 Cl1  UNL d   1       3.528   1.153  -4.935  0.00  0.00    -0.070 Cl
ENDROOT
TORSDOF 0
ENDMDL
