MODEL 1
REMARK minimizedAffinity 13.7500229
REMARK minimizedRMSD -1
REMARK  0 active torsions:
REMARK  status: ('A' for Active; 'I' for Inactive)
ROOT
ATOM      1  C   UNL d   1      -2.937   0.090   3.566  0.00  0.00     0.020 A 
ATOM      2  C1  UNL d   1      -3.793  -0.988   3.342  0.00  0.00     0.020 A 
ATOM      3  C2  UNL d   1      -4.431  -1.129   2.108  0.00  0.00     0.034 A 
ATOM      4  C3  UNL d   1      -4.214  -0.191   1.093  0.00  0.00     0.017 A 
ATOM      5  C4  UNL d   1      -3.356   0.891   1.318  0.00  0.00     0.017 A 
ATOM      6  C5  UNL d   1      -2.719   1.028   2.555  0.00  0.00     0.034 A 
ATOM      7 Cl   UNL d   1      -3.039   2.090   0.113  0.00  0.00    -0.070 Cl
ATOM      8 Cl1  UNL d   1      -5.036  -0.428  -0.409  0.00  0.00    -0.070 Cl
ENDROOT
TORSDOF 0
ENDMDL
