MODEL 1
REMARK minimizedAffinity -2.46794271
REMARK minimizedRMSD -1
REMARK  0 active torsions:
REMARK  status: ('A' for Active; 'I' for Inactive)
ROOT
ATOM      1  C   UNL d   1      -3.089   2.549   0.494  0.00  0.00     0.172 C 
ATOM      2  N   UNL d   1      -1.887   1.764   0.647  0.00  0.00    -0.070 N 
ATOM      3  C1  UNL d   1      -0.611   2.207   0.422  0.00  0.00    -0.004 A 
ATOM      4  C2  UNL d   1       0.250   1.163   0.679  0.00  0.00    -0.047 A 
ATOM      5  C3  UNL d   1      -0.535   0.053   1.073  0.00  0.00    -0.047 A 
ATOM      6  C4  UNL d   1      -1.855   0.454   1.044  0.00  0.00    -0.004 A 
ENDROOT
TORSDOF 0
ENDMDL
