MODEL 1
REMARK minimizedAffinity -0.0451538153
REMARK minimizedRMSD -1
REMARK  0 active torsions:
REMARK  status: ('A' for Active; 'I' for Inactive)
ROOT
ATOM      1  C   UNL d   1      -4.962   1.981   0.757  0.00  0.00     0.172 C 
ATOM      2  N   UNL d   1      -3.585   1.960   0.324  0.00  0.00    -0.070 N 
ATOM      3  C1  UNL d   1      -2.536   1.426   1.025  0.00  0.00    -0.004 A 
ATOM      4  C2  UNL d   1      -1.394   1.604   0.275  0.00  0.00    -0.047 A 
ATOM      5  C3  UNL d   1      -1.768   2.268  -0.917  0.00  0.00    -0.047 A 
ATOM      6  C4  UNL d   1      -3.130   2.477  -0.860  0.00  0.00    -0.004 A 
ENDROOT
TORSDOF 0
ENDMDL
