MODEL 1
REMARK minimizedAffinity -1.34303594
REMARK minimizedRMSD -1
REMARK  0 active torsions:
REMARK  status: ('A' for Active; 'I' for Inactive)
ROOT
ATOM      1  C   UNL d   1      -2.247  -5.245  -0.774  0.00  0.00     0.172 C 
ATOM      2  N   UNL d   1      -1.517  -5.535  -1.986  0.00  0.00    -0.070 N 
ATOM      3  C1  UNL d   1      -2.071  -5.763  -3.217  0.00  0.00    -0.004 A 
ATOM      4  C2  UNL d   1      -1.044  -5.999  -4.105  0.00  0.00    -0.047 A 
ATOM      5  C3  UNL d   1       0.170  -5.911  -3.382  0.00  0.00    -0.047 A 
ATOM      6  C4  UNL d   1      -0.152  -5.622  -2.073  0.00  0.00    -0.004 A 
ENDROOT
TORSDOF 0
ENDMDL
