MODEL 1
REMARK minimizedAffinity -1.34600627
REMARK minimizedRMSD -1
REMARK  0 active torsions:
REMARK  status: ('A' for Active; 'I' for Inactive)
ROOT
ATOM      1  C   UNL d   1      -4.820   1.992   0.661  0.00  0.00     0.172 C 
ATOM      2  N   UNL d   1      -3.408   1.693   0.602  0.00  0.00    -0.070 N 
ATOM      3  C1  UNL d   1      -2.802   0.593   1.147  0.00  0.00    -0.004 A 
ATOM      4  C2  UNL d   1      -1.453   0.676   0.874  0.00  0.00    -0.047 A 
ATOM      5  C3  UNL d   1      -1.242   1.868   0.141  0.00  0.00    -0.047 A 
ATOM      6  C4  UNL d   1      -2.469   2.478  -0.013  0.00  0.00    -0.004 A 
ENDROOT
TORSDOF 0
ENDMDL
