MODEL 1
REMARK minimizedAffinity 0.689805269
REMARK minimizedRMSD -1
REMARK  0 active torsions:
REMARK  status: ('A' for Active; 'I' for Inactive)
ROOT
ATOM      1  C   UNL d   1      -2.315   2.824   0.840  0.00  0.00     0.172 C 
ATOM      2  N   UNL d   1      -1.066   2.100   0.829  0.00  0.00    -0.070 N 
ATOM      3  C1  UNL d   1      -0.896   0.809   0.406  0.00  0.00    -0.004 A 
ATOM      4  C2  UNL d   1       0.436   0.488   0.554  0.00  0.00    -0.047 A 
ATOM      5  C3  UNL d   1       1.089   1.625   1.086  0.00  0.00    -0.047 A 
ATOM      6  C4  UNL d   1       0.135   2.608   1.247  0.00  0.00    -0.004 A 
ENDROOT
TORSDOF 0
ENDMDL
