MODEL 1
REMARK minimizedAffinity 0.379490077
REMARK minimizedRMSD -1
REMARK  0 active torsions:
REMARK  status: ('A' for Active; 'I' for Inactive)
ROOT
ATOM      1  C   UNL d   1      -1.063  -0.556   2.533  0.00  0.00     0.172 C 
ATOM      2  N   UNL d   1      -0.548   0.240   1.443  0.00  0.00    -0.070 N 
ATOM      3  C1  UNL d   1       0.775   0.486   1.190  0.00  0.00    -0.004 A 
ATOM      4  C2  UNL d   1       0.849   1.281   0.067  0.00  0.00    -0.047 A 
ATOM      5  C3  UNL d   1      -0.476   1.522  -0.369  0.00  0.00    -0.047 A 
ATOM      6  C4  UNL d   1      -1.321   0.866   0.501  0.00  0.00    -0.004 A 
ENDROOT
TORSDOF 0
ENDMDL
