MODEL 1
REMARK minimizedAffinity -1.64712512
REMARK minimizedRMSD -1
REMARK  0 active torsions:
REMARK  status: ('A' for Active; 'I' for Inactive)
ROOT
ATOM      1  C   UNL d   1      -3.974   2.276   0.275  0.00  0.00     0.172 C 
ATOM      2  N   UNL d   1      -2.658   1.684   0.319  0.00  0.00    -0.070 N 
ATOM      3  C1  UNL d   1      -1.509   2.254  -0.162  0.00  0.00    -0.004 A 
ATOM      4  C2  UNL d   1      -0.473   1.375   0.069  0.00  0.00    -0.047 A 
ATOM      5  C3  UNL d   1      -1.018   0.237   0.710  0.00  0.00    -0.047 A 
ATOM      6  C4  UNL d   1      -2.372   0.455   0.852  0.00  0.00    -0.004 A 
ENDROOT
TORSDOF 0
ENDMDL
