MODEL 1
REMARK minimizedAffinity 3.38256359
REMARK minimizedRMSD -1
REMARK  0 active torsions:
REMARK  status: ('A' for Active; 'I' for Inactive)
ROOT
ATOM      1  C   UNL d   1      -3.329   0.649   0.776  0.00  0.00     0.172 C 
ATOM      2  N   UNL d   1      -2.042   1.305   0.772  0.00  0.00    -0.070 N 
ATOM      3  C1  UNL d   1      -0.959   0.942   1.527  0.00  0.00    -0.004 A 
ATOM      4  C2  UNL d   1       0.069   1.812   1.235  0.00  0.00    -0.047 A 
ATOM      5  C3  UNL d   1      -0.413   2.730   0.272  0.00  0.00    -0.047 A 
ATOM      6  C4  UNL d   1      -1.723   2.393   0.003  0.00  0.00    -0.004 A 
ENDROOT
TORSDOF 0
ENDMDL
