MODEL 1
REMARK minimizedAffinity -1.79018819
REMARK minimizedRMSD -1
REMARK  0 active torsions:
REMARK  status: ('A' for Active; 'I' for Inactive)
ROOT
ATOM      1  C   UNL d   1      -0.128   1.972   0.821  0.00  0.00     0.172 C 
ATOM      2  N   UNL d   1      -1.501   1.524   0.792  0.00  0.00    -0.070 N 
ATOM      3  C1  UNL d   1      -1.955   0.312   1.239  0.00  0.00    -0.004 A 
ATOM      4  C2  UNL d   1      -3.317   0.271   1.038  0.00  0.00    -0.047 A 
ATOM      5  C3  UNL d   1      -3.696   1.501   0.449  0.00  0.00    -0.047 A 
ATOM      6  C4  UNL d   1      -2.551   2.258   0.309  0.00  0.00    -0.004 A 
ENDROOT
TORSDOF 0
ENDMDL
