MODEL 1
REMARK minimizedAffinity -0.38772884
REMARK minimizedRMSD -1
REMARK  0 active torsions:
REMARK  status: ('A' for Active; 'I' for Inactive)
ROOT
ATOM      1  C   UNL d   1       0.853   1.219   1.481  0.00  0.00     0.172 C 
ATOM      2  N   UNL d   1      -0.528   1.251   1.059  0.00  0.00    -0.070 N 
ATOM      3  C1  UNL d   1      -1.259   2.380   0.806  0.00  0.00    -0.004 A 
ATOM      4  C2  UNL d   1      -2.525   1.988   0.429  0.00  0.00    -0.047 A 
ATOM      5  C3  UNL d   1      -2.556   0.573   0.458  0.00  0.00    -0.047 A 
ATOM      6  C4  UNL d   1      -1.306   0.143   0.851  0.00  0.00    -0.004 A 
ENDROOT
TORSDOF 0
ENDMDL
