MODEL 1
REMARK minimizedAffinity -0.367304027
REMARK minimizedRMSD -1
REMARK  0 active torsions:
REMARK  status: ('A' for Active; 'I' for Inactive)
ROOT
ATOM      1  C   UNL d   1      -2.950   3.053   0.173  0.00  0.00     0.172 C 
ATOM      2  N   UNL d   1      -1.752   2.268   0.364  0.00  0.00    -0.070 N 
ATOM      3  C1  UNL d   1      -1.705   0.908   0.519  0.00  0.00    -0.004 A 
ATOM      4  C2  UNL d   1      -0.384   0.547   0.673  0.00  0.00    -0.047 A 
ATOM      5  C3  UNL d   1       0.389   1.730   0.609  0.00  0.00    -0.047 A 
ATOM      6  C4  UNL d   1      -0.483   2.781   0.417  0.00  0.00    -0.004 A 
ENDROOT
TORSDOF 0
ENDMDL
