MODEL 1
REMARK minimizedAffinity -2.05141759
REMARK minimizedRMSD -1
REMARK  0 active torsions:
REMARK  status: ('A' for Active; 'I' for Inactive)
ROOT
ATOM      1  C   UNL d   1      -3.468   2.354   0.646  0.00  0.00     0.172 C 
ATOM      2  N   UNL d   1      -2.185   1.691   0.629  0.00  0.00    -0.070 N 
ATOM      3  C1  UNL d   1      -1.826   0.627   1.412  0.00  0.00    -0.004 A 
ATOM      4  C2  UNL d   1      -0.528   0.289   1.095  0.00  0.00    -0.047 A 
ATOM      5  C3  UNL d   1      -0.091   1.183   0.088  0.00  0.00    -0.047 A 
ATOM      6  C4  UNL d   1      -1.137   2.040  -0.181  0.00  0.00    -0.004 A 
ENDROOT
TORSDOF 0
ENDMDL
