MODEL 1
REMARK minimizedAffinity -3.59251308
REMARK minimizedRMSD -1
REMARK  0 active torsions:
REMARK  status: ('A' for Active; 'I' for Inactive)
ROOT
ATOM      1  C   UNL d   1      -3.894   1.920   0.404  0.00  0.00     0.172 C 
ATOM      2  N   UNL d   1      -2.465   1.771   0.256  0.00  0.00    -0.070 N 
ATOM      3  C1  UNL d   1      -1.676   0.902   0.961  0.00  0.00    -0.004 A 
ATOM      4  C2  UNL d   1      -0.378   1.065   0.528  0.00  0.00    -0.047 A 
ATOM      5  C3  UNL d   1      -0.387   2.067  -0.471  0.00  0.00    -0.047 A 
ATOM      6  C4  UNL d   1      -1.692   2.486  -0.620  0.00  0.00    -0.004 A 
ENDROOT
TORSDOF 0
ENDMDL
