MODEL 1
REMARK minimizedAffinity -1.87043357
REMARK minimizedRMSD -1
REMARK  0 active torsions:
REMARK  status: ('A' for Active; 'I' for Inactive)
ROOT
ATOM      1  C   UNL d   1      -3.916   2.146   0.334  0.00  0.00     0.172 C 
ATOM      2  N   UNL d   1      -2.542   1.707   0.399  0.00  0.00    -0.070 N 
ATOM      3  C1  UNL d   1      -1.492   2.265  -0.281  0.00  0.00    -0.004 A 
ATOM      4  C2  UNL d   1      -0.354   1.563   0.051  0.00  0.00    -0.047 A 
ATOM      5  C3  UNL d   1      -0.732   0.548   0.961  0.00  0.00    -0.047 A 
ATOM      6  C4  UNL d   1      -2.092   0.660   1.159  0.00  0.00    -0.004 A 
ENDROOT
TORSDOF 0
ENDMDL
