MODEL 1
REMARK minimizedAffinity -3.29946756
REMARK minimizedRMSD -1
REMARK  0 active torsions:
REMARK  status: ('A' for Active; 'I' for Inactive)
ROOT
ATOM      1  C   UNL d   1      -3.896   1.599   0.194  0.00  0.00     0.172 C 
ATOM      2  N   UNL d   1      -2.459   1.513   0.080  0.00  0.00    -0.070 N 
ATOM      3  C1  UNL d   1      -1.671   2.314  -0.703  0.00  0.00    -0.004 A 
ATOM      4  C2  UNL d   1      -0.363   1.915  -0.532  0.00  0.00    -0.047 A 
ATOM      5  C3  UNL d   1      -0.365   0.836   0.384  0.00  0.00    -0.047 A 
ATOM      6  C4  UNL d   1      -1.676   0.609   0.747  0.00  0.00    -0.004 A 
ENDROOT
TORSDOF 0
ENDMDL
