MODEL 1
REMARK minimizedAffinity 0.208025306
REMARK minimizedRMSD -1
REMARK  0 active torsions:
REMARK  status: ('A' for Active; 'I' for Inactive)
ROOT
ATOM      1  C   UNL d   1      -4.398   2.664   0.496  0.00  0.00     0.172 C 
ATOM      2  N   UNL d   1      -3.044   2.188   0.345  0.00  0.00    -0.070 N 
ATOM      3  C1  UNL d   1      -2.095   2.726  -0.483  0.00  0.00    -0.004 A 
ATOM      4  C2  UNL d   1      -0.940   1.989  -0.336  0.00  0.00    -0.047 A 
ATOM      5  C3  UNL d   1      -1.203   0.973   0.612  0.00  0.00    -0.047 A 
ATOM      6  C4  UNL d   1      -2.513   1.119   1.018  0.00  0.00    -0.004 A 
ENDROOT
TORSDOF 0
ENDMDL
