MODEL 1
REMARK minimizedAffinity -1.57040906
REMARK minimizedRMSD -1
REMARK  0 active torsions:
REMARK  status: ('A' for Active; 'I' for Inactive)
ROOT
ATOM      1  C   UNL d   1      -1.822  -0.426   1.341  0.00  0.00     0.172 C 
ATOM      2  N   UNL d   1      -1.402   0.647   0.470  0.00  0.00    -0.070 N 
ATOM      3  C1  UNL d   1      -0.111   0.917   0.101  0.00  0.00    -0.004 A 
ATOM      4  C2  UNL d   1      -0.131   2.013  -0.734  0.00  0.00    -0.047 A 
ATOM      5  C3  UNL d   1      -1.481   2.417  -0.870  0.00  0.00    -0.047 A 
ATOM      6  C4  UNL d   1      -2.246   1.554  -0.115  0.00  0.00    -0.004 A 
ENDROOT
TORSDOF 0
ENDMDL
