MODEL 1
REMARK minimizedAffinity 0.593149543
REMARK minimizedRMSD -1
REMARK  0 active torsions:
REMARK  status: ('A' for Active; 'I' for Inactive)
ROOT
ATOM      1  C   UNL d   1       5.156   5.986   4.386  0.00  0.00     0.172 C 
ATOM      2  N   UNL d   1       4.988   5.960   2.952  0.00  0.00    -0.070 N 
ATOM      3  C1  UNL d   1       6.000   5.913   2.031  0.00  0.00    -0.004 A 
ATOM      4  C2  UNL d   1       5.428   5.901   0.777  0.00  0.00    -0.047 A 
ATOM      5  C3  UNL d   1       4.025   5.943   0.950  0.00  0.00    -0.047 A 
ATOM      6  C4  UNL d   1       3.780   5.979   2.307  0.00  0.00    -0.004 A 
ENDROOT
TORSDOF 0
ENDMDL
