MODEL 1
REMARK minimizedAffinity 27.85779
REMARK minimizedRMSD -1
REMARK  0 active torsions:
REMARK  status: ('A' for Active; 'I' for Inactive)
ROOT
ATOM      1  C   UNL d   1       0.943  -4.292   1.575  0.00  0.00     0.124 A 
ATOM      2  C1  UNL d   1      -0.087  -3.641   0.910  0.00  0.00     0.062 A 
ATOM      3  C2  UNL d   1      -0.097  -3.586  -0.481  0.00  0.00     0.162 A 
ATOM      4  C3  UNL d   1       0.926  -4.185  -1.216  0.00  0.00    -0.034 A 
ATOM      5  C4  UNL d   1       1.959  -4.837  -0.540  0.00  0.00     0.162 A 
ATOM      6  C5  UNL d   1       1.964  -4.889   0.850  0.00  0.00     0.062 A 
ATOM      7  F   UNL d   1       2.960  -5.518   1.491  0.00  0.00    -0.097 F 
ATOM      8  F1  UNL d   1       2.958  -5.424  -1.216  0.00  0.00    -0.096 F 
ATOM      9  I   UNL d   1       0.915  -4.106  -3.296  0.00  0.00    -0.060 I 
ATOM     10  F2  UNL d   1      -1.104  -2.951  -1.098  0.00  0.00    -0.096 F 
ATOM     11  F3  UNL d   1      -1.074  -3.062   1.608  0.00  0.00    -0.097 F 
ATOM     12  F4  UNL d   1       0.951  -4.342   2.913  0.00  0.00    -0.092 F 
ENDROOT
TORSDOF 0
ENDMDL
