MODEL 1
REMARK minimizedAffinity 31.4704189
REMARK minimizedRMSD -1
REMARK  0 active torsions:
REMARK  status: ('A' for Active; 'I' for Inactive)
ROOT
ATOM      1  C   UNL d   1       0.133  -2.831   1.759  0.00  0.00     0.124 A 
ATOM      2  C1  UNL d   1       1.446  -2.905   1.316  0.00  0.00     0.062 A 
ATOM      3  C2  UNL d   1       2.211  -1.749   1.196  0.00  0.00     0.162 A 
ATOM      4  C3  UNL d   1       1.665  -0.507   1.521  0.00  0.00    -0.034 A 
ATOM      5  C4  UNL d   1       0.343  -0.440   1.965  0.00  0.00     0.162 A 
ATOM      6  C5  UNL d   1      -0.418  -1.599   2.083  0.00  0.00     0.062 A 
ATOM      7  F   UNL d   1      -1.686  -1.525   2.511  0.00  0.00    -0.097 F 
ATOM      8  F1  UNL d   1      -0.214   0.737   2.285  0.00  0.00    -0.096 F 
ATOM      9  I   UNL d   1       2.805   1.225   1.343  0.00  0.00    -0.060 I 
ATOM     10  F2  UNL d   1       3.477  -1.850   0.766  0.00  0.00    -0.096 F 
ATOM     11  F3  UNL d   1       1.980  -4.095   1.001  0.00  0.00    -0.097 F 
ATOM     12  F4  UNL d   1      -0.601  -3.945   1.872  0.00  0.00    -0.092 F 
ENDROOT
TORSDOF 0
ENDMDL
