MODEL 1
REMARK minimizedAffinity 33.4500694
REMARK minimizedRMSD -1
REMARK  0 active torsions:
REMARK  status: ('A' for Active; 'I' for Inactive)
ROOT
ATOM      1  C   UNL d   1       1.978   0.221   3.398  0.00  0.00     0.124 A 
ATOM      2  C1  UNL d   1       0.857  -0.487   2.987  0.00  0.00     0.062 A 
ATOM      3  C2  UNL d   1       0.965  -1.454   1.992  0.00  0.00     0.162 A 
ATOM      4  C3  UNL d   1       2.200  -1.719   1.400  0.00  0.00    -0.034 A 
ATOM      5  C4  UNL d   1       3.323  -1.002   1.817  0.00  0.00     0.162 A 
ATOM      6  C5  UNL d   1       3.210  -0.037   2.813  0.00  0.00     0.062 A 
ATOM      7  F   UNL d   1       4.294   0.646   3.208  0.00  0.00    -0.097 F 
ATOM      8  F1  UNL d   1       4.526  -1.231   1.269  0.00  0.00    -0.096 F 
ATOM      9  I   UNL d   1       2.366  -3.163  -0.090  0.00  0.00    -0.060 I 
ATOM     10  F2  UNL d   1      -0.134  -2.123   1.615  0.00  0.00    -0.096 F 
ATOM     11  F3  UNL d   1      -0.334  -0.239   3.551  0.00  0.00    -0.097 F 
ATOM     12  F4  UNL d   1       1.871   1.151   4.356  0.00  0.00    -0.092 F 
ENDROOT
TORSDOF 0
ENDMDL
