MODEL 1
REMARK minimizedAffinity 28.2327576
REMARK minimizedRMSD -1
REMARK  0 active torsions:
REMARK  status: ('A' for Active; 'I' for Inactive)
ROOT
ATOM      1  C   UNL d   1       0.891  -3.927   1.172  0.00  0.00     0.124 A 
ATOM      2  C1  UNL d   1       0.192  -2.881   1.759  0.00  0.00     0.062 A 
ATOM      3  C2  UNL d   1       0.758  -1.611   1.826  0.00  0.00     0.162 A 
ATOM      4  C3  UNL d   1       2.030  -1.379   1.304  0.00  0.00    -0.034 A 
ATOM      5  C4  UNL d   1       2.728  -2.436   0.716  0.00  0.00     0.162 A 
ATOM      6  C5  UNL d   1       2.158  -3.703   0.652  0.00  0.00     0.062 A 
ATOM      7  F   UNL d   1       2.835  -4.712   0.084  0.00  0.00    -0.097 F 
ATOM      8  F1  UNL d   1       3.953  -2.248   0.204  0.00  0.00    -0.096 F 
ATOM      9  I   UNL d   1       2.880   0.518   1.403  0.00  0.00    -0.060 I 
ATOM     10  F2  UNL d   1       0.059  -0.620   2.399  0.00  0.00    -0.096 F 
ATOM     11  F3  UNL d   1      -1.032  -3.095   2.264  0.00  0.00    -0.097 F 
ATOM     12  F4  UNL d   1       0.345  -5.148   1.110  0.00  0.00    -0.092 F 
ENDROOT
TORSDOF 0
ENDMDL
