MODEL 1
REMARK minimizedAffinity 25.6999989
REMARK minimizedRMSD -1
REMARK  0 active torsions:
REMARK  status: ('A' for Active; 'I' for Inactive)
ROOT
ATOM      1  C   UNL d   1       3.194   1.764  -1.282  0.00  0.00     0.124 A 
ATOM      2  C1  UNL d   1       2.771   1.695  -2.602  0.00  0.00     0.062 A 
ATOM      3  C2  UNL d   1       1.490   2.113  -2.950  0.00  0.00     0.162 A 
ATOM      4  C3  UNL d   1       0.621   2.604  -1.975  0.00  0.00    -0.034 A 
ATOM      5  C4  UNL d   1       1.053   2.669  -0.649  0.00  0.00     0.162 A 
ATOM      6  C5  UNL d   1       2.335   2.250  -0.307  0.00  0.00     0.062 A 
ATOM      7  F   UNL d   1       2.741   2.317   0.969  0.00  0.00    -0.097 F 
ATOM      8  F1  UNL d   1       0.243   3.135   0.313  0.00  0.00    -0.096 F 
ATOM      9  I   UNL d   1      -1.296   3.229  -2.490  0.00  0.00    -0.060 I 
ATOM     10  F2  UNL d   1       1.108   2.035  -4.233  0.00  0.00    -0.096 F 
ATOM     11  F3  UNL d   1       3.599   1.225  -3.546  0.00  0.00    -0.097 F 
ATOM     12  F4  UNL d   1       4.427   1.360  -0.950  0.00  0.00    -0.092 F 
ENDROOT
TORSDOF 0
ENDMDL
