MODEL 1
REMARK minimizedAffinity 27.3510971
REMARK minimizedRMSD -1
REMARK  0 active torsions:
REMARK  status: ('A' for Active; 'I' for Inactive)
ROOT
ATOM      1  C   UNL d   1       0.280  -3.075   1.885  0.00  0.00     0.124 A 
ATOM      2  C1  UNL d   1       1.577  -3.165   1.400  0.00  0.00     0.062 A 
ATOM      3  C2  UNL d   1       2.337  -2.014   1.214  0.00  0.00     0.162 A 
ATOM      4  C3  UNL d   1       1.801  -0.761   1.513  0.00  0.00    -0.034 A 
ATOM      5  C4  UNL d   1       0.495  -0.678   2.000  0.00  0.00     0.162 A 
ATOM      6  C5  UNL d   1      -0.260  -1.832   2.184  0.00  0.00     0.062 A 
ATOM      7  F   UNL d   1      -1.514  -1.743   2.652  0.00  0.00    -0.097 F 
ATOM      8  F1  UNL d   1      -0.051   0.510   2.298  0.00  0.00    -0.096 F 
ATOM      9  I   UNL d   1       2.933   0.963   1.236  0.00  0.00    -0.060 I 
ATOM     10  F2  UNL d   1       3.587  -2.131   0.744  0.00  0.00    -0.096 F 
ATOM     11  F3  UNL d   1       2.101  -4.365   1.109  0.00  0.00    -0.097 F 
ATOM     12  F4  UNL d   1      -0.449  -4.184   2.062  0.00  0.00    -0.092 F 
ENDROOT
TORSDOF 0
ENDMDL
