MODEL 1
REMARK minimizedAffinity 26.389576
REMARK minimizedRMSD -1
REMARK  0 active torsions:
REMARK  status: ('A' for Active; 'I' for Inactive)
ROOT
ATOM      1  C   UNL d   1      -1.987   3.882  -4.237  0.00  0.00     0.124 A 
ATOM      2  C1  UNL d   1      -1.888   2.801  -3.371  0.00  0.00     0.062 A 
ATOM      3  C2  UNL d   1      -0.919   2.791  -2.372  0.00  0.00     0.162 A 
ATOM      4  C3  UNL d   1      -0.041   3.866  -2.232  0.00  0.00    -0.034 A 
ATOM      5  C4  UNL d   1      -0.146   4.949  -3.107  0.00  0.00     0.162 A 
ATOM      6  C5  UNL d   1      -1.116   4.954  -4.104  0.00  0.00     0.062 A 
ATOM      7  F   UNL d   1      -1.210   5.999  -4.939  0.00  0.00    -0.097 F 
ATOM      8  F1  UNL d   1       0.682   5.999  -3.000  0.00  0.00    -0.096 F 
ATOM      9  I   UNL d   1       1.410   3.854  -0.739  0.00  0.00    -0.060 I 
ATOM     10  F2  UNL d   1      -0.846   1.733  -1.550  0.00  0.00    -0.096 F 
ATOM     11  F3  UNL d   1      -2.727   1.763  -3.498  0.00  0.00    -0.097 F 
ATOM     12  F4  UNL d   1      -2.919   3.889  -5.198  0.00  0.00    -0.092 F 
ENDROOT
TORSDOF 0
ENDMDL
