MODEL 1
REMARK minimizedAffinity 24.2850933
REMARK minimizedRMSD -1
REMARK  0 active torsions:
REMARK  status: ('A' for Active; 'I' for Inactive)
ROOT
ATOM      1  C   UNL d   1      -4.689  -4.062   0.509  0.00  0.00     0.124 A 
ATOM      2  C1  UNL d   1      -4.248  -3.233   1.531  0.00  0.00     0.062 A 
ATOM      3  C2  UNL d   1      -2.887  -3.103   1.789  0.00  0.00     0.162 A 
ATOM      4  C3  UNL d   1      -1.955  -3.804   1.023  0.00  0.00    -0.034 A 
ATOM      5  C4  UNL d   1      -2.407  -4.637  -0.002  0.00  0.00     0.162 A 
ATOM      6  C5  UNL d   1      -3.768  -4.763  -0.256  0.00  0.00     0.062 A 
ATOM      7  F   UNL d   1      -4.192  -5.565  -1.244  0.00  0.00    -0.097 F 
ATOM      8  F1  UNL d   1      -1.538  -5.326  -0.758  0.00  0.00    -0.096 F 
ATOM      9  I   UNL d   1       0.081  -3.613   1.406  0.00  0.00    -0.060 I 
ATOM     10  F2  UNL d   1      -2.489  -2.295   2.783  0.00  0.00    -0.096 F 
ATOM     11  F3  UNL d   1      -5.136  -2.555   2.272  0.00  0.00    -0.097 F 
ATOM     12  F4  UNL d   1      -6.000  -4.186   0.263  0.00  0.00    -0.092 F 
ENDROOT
TORSDOF 0
ENDMDL
