MODEL 1
REMARK minimizedAffinity 32.7345123
REMARK minimizedRMSD -1
REMARK  0 active torsions:
REMARK  status: ('A' for Active; 'I' for Inactive)
ROOT
ATOM      1  C   UNL d   1       0.813  -4.219  -3.002  0.00  0.00     0.124 A 
ATOM      2  C1  UNL d   1      -0.234  -3.357  -2.704  0.00  0.00     0.062 A 
ATOM      3  C2  UNL d   1      -0.395  -2.871  -1.410  0.00  0.00     0.162 A 
ATOM      4  C3  UNL d   1       0.495  -3.244  -0.403  0.00  0.00    -0.034 A 
ATOM      5  C4  UNL d   1       1.545  -4.112  -0.709  0.00  0.00     0.162 A 
ATOM      6  C5  UNL d   1       1.702  -4.595  -2.004  0.00  0.00     0.062 A 
ATOM      7  F   UNL d   1       2.714  -5.427  -2.289  0.00  0.00    -0.097 F 
ATOM      8  F1  UNL d   1       2.418  -4.491   0.236  0.00  0.00    -0.096 F 
ATOM      9  I   UNL d   1       0.258  -2.520   1.534  0.00  0.00    -0.060 I 
ATOM     10  F2  UNL d   1      -1.416  -2.041  -1.152  0.00  0.00    -0.096 F 
ATOM     11  F3  UNL d   1      -1.094  -2.993  -3.666  0.00  0.00    -0.097 F 
ATOM     12  F4  UNL d   1       0.965  -4.686  -4.247  0.00  0.00    -0.092 F 
ENDROOT
TORSDOF 0
ENDMDL
