MODEL 1
REMARK minimizedAffinity 20.5882778
REMARK minimizedRMSD -1
REMARK  0 active torsions:
REMARK  status: ('A' for Active; 'I' for Inactive)
ROOT
ATOM      1  C   UNL d   1      -0.177  -4.328  -2.990  0.00  0.00     0.124 A 
ATOM      2  C1  UNL d   1      -0.131  -5.165  -4.097  0.00  0.00     0.062 A 
ATOM      3  C2  UNL d   1       0.978  -5.154  -4.937  0.00  0.00     0.162 A 
ATOM      4  C3  UNL d   1       2.052  -4.304  -4.673  0.00  0.00    -0.034 A 
ATOM      5  C4  UNL d   1       1.998  -3.464  -3.559  0.00  0.00     0.162 A 
ATOM      6  C5  UNL d   1       0.887  -3.479  -2.723  0.00  0.00     0.062 A 
ATOM      7  F   UNL d   1       0.844  -2.670  -1.654  0.00  0.00    -0.097 F 
ATOM      8  F1  UNL d   1       3.013  -2.635  -3.276  0.00  0.00    -0.096 F 
ATOM      9  I   UNL d   1       3.713  -4.284  -5.927  0.00  0.00    -0.060 I 
ATOM     10  F2  UNL d   1       0.996  -5.973  -5.999  0.00  0.00    -0.096 F 
ATOM     11  F3  UNL d   1      -1.159  -5.986  -4.358  0.00  0.00    -0.097 F 
ATOM     12  F4  UNL d   1      -1.247  -4.340  -2.184  0.00  0.00    -0.092 F 
ENDROOT
TORSDOF 0
ENDMDL
