MODEL 1
REMARK minimizedAffinity 16.4885559
REMARK minimizedRMSD -1
REMARK  0 active torsions:
REMARK  status: ('A' for Active; 'I' for Inactive)
ROOT
ATOM      1  C   UNL d   1       1.838   1.491   0.201  0.00  0.00     0.124 A 
ATOM      2  C1  UNL d   1       2.903   0.952   0.909  0.00  0.00     0.062 A 
ATOM      3  C2  UNL d   1       2.880  -0.385   1.298  0.00  0.00     0.162 A 
ATOM      4  C3  UNL d   1       1.787  -1.191   0.979  0.00  0.00    -0.034 A 
ATOM      5  C4  UNL d   1       0.719  -0.641   0.268  0.00  0.00     0.162 A 
ATOM      6  C5  UNL d   1       0.747   0.695  -0.118  0.00  0.00     0.062 A 
ATOM      7  F   UNL d   1      -0.283   1.214  -0.802  0.00  0.00    -0.097 F 
ATOM      8  F1  UNL d   1      -0.347  -1.389  -0.054  0.00  0.00    -0.096 F 
ATOM      9  I   UNL d   1       1.749  -3.190   1.559  0.00  0.00    -0.060 I 
ATOM     10  F2  UNL d   1       3.923  -0.879   1.980  0.00  0.00    -0.096 F 
ATOM     11  F3  UNL d   1       3.957   1.719   1.219  0.00  0.00    -0.097 F 
ATOM     12  F4  UNL d   1       1.862   2.778  -0.171  0.00  0.00    -0.092 F 
ENDROOT
TORSDOF 0
ENDMDL
