MODEL 1
REMARK minimizedAffinity 24.5042629
REMARK minimizedRMSD -1
REMARK  0 active torsions:
REMARK  status: ('A' for Active; 'I' for Inactive)
ROOT
ATOM      1  C   UNL d   1       0.975   2.368  -2.090  0.00  0.00     0.124 A 
ATOM      2  C1  UNL d   1       0.531   2.296  -0.777  0.00  0.00     0.062 A 
ATOM      3  C2  UNL d   1      -0.816   2.486  -0.482  0.00  0.00     0.162 A 
ATOM      4  C3  UNL d   1      -1.730   2.750  -1.503  0.00  0.00    -0.034 A 
ATOM      5  C4  UNL d   1      -1.276   2.822  -2.821  0.00  0.00     0.162 A 
ATOM      6  C5  UNL d   1       0.072   2.631  -3.110  0.00  0.00     0.062 A 
ATOM      7  F   UNL d   1       0.499   2.701  -4.380  0.00  0.00    -0.097 F 
ATOM      8  F1  UNL d   1      -2.127   3.073  -3.826  0.00  0.00    -0.096 F 
ATOM      9  I   UNL d   1      -3.744   3.034  -1.065  0.00  0.00    -0.060 I 
ATOM     10  F2  UNL d   1      -1.217   2.411   0.796  0.00  0.00    -0.096 F 
ATOM     11  F3  UNL d   1       1.402   2.044   0.211  0.00  0.00    -0.097 F 
ATOM     12  F4  UNL d   1       2.272   2.186  -2.371  0.00  0.00    -0.092 F 
ENDROOT
TORSDOF 0
ENDMDL
