MODEL 1
REMARK minimizedAffinity 26.9107838
REMARK minimizedRMSD -1
REMARK  0 active torsions:
REMARK  status: ('A' for Active; 'I' for Inactive)
ROOT
ATOM      1  C   UNL d   1      -2.299   2.363  -3.518  0.00  0.00     0.124 A 
ATOM      2  C1  UNL d   1      -2.498   3.615  -4.083  0.00  0.00     0.062 A 
ATOM      3  C2  UNL d   1      -1.614   4.655  -3.810  0.00  0.00     0.162 A 
ATOM      4  C3  UNL d   1      -0.522   4.447  -2.968  0.00  0.00    -0.034 A 
ATOM      5  C4  UNL d   1      -0.329   3.186  -2.402  0.00  0.00     0.162 A 
ATOM      6  C5  UNL d   1      -1.215   2.150  -2.678  0.00  0.00     0.062 A 
ATOM      7  F   UNL d   1      -1.021   0.941  -2.130  0.00  0.00    -0.097 F 
ATOM      8  F1  UNL d   1       0.711   2.952  -1.588  0.00  0.00    -0.096 F 
ATOM      9  I   UNL d   1       0.802   6.000  -2.558  0.00  0.00    -0.060 I 
ATOM     10  F2  UNL d   1      -1.831   5.854  -4.371  0.00  0.00    -0.096 F 
ATOM     11  F3  UNL d   1      -3.545   3.824  -4.894  0.00  0.00    -0.097 F 
ATOM     12  F4  UNL d   1      -3.151   1.364  -3.781  0.00  0.00    -0.092 F 
ENDROOT
TORSDOF 0
ENDMDL
