MODEL 1
REMARK minimizedAffinity 16.7934761
REMARK minimizedRMSD -1
REMARK  0 active torsions:
REMARK  status: ('A' for Active; 'I' for Inactive)
ROOT
ATOM      1  C   UNL d   1       3.882  -0.363   1.683  0.00  0.00     0.124 A 
ATOM      2  C1  UNL d   1       4.184   0.973   1.461  0.00  0.00     0.062 A 
ATOM      3  C2  UNL d   1       3.218   1.832   0.945  0.00  0.00     0.162 A 
ATOM      4  C3  UNL d   1       1.940   1.358   0.648  0.00  0.00    -0.034 A 
ATOM      5  C4  UNL d   1       1.644   0.013   0.874  0.00  0.00     0.162 A 
ATOM      6  C5  UNL d   1       2.613  -0.842   1.390  0.00  0.00     0.062 A 
ATOM      7  F   UNL d   1       2.319  -2.133   1.604  0.00  0.00    -0.097 F 
ATOM      8  F1  UNL d   1       0.426  -0.477   0.600  0.00  0.00    -0.096 F 
ATOM      9  I   UNL d   1       0.493   2.640  -0.124  0.00  0.00    -0.060 I 
ATOM     10  F2  UNL d   1       3.537   3.119   0.740  0.00  0.00    -0.096 F 
ATOM     11  F3  UNL d   1       5.409   1.438   1.743  0.00  0.00    -0.097 F 
ATOM     12  F4  UNL d   1       4.813  -1.188   2.179  0.00  0.00    -0.092 F 
ENDROOT
TORSDOF 0
ENDMDL
