MODEL 1
REMARK minimizedAffinity 13.1303587
REMARK minimizedRMSD -1
REMARK  0 active torsions:
REMARK  status: ('A' for Active; 'I' for Inactive)
ROOT
ATOM      1  C   UNL d   1       1.834  -0.751   2.239  0.00  0.00     0.124 A 
ATOM      2  C1  UNL d   1       0.472  -0.903   2.020  0.00  0.00     0.062 A 
ATOM      3  C2  UNL d   1      -0.417  -0.879   3.091  0.00  0.00     0.162 A 
ATOM      4  C3  UNL d   1       0.054  -0.700   4.391  0.00  0.00    -0.034 A 
ATOM      5  C4  UNL d   1       1.425  -0.548   4.604  0.00  0.00     0.162 A 
ATOM      6  C5  UNL d   1       2.309  -0.574   3.531  0.00  0.00     0.062 A 
ATOM      7  F   UNL d   1       3.625  -0.427   3.744  0.00  0.00    -0.097 F 
ATOM      8  F1  UNL d   1       1.911  -0.375   5.842  0.00  0.00    -0.096 F 
ATOM      9  I   UNL d   1      -1.272  -0.662   5.996  0.00  0.00    -0.060 I 
ATOM     10  F2  UNL d   1      -1.728  -1.028   2.849  0.00  0.00    -0.096 F 
ATOM     11  F3  UNL d   1       0.010  -1.076   0.773  0.00  0.00    -0.097 F 
ATOM     12  F4  UNL d   1       2.686  -0.776   1.207  0.00  0.00    -0.092 F 
ENDROOT
TORSDOF 0
ENDMDL
