MODEL 1
REMARK minimizedAffinity 21.6262112
REMARK minimizedRMSD -1
REMARK  0 active torsions:
REMARK  status: ('A' for Active; 'I' for Inactive)
ROOT
ATOM      1  C   UNL d   1      -5.073  -5.113   0.471  0.00  0.00     0.124 A 
ATOM      2  C1  UNL d   1      -4.123  -4.663  -0.436  0.00  0.00     0.062 A 
ATOM      3  C2  UNL d   1      -3.159  -3.740  -0.040  0.00  0.00     0.162 A 
ATOM      4  C3  UNL d   1      -3.140  -3.261   1.270  0.00  0.00    -0.034 A 
ATOM      5  C4  UNL d   1      -4.099  -3.717   2.176  0.00  0.00     0.162 A 
ATOM      6  C5  UNL d   1      -5.060  -4.640   1.775  0.00  0.00     0.062 A 
ATOM      7  F   UNL d   1      -5.978  -5.073   2.652  0.00  0.00    -0.097 F 
ATOM      8  F1  UNL d   1      -4.110  -3.277   3.443  0.00  0.00    -0.096 F 
ATOM      9  I   UNL d   1      -1.700  -1.881   1.867  0.00  0.00    -0.060 I 
ATOM     10  F2  UNL d   1      -2.253  -3.323  -0.937  0.00  0.00    -0.096 F 
ATOM     11  F3  UNL d   1      -4.133  -5.118  -1.697  0.00  0.00    -0.097 F 
ATOM     12  F4  UNL d   1      -6.000  -6.000   0.087  0.00  0.00    -0.092 F 
ENDROOT
TORSDOF 0
ENDMDL
