MODEL 1
REMARK minimizedAffinity 38.6163673
REMARK minimizedRMSD -1
REMARK  0 active torsions:
REMARK  status: ('A' for Active; 'I' for Inactive)
ROOT
ATOM      1  C   UNL d   1      -0.001   2.401  -1.917  0.00  0.00     0.124 A 
ATOM      2  C1  UNL d   1       0.442   3.713  -1.815  0.00  0.00     0.062 A 
ATOM      3  C2  UNL d   1      -0.274   4.742  -2.420  0.00  0.00     0.162 A 
ATOM      4  C3  UNL d   1      -1.442   4.464  -3.131  0.00  0.00    -0.034 A 
ATOM      5  C4  UNL d   1      -1.880   3.142  -3.229  0.00  0.00     0.162 A 
ATOM      6  C5  UNL d   1      -1.161   2.117  -2.623  0.00  0.00     0.062 A 
ATOM      7  F   UNL d   1      -1.590   0.851  -2.722  0.00  0.00    -0.097 F 
ATOM      8  F1  UNL d   1      -2.998   2.839  -3.905  0.00  0.00    -0.096 F 
ATOM      9  I   UNL d   1      -2.515   6.000  -4.036  0.00  0.00    -0.060 I 
ATOM     10  F2  UNL d   1       0.177   6.000  -2.306  0.00  0.00    -0.096 F 
ATOM     11  F3  UNL d   1       1.563   3.990  -1.134  0.00  0.00    -0.097 F 
ATOM     12  F4  UNL d   1       0.691   1.413  -1.335  0.00  0.00    -0.092 F 
ENDROOT
TORSDOF 0
ENDMDL
