MODEL 1
REMARK minimizedAffinity 11.1104994
REMARK minimizedRMSD -1
REMARK  0 active torsions:
REMARK  status: ('A' for Active; 'I' for Inactive)
ROOT
ATOM      1  C   UNL d   1      -3.709  -3.266   1.628  0.00  0.00     0.124 A 
ATOM      2  C1  UNL d   1      -4.617  -4.312   1.545  0.00  0.00     0.062 A 
ATOM      3  C2  UNL d   1      -5.119  -4.898   2.703  0.00  0.00     0.162 A 
ATOM      4  C3  UNL d   1      -4.714  -4.438   3.957  0.00  0.00    -0.034 A 
ATOM      5  C4  UNL d   1      -3.800  -3.386   4.033  0.00  0.00     0.162 A 
ATOM      6  C5  UNL d   1      -3.301  -2.804   2.872  0.00  0.00     0.062 A 
ATOM      7  F   UNL d   1      -2.424  -1.793   2.954  0.00  0.00    -0.097 F 
ATOM      8  F1  UNL d   1      -3.389  -2.919   5.221  0.00  0.00    -0.096 F 
ATOM      9  I   UNL d   1      -5.462  -5.311   5.691  0.00  0.00    -0.060 I 
ATOM     10  F2  UNL d   1      -5.995  -5.907   2.593  0.00  0.00    -0.096 F 
ATOM     11  F3  UNL d   1      -5.012  -4.761   0.345  0.00  0.00    -0.097 F 
ATOM     12  F4  UNL d   1      -3.227  -2.705   0.512  0.00  0.00    -0.092 F 
ENDROOT
TORSDOF 0
ENDMDL
