MODEL 1
REMARK minimizedAffinity 8.29672432
REMARK minimizedRMSD -1
REMARK  0 active torsions:
REMARK  status: ('A' for Active; 'I' for Inactive)
ROOT
ATOM      1  C   UNL d   1      -1.283  -3.954  -6.000  0.00  0.00     0.078 C 
ATOM      2  C1  UNL d   1       0.103  -3.545  -5.599  0.00  0.00    -0.077 A 
ATOM      3  C2  UNL d   1       1.219  -4.290  -6.000  0.00  0.00    -0.001 A 
ATOM      4  C3  UNL d   1       2.502  -3.903  -5.611  0.00  0.00     0.003 A 
ATOM      5  C4  UNL d   1       2.682  -2.771  -4.817  0.00  0.00    -0.005 A 
ATOM      6  C5  UNL d   1       1.577  -2.025  -4.412  0.00  0.00     0.003 A 
ATOM      7  C6  UNL d   1       0.293  -2.411  -4.800  0.00  0.00    -0.001 A 
ENDROOT
TORSDOF 0
ENDMDL
