MODEL 1
REMARK minimizedAffinity 3.4289391
REMARK minimizedRMSD -1
REMARK  0 active torsions:
REMARK  status: ('A' for Active; 'I' for Inactive)
ROOT
ATOM      1  C   UNL d   1       2.066  -2.933   5.523  0.00  0.00     0.078 C 
ATOM      2  C1  UNL d   1       1.437  -1.971   4.560  0.00  0.00    -0.077 A 
ATOM      3  C2  UNL d   1       1.612  -0.589   4.703  0.00  0.00    -0.001 A 
ATOM      4  C3  UNL d   1       1.013   0.295   3.804  0.00  0.00     0.003 A 
ATOM      5  C4  UNL d   1       0.234  -0.193   2.757  0.00  0.00    -0.005 A 
ATOM      6  C5  UNL d   1       0.053  -1.566   2.608  0.00  0.00     0.003 A 
ATOM      7  C6  UNL d   1       0.651  -2.452   3.505  0.00  0.00    -0.001 A 
ENDROOT
TORSDOF 0
ENDMDL
