MODEL 1
REMARK minimizedAffinity 5.65902424
REMARK minimizedRMSD -1
REMARK  0 active torsions:
REMARK  status: ('A' for Active; 'I' for Inactive)
ROOT
ATOM      1  C   UNL d   1      -1.447  -3.914  -5.284  0.00  0.00     0.078 C 
ATOM      2  C1  UNL d   1      -0.982  -2.692  -4.548  0.00  0.00    -0.077 A 
ATOM      3  C2  UNL d   1      -1.527  -2.349  -3.305  0.00  0.00    -0.001 A 
ATOM      4  C3  UNL d   1      -1.092  -1.204  -2.636  0.00  0.00     0.003 A 
ATOM      5  C4  UNL d   1      -0.111  -0.393  -3.202  0.00  0.00    -0.005 A 
ATOM      6  C5  UNL d   1       0.435  -0.725  -4.440  0.00  0.00     0.003 A 
ATOM      7  C6  UNL d   1       0.002  -1.870  -5.111  0.00  0.00    -0.001 A 
ENDROOT
TORSDOF 0
ENDMDL
