MODEL 1
REMARK minimizedAffinity 6.22655678
REMARK minimizedRMSD -1
REMARK  0 active torsions:
REMARK  status: ('A' for Active; 'I' for Inactive)
ROOT
ATOM      1  C   UNL d   1      -1.126  -2.726  -2.251  0.00  0.00     0.078 C 
ATOM      2  C1  UNL d   1      -1.442  -3.756  -3.293  0.00  0.00    -0.077 A 
ATOM      3  C2  UNL d   1      -1.844  -5.048  -2.932  0.00  0.00    -0.001 A 
ATOM      4  C3  UNL d   1      -2.126  -6.000  -3.913  0.00  0.00     0.003 A 
ATOM      5  C4  UNL d   1      -2.008  -5.670  -5.262  0.00  0.00    -0.005 A 
ATOM      6  C5  UNL d   1      -1.606  -4.388  -5.631  0.00  0.00     0.003 A 
ATOM      7  C6  UNL d   1      -1.324  -3.435  -4.651  0.00  0.00    -0.001 A 
ENDROOT
TORSDOF 0
ENDMDL
