MODEL 1
REMARK minimizedAffinity 4.1425705
REMARK minimizedRMSD -1
REMARK  0 active torsions:
REMARK  status: ('A' for Active; 'I' for Inactive)
ROOT
ATOM      1  C   UNL d   1      -2.679  -0.185   2.114  0.00  0.00     0.078 C 
ATOM      2  C1  UNL d   1      -1.228  -0.232   2.488  0.00  0.00    -0.077 A 
ATOM      3  C2  UNL d   1      -0.322  -1.019   1.766  0.00  0.00    -0.001 A 
ATOM      4  C3  UNL d   1       1.024  -1.061   2.131  0.00  0.00     0.003 A 
ATOM      5  C4  UNL d   1       1.477  -0.319   3.220  0.00  0.00    -0.005 A 
ATOM      6  C5  UNL d   1       0.583   0.466   3.946  0.00  0.00     0.003 A 
ATOM      7  C6  UNL d   1      -0.764   0.509   3.582  0.00  0.00    -0.001 A 
ENDROOT
TORSDOF 0
ENDMDL
