MODEL 1
REMARK minimizedAffinity 14.2410879
REMARK minimizedRMSD -1
REMARK  0 active torsions:
REMARK  status: ('A' for Active; 'I' for Inactive)
ROOT
ATOM      1  C   UNL d   1       0.410  -1.430  -4.102  0.00  0.00     0.078 C 
ATOM      2  C1  UNL d   1      -0.393  -2.629  -4.508  0.00  0.00    -0.077 A 
ATOM      3  C2  UNL d   1      -0.039  -3.389  -5.629  0.00  0.00    -0.001 A 
ATOM      4  C3  UNL d   1      -0.802  -4.498  -6.000  0.00  0.00     0.003 A 
ATOM      5  C4  UNL d   1      -1.925  -4.855  -5.256  0.00  0.00    -0.005 A 
ATOM      6  C5  UNL d   1      -2.287  -4.103  -4.141  0.00  0.00     0.003 A 
ATOM      7  C6  UNL d   1      -1.525  -2.994  -3.768  0.00  0.00    -0.001 A 
ENDROOT
TORSDOF 0
ENDMDL
