MODEL 1
REMARK minimizedAffinity 2.94590211
REMARK minimizedRMSD -1
REMARK  0 active torsions:
REMARK  status: ('A' for Active; 'I' for Inactive)
ROOT
ATOM      1  C   UNL d   1       1.599  -2.344   4.110  0.00  0.00     0.078 C 
ATOM      2  C1  UNL d   1       0.759  -1.257   3.507  0.00  0.00    -0.077 A 
ATOM      3  C2  UNL d   1       0.854   0.064   3.962  0.00  0.00    -0.001 A 
ATOM      4  C3  UNL d   1       0.059   1.063   3.398  0.00  0.00     0.003 A 
ATOM      5  C4  UNL d   1      -0.837   0.752   2.377  0.00  0.00    -0.005 A 
ATOM      6  C5  UNL d   1      -0.940  -0.560   1.920  0.00  0.00     0.003 A 
ATOM      7  C6  UNL d   1      -0.146  -1.561   2.483  0.00  0.00    -0.001 A 
ENDROOT
TORSDOF 0
ENDMDL
