MODEL 1
REMARK minimizedAffinity -2.09460902
REMARK minimizedRMSD -1
REMARK  1 active torsions:
REMARK  status: ('A' for Active; 'I' for Inactive)
REMARK    1  A    between atoms: C3_4  and  O_7 
ROOT
ATOM      1  C   UNL d   1      -1.200   2.082   1.889  0.00  0.00    -0.033 A 
ATOM      2  C1  UNL d   1      -0.839   3.268   1.247  0.00  0.00     0.039 A 
ATOM      3  C2  UNL d   1      -0.125   3.226   0.048  0.00  0.00    -0.080 A 
ATOM      4  C3  UNL d   1       0.221   1.993  -0.498  0.00  0.00     0.150 A 
ATOM      5  C4  UNL d   1      -0.139   0.807   0.134  0.00  0.00    -0.007 A 
ATOM      6  C5  UNL d   1      -0.851   0.851   1.332  0.00  0.00     0.039 A 
ENDROOT
BRANCH   4   7
ATOM      7  O   UNL d   1       0.922   1.901  -1.663  0.00  0.00    -0.526 OA
ATOM      8  H5  UNL d   1       1.126   2.800  -1.971  0.00  0.00     0.418 HD
ENDBRANCH   4   7
TORSDOF 1
ENDMDL
