MODEL 1
REMARK minimizedAffinity -1.57674289
REMARK minimizedRMSD -1
REMARK  1 active torsions:
REMARK  status: ('A' for Active; 'I' for Inactive)
REMARK    1  A    between atoms: C3_4  and  O_7 
ROOT
ATOM      1  C   UNL d   1      -0.780   1.907   1.732  0.00  0.00    -0.033 A 
ATOM      2  C1  UNL d   1      -0.927   0.626   2.268  0.00  0.00     0.039 A 
ATOM      3  C2  UNL d   1      -0.470  -0.487   1.558  0.00  0.00    -0.080 A 
ATOM      4  C3  UNL d   1       0.132  -0.305   0.316  0.00  0.00     0.150 A 
ATOM      5  C4  UNL d   1       0.285   0.969  -0.222  0.00  0.00    -0.007 A 
ATOM      6  C5  UNL d   1      -0.172   2.078   0.488  0.00  0.00     0.039 A 
ENDROOT
BRANCH   4   7
ATOM      7  O   UNL d   1       0.589  -1.360  -0.416  0.00  0.00    -0.526 OA
ATOM      8  H5  UNL d   1       0.389  -2.179   0.067  0.00  0.00     0.418 HD
ENDBRANCH   4   7
TORSDOF 1
ENDMDL
