MODEL 1
REMARK minimizedAffinity -3.03652
REMARK minimizedRMSD -1
REMARK  1 active torsions:
REMARK  status: ('A' for Active; 'I' for Inactive)
REMARK    1  A    between atoms: C3_4  and  O_7 
ROOT
ATOM      1  C   UNL d   1      -1.058   2.760   1.246  0.00  0.00    -0.033 A 
ATOM      2  C1  UNL d   1      -0.423   2.798   0.003  0.00  0.00     0.039 A 
ATOM      3  C2  UNL d   1       0.074   1.624  -0.565  0.00  0.00    -0.080 A 
ATOM      4  C3  UNL d   1      -0.071   0.419   0.118  0.00  0.00     0.150 A 
ATOM      5  C4  UNL d   1      -0.705   0.374   1.355  0.00  0.00    -0.007 A 
ATOM      6  C5  UNL d   1      -1.200   1.548   1.922  0.00  0.00     0.039 A 
ENDROOT
BRANCH   4   7
ATOM      7  O   UNL d   1       0.403  -0.752  -0.394  0.00  0.00    -0.526 OA
ATOM      8  H5  UNL d   1       0.842  -0.563  -1.240  0.00  0.00     0.418 HD
ENDBRANCH   4   7
TORSDOF 1
ENDMDL
