MODEL 1
REMARK minimizedAffinity -3.72975254
REMARK minimizedRMSD -1
REMARK  1 active torsions:
REMARK  status: ('A' for Active; 'I' for Inactive)
REMARK    1  A    between atoms: C3_4  and  O_7 
ROOT
ATOM      1  C   UNL d   1      -1.485   1.208   1.691  0.00  0.00    -0.033 A 
ATOM      2  C1  UNL d   1      -1.732   2.581   1.764  0.00  0.00     0.039 A 
ATOM      3  C2  UNL d   1      -1.295   3.426   0.742  0.00  0.00    -0.080 A 
ATOM      4  C3  UNL d   1      -0.615   2.887  -0.346  0.00  0.00     0.150 A 
ATOM      5  C4  UNL d   1      -0.369   1.520  -0.428  0.00  0.00    -0.007 A 
ATOM      6  C5  UNL d   1      -0.806   0.678   0.594  0.00  0.00     0.039 A 
ENDROOT
BRANCH   4   7
ATOM      7  O   UNL d   1      -0.165   3.672  -1.366  0.00  0.00    -0.526 OA
ATOM      8  H5  UNL d   1      -0.381   4.597  -1.160  0.00  0.00     0.418 HD
ENDBRANCH   4   7
TORSDOF 1
ENDMDL
