MODEL 1
REMARK minimizedAffinity -2.39519787
REMARK minimizedRMSD -1
REMARK  1 active torsions:
REMARK  status: ('A' for Active; 'I' for Inactive)
REMARK    1  A    between atoms: C3_4  and  O_7 
ROOT
ATOM      1  C   UNL d   1       0.399  -3.342  -2.715  0.00  0.00    -0.033 A 
ATOM      2  C1  UNL d   1       0.124  -2.091  -3.273  0.00  0.00     0.039 A 
ATOM      3  C2  UNL d   1       0.224  -0.939  -2.490  0.00  0.00    -0.080 A 
ATOM      4  C3  UNL d   1       0.600  -1.051  -1.154  0.00  0.00     0.150 A 
ATOM      5  C4  UNL d   1       0.878  -2.293  -0.594  0.00  0.00    -0.007 A 
ATOM      6  C5  UNL d   1       0.777  -3.443  -1.376  0.00  0.00     0.039 A 
ENDROOT
BRANCH   4   7
ATOM      7  O   UNL d   1       0.707   0.044  -0.350  0.00  0.00    -0.526 OA
ATOM      8  H5  UNL d   1       0.457   0.830  -0.865  0.00  0.00     0.418 HD
ENDBRANCH   4   7
TORSDOF 1
ENDMDL
