MODEL 1
REMARK minimizedAffinity -2.12828469
REMARK minimizedRMSD -1
REMARK  1 active torsions:
REMARK  status: ('A' for Active; 'I' for Inactive)
REMARK    1  A    between atoms: C3_4  and  O_7 
ROOT
ATOM      1  C   UNL d   1      -1.102   0.808   2.099  0.00  0.00    -0.033 A 
ATOM      2  C1  UNL d   1      -0.710  -0.478   2.475  0.00  0.00     0.039 A 
ATOM      3  C2  UNL d   1      -0.045  -1.302   1.565  0.00  0.00    -0.080 A 
ATOM      4  C3  UNL d   1       0.223  -0.828   0.284  0.00  0.00     0.150 A 
ATOM      5  C4  UNL d   1      -0.162   0.454  -0.097  0.00  0.00    -0.007 A 
ATOM      6  C5  UNL d   1      -0.826   1.275   0.813  0.00  0.00     0.039 A 
ENDROOT
BRANCH   4   7
ATOM      7  O   UNL d   1       0.865  -1.596  -0.641  0.00  0.00    -0.526 OA
ATOM      8  H5  UNL d   1       1.044  -2.466  -0.247  0.00  0.00     0.418 HD
ENDBRANCH   4   7
TORSDOF 1
ENDMDL
