MODEL 1
REMARK minimizedAffinity -5.26826572
REMARK minimizedRMSD -1
REMARK  1 active torsions:
REMARK  status: ('A' for Active; 'I' for Inactive)
REMARK    1  A    between atoms: C3_4  and  O_7 
ROOT
ATOM      1  C   UNL d   1      -0.847   1.384   1.902  0.00  0.00    -0.033 A 
ATOM      2  C1  UNL d   1      -0.256   0.405   1.100  0.00  0.00     0.039 A 
ATOM      3  C2  UNL d   1       0.352   0.761  -0.105  0.00  0.00    -0.080 A 
ATOM      4  C3  UNL d   1       0.363   2.097  -0.497  0.00  0.00     0.150 A 
ATOM      5  C4  UNL d   1      -0.220   3.078   0.299  0.00  0.00    -0.007 A 
ATOM      6  C5  UNL d   1      -0.828   2.720   1.502  0.00  0.00     0.039 A 
ENDROOT
BRANCH   4   7
ATOM      7  O   UNL d   1       0.940   2.492  -1.667  0.00  0.00    -0.526 OA
ATOM      8  H5  UNL d   1       1.277   1.704  -2.125  0.00  0.00     0.418 HD
ENDBRANCH   4   7
TORSDOF 1
ENDMDL
