MODEL 1
REMARK minimizedAffinity -2.69236922
REMARK minimizedRMSD -1
REMARK  1 active torsions:
REMARK  status: ('A' for Active; 'I' for Inactive)
REMARK    1  A    between atoms: C3_4  and  O_7 
ROOT
ATOM      1  C   UNL d   1      -0.712   0.204   1.563  0.00  0.00    -0.033 A 
ATOM      2  C1  UNL d   1      -0.093  -0.046   0.336  0.00  0.00     0.039 A 
ATOM      3  C2  UNL d   1       0.307   1.017  -0.476  0.00  0.00    -0.080 A 
ATOM      4  C3  UNL d   1       0.083   2.324  -0.050  0.00  0.00     0.150 A 
ATOM      5  C4  UNL d   1      -0.530   2.580   1.172  0.00  0.00    -0.007 A 
ATOM      6  C5  UNL d   1      -0.929   1.518   1.981  0.00  0.00     0.039 A 
ENDROOT
BRANCH   4   7
ATOM      7  O   UNL d   1       0.451   3.394  -0.811  0.00  0.00    -0.526 OA
ATOM      8  H5  UNL d   1       0.836   3.064  -1.640  0.00  0.00     0.418 HD
ENDBRANCH   4   7
TORSDOF 1
ENDMDL
