MODEL 1
REMARK minimizedAffinity -2.25389242
REMARK minimizedRMSD -1
REMARK  1 active torsions:
REMARK  status: ('A' for Active; 'I' for Inactive)
REMARK    1  A    between atoms: C3_4  and  O_7 
ROOT
ATOM      1  C   UNL d   1      -1.407   1.749   2.023  0.00  0.00    -0.033 A 
ATOM      2  C1  UNL d   1      -1.469   0.362   2.167  0.00  0.00     0.039 A 
ATOM      3  C2  UNL d   1      -0.807  -0.467   1.259  0.00  0.00    -0.080 A 
ATOM      4  C3  UNL d   1      -0.087   0.104   0.213  0.00  0.00     0.150 A 
ATOM      5  C4  UNL d   1      -0.018   1.485   0.065  0.00  0.00    -0.007 A 
ATOM      6  C5  UNL d   1      -0.680   2.311   0.973  0.00  0.00     0.039 A 
ENDROOT
BRANCH   4   7
ATOM      7  O   UNL d   1       0.571  -0.664  -0.701  0.00  0.00    -0.526 OA
ATOM      8  H5  UNL d   1       0.411  -1.599  -0.490  0.00  0.00     0.418 HD
ENDBRANCH   4   7
TORSDOF 1
ENDMDL
