MODEL 1
REMARK minimizedAffinity -3.67886925
REMARK minimizedRMSD -1
REMARK  1 active torsions:
REMARK  status: ('A' for Active; 'I' for Inactive)
REMARK    1  A    between atoms: C3_4  and  O_7 
ROOT
ATOM      1  C   UNL d   1      -0.559  -0.788   1.303  0.00  0.00    -0.033 A 
ATOM      2  C1  UNL d   1       0.264  -0.628   0.187  0.00  0.00     0.039 A 
ATOM      3  C2  UNL d   1       0.497   0.647  -0.334  0.00  0.00    -0.080 A 
ATOM      4  C3  UNL d   1      -0.097   1.751   0.270  0.00  0.00     0.150 A 
ATOM      5  C4  UNL d   1      -0.915   1.599   1.385  0.00  0.00    -0.007 A 
ATOM      6  C5  UNL d   1      -1.148   0.326   1.903  0.00  0.00     0.039 A 
ENDROOT
BRANCH   4   7
ATOM      7  O   UNL d   1       0.097   3.014  -0.205  0.00  0.00    -0.526 OA
ATOM      8  H5  UNL d   1       0.661   2.962  -0.995  0.00  0.00     0.418 HD
ENDBRANCH   4   7
TORSDOF 1
ENDMDL
