MODEL 1
REMARK minimizedAffinity -3.02586389
REMARK minimizedRMSD -1
REMARK  1 active torsions:
REMARK  status: ('A' for Active; 'I' for Inactive)
REMARK    1  A    between atoms: C3_4  and  O_7 
ROOT
ATOM      1  C   UNL d   1      -0.307  -3.853  -2.276  0.00  0.00    -0.033 A 
ATOM      2  C1  UNL d   1       0.402  -3.860  -1.073  0.00  0.00     0.039 A 
ATOM      3  C2  UNL d   1       1.049  -2.702  -0.636  0.00  0.00    -0.080 A 
ATOM      4  C3  UNL d   1       0.978  -1.547  -1.409  0.00  0.00     0.150 A 
ATOM      5  C4  UNL d   1       0.269  -1.532  -2.606  0.00  0.00    -0.007 A 
ATOM      6  C5  UNL d   1      -0.375  -2.689  -3.041  0.00  0.00     0.039 A 
ENDROOT
BRANCH   4   7
ATOM      7  O   UNL d   1       1.597  -0.394  -1.025  0.00  0.00    -0.526 OA
ATOM      8  H5  UNL d   1       2.071  -0.561  -0.194  0.00  0.00     0.418 HD
ENDBRANCH   4   7
TORSDOF 1
ENDMDL
