MODEL 1
REMARK minimizedAffinity -2.80407381
REMARK minimizedRMSD -1
REMARK  1 active torsions:
REMARK  status: ('A' for Active; 'I' for Inactive)
REMARK    1  A    between atoms: C3_4  and  O_7 
ROOT
ATOM      1  C   UNL d   1       0.509  -3.386  -2.451  0.00  0.00    -0.033 A 
ATOM      2  C1  UNL d   1      -0.600  -2.538  -2.451  0.00  0.00     0.039 A 
ATOM      3  C2  UNL d   1      -0.632  -1.427  -1.606  0.00  0.00    -0.080 A 
ATOM      4  C3  UNL d   1       0.451  -1.175  -0.767  0.00  0.00     0.150 A 
ATOM      5  C4  UNL d   1       1.560  -2.014  -0.764  0.00  0.00    -0.007 A 
ATOM      6  C5  UNL d   1       1.590  -3.123  -1.609  0.00  0.00     0.039 A 
ENDROOT
BRANCH   4   7
ATOM      7  O   UNL d   1       0.463  -0.106   0.079  0.00  0.00    -0.526 OA
ATOM      8  H5  UNL d   1      -0.381   0.367  -0.011  0.00  0.00     0.418 HD
ENDBRANCH   4   7
TORSDOF 1
ENDMDL
