MODEL 1
REMARK minimizedAffinity -1.62204564
REMARK minimizedRMSD -1
REMARK  1 active torsions:
REMARK  status: ('A' for Active; 'I' for Inactive)
REMARK    1  A    between atoms: C3_4  and  O_7 
ROOT
ATOM      1  C   UNL d   1      -0.745   3.455   1.105  0.00  0.00    -0.033 A 
ATOM      2  C1  UNL d   1      -0.077   3.302  -0.111  0.00  0.00     0.039 A 
ATOM      3  C2  UNL d   1       0.266   2.027  -0.565  0.00  0.00    -0.080 A 
ATOM      4  C3  UNL d   1      -0.065   0.915   0.205  0.00  0.00     0.150 A 
ATOM      5  C4  UNL d   1      -0.734   1.060   1.416  0.00  0.00    -0.007 A 
ATOM      6  C5  UNL d   1      -1.075   2.334   1.868  0.00  0.00     0.039 A 
ENDROOT
BRANCH   4   7
ATOM      7  O   UNL d   1       0.254  -0.349  -0.194  0.00  0.00    -0.526 OA
ATOM      8  H5  UNL d   1       0.739  -0.293  -1.035  0.00  0.00     0.418 HD
ENDBRANCH   4   7
TORSDOF 1
ENDMDL
