MODEL 1
REMARK minimizedAffinity 5.1680131
REMARK minimizedRMSD -1
REMARK  1 active torsions:
REMARK  status: ('A' for Active; 'I' for Inactive)
REMARK    1  A    between atoms: C3_4  and  O_7 
ROOT
ATOM      1  C   UNL d   1      -1.035   1.885  -1.202  0.00  0.00    -0.033 A 
ATOM      2  C1  UNL d   1      -1.498   0.952  -2.131  0.00  0.00     0.039 A 
ATOM      3  C2  UNL d   1      -2.828   0.529  -2.095  0.00  0.00    -0.080 A 
ATOM      4  C3  UNL d   1      -3.684   1.048  -1.128  0.00  0.00     0.150 A 
ATOM      5  C4  UNL d   1      -3.230   1.982  -0.202  0.00  0.00    -0.007 A 
ATOM      6  C5  UNL d   1      -1.901   2.402  -0.239  0.00  0.00     0.039 A 
ENDROOT
BRANCH   4   7
ATOM      7  O   UNL d   1      -4.989   0.663  -1.050  0.00  0.00    -0.526 OA
ATOM      8  H5  UNL d   1      -5.154  -0.008  -1.734  0.00  0.00     0.418 HD
ENDBRANCH   4   7
TORSDOF 1
ENDMDL
