MODEL 1
REMARK minimizedAffinity 4.96417522
REMARK minimizedRMSD -1
REMARK  1 active torsions:
REMARK  status: ('A' for Active; 'I' for Inactive)
REMARK    1  A    between atoms: C3_4  and  O_7 
ROOT
ATOM      1  C   UNL d   1      -1.709   1.367   1.743  0.00  0.00    -0.033 A 
ATOM      2  C1  UNL d   1      -1.452   1.461   0.374  0.00  0.00     0.039 A 
ATOM      3  C2  UNL d   1      -0.151   1.300  -0.107  0.00  0.00    -0.080 A 
ATOM      4  C3  UNL d   1       0.882   1.044   0.791  0.00  0.00     0.150 A 
ATOM      5  C4  UNL d   1       0.633   0.945   2.155  0.00  0.00    -0.007 A 
ATOM      6  C5  UNL d   1      -0.667   1.107   2.633  0.00  0.00     0.039 A 
ENDROOT
BRANCH   4   7
ATOM      7  O   UNL d   1       2.169   0.884   0.369  0.00  0.00    -0.526 OA
ATOM      8  H5  UNL d   1       2.195   1.008  -0.594  0.00  0.00     0.418 HD
ENDBRANCH   4   7
TORSDOF 1
ENDMDL
