MODEL 1
REMARK minimizedAffinity 4.9358139
REMARK minimizedRMSD -1
REMARK  1 active torsions:
REMARK  status: ('A' for Active; 'I' for Inactive)
REMARK    1  A    between atoms: C3_4  and  O_7 
ROOT
ATOM      1  C   UNL d   1       3.461   1.382   0.105  0.00  0.00    -0.033 A 
ATOM      2  C1  UNL d   1       2.244   1.060   0.709  0.00  0.00     0.039 A 
ATOM      3  C2  UNL d   1       1.768  -0.252   0.669  0.00  0.00    -0.080 A 
ATOM      4  C3  UNL d   1       2.518  -1.231   0.024  0.00  0.00     0.150 A 
ATOM      5  C4  UNL d   1       3.733  -0.918  -0.577  0.00  0.00    -0.007 A 
ATOM      6  C5  UNL d   1       4.206   0.393  -0.537  0.00  0.00     0.039 A 
ENDROOT
BRANCH   4   7
ATOM      7  O   UNL d   1       2.092  -2.524  -0.046  0.00  0.00    -0.526 OA
ATOM      8  H5  UNL d   1       1.224  -2.586   0.387  0.00  0.00     0.418 HD
ENDBRANCH   4   7
TORSDOF 1
ENDMDL
