MODEL 1
REMARK minimizedAffinity 2.69672132
REMARK minimizedRMSD -1
REMARK  1 active torsions:
REMARK  status: ('A' for Active; 'I' for Inactive)
REMARK    1  A    between atoms: C3_4  and  O_7 
ROOT
ATOM      1  C   UNL d   1      -4.184   1.087  -4.940  0.00  0.00    -0.033 A 
ATOM      2  C1  UNL d   1      -4.544   0.263  -3.871  0.00  0.00     0.039 A 
ATOM      3  C2  UNL d   1      -3.574  -0.168  -2.963  0.00  0.00    -0.080 A 
ATOM      4  C3  UNL d   1      -2.252   0.232  -3.134  0.00  0.00     0.150 A 
ATOM      5  C4  UNL d   1      -1.887   1.055  -4.195  0.00  0.00    -0.007 A 
ATOM      6  C5  UNL d   1      -2.856   1.484  -5.101  0.00  0.00     0.039 A 
ENDROOT
BRANCH   4   7
ATOM      7  O   UNL d   1      -1.270  -0.167  -2.276  0.00  0.00    -0.526 OA
ATOM      8  H5  UNL d   1      -1.664  -0.755  -1.610  0.00  0.00     0.418 HD
ENDBRANCH   4   7
TORSDOF 1
ENDMDL
