MODEL 1
REMARK minimizedAffinity 0.671852052
REMARK minimizedRMSD -1
REMARK  1 active torsions:
REMARK  status: ('A' for Active; 'I' for Inactive)
REMARK    1  A    between atoms: C3_4  and  O_7 
ROOT
ATOM      1  C   UNL d   1       0.812  -1.249   2.793  0.00  0.00    -0.033 A 
ATOM      2  C1  UNL d   1       0.052  -0.101   2.562  0.00  0.00     0.039 A 
ATOM      3  C2  UNL d   1      -0.324   0.716   3.631  0.00  0.00    -0.080 A 
ATOM      4  C3  UNL d   1       0.065   0.374   4.922  0.00  0.00     0.150 A 
ATOM      5  C4  UNL d   1       0.826  -0.767   5.159  0.00  0.00    -0.007 A 
ATOM      6  C5  UNL d   1       1.200  -1.581   4.091  0.00  0.00     0.039 A 
ENDROOT
BRANCH   4   7
ATOM      7  O   UNL d   1      -0.282   1.137   5.997  0.00  0.00    -0.526 OA
ATOM      8  H5  UNL d   1      -0.831   1.876   5.685  0.00  0.00     0.418 HD
ENDBRANCH   4   7
TORSDOF 1
ENDMDL
