MODEL 1
REMARK minimizedAffinity 3.90452623
REMARK minimizedRMSD -1
REMARK  1 active torsions:
REMARK  status: ('A' for Active; 'I' for Inactive)
REMARK    1  A    between atoms: C3_4  and  O_7 
ROOT
ATOM      1  C   UNL d   1      -0.222   1.497   2.159  0.00  0.00    -0.033 A 
ATOM      2  C1  UNL d   1      -1.052   0.745   2.993  0.00  0.00     0.039 A 
ATOM      3  C2  UNL d   1      -0.502  -0.019   4.024  0.00  0.00    -0.080 A 
ATOM      4  C3  UNL d   1       0.878  -0.022   4.211  0.00  0.00     0.150 A 
ATOM      5  C4  UNL d   1       1.710   0.728   3.386  0.00  0.00    -0.007 A 
ATOM      6  C5  UNL d   1       1.159   1.489   2.356  0.00  0.00     0.039 A 
ENDROOT
BRANCH   4   7
ATOM      7  O   UNL d   1       1.461  -0.755   5.200  0.00  0.00    -0.526 OA
ATOM      8  H5  UNL d   1       0.766  -1.244   5.672  0.00  0.00     0.418 HD
ENDBRANCH   4   7
TORSDOF 1
ENDMDL
