MODEL 1
REMARK minimizedAffinity 3.01681328
REMARK minimizedRMSD -1
REMARK  1 active torsions:
REMARK  status: ('A' for Active; 'I' for Inactive)
REMARK    1  A    between atoms: C3_4  and  O_7 
ROOT
ATOM      1  C   UNL d   1      -1.192   0.982   2.369  0.00  0.00    -0.033 A 
ATOM      2  C1  UNL d   1      -1.349   1.225   1.003  0.00  0.00     0.039 A 
ATOM      3  C2  UNL d   1      -0.231   1.266   0.167  0.00  0.00    -0.080 A 
ATOM      4  C3  UNL d   1       1.035   1.061   0.708  0.00  0.00     0.150 A 
ATOM      5  C4  UNL d   1       1.198   0.815   2.067  0.00  0.00    -0.007 A 
ATOM      6  C5  UNL d   1       0.081   0.775   2.901  0.00  0.00     0.039 A 
ENDROOT
BRANCH   4   7
ATOM      7  O   UNL d   1       2.155   1.096  -0.068  0.00  0.00    -0.526 OA
ATOM      8  H5  UNL d   1       1.892   1.304  -0.980  0.00  0.00     0.418 HD
ENDBRANCH   4   7
TORSDOF 1
ENDMDL
