MODEL 1
REMARK minimizedAffinity 1.1453681
REMARK minimizedRMSD -1
REMARK  1 active torsions:
REMARK  status: ('A' for Active; 'I' for Inactive)
REMARK    1  A    between atoms: C3_4  and  O_7 
ROOT
ATOM      1  C   UNL d   1       0.943   0.053   2.447  0.00  0.00    -0.033 A 
ATOM      2  C1  UNL d   1      -0.375   0.403   2.746  0.00  0.00     0.039 A 
ATOM      3  C2  UNL d   1      -1.227   0.853   1.735  0.00  0.00    -0.080 A 
ATOM      4  C3  UNL d   1      -0.749   0.947   0.431  0.00  0.00     0.150 A 
ATOM      5  C4  UNL d   1       0.562   0.596   0.125  0.00  0.00    -0.007 A 
ATOM      6  C5  UNL d   1       1.411   0.148   1.136  0.00  0.00     0.039 A 
ENDROOT
BRANCH   4   7
ATOM      7  O   UNL d   1      -1.541   1.386  -0.588  0.00  0.00    -0.526 OA
ATOM      8  H5  UNL d   1      -2.411   1.619  -0.223  0.00  0.00     0.418 HD
ENDBRANCH   4   7
TORSDOF 1
ENDMDL
