MODEL 1
REMARK minimizedAffinity -1.67419839
REMARK minimizedRMSD -1
REMARK  1 active torsions:
REMARK  status: ('A' for Active; 'I' for Inactive)
REMARK    1  A    between atoms: C1_2  and  C2_3 
ROOT
ATOM      1  C2  UNL d   1      -3.491   1.433  -4.868  0.00  0.00    -0.077 A 
ATOM      2  C3  UNL d   1      -4.385   2.200  -5.628  0.00  0.00     0.002 A 
ATOM      3  C4  UNL d   1      -4.057   3.506  -5.999  0.00  0.00     0.002 A 
ATOM      4  C5  UNL d   1      -2.834   4.054  -5.618  0.00  0.00    -0.004 A 
ATOM      5  C6  UNL d   1      -1.939   3.300  -4.860  0.00  0.00     0.002 A 
ATOM      6  C7  UNL d   1      -2.265   1.996  -4.487  0.00  0.00     0.002 A 
ENDROOT
BRANCH   1   7
ATOM      7  C1  UNL d   1      -3.821   0.008  -4.509  0.00  0.00     0.055 C 
ATOM      8  C   UNL d   1      -4.508  -0.708  -5.662  0.00  0.00     0.019 C 
ENDBRANCH   1   7
TORSDOF 1
ENDMDL
