MODEL 1
REMARK minimizedAffinity -1.91964197
REMARK minimizedRMSD -1
REMARK  1 active torsions:
REMARK  status: ('A' for Active; 'I' for Inactive)
REMARK    1  A    between atoms: C1_2  and  C2_3 
ROOT
ATOM      1  C2  UNL d   1      -3.847   2.120  -5.665  0.00  0.00    -0.077 A 
ATOM      2  C3  UNL d   1      -5.143   2.628  -5.835  0.00  0.00     0.002 A 
ATOM      3  C4  UNL d   1      -5.349   3.999  -5.996  0.00  0.00     0.002 A 
ATOM      4  C5  UNL d   1      -4.264   4.873  -5.994  0.00  0.00    -0.004 A 
ATOM      5  C6  UNL d   1      -2.971   4.378  -5.824  0.00  0.00     0.002 A 
ATOM      6  C7  UNL d   1      -2.764   3.008  -5.662  0.00  0.00     0.002 A 
ENDROOT
BRANCH   1   7
ATOM      7  C1  UNL d   1      -3.618   0.636  -5.541  0.00  0.00     0.055 C 
ATOM      8  C   UNL d   1      -4.840  -0.152  -5.990  0.00  0.00     0.019 C 
ENDBRANCH   1   7
TORSDOF 1
ENDMDL
