MODEL 1
REMARK minimizedAffinity -1.47739816
REMARK minimizedRMSD -1
REMARK  1 active torsions:
REMARK  status: ('A' for Active; 'I' for Inactive)
REMARK    1  A    between atoms: C1_2  and  C2_3 
ROOT
ATOM      1  C2  UNL d   1      -3.192   3.949  -5.702  0.00  0.00    -0.077 A 
ATOM      2  C3  UNL d   1      -4.138   2.924  -5.842  0.00  0.00     0.002 A 
ATOM      3  C4  UNL d   1      -5.494   3.227  -5.981  0.00  0.00     0.002 A 
ATOM      4  C5  UNL d   1      -5.915   4.555  -5.986  0.00  0.00    -0.004 A 
ATOM      5  C6  UNL d   1      -4.982   5.582  -5.846  0.00  0.00     0.002 A 
ATOM      6  C7  UNL d   1      -3.627   5.281  -5.705  0.00  0.00     0.002 A 
ENDROOT
BRANCH   1   7
ATOM      7  C1  UNL d   1      -1.724   3.626  -5.600  0.00  0.00     0.055 C 
ATOM      8  C   UNL d   1      -1.497   2.305  -4.879  0.00  0.00     0.019 C 
ENDBRANCH   1   7
TORSDOF 1
ENDMDL
