MODEL 1
REMARK minimizedAffinity 0.50124979
REMARK minimizedRMSD -1
REMARK  1 active torsions:
REMARK  status: ('A' for Active; 'I' for Inactive)
REMARK    1  A    between atoms: C1_2  and  C2_3 
ROOT
ATOM      1  C2  UNL d   1       1.010   0.454  -1.636  0.00  0.00    -0.077 A 
ATOM      2  C3  UNL d   1       0.789  -0.832  -1.124  0.00  0.00     0.002 A 
ATOM      3  C4  UNL d   1      -0.176  -1.664  -1.696  0.00  0.00     0.002 A 
ATOM      4  C5  UNL d   1      -0.923  -1.221  -2.785  0.00  0.00    -0.004 A 
ATOM      5  C6  UNL d   1      -0.712   0.058  -3.301  0.00  0.00     0.002 A 
ATOM      6  C7  UNL d   1       0.250   0.891  -2.729  0.00  0.00     0.002 A 
ENDROOT
BRANCH   1   7
ATOM      7  C1  UNL d   1       2.083   1.335  -1.052  0.00  0.00     0.055 C 
ATOM      8  C   UNL d   1       3.400   1.170  -1.796  0.00  0.00     0.019 C 
ENDBRANCH   1   7
TORSDOF 1
ENDMDL
