MODEL 1
REMARK minimizedAffinity -0.356662214
REMARK minimizedRMSD -1
REMARK  1 active torsions:
REMARK  status: ('A' for Active; 'I' for Inactive)
REMARK    1  A    between atoms: C1_2  and  C2_3 
ROOT
ATOM      1  C2  UNL d   1      -4.198   3.162  -5.710  0.00  0.00    -0.077 A 
ATOM      2  C3  UNL d   1      -2.827   2.880  -5.631  0.00  0.00     0.002 A 
ATOM      3  C4  UNL d   1      -1.887   3.908  -5.737  0.00  0.00     0.002 A 
ATOM      4  C5  UNL d   1      -2.308   5.223  -5.918  0.00  0.00    -0.004 A 
ATOM      5  C6  UNL d   1      -3.670   5.514  -5.999  0.00  0.00     0.002 A 
ATOM      6  C7  UNL d   1      -4.610   4.488  -5.895  0.00  0.00     0.002 A 
ENDROOT
BRANCH   1   7
ATOM      7  C1  UNL d   1      -5.214   2.062  -5.546  0.00  0.00     0.055 C 
ATOM      8  C   UNL d   1      -4.554   0.757  -5.124  0.00  0.00     0.019 C 
ENDBRANCH   1   7
TORSDOF 1
ENDMDL
