MODEL 1
REMARK minimizedAffinity 3.78874445
REMARK minimizedRMSD -1
REMARK  1 active torsions:
REMARK  status: ('A' for Active; 'I' for Inactive)
REMARK    1  A    between atoms: C1_2  and  C2_3 
ROOT
ATOM      1  C2  UNL d   1      -3.399   4.544  -5.842  0.00  0.00    -0.077 A 
ATOM      2  C3  UNL d   1      -2.903   3.258  -5.585  0.00  0.00     0.002 A 
ATOM      3  C4  UNL d   1      -3.774   2.171  -5.487  0.00  0.00     0.002 A 
ATOM      4  C5  UNL d   1      -5.145   2.358  -5.649  0.00  0.00    -0.004 A 
ATOM      5  C6  UNL d   1      -5.649   3.633  -5.903  0.00  0.00     0.002 A 
ATOM      6  C7  UNL d   1      -4.780   4.721  -6.000  0.00  0.00     0.002 A 
ENDROOT
BRANCH   1   7
ATOM      7  C1  UNL d   1      -2.457   5.709  -5.996  0.00  0.00     0.055 C 
ATOM      8  C   UNL d   1      -1.005   5.264  -5.898  0.00  0.00     0.019 C 
ENDBRANCH   1   7
TORSDOF 1
ENDMDL
