MODEL 1
REMARK minimizedAffinity -3.06814933
REMARK minimizedRMSD -1
REMARK  1 active torsions:
REMARK  status: ('A' for Active; 'I' for Inactive)
REMARK    1  A    between atoms: C1_2  and  C2_3 
ROOT
ATOM      1  C2  UNL d   1      -4.402   2.397  -5.994  0.00  0.00    -0.077 A 
ATOM      2  C3  UNL d   1      -3.134   2.997  -5.994  0.00  0.00     0.002 A 
ATOM      3  C4  UNL d   1      -3.011   4.387  -5.946  0.00  0.00     0.002 A 
ATOM      4  C5  UNL d   1      -4.149   5.188  -5.894  0.00  0.00    -0.004 A 
ATOM      5  C6  UNL d   1      -5.414   4.601  -5.896  0.00  0.00     0.002 A 
ATOM      6  C7  UNL d   1      -5.540   3.212  -5.945  0.00  0.00     0.002 A 
ENDROOT
BRANCH   1   7
ATOM      7  C1  UNL d   1      -4.536   0.897  -5.996  0.00  0.00     0.055 C 
ATOM      8  C   UNL d   1      -5.998   0.472  -5.992  0.00  0.00     0.019 C 
ENDBRANCH   1   7
TORSDOF 1
ENDMDL
