MODEL 1
REMARK minimizedAffinity -3.80199432
REMARK minimizedRMSD -1
REMARK  1 active torsions:
REMARK  status: ('A' for Active; 'I' for Inactive)
REMARK    1  A    between atoms: C1_2  and  C2_3 
ROOT
ATOM      1  C2  UNL d   1      -4.321  -1.157  -5.964  0.00  0.00    -0.077 A 
ATOM      2  C3  UNL d   1      -2.994  -1.610  -5.982  0.00  0.00     0.002 A 
ATOM      3  C4  UNL d   1      -2.715  -2.978  -5.997  0.00  0.00     0.002 A 
ATOM      4  C5  UNL d   1      -3.757  -3.903  -5.999  0.00  0.00    -0.004 A 
ATOM      5  C6  UNL d   1      -5.080  -3.463  -5.979  0.00  0.00     0.002 A 
ATOM      6  C7  UNL d   1      -5.360  -2.096  -5.962  0.00  0.00     0.002 A 
ENDROOT
BRANCH   1   7
ATOM      7  C1  UNL d   1      -4.624   0.318  -5.997  0.00  0.00     0.055 C 
ATOM      8  C   UNL d   1      -3.372   1.146  -5.745  0.00  0.00     0.019 C 
ENDBRANCH   1   7
TORSDOF 1
ENDMDL
