MODEL 1
REMARK minimizedAffinity 2.70458174
REMARK minimizedRMSD -1
REMARK  1 active torsions:
REMARK  status: ('A' for Active; 'I' for Inactive)
REMARK    1  A    between atoms: C1_2  and  C2_3 
ROOT
ATOM      1  C2  UNL d   1      -3.600   3.979  -5.640  0.00  0.00    -0.077 A 
ATOM      2  C3  UNL d   1      -4.808   4.592  -5.999  0.00  0.00     0.002 A 
ATOM      3  C4  UNL d   1      -5.998   3.862  -5.999  0.00  0.00     0.002 A 
ATOM      4  C5  UNL d   1      -5.992   2.517  -5.636  0.00  0.00    -0.004 A 
ATOM      5  C6  UNL d   1      -4.795   1.897  -5.279  0.00  0.00     0.002 A 
ATOM      6  C7  UNL d   1      -3.604   2.625  -5.280  0.00  0.00     0.002 A 
ENDROOT
BRANCH   1   7
ATOM      7  C1  UNL d   1      -2.323   4.778  -5.592  0.00  0.00     0.055 C 
ATOM      8  C   UNL d   1      -1.101   3.871  -5.628  0.00  0.00     0.019 C 
ENDBRANCH   1   7
TORSDOF 1
ENDMDL
