MODEL 1
REMARK minimizedAffinity -5.21498632
REMARK minimizedRMSD -1
REMARK  1 active torsions:
REMARK  status: ('A' for Active; 'I' for Inactive)
REMARK    1  A    between atoms: C1_2  and  C2_3 
ROOT
ATOM      1  C2  UNL d   1       4.097  -1.848  -4.670  0.00  0.00    -0.077 A 
ATOM      2  C3  UNL d   1       3.365  -0.711  -4.301  0.00  0.00     0.002 A 
ATOM      3  C4  UNL d   1       2.733  -0.650  -3.058  0.00  0.00     0.002 A 
ATOM      4  C5  UNL d   1       2.829  -1.722  -2.172  0.00  0.00    -0.004 A 
ATOM      5  C6  UNL d   1       3.553  -2.858  -2.531  0.00  0.00     0.002 A 
ATOM      6  C7  UNL d   1       4.185  -2.921  -3.773  0.00  0.00     0.002 A 
ENDROOT
BRANCH   1   7
ATOM      7  C1  UNL d   1       4.821  -1.895  -5.990  0.00  0.00     0.055 C 
ATOM      8  C   UNL d   1       5.997  -2.860  -5.942  0.00  0.00     0.019 C 
ENDBRANCH   1   7
TORSDOF 1
ENDMDL
