MODEL 1
REMARK minimizedAffinity -1.90971506
REMARK minimizedRMSD -1
REMARK  1 active torsions:
REMARK  status: ('A' for Active; 'I' for Inactive)
REMARK    1  A    between atoms: C1_2  and  C2_3 
ROOT
ATOM      1  C2  UNL d   1      -3.038  -2.468  -5.659  0.00  0.00    -0.077 A 
ATOM      2  C3  UNL d   1      -2.794  -1.089  -5.702  0.00  0.00     0.002 A 
ATOM      3  C4  UNL d   1      -3.848  -0.190  -5.874  0.00  0.00     0.002 A 
ATOM      4  C5  UNL d   1      -5.153  -0.660  -6.000  0.00  0.00    -0.004 A 
ATOM      5  C6  UNL d   1      -5.407  -2.030  -5.961  0.00  0.00     0.002 A 
ATOM      6  C7  UNL d   1      -4.354  -2.931  -5.790  0.00  0.00     0.002 A 
ENDROOT
BRANCH   1   7
ATOM      7  C1  UNL d   1      -1.909  -3.437  -5.424  0.00  0.00     0.055 C 
ATOM      8  C   UNL d   1      -1.473  -3.437  -3.966  0.00  0.00     0.019 C 
ENDBRANCH   1   7
TORSDOF 1
ENDMDL
