MODEL 1
REMARK minimizedAffinity -4.22098923
REMARK minimizedRMSD -1
REMARK  1 active torsions:
REMARK  status: ('A' for Active; 'I' for Inactive)
REMARK    1  A    between atoms: C1_2  and  C2_3 
ROOT
ATOM      1  C2  UNL d   1       4.143  -2.211  -3.540  0.00  0.00    -0.077 A 
ATOM      2  C3  UNL d   1       3.640  -1.464  -4.614  0.00  0.00     0.002 A 
ATOM      3  C4  UNL d   1       4.312  -1.444  -5.837  0.00  0.00     0.002 A 
ATOM      4  C5  UNL d   1       5.489  -2.173  -6.000  0.00  0.00    -0.004 A 
ATOM      5  C6  UNL d   1       5.998  -2.918  -4.937  0.00  0.00     0.002 A 
ATOM      6  C7  UNL d   1       5.328  -2.937  -3.713  0.00  0.00     0.002 A 
ENDROOT
BRANCH   1   7
ATOM      7  C1  UNL d   1       3.394  -2.273  -2.235  0.00  0.00     0.055 C 
ATOM      8  C   UNL d   1       2.381  -1.142  -2.124  0.00  0.00     0.019 C 
ENDBRANCH   1   7
TORSDOF 1
ENDMDL
