MODEL 1
REMARK minimizedAffinity -1.04911268
REMARK minimizedRMSD -1
REMARK  0 active torsions:
REMARK  status: ('A' for Active; 'I' for Inactive)
ROOT
ATOM      1  C1  BNZ d   1      -1.700   4.306   0.794  0.00  0.00     0.000 A 
ATOM      2  C2  BNZ d   1      -1.388   5.278  -0.119  0.00  0.00     0.000 A 
ATOM      3  C3  BNZ d   1      -0.338   5.117  -0.980  0.00  0.00     0.000 A 
ATOM      4  C4  BNZ d   1       0.421   4.006  -0.900  0.00  0.00     0.000 A 
ATOM      5  C5  BNZ d   1       0.125   3.022   0.022  0.00  0.00     0.000 A 
ATOM      6  C6  BNZ d   1      -0.956   3.169   0.861  0.00  0.00     0.000 A 
ENDROOT
TORSDOF 0
ENDMDL
