MODEL 1
REMARK minimizedAffinity 0.3397443
REMARK minimizedRMSD -1
REMARK  0 active torsions:
REMARK  status: ('A' for Active; 'I' for Inactive)
ROOT
ATOM      1  C1  BNZ d   1      -3.659   3.788  -4.428  0.00  0.00     0.000 A 
ATOM      2  C2  BNZ d   1      -3.677   3.411  -3.111  0.00  0.00     0.000 A 
ATOM      3  C3  BNZ d   1      -4.846   3.404  -2.402  0.00  0.00     0.000 A 
ATOM      4  C4  BNZ d   1      -5.985   3.811  -2.998  0.00  0.00     0.000 A 
ATOM      5  C5  BNZ d   1      -5.981   4.202  -4.321  0.00  0.00     0.000 A 
ATOM      6  C6  BNZ d   1      -4.810   4.171  -5.043  0.00  0.00     0.000 A 
ENDROOT
TORSDOF 0
ENDMDL
