MODEL 1
REMARK minimizedAffinity -3.07963872
REMARK minimizedRMSD -1
REMARK  0 active torsions:
REMARK  status: ('A' for Active; 'I' for Inactive)
ROOT
ATOM      1  C1  BNZ d   1      -4.891   5.765  -3.937  0.00  0.00     0.000 A 
ATOM      2  C2  BNZ d   1      -4.859   5.377  -2.624  0.00  0.00     0.000 A 
ATOM      3  C3  BNZ d   1      -5.371   4.170  -2.238  0.00  0.00     0.000 A 
ATOM      4  C4  BNZ d   1      -5.951   3.371  -3.157  0.00  0.00     0.000 A 
ATOM      5  C5  BNZ d   1      -6.000   3.753  -4.483  0.00  0.00     0.000 A 
ATOM      6  C6  BNZ d   1      -5.448   4.951  -4.874  0.00  0.00     0.000 A 
ENDROOT
TORSDOF 0
ENDMDL
