MODEL 1
REMARK minimizedAffinity -3.95205879
REMARK minimizedRMSD -1
REMARK  0 active torsions:
REMARK  status: ('A' for Active; 'I' for Inactive)
ROOT
ATOM      1  C1  BNZ d   1      -4.265   2.920  -3.950  0.00  0.00     0.000 A 
ATOM      2  C2  BNZ d   1      -4.457   2.847  -2.597  0.00  0.00     0.000 A 
ATOM      3  C3  BNZ d   1      -5.338   3.682  -1.968  0.00  0.00     0.000 A 
ATOM      4  C4  BNZ d   1      -5.995   4.615  -2.688  0.00  0.00     0.000 A 
ATOM      5  C5  BNZ d   1      -5.805   4.707  -4.052  0.00  0.00     0.000 A 
ATOM      6  C6  BNZ d   1      -4.947   3.839  -4.687  0.00  0.00     0.000 A 
ENDROOT
TORSDOF 0
ENDMDL
