MODEL 1
REMARK minimizedAffinity -3.14197922
REMARK minimizedRMSD -1
REMARK  0 active torsions:
REMARK  status: ('A' for Active; 'I' for Inactive)
ROOT
ATOM      1  C1  BNZ d   1      -5.375   3.941  -2.251  0.00  0.00     0.000 A 
ATOM      2  C2  BNZ d   1      -6.000   4.805  -3.109  0.00  0.00     0.000 A 
ATOM      3  C3  BNZ d   1      -5.766   4.746  -4.455  0.00  0.00     0.000 A 
ATOM      4  C4  BNZ d   1      -4.879   3.851  -4.935  0.00  0.00     0.000 A 
ATOM      5  C5  BNZ d   1      -4.234   2.979  -4.081  0.00  0.00     0.000 A 
ATOM      6  C6  BNZ d   1      -4.501   3.016  -2.732  0.00  0.00     0.000 A 
ENDROOT
TORSDOF 0
ENDMDL
