MODEL 1
REMARK minimizedAffinity -1.74167776
REMARK minimizedRMSD -1
REMARK  0 active torsions:
REMARK  status: ('A' for Active; 'I' for Inactive)
ROOT
ATOM      1  C1  BNZ d   1      -3.751   3.526  -4.826  0.00  0.00     0.000 A 
ATOM      2  C2  BNZ d   1      -3.767   3.003  -3.561  0.00  0.00     0.000 A 
ATOM      3  C3  BNZ d   1      -4.898   3.054  -2.796  0.00  0.00     0.000 A 
ATOM      4  C4  BNZ d   1      -6.000   3.663  -3.281  0.00  0.00     0.000 A 
ATOM      5  C5  BNZ d   1      -5.997   4.204  -4.551  0.00  0.00     0.000 A 
ATOM      6  C6  BNZ d   1      -4.868   4.116  -5.333  0.00  0.00     0.000 A 
ENDROOT
TORSDOF 0
ENDMDL
