MODEL 1
REMARK minimizedAffinity -1.61939812
REMARK minimizedRMSD -1
REMARK  0 active torsions:
REMARK  status: ('A' for Active; 'I' for Inactive)
ROOT
ATOM      1  C1  BNZ d   1      -5.598   2.839  -2.326  0.00  0.00     0.000 A 
ATOM      2  C2  BNZ d   1      -5.231   4.158  -2.295  0.00  0.00     0.000 A 
ATOM      3  C3  BNZ d   1      -5.269   4.922  -3.428  0.00  0.00     0.000 A 
ATOM      4  C4  BNZ d   1      -5.635   4.357  -4.597  0.00  0.00     0.000 A 
ATOM      5  C5  BNZ d   1      -5.999   3.026  -4.646  0.00  0.00     0.000 A 
ATOM      6  C6  BNZ d   1      -5.997   2.271  -3.496  0.00  0.00     0.000 A 
ENDROOT
TORSDOF 0
ENDMDL
