MODEL 1
REMARK minimizedAffinity -3.71899319
REMARK minimizedRMSD -1
REMARK  0 active torsions:
REMARK  status: ('A' for Active; 'I' for Inactive)
ROOT
ATOM      1  C1  BNZ d   1      -5.628   2.493  -3.072  0.00  0.00     0.000 A 
ATOM      2  C2  BNZ d   1      -6.000   2.987  -4.294  0.00  0.00     0.000 A 
ATOM      3  C3  BNZ d   1      -5.606   4.233  -4.695  0.00  0.00     0.000 A 
ATOM      4  C4  BNZ d   1      -4.875   4.998  -3.859  0.00  0.00     0.000 A 
ATOM      5  C5  BNZ d   1      -4.499   4.518  -2.620  0.00  0.00     0.000 A 
ATOM      6  C6  BNZ d   1      -4.865   3.248  -2.235  0.00  0.00     0.000 A 
ENDROOT
TORSDOF 0
ENDMDL
