MODEL 1
REMARK minimizedAffinity -4.20622349
REMARK minimizedRMSD -1
REMARK  0 active torsions:
REMARK  status: ('A' for Active; 'I' for Inactive)
ROOT
ATOM      1  C1  BNZ d   1      -3.370   1.374  -5.543  0.00  0.00     0.000 A 
ATOM      2  C2  BNZ d   1      -4.065   0.232  -5.841  0.00  0.00     0.000 A 
ATOM      3  C3  BNZ d   1      -5.383   0.106  -5.500  0.00  0.00     0.000 A 
ATOM      4  C4  BNZ d   1      -5.993   1.103  -4.828  0.00  0.00     0.000 A 
ATOM      5  C5  BNZ d   1      -5.303   2.257  -4.512  0.00  0.00     0.000 A 
ATOM      6  C6  BNZ d   1      -3.987   2.396  -4.890  0.00  0.00     0.000 A 
ENDROOT
TORSDOF 0
ENDMDL
