MODEL 1
REMARK minimizedAffinity -3.34940839
REMARK minimizedRMSD -1
REMARK  0 active torsions:
REMARK  status: ('A' for Active; 'I' for Inactive)
ROOT
ATOM      1  C1  BNZ d   1      -5.442   2.994  -2.266  0.00  0.00     0.000 A 
ATOM      2  C2  BNZ d   1      -5.999   1.931  -2.926  0.00  0.00     0.000 A 
ATOM      3  C3  BNZ d   1      -5.990   1.873  -4.292  0.00  0.00     0.000 A 
ATOM      4  C4  BNZ d   1      -5.461   2.895  -4.995  0.00  0.00     0.000 A 
ATOM      5  C5  BNZ d   1      -4.903   3.977  -4.344  0.00  0.00     0.000 A 
ATOM      6  C6  BNZ d   1      -4.879   4.014  -2.969  0.00  0.00     0.000 A 
ENDROOT
TORSDOF 0
ENDMDL
