MODEL 1
REMARK minimizedAffinity -4.48504066
REMARK minimizedRMSD -1
REMARK  0 active torsions:
REMARK  status: ('A' for Active; 'I' for Inactive)
ROOT
ATOM      1  C4' PXY d   1      -1.509   1.557   2.014  0.00  0.00     0.077 C 
ATOM      2  C1' PXY d   1       1.006  -2.315  -1.464  0.00  0.00     0.077 C 
ATOM      3  C1  PXY d   1       0.350  -1.290  -0.560  0.00  0.00    -0.082 A 
ATOM      4  C2  PXY d   1       0.166  -1.569   0.721  0.00  0.00     0.003 A 
ATOM      5  C3  PXY d   1      -0.454  -0.667   1.545  0.00  0.00     0.003 A 
ATOM      6  C4  PXY d   1      -0.842   0.556   1.066  0.00  0.00    -0.082 A 
ATOM      7  C5  PXY d   1      -0.648   0.853  -0.236  0.00  0.00     0.003 A 
ATOM      8  C6  PXY d   1      -0.054  -0.094  -1.066  0.00  0.00     0.003 A 
ENDROOT
TORSDOF 0
ENDMDL
