MODEL 1
REMARK minimizedAffinity -3.29430103
REMARK minimizedRMSD -1
REMARK  0 active torsions:
REMARK  status: ('A' for Active; 'I' for Inactive)
ROOT
ATOM      1  C4' PXY d   1       0.818  -2.643  -1.515  0.00  0.00     0.077 C 
ATOM      2  C1' PXY d   1      -1.160   1.494   2.004  0.00  0.00     0.077 C 
ATOM      3  C1  PXY d   1      -0.645   0.416   1.071  0.00  0.00    -0.082 A 
ATOM      4  C2  PXY d   1      -0.537  -0.829   1.506  0.00  0.00     0.003 A 
ATOM      5  C3  PXY d   1      -0.043  -1.810   0.685  0.00  0.00     0.003 A 
ATOM      6  C4  PXY d   1       0.294  -1.524  -0.611  0.00  0.00    -0.082 A 
ATOM      7  C5  PXY d   1       0.176  -0.259  -1.066  0.00  0.00     0.003 A 
ATOM      8  C6  PXY d   1      -0.289   0.731  -0.204  0.00  0.00     0.003 A 
ENDROOT
TORSDOF 0
ENDMDL
