MODEL 1
REMARK minimizedAffinity -5.09864569
REMARK minimizedRMSD -1
REMARK  0 active torsions:
REMARK  status: ('A' for Active; 'I' for Inactive)
ROOT
ATOM      1  C4' PXY d   1       1.507  -1.261  -0.387  0.00  0.00     0.077 C 
ATOM      2  C1' PXY d   1      -2.495   2.536   1.340  0.00  0.00     0.077 C 
ATOM      3  C1  PXY d   1      -1.442   1.538   0.899  0.00  0.00    -0.082 A 
ATOM      4  C2  PXY d   1      -0.943   1.611  -0.324  0.00  0.00     0.003 A 
ATOM      5  C3  PXY d   1      -0.014   0.697  -0.749  0.00  0.00     0.003 A 
ATOM      6  C4  PXY d   1       0.449  -0.269   0.104  0.00  0.00    -0.082 A 
ATOM      7  C5  PXY d   1      -0.048  -0.343   1.357  0.00  0.00     0.003 A 
ATOM      8  C6  PXY d   1      -1.021   0.569   1.756  0.00  0.00     0.003 A 
ENDROOT
TORSDOF 0
ENDMDL
