MODEL 1
REMARK minimizedAffinity -2.21787953
REMARK minimizedRMSD -1
REMARK  0 active torsions:
REMARK  status: ('A' for Active; 'I' for Inactive)
ROOT
ATOM      1  C4' PXY d   1       0.857  -1.224  -1.227  0.00  0.00     0.077 C 
ATOM      2  C1' PXY d   1      -1.975   3.032   1.471  0.00  0.00     0.077 C 
ATOM      3  C1  PXY d   1      -1.229   1.911   0.775  0.00  0.00    -0.082 A 
ATOM      4  C2  PXY d   1      -0.791   2.085  -0.461  0.00  0.00     0.003 A 
ATOM      5  C3  PXY d   1      -0.143   1.071  -1.117  0.00  0.00     0.003 A 
ATOM      6  C4  PXY d   1       0.107  -0.116  -0.482  0.00  0.00    -0.082 A 
ATOM      7  C5  PXY d   1      -0.327  -0.298   0.783  0.00  0.00     0.003 A 
ATOM      8  C6  PXY d   1      -1.019   0.730   1.417  0.00  0.00     0.003 A 
ENDROOT
TORSDOF 0
ENDMDL
