MODEL 1
REMARK minimizedAffinity -0.623689771
REMARK minimizedRMSD -1
REMARK  0 active torsions:
REMARK  status: ('A' for Active; 'I' for Inactive)
ROOT
ATOM      1  C4' PXY d   1      -1.144   1.506   2.086  0.00  0.00     0.077 C 
ATOM      2  C1' PXY d   1       1.543  -1.896  -1.739  0.00  0.00     0.077 C 
ATOM      3  C1  PXY d   1       0.838  -1.014  -0.727  0.00  0.00    -0.082 A 
ATOM      4  C2  PXY d   1       0.177   0.056  -1.140  0.00  0.00     0.003 A 
ATOM      5  C3  PXY d   1      -0.440   0.882  -0.236  0.00  0.00     0.003 A 
ATOM      6  C4  PXY d   1      -0.425   0.582   1.099  0.00  0.00    -0.082 A 
ATOM      7  C5  PXY d   1       0.238  -0.514   1.527  0.00  0.00     0.003 A 
ATOM      8  C6  PXY d   1       0.892  -1.317   0.598  0.00  0.00     0.003 A 
ENDROOT
TORSDOF 0
ENDMDL
