MODEL 1
REMARK minimizedAffinity -3.08515096
REMARK minimizedRMSD -1
REMARK  0 active torsions:
REMARK  status: ('A' for Active; 'I' for Inactive)
ROOT
ATOM      1  C4' PXY d   1       1.410  -1.485  -1.350  0.00  0.00     0.077 C 
ATOM      2  C1' PXY d   1      -1.845   2.036   1.877  0.00  0.00     0.077 C 
ATOM      3  C1  PXY d   1      -0.994   1.120   1.020  0.00  0.00    -0.082 A 
ATOM      4  C2  PXY d   1      -0.787  -0.129   1.404  0.00  0.00     0.003 A 
ATOM      5  C3  PXY d   1       0.006  -0.962   0.657  0.00  0.00     0.003 A 
ATOM      6  C4  PXY d   1       0.550  -0.528  -0.522  0.00  0.00    -0.082 A 
ATOM      7  C5  PXY d   1       0.335   0.742  -0.926  0.00  0.00     0.003 A 
ATOM      8  C6  PXY d   1      -0.439   1.584  -0.133  0.00  0.00     0.003 A 
ENDROOT
TORSDOF 0
ENDMDL
