MODEL 1
REMARK minimizedAffinity -5.26582861
REMARK minimizedRMSD -1
REMARK  0 active torsions:
REMARK  status: ('A' for Active; 'I' for Inactive)
ROOT
ATOM      1  C4' PXY d   1       1.083  -1.348  -1.100  0.00  0.00     0.077 C 
ATOM      2  C1' PXY d   1      -2.239   2.598   1.510  0.00  0.00     0.077 C 
ATOM      3  C1  PXY d   1      -1.366   1.557   0.837  0.00  0.00    -0.082 A 
ATOM      4  C2  PXY d   1      -0.741   1.857  -0.291  0.00  0.00     0.003 A 
ATOM      5  C3  PXY d   1       0.026   0.917  -0.929  0.00  0.00     0.003 A 
ATOM      6  C4  PXY d   1       0.199  -0.325  -0.381  0.00  0.00    -0.082 A 
ATOM      7  C5  PXY d   1      -0.426  -0.636   0.775  0.00  0.00     0.003 A 
ATOM      8  C6  PXY d   1      -1.234   0.319   1.386  0.00  0.00     0.003 A 
ENDROOT
TORSDOF 0
ENDMDL
