MODEL 1
REMARK minimizedAffinity -0.812336087
REMARK minimizedRMSD -1
REMARK  0 active torsions:
REMARK  status: ('A' for Active; 'I' for Inactive)
ROOT
ATOM      1  C4' PXY d   1       0.485   2.434  -1.504  0.00  0.00     0.077 C 
ATOM      2  C1' PXY d   1      -1.434  -1.159   2.598  0.00  0.00     0.077 C 
ATOM      3  C1  PXY d   1      -0.923  -0.226   1.518  0.00  0.00    -0.082 A 
ATOM      4  C2  PXY d   1      -1.062   1.082   1.664  0.00  0.00     0.003 A 
ATOM      5  C3  PXY d   1      -0.634   1.939   0.682  0.00  0.00     0.003 A 
ATOM      6  C4  PXY d   1      -0.008   1.454  -0.435  0.00  0.00    -0.082 A 
ATOM      7  C5  PXY d   1       0.147   0.122  -0.586  0.00  0.00     0.003 A 
ATOM      8  C6  PXY d   1      -0.331  -0.733   0.402  0.00  0.00     0.003 A 
ENDROOT
TORSDOF 0
ENDMDL
