MODEL 1
REMARK minimizedAffinity -5.23298025
REMARK minimizedRMSD -1
REMARK  0 active torsions:
REMARK  status: ('A' for Active; 'I' for Inactive)
ROOT
ATOM      1  C4' PXY d   1       2.452   0.375  -1.130  0.00  0.00     0.077 C 
ATOM      2  C1' PXY d   1      -3.008   0.704   0.738  0.00  0.00     0.077 C 
ATOM      3  C1  PXY d   1      -1.580   0.624   0.237  0.00  0.00    -0.082 A 
ATOM      4  C2  PXY d   1      -0.779  -0.326   0.693  0.00  0.00     0.003 A 
ATOM      5  C3  PXY d   1       0.525  -0.393   0.275  0.00  0.00     0.003 A 
ATOM      6  C4  PXY d   1       0.999   0.488  -0.660  0.00  0.00    -0.082 A 
ATOM      7  C5  PXY d   1       0.186   1.454  -1.137  0.00  0.00     0.003 A 
ATOM      8  C6  PXY d   1      -1.123   1.530  -0.669  0.00  0.00     0.003 A 
ENDROOT
TORSDOF 0
ENDMDL
