MODEL 1
REMARK minimizedAffinity 0.515685558
REMARK minimizedRMSD -1
REMARK  0 active torsions:
REMARK  status: ('A' for Active; 'I' for Inactive)
ROOT
ATOM      1  C4' PXY d   1      -1.540   1.961   0.236  0.00  0.00     0.077 C 
ATOM      2  C1' PXY d   1       1.740  -2.457  -1.536  0.00  0.00     0.077 C 
ATOM      3  C1  PXY d   1       0.888  -1.290  -1.076  0.00  0.00    -0.082 A 
ATOM      4  C2  PXY d   1       0.034  -1.456  -0.079  0.00  0.00     0.003 A 
ATOM      5  C3  PXY d   1      -0.766  -0.420   0.328  0.00  0.00     0.003 A 
ATOM      6  C4  PXY d   1      -0.654   0.813  -0.256  0.00  0.00    -0.082 A 
ATOM      7  C5  PXY d   1       0.223   0.993  -1.266  0.00  0.00     0.003 A 
ATOM      8  C6  PXY d   1       0.997  -0.082  -1.692  0.00  0.00     0.003 A 
ENDROOT
TORSDOF 0
ENDMDL
