MODEL 1
REMARK minimizedAffinity -5.15827417
REMARK minimizedRMSD -1
REMARK  0 active torsions:
REMARK  status: ('A' for Active; 'I' for Inactive)
ROOT
ATOM      1  C4' PXY d   1      -1.657   1.927   2.224  0.00  0.00     0.077 C 
ATOM      2  C1' PXY d   1       1.117  -2.177  -0.756  0.00  0.00     0.077 C 
ATOM      3  C1  PXY d   1       0.394  -1.092   0.017  0.00  0.00    -0.082 A 
ATOM      4  C2  PXY d   1       0.091  -1.287   1.290  0.00  0.00     0.003 A 
ATOM      5  C3  PXY d   1      -0.590  -0.329   1.995  0.00  0.00     0.003 A 
ATOM      6  C4  PXY d   1      -0.919   0.863   1.406  0.00  0.00    -0.082 A 
ATOM      7  C5  PXY d   1      -0.605   1.073   0.111  0.00  0.00     0.003 A 
ATOM      8  C6  PXY d   1       0.051   0.072  -0.599  0.00  0.00     0.003 A 
ENDROOT
TORSDOF 0
ENDMDL
