MODEL 1
REMARK minimizedAffinity -5.68299341
REMARK minimizedRMSD -1
REMARK  0 active torsions:
REMARK  status: ('A' for Active; 'I' for Inactive)
ROOT
ATOM      1  C4' PXY d   1       0.741  -1.083  -0.764  0.00  0.00     0.077 C 
ATOM      2  C1' PXY d   1      -2.250   3.253   1.616  0.00  0.00     0.077 C 
ATOM      3  C1  PXY d   1      -1.464   2.111   1.004  0.00  0.00    -0.082 A 
ATOM      4  C2  PXY d   1      -0.894   2.270  -0.180  0.00  0.00     0.003 A 
ATOM      5  C3  PXY d   1      -0.206   1.237  -0.763  0.00  0.00     0.003 A 
ATOM      6  C4  PXY d   1      -0.055   0.046  -0.103  0.00  0.00    -0.082 A 
ATOM      7  C5  PXY d   1      -0.624  -0.120   1.110  0.00  0.00     0.003 A 
ATOM      8  C6  PXY d   1      -1.353   0.927   1.666  0.00  0.00     0.003 A 
ENDROOT
TORSDOF 0
ENDMDL
