MODEL 1
REMARK minimizedAffinity -4.1151309
REMARK minimizedRMSD -1
REMARK  0 active torsions:
REMARK  status: ('A' for Active; 'I' for Inactive)
ROOT
ATOM      1  C4' PXY d   1       0.291  -1.322   2.897  0.00  0.00     0.077 C 
ATOM      2  C1' PXY d   1      -1.632   2.914  -0.535  0.00  0.00     0.077 C 
ATOM      3  C1  PXY d   1      -1.126   1.811   0.375  0.00  0.00    -0.082 A 
ATOM      4  C2  PXY d   1      -0.564   0.735  -0.151  0.00  0.00     0.003 A 
ATOM      5  C3  PXY d   1      -0.131  -0.285   0.655  0.00  0.00     0.003 A 
ATOM      6  C4  PXY d   1      -0.225  -0.180   2.017  0.00  0.00    -0.082 A 
ATOM      7  C5  PXY d   1      -0.788   0.920   2.562  0.00  0.00     0.003 A 
ATOM      8  C6  PXY d   1      -1.259   1.926   1.724  0.00  0.00     0.003 A 
ENDROOT
TORSDOF 0
ENDMDL
