MODEL 1
REMARK minimizedAffinity -5.36631918
REMARK minimizedRMSD -1
REMARK  0 active torsions:
REMARK  status: ('A' for Active; 'I' for Inactive)
ROOT
ATOM      1  C4' PXY d   1       1.108  -0.862  -1.140  0.00  0.00     0.077 C 
ATOM      2  C1' PXY d   1      -2.269   3.065   1.426  0.00  0.00     0.077 C 
ATOM      3  C1  PXY d   1      -1.387   2.040   0.742  0.00  0.00    -0.082 A 
ATOM      4  C2  PXY d   1      -1.111   0.901   1.354  0.00  0.00     0.003 A 
ATOM      5  C3  PXY d   1      -0.289  -0.024   0.763  0.00  0.00     0.003 A 
ATOM      6  C4  PXY d   1       0.214   0.198  -0.491  0.00  0.00    -0.082 A 
ATOM      7  C5  PXY d   1      -0.071   1.354  -1.127  0.00  0.00     0.003 A 
ATOM      8  C6  PXY d   1      -0.874   2.297  -0.493  0.00  0.00     0.003 A 
ENDROOT
TORSDOF 0
ENDMDL
