MODEL 1
REMARK minimizedAffinity -5.27978992
REMARK minimizedRMSD -1
REMARK  0 active torsions:
REMARK  status: ('A' for Active; 'I' for Inactive)
ROOT
ATOM      1  C4' PXY d   1      -0.582  -0.710   1.981  0.00  0.00     0.077 C 
ATOM      2  C1' PXY d   1      -0.819   4.086  -1.238  0.00  0.00     0.077 C 
ATOM      3  C1  PXY d   1      -0.759   2.835  -0.383  0.00  0.00    -0.082 A 
ATOM      4  C2  PXY d   1      -0.050   1.796  -0.792  0.00  0.00     0.003 A 
ATOM      5  C3  PXY d   1      -0.011   0.646  -0.047  0.00  0.00     0.003 A 
ATOM      6  C4  PXY d   1      -0.663   0.577   1.155  0.00  0.00    -0.082 A 
ATOM      7  C5  PXY d   1      -1.380   1.637   1.585  0.00  0.00     0.003 A 
ATOM      8  C6  PXY d   1      -1.440   2.780   0.794  0.00  0.00     0.003 A 
ENDROOT
TORSDOF 0
ENDMDL
