MODEL 1
REMARK minimizedAffinity -4.13567352
REMARK minimizedRMSD -1
REMARK  0 active torsions:
REMARK  status: ('A' for Active; 'I' for Inactive)
ROOT
ATOM      1  C4' PXY d   1      -0.485   3.952  -1.053  0.00  0.00     0.077 C 
ATOM      2  C1' PXY d   1      -0.712  -0.959   1.988  0.00  0.00     0.077 C 
ATOM      3  C1  PXY d   1      -0.663   0.333   1.197  0.00  0.00    -0.082 A 
ATOM      4  C2  PXY d   1      -0.066   0.355   0.016  0.00  0.00     0.003 A 
ATOM      5  C3  PXY d   1       0.015   1.522  -0.699  0.00  0.00     0.003 A 
ATOM      6  C4  PXY d   1      -0.567   2.667  -0.224  0.00  0.00    -0.082 A 
ATOM      7  C5  PXY d   1      -1.187   2.651   0.976  0.00  0.00     0.003 A 
ATOM      8  C6  PXY d   1      -1.222   1.465   1.704  0.00  0.00     0.003 A 
ENDROOT
TORSDOF 0
ENDMDL
