MODEL 1
REMARK minimizedAffinity -3.81631732
REMARK minimizedRMSD -1
REMARK  0 active torsions:
REMARK  status: ('A' for Active; 'I' for Inactive)
ROOT
ATOM      1  C4' PXY d   1       1.456  -1.463  -0.965  0.00  0.00     0.077 C 
ATOM      2  C1' PXY d   1      -2.301   2.187   1.482  0.00  0.00     0.077 C 
ATOM      3  C1  PXY d   1      -1.312   1.226   0.852  0.00  0.00    -0.082 A 
ATOM      4  C2  PXY d   1      -0.871   1.451  -0.375  0.00  0.00     0.003 A 
ATOM      5  C3  PXY d   1      -0.001   0.576  -0.972  0.00  0.00     0.003 A 
ATOM      6  C4  PXY d   1       0.464  -0.514  -0.286  0.00  0.00    -0.082 A 
ATOM      7  C5  PXY d   1       0.027  -0.746   0.971  0.00  0.00     0.003 A 
ATOM      8  C6  PXY d   1      -0.887   0.133   1.543  0.00  0.00     0.003 A 
ENDROOT
TORSDOF 0
ENDMDL
