MODEL 1
REMARK minimizedAffinity -4.12064171
REMARK minimizedRMSD -1
REMARK  0 active torsions:
REMARK  status: ('A' for Active; 'I' for Inactive)
ROOT
ATOM      1  C4' PXY d   1       1.750  -1.121  -1.290  0.00  0.00     0.077 C 
ATOM      2  C1' PXY d   1      -2.447   1.905   1.286  0.00  0.00     0.077 C 
ATOM      3  C1  PXY d   1      -1.343   1.107   0.622  0.00  0.00    -0.082 A 
ATOM      4  C2  PXY d   1      -0.900   1.470  -0.571  0.00  0.00     0.003 A 
ATOM      5  C3  PXY d   1       0.076   0.741  -1.200  0.00  0.00     0.003 A 
ATOM      6  C4  PXY d   1       0.643  -0.340  -0.578  0.00  0.00    -0.082 A 
ATOM      7  C5  PXY d   1       0.204  -0.710   0.644  0.00  0.00     0.003 A 
ATOM      8  C6  PXY d   1      -0.817   0.020   1.248  0.00  0.00     0.003 A 
ENDROOT
TORSDOF 0
ENDMDL
