MODEL 1
REMARK minimizedAffinity -4.81422901
REMARK minimizedRMSD -1
REMARK  0 active torsions:
REMARK  status: ('A' for Active; 'I' for Inactive)
ROOT
ATOM      1  C4' PXY d   1       1.272  -1.626  -0.558  0.00  0.00     0.077 C 
ATOM      2  C1' PXY d   1      -2.468   2.312   1.423  0.00  0.00     0.077 C 
ATOM      3  C1  PXY d   1      -1.483   1.276   0.916  0.00  0.00    -0.082 A 
ATOM      4  C2  PXY d   1      -1.030   1.357  -0.325  0.00  0.00     0.003 A 
ATOM      5  C3  PXY d   1      -0.164   0.411  -0.810  0.00  0.00     0.003 A 
ATOM      6  C4  PXY d   1       0.284  -0.598  -0.000  0.00  0.00    -0.082 A 
ATOM      7  C5  PXY d   1      -0.165  -0.681   1.270  0.00  0.00     0.003 A 
ATOM      8  C6  PXY d   1      -1.076   0.266   1.731  0.00  0.00     0.003 A 
ENDROOT
TORSDOF 0
ENDMDL
