MODEL 1
REMARK minimizedAffinity -3.00538373
REMARK minimizedRMSD -1
REMARK  0 active torsions:
REMARK  status: ('A' for Active; 'I' for Inactive)
ROOT
ATOM      1  C4' PXY d   1       1.035  -1.593  -0.757  0.00  0.00     0.077 C 
ATOM      2  C1' PXY d   1      -2.012   2.680   1.666  0.00  0.00     0.077 C 
ATOM      3  C1  PXY d   1      -1.205   1.560   1.041  0.00  0.00    -0.082 A 
ATOM      4  C2  PXY d   1      -1.229   1.389  -0.271  0.00  0.00     0.003 A 
ATOM      5  C3  PXY d   1      -0.530   0.361  -0.850  0.00  0.00     0.003 A 
ATOM      6  C4  PXY d   1       0.243  -0.469  -0.083  0.00  0.00    -0.082 A 
ATOM      7  C5  PXY d   1       0.282  -0.294   1.255  0.00  0.00     0.003 A 
ATOM      8  C6  PXY d   1      -0.467   0.730   1.827  0.00  0.00     0.003 A 
ENDROOT
TORSDOF 0
ENDMDL
