MODEL 1
REMARK minimizedAffinity 2.96660733
REMARK minimizedRMSD -1
REMARK  0 active torsions:
REMARK  status: ('A' for Active; 'I' for Inactive)
ROOT
ATOM      1  C   UNL d   1       1.696  -0.607   0.650  0.00  0.00     0.020 A 
ATOM      2  C1  UNL d   1       0.796  -0.292  -0.367  0.00  0.00     0.020 A 
ATOM      3  C2  UNL d   1      -0.201   0.661  -0.146  0.00  0.00     0.034 A 
ATOM      4  C3  UNL d   1      -0.300   1.301   1.095  0.00  0.00     0.017 A 
ATOM      5  C4  UNL d   1       0.604   0.983   2.115  0.00  0.00     0.017 A 
ATOM      6  C5  UNL d   1       1.600   0.029   1.888  0.00  0.00     0.034 A 
ATOM      7 Cl   UNL d   1       0.544   1.731   3.672  0.00  0.00    -0.070 Cl
ATOM      8 Cl1  UNL d   1      -1.557   2.469   1.298  0.00  0.00    -0.070 Cl
ENDROOT
TORSDOF 0
ENDMDL
