MODEL 1
REMARK minimizedAffinity 2.47383428
REMARK minimizedRMSD -1
REMARK  0 active torsions:
REMARK  status: ('A' for Active; 'I' for Inactive)
ROOT
ATOM      1  C   UNL d   1       2.382  -0.982  -0.101  0.00  0.00     0.020 A 
ATOM      2  C1  UNL d   1       1.834  -2.100  -0.730  0.00  0.00     0.020 A 
ATOM      3  C2  UNL d   1       0.664  -1.973  -1.482  0.00  0.00     0.034 A 
ATOM      4  C3  UNL d   1       0.039  -0.728  -1.608  0.00  0.00     0.017 A 
ATOM      5  C4  UNL d   1       0.590   0.393  -0.976  0.00  0.00     0.017 A 
ATOM      6  C5  UNL d   1       1.762   0.261  -0.224  0.00  0.00     0.034 A 
ATOM      7 Cl   UNL d   1      -0.124   1.964  -1.086  0.00  0.00    -0.070 Cl
ATOM      8 Cl1  UNL d   1      -1.404  -0.645  -2.554  0.00  0.00    -0.070 Cl
ENDROOT
TORSDOF 0
ENDMDL
