MODEL 1
REMARK minimizedAffinity 11.4250946
REMARK minimizedRMSD -1
REMARK  0 active torsions:
REMARK  status: ('A' for Active; 'I' for Inactive)
ROOT
ATOM      1  C   UNL d   1      -0.287   2.078   2.389  0.00  0.00     0.020 A 
ATOM      2  C1  UNL d   1      -1.075   2.362   1.274  0.00  0.00     0.020 A 
ATOM      3  C2  UNL d   1      -0.740   1.826   0.028  0.00  0.00     0.034 A 
ATOM      4  C3  UNL d   1       0.385   1.005  -0.106  0.00  0.00     0.017 A 
ATOM      5  C4  UNL d   1       1.175   0.721   1.014  0.00  0.00     0.017 A 
ATOM      6  C5  UNL d   1       0.835   1.259   2.259  0.00  0.00     0.034 A 
ATOM      7 Cl   UNL d   1       2.578  -0.285   0.928  0.00  0.00    -0.070 Cl
ATOM      8 Cl1  UNL d   1       0.740   0.377  -1.676  0.00  0.00    -0.070 Cl
ENDROOT
TORSDOF 0
ENDMDL
