MODEL 1
REMARK minimizedAffinity 9.21595573
REMARK minimizedRMSD -1
REMARK  0 active torsions:
REMARK  status: ('A' for Active; 'I' for Inactive)
ROOT
ATOM      1  C   UNL d   1      -0.172   1.678   2.440  0.00  0.00     0.020 A 
ATOM      2  C1  UNL d   1      -0.902   2.039   1.308  0.00  0.00     0.020 A 
ATOM      3  C2  UNL d   1      -0.501   1.593   0.047  0.00  0.00     0.034 A 
ATOM      4  C3  UNL d   1       0.633   0.783  -0.086  0.00  0.00     0.017 A 
ATOM      5  C4  UNL d   1       1.365   0.421   1.051  0.00  0.00     0.017 A 
ATOM      6  C5  UNL d   1       0.959   0.871   2.311  0.00  0.00     0.034 A 
ATOM      7 Cl   UNL d   1       2.774  -0.575   0.967  0.00  0.00    -0.070 Cl
ATOM      8 Cl1  UNL d   1       1.070   0.267  -1.676  0.00  0.00    -0.070 Cl
ENDROOT
TORSDOF 0
ENDMDL
