MODEL 1
REMARK minimizedAffinity 4.85639238
REMARK minimizedRMSD -1
REMARK  0 active torsions:
REMARK  status: ('A' for Active; 'I' for Inactive)
ROOT
ATOM      1  C   UNL d   1       4.915  -2.836   0.788  0.00  0.00     0.020 A 
ATOM      2  C1  UNL d   1       4.753  -1.487   0.479  0.00  0.00     0.020 A 
ATOM      3  C2  UNL d   1       3.597  -1.055  -0.176  0.00  0.00     0.034 A 
ATOM      4  C3  UNL d   1       2.600  -1.973  -0.523  0.00  0.00     0.017 A 
ATOM      5  C4  UNL d   1       2.764  -3.328  -0.212  0.00  0.00     0.017 A 
ATOM      6  C5  UNL d   1       3.923  -3.755   0.444  0.00  0.00     0.034 A 
ATOM      7 Cl   UNL d   1       1.577  -4.520  -0.608  0.00  0.00    -0.070 Cl
ATOM      8 Cl1  UNL d   1       1.197  -1.369  -1.331  0.00  0.00    -0.070 Cl
ENDROOT
TORSDOF 0
ENDMDL
