MODEL 1
REMARK minimizedAffinity 5.21027946
REMARK minimizedRMSD -1
REMARK  0 active torsions:
REMARK  status: ('A' for Active; 'I' for Inactive)
ROOT
ATOM      1  C   UNL d   1      -0.966   3.096  -0.650  0.00  0.00     0.020 A 
ATOM      2  C1  UNL d   1       0.144   3.806  -0.195  0.00  0.00     0.020 A 
ATOM      3  C2  UNL d   1       0.501   3.754   1.154  0.00  0.00     0.034 A 
ATOM      4  C3  UNL d   1      -0.253   2.990   2.053  0.00  0.00     0.017 A 
ATOM      5  C4  UNL d   1      -1.367   2.277   1.595  0.00  0.00     0.017 A 
ATOM      6  C5  UNL d   1      -1.720   2.333   0.243  0.00  0.00     0.034 A 
ATOM      7 Cl   UNL d   1      -2.345   1.313   2.644  0.00  0.00    -0.070 Cl
ATOM      8 Cl1  UNL d   1       0.247   2.971   3.707  0.00  0.00    -0.070 Cl
ENDROOT
TORSDOF 0
ENDMDL
