MODEL 1
REMARK minimizedAffinity 6.99391222
REMARK minimizedRMSD -1
REMARK  0 active torsions:
REMARK  status: ('A' for Active; 'I' for Inactive)
ROOT
ATOM      1  C   UNL d   1       2.294  -5.234  -0.989  0.00  0.00     0.020 A 
ATOM      2  C1  UNL d   1       1.230  -4.341  -0.860  0.00  0.00     0.020 A 
ATOM      3  C2  UNL d   1       1.446  -3.072  -0.320  0.00  0.00     0.034 A 
ATOM      4  C3  UNL d   1       2.728  -2.692   0.094  0.00  0.00     0.017 A 
ATOM      5  C4  UNL d   1       3.795  -3.589  -0.035  0.00  0.00     0.017 A 
ATOM      6  C5  UNL d   1       3.573  -4.859  -0.577  0.00  0.00     0.034 A 
ATOM      7 Cl   UNL d   1       5.405  -3.192   0.453  0.00  0.00    -0.070 Cl
ATOM      8 Cl1  UNL d   1       2.923  -1.107   0.753  0.00  0.00    -0.070 Cl
ENDROOT
TORSDOF 0
ENDMDL
