MODEL 1
REMARK minimizedAffinity 2.48613191
REMARK minimizedRMSD -1
REMARK  0 active torsions:
REMARK  status: ('A' for Active; 'I' for Inactive)
ROOT
ATOM      1  C   UNL d   1      -2.091   3.803   0.934  0.00  0.00     0.020 A 
ATOM      2  C1  UNL d   1      -3.364   3.297   1.192  0.00  0.00     0.020 A 
ATOM      3  C2  UNL d   1      -3.509   2.071   1.845  0.00  0.00     0.034 A 
ATOM      4  C3  UNL d   1      -2.379   1.347   2.242  0.00  0.00     0.017 A 
ATOM      5  C4  UNL d   1      -1.102   1.856   1.983  0.00  0.00     0.017 A 
ATOM      6  C5  UNL d   1      -0.962   3.084   1.329  0.00  0.00     0.034 A 
ATOM      7 Cl   UNL d   1       0.340   1.020   2.443  0.00  0.00    -0.070 Cl
ATOM      8 Cl1  UNL d   1      -2.633  -0.162   3.045  0.00  0.00    -0.070 Cl
ENDROOT
TORSDOF 0
ENDMDL
