MODEL 1
REMARK minimizedAffinity 3.49637938
REMARK minimizedRMSD -1
REMARK  0 active torsions:
REMARK  status: ('A' for Active; 'I' for Inactive)
ROOT
ATOM      1  C   UNL d   1      -1.327   3.370  -0.241  0.00  0.00     0.020 A 
ATOM      2  C1  UNL d   1      -0.189   2.886   0.404  0.00  0.00     0.020 A 
ATOM      3  C2  UNL d   1      -0.316   1.971   1.451  0.00  0.00     0.034 A 
ATOM      4  C3  UNL d   1      -1.583   1.536   1.856  0.00  0.00     0.017 A 
ATOM      5  C4  UNL d   1      -2.724   2.021   1.208  0.00  0.00     0.017 A 
ATOM      6  C5  UNL d   1      -2.592   2.938   0.160  0.00  0.00     0.034 A 
ATOM      7 Cl   UNL d   1      -4.321   1.531   1.651  0.00  0.00    -0.070 Cl
ATOM      8 Cl1  UNL d   1      -1.666   0.402   3.157  0.00  0.00    -0.070 Cl
ENDROOT
TORSDOF 0
ENDMDL
