MODEL 1
REMARK minimizedAffinity 11.9964132
REMARK minimizedRMSD -1
REMARK  0 active torsions:
REMARK  status: ('A' for Active; 'I' for Inactive)
ROOT
ATOM      1  C   UNL d   1      -0.138  -0.004  -2.733  0.00  0.00     0.020 A 
ATOM      2  C1  UNL d   1      -1.268  -0.692  -3.172  0.00  0.00     0.020 A 
ATOM      3  C2  UNL d   1      -2.470  -0.580  -2.470  0.00  0.00     0.034 A 
ATOM      4  C3  UNL d   1      -2.545   0.222  -1.325  0.00  0.00     0.017 A 
ATOM      5  C4  UNL d   1      -1.410   0.913  -0.886  0.00  0.00     0.017 A 
ATOM      6  C5  UNL d   1      -0.209   0.797  -1.593  0.00  0.00     0.034 A 
ATOM      7 Cl   UNL d   1      -1.424   1.922   0.517  0.00  0.00    -0.070 Cl
ATOM      8 Cl1  UNL d   1      -4.063   0.315  -0.507  0.00  0.00    -0.070 Cl
ENDROOT
TORSDOF 0
ENDMDL
