MODEL 1
REMARK minimizedAffinity 6.9824338
REMARK minimizedRMSD -1
REMARK  0 active torsions:
REMARK  status: ('A' for Active; 'I' for Inactive)
ROOT
ATOM      1  C   UNL d   1      -0.843   3.706   0.980  0.00  0.00     0.020 A 
ATOM      2  C1  UNL d   1      -1.099   2.410   1.426  0.00  0.00     0.020 A 
ATOM      3  C2  UNL d   1      -0.809   1.319   0.605  0.00  0.00     0.034 A 
ATOM      4  C3  UNL d   1      -0.260   1.521  -0.667  0.00  0.00     0.017 A 
ATOM      5  C4  UNL d   1      -0.003   2.822  -1.114  0.00  0.00     0.017 A 
ATOM      6  C5  UNL d   1      -0.296   3.911  -0.287  0.00  0.00     0.034 A 
ATOM      7 Cl   UNL d   1       0.673   3.151  -2.670  0.00  0.00    -0.070 Cl
ATOM      8 Cl1  UNL d   1       0.075   0.125  -1.629  0.00  0.00    -0.070 Cl
ENDROOT
TORSDOF 0
ENDMDL
