MODEL 1
REMARK minimizedAffinity 8.76006031
REMARK minimizedRMSD -1
REMARK  0 active torsions:
REMARK  status: ('A' for Active; 'I' for Inactive)
ROOT
ATOM      1  C   UNL d   1       0.443   0.711  -1.592  0.00  0.00     0.020 A 
ATOM      2  C1  UNL d   1       0.732   1.843  -2.354  0.00  0.00     0.020 A 
ATOM      3  C2  UNL d   1       0.403   3.111  -1.872  0.00  0.00     0.034 A 
ATOM      4  C3  UNL d   1      -0.216   3.252  -0.625  0.00  0.00     0.017 A 
ATOM      5  C4  UNL d   1      -0.505   2.116   0.139  0.00  0.00     0.017 A 
ATOM      6  C5  UNL d   1      -0.174   0.848  -0.348  0.00  0.00     0.034 A 
ATOM      7 Cl   UNL d   1      -1.267   2.210   1.688  0.00  0.00    -0.070 Cl
ATOM      8 Cl1  UNL d   1      -0.593   4.852  -0.091  0.00  0.00    -0.070 Cl
ENDROOT
TORSDOF 0
ENDMDL
