MODEL 1
REMARK minimizedAffinity 8.78725624
REMARK minimizedRMSD -1
REMARK  0 active torsions:
REMARK  status: ('A' for Active; 'I' for Inactive)
ROOT
ATOM      1  C   UNL d   1      -2.901  -0.767  -2.200  0.00  0.00     0.020 A 
ATOM      2  C1  UNL d   1      -3.410   0.524  -2.339  0.00  0.00     0.020 A 
ATOM      3  C2  UNL d   1      -2.564   1.627  -2.204  0.00  0.00     0.034 A 
ATOM      4  C3  UNL d   1      -1.204   1.441  -1.930  0.00  0.00     0.017 A 
ATOM      5  C4  UNL d   1      -0.694   0.145  -1.790  0.00  0.00     0.017 A 
ATOM      6  C5  UNL d   1      -1.546  -0.955  -1.926  0.00  0.00     0.034 A 
ATOM      7 Cl   UNL d   1       0.972  -0.163  -1.451  0.00  0.00    -0.070 Cl
ATOM      8 Cl1  UNL d   1      -0.216   2.850  -1.776  0.00  0.00    -0.070 Cl
ENDROOT
TORSDOF 0
ENDMDL
