MODEL 1
REMARK minimizedAffinity 10.2834482
REMARK minimizedRMSD -1
REMARK  0 active torsions:
REMARK  status: ('A' for Active; 'I' for Inactive)
ROOT
ATOM      1  C   UNL d   1      -0.192   4.547   2.344  0.00  0.00     0.020 A 
ATOM      2  C1  UNL d   1      -0.422   3.208   2.659  0.00  0.00     0.020 A 
ATOM      3  C2  UNL d   1      -0.529   2.260   1.639  0.00  0.00     0.034 A 
ATOM      4  C3  UNL d   1      -0.407   2.649   0.300  0.00  0.00     0.017 A 
ATOM      5  C4  UNL d   1      -0.176   3.993  -0.014  0.00  0.00     0.017 A 
ATOM      6  C5  UNL d   1      -0.069   4.938   1.011  0.00  0.00     0.034 A 
ATOM      7 Cl   UNL d   1      -0.014   4.550  -1.643  0.00  0.00    -0.070 Cl
ATOM      8 Cl1  UNL d   1      -0.550   1.424  -0.909  0.00  0.00    -0.070 Cl
ENDROOT
TORSDOF 0
ENDMDL
