MODEL 1
REMARK minimizedAffinity 9.36633492
REMARK minimizedRMSD -1
REMARK  0 active torsions:
REMARK  status: ('A' for Active; 'I' for Inactive)
ROOT
ATOM      1  C   UNL d   1       5.819  -2.729   0.979  0.00  0.00     0.020 A 
ATOM      2  C1  UNL d   1       5.508  -4.081   0.837  0.00  0.00     0.020 A 
ATOM      3  C2  UNL d   1       4.174  -4.496   0.851  0.00  0.00     0.034 A 
ATOM      4  C3  UNL d   1       3.147  -3.558   1.006  0.00  0.00     0.017 A 
ATOM      5  C4  UNL d   1       3.460  -2.201   1.147  0.00  0.00     0.017 A 
ATOM      6  C5  UNL d   1       4.797  -1.791   1.133  0.00  0.00     0.034 A 
ATOM      7 Cl   UNL d   1       2.247  -0.985   1.342  0.00  0.00    -0.070 Cl
ATOM      8 Cl1  UNL d   1       1.521  -4.141   1.012  0.00  0.00    -0.070 Cl
ENDROOT
TORSDOF 0
ENDMDL
