MODEL 1
REMARK minimizedAffinity 3.29634404
REMARK minimizedRMSD -1
REMARK  0 active torsions:
REMARK  status: ('A' for Active; 'I' for Inactive)
ROOT
ATOM      1  C   UNL d   1       0.326  -0.414  -1.925  0.00  0.00     0.020 A 
ATOM      2  C1  UNL d   1      -0.756  -0.908  -2.653  0.00  0.00     0.020 A 
ATOM      3  C2  UNL d   1      -1.791  -0.052  -3.033  0.00  0.00     0.034 A 
ATOM      4  C3  UNL d   1      -1.747   1.303  -2.686  0.00  0.00     0.017 A 
ATOM      5  C4  UNL d   1      -0.661   1.798  -1.955  0.00  0.00     0.017 A 
ATOM      6  C5  UNL d   1       0.373   0.937  -1.577  0.00  0.00     0.034 A 
ATOM      7 Cl   UNL d   1      -0.536   3.458  -1.490  0.00  0.00    -0.070 Cl
ATOM      8 Cl1  UNL d   1      -3.062   2.305  -3.189  0.00  0.00    -0.070 Cl
ENDROOT
TORSDOF 0
ENDMDL
