MODEL 1
REMARK minimizedAffinity 0.260398567
REMARK minimizedRMSD -1
REMARK  0 active torsions:
REMARK  status: ('A' for Active; 'I' for Inactive)
ROOT
ATOM      1  C   UNL d   1      -0.124   2.485  -1.433  0.00  0.00     0.020 A 
ATOM      2  C1  UNL d   1       0.020   3.838  -1.735  0.00  0.00     0.020 A 
ATOM      3  C2  UNL d   1      -0.745   4.790  -1.058  0.00  0.00     0.034 A 
ATOM      4  C3  UNL d   1      -1.658   4.390  -0.076  0.00  0.00     0.017 A 
ATOM      5  C4  UNL d   1      -1.802   3.031   0.227  0.00  0.00     0.017 A 
ATOM      6  C5  UNL d   1      -1.033   2.082  -0.454  0.00  0.00     0.034 A 
ATOM      7 Cl   UNL d   1      -2.907   2.461   1.427  0.00  0.00    -0.070 Cl
ATOM      8 Cl1  UNL d   1      -2.571   5.621   0.722  0.00  0.00    -0.070 Cl
ENDROOT
TORSDOF 0
ENDMDL
