MODEL 1
REMARK minimizedAffinity 3.42521906
REMARK minimizedRMSD -1
REMARK  0 active torsions:
REMARK  status: ('A' for Active; 'I' for Inactive)
ROOT
ATOM      1  C   UNL d   1      -3.394   0.487   2.175  0.00  0.00     0.124 A 
ATOM      2  C1  UNL d   1      -3.955   0.120   0.959  0.00  0.00     0.062 A 
ATOM      3  C2  UNL d   1      -3.227  -0.650   0.057  0.00  0.00     0.162 A 
ATOM      4  C3  UNL d   1      -1.931  -1.061   0.368  0.00  0.00    -0.034 A 
ATOM      5  C4  UNL d   1      -1.373  -0.687   1.592  0.00  0.00     0.162 A 
ATOM      6  C5  UNL d   1      -2.104   0.083   2.490  0.00  0.00     0.062 A 
ATOM      7  F   UNL d   1      -1.561   0.436   3.664  0.00  0.00    -0.097 F 
ATOM      8  F1  UNL d   1      -0.129  -1.065   1.922  0.00  0.00    -0.096 F 
ATOM      9  I   UNL d   1      -0.839  -2.213  -0.979  0.00  0.00    -0.060 I 
ATOM     10  F2  UNL d   1      -3.794  -0.990  -1.110  0.00  0.00    -0.096 F 
ATOM     11  F3  UNL d   1      -5.200   0.510   0.652  0.00  0.00    -0.097 F 
ATOM     12  F4  UNL d   1      -4.096   1.229   3.041  0.00  0.00    -0.092 F 
ENDROOT
TORSDOF 0
ENDMDL
