MODEL 1
REMARK minimizedAffinity 0.164475426
REMARK minimizedRMSD -1
REMARK  0 active torsions:
REMARK  status: ('A' for Active; 'I' for Inactive)
ROOT
ATOM      1  C   UNL d   1      -0.421  -1.555  -4.695  0.00  0.00     0.124 A 
ATOM      2  C1  UNL d   1      -0.399  -2.620  -3.806  0.00  0.00     0.062 A 
ATOM      3  C2  UNL d   1      -0.624  -2.405  -2.450  0.00  0.00     0.162 A 
ATOM      4  C3  UNL d   1      -0.875  -1.118  -1.973  0.00  0.00    -0.034 A 
ATOM      5  C4  UNL d   1      -0.894  -0.051  -2.873  0.00  0.00     0.162 A 
ATOM      6  C5  UNL d   1      -0.668  -0.272  -4.228  0.00  0.00     0.062 A 
ATOM      7  F   UNL d   1      -0.689   0.759  -5.085  0.00  0.00    -0.097 F 
ATOM      8  F1  UNL d   1      -1.131   1.199  -2.449  0.00  0.00    -0.096 F 
ATOM      9  I   UNL d   1      -1.212  -0.792   0.054  0.00  0.00    -0.060 I 
ATOM     10  F2  UNL d   1      -0.598  -3.454  -1.613  0.00  0.00    -0.096 F 
ATOM     11  F3  UNL d   1      -0.160  -3.861  -4.255  0.00  0.00    -0.097 F 
ATOM     12  F4  UNL d   1      -0.203  -1.764  -6.000  0.00  0.00    -0.092 F 
ENDROOT
TORSDOF 0
ENDMDL
