MODEL 1
REMARK minimizedAffinity 9.76267147
REMARK minimizedRMSD -1
REMARK  0 active torsions:
REMARK  status: ('A' for Active; 'I' for Inactive)
ROOT
ATOM      1  C   UNL d   1      -0.693  -2.072  -2.374  0.00  0.00     0.124 A 
ATOM      2  C1  UNL d   1      -0.713  -0.713  -2.093  0.00  0.00     0.062 A 
ATOM      3  C2  UNL d   1      -0.644   0.217  -3.126  0.00  0.00     0.162 A 
ATOM      4  C3  UNL d   1      -0.557  -0.209  -4.451  0.00  0.00    -0.034 A 
ATOM      5  C4  UNL d   1      -0.537  -1.578  -4.727  0.00  0.00     0.162 A 
ATOM      6  C5  UNL d   1      -0.605  -2.503  -3.690  0.00  0.00     0.062 A 
ATOM      7  F   UNL d   1      -0.587  -3.816  -3.964  0.00  0.00    -0.097 F 
ATOM      8  F1  UNL d   1      -0.453  -2.022  -5.989  0.00  0.00    -0.096 F 
ATOM      9  I   UNL d   1      -0.454   1.178  -5.999  0.00  0.00    -0.060 I 
ATOM     10  F2  UNL d   1      -0.665   1.523  -2.825  0.00  0.00    -0.096 F 
ATOM     11  F3  UNL d   1      -0.797  -0.294  -0.822  0.00  0.00    -0.097 F 
ATOM     12  F4  UNL d   1      -0.758  -2.965  -1.378  0.00  0.00    -0.092 F 
ENDROOT
TORSDOF 0
ENDMDL
