MODEL 1
REMARK minimizedAffinity 3.85406876
REMARK minimizedRMSD -1
REMARK  0 active torsions:
REMARK  status: ('A' for Active; 'I' for Inactive)
ROOT
ATOM      1  C   UNL d   1       1.519   1.111  -4.309  0.00  0.00     0.124 A 
ATOM      2  C1  UNL d   1       0.485   1.865  -3.772  0.00  0.00     0.062 A 
ATOM      3  C2  UNL d   1      -0.839   1.489  -3.982  0.00  0.00     0.162 A 
ATOM      4  C3  UNL d   1      -1.136   0.352  -4.734  0.00  0.00    -0.034 A 
ATOM      5  C4  UNL d   1      -0.091  -0.400  -5.272  0.00  0.00     0.162 A 
ATOM      6  C5  UNL d   1       1.230  -0.020  -5.059  0.00  0.00     0.062 A 
ATOM      7  F   UNL d   1       2.228  -0.750  -5.579  0.00  0.00    -0.097 F 
ATOM      8  F1  UNL d   1      -0.342  -1.499  -6.000  0.00  0.00    -0.096 F 
ATOM      9  I   UNL d   1      -3.114  -0.213  -5.051  0.00  0.00    -0.060 I 
ATOM     10  F2  UNL d   1      -1.818   2.236  -3.451  0.00  0.00    -0.096 F 
ATOM     11  F3  UNL d   1       0.761   2.959  -3.048  0.00  0.00    -0.097 F 
ATOM     12  F4  UNL d   1       2.791   1.476  -4.106  0.00  0.00    -0.092 F 
ENDROOT
TORSDOF 0
ENDMDL
