MODEL 1
REMARK minimizedAffinity 5.92259169
REMARK minimizedRMSD -1
REMARK  0 active torsions:
REMARK  status: ('A' for Active; 'I' for Inactive)
ROOT
ATOM      1  C   UNL d   1      -1.764  -0.411   1.774  0.00  0.00     0.124 A 
ATOM      2  C1  UNL d   1      -2.193  -1.038   0.612  0.00  0.00     0.062 A 
ATOM      3  C2  UNL d   1      -3.402  -0.674   0.026  0.00  0.00     0.162 A 
ATOM      4  C3  UNL d   1      -4.191   0.322   0.600  0.00  0.00    -0.034 A 
ATOM      5  C4  UNL d   1      -3.754   0.947   1.770  0.00  0.00     0.162 A 
ATOM      6  C5  UNL d   1      -2.545   0.580   2.352  0.00  0.00     0.062 A 
ATOM      7  F   UNL d   1      -2.133   1.186   3.475  0.00  0.00    -0.097 F 
ATOM      8  F1  UNL d   1      -4.488   1.908   2.349  0.00  0.00    -0.096 F 
ATOM      9  I   UNL d   1      -6.000   0.869  -0.273  0.00  0.00    -0.060 I 
ATOM     10  F2  UNL d   1      -3.791  -1.296  -1.097  0.00  0.00    -0.096 F 
ATOM     11  F3  UNL d   1      -1.441  -1.996   0.052  0.00  0.00    -0.097 F 
ATOM     12  F4  UNL d   1      -0.601  -0.764   2.336  0.00  0.00    -0.092 F 
ENDROOT
TORSDOF 0
ENDMDL
