MODEL 1
REMARK minimizedAffinity 15.545743
REMARK minimizedRMSD -1
REMARK  0 active torsions:
REMARK  status: ('A' for Active; 'I' for Inactive)
ROOT
ATOM      1  C   UNL d   1       1.134  -1.656   2.295  0.00  0.00     0.124 A 
ATOM      2  C1  UNL d   1       0.936  -0.717   3.298  0.00  0.00     0.062 A 
ATOM      3  C2  UNL d   1      -0.254   0.002   3.358  0.00  0.00     0.162 A 
ATOM      4  C3  UNL d   1      -1.257  -0.216   2.412  0.00  0.00    -0.034 A 
ATOM      5  C4  UNL d   1      -1.049  -1.161   1.406  0.00  0.00     0.162 A 
ATOM      6  C5  UNL d   1       0.142  -1.877   1.351  0.00  0.00     0.062 A 
ATOM      7  F   UNL d   1       0.332  -2.784   0.381  0.00  0.00    -0.097 F 
ATOM      8  F1  UNL d   1      -1.992  -1.396   0.481  0.00  0.00    -0.096 F 
ATOM      9  I   UNL d   1      -3.038   0.858   2.498  0.00  0.00    -0.060 I 
ATOM     10  F2  UNL d   1      -0.419   0.903   4.337  0.00  0.00    -0.096 F 
ATOM     11  F3  UNL d   1       1.893  -0.501   4.211  0.00  0.00    -0.097 F 
ATOM     12  F4  UNL d   1       2.281  -2.346   2.239  0.00  0.00    -0.092 F 
ENDROOT
TORSDOF 0
ENDMDL
