MODEL 1
REMARK minimizedAffinity 7.7268095
REMARK minimizedRMSD -1
REMARK  0 active torsions:
REMARK  status: ('A' for Active; 'I' for Inactive)
ROOT
ATOM      1  C   UNL d   1      -3.238   0.993   2.076  0.00  0.00     0.124 A 
ATOM      2  C1  UNL d   1      -3.808   0.450   0.933  0.00  0.00     0.062 A 
ATOM      3  C2  UNL d   1      -3.203  -0.627   0.292  0.00  0.00     0.162 A 
ATOM      4  C3  UNL d   1      -2.020  -1.170   0.793  0.00  0.00    -0.034 A 
ATOM      5  C4  UNL d   1      -1.451  -0.618   1.943  0.00  0.00     0.162 A 
ATOM      6  C5  UNL d   1      -2.060   0.458   2.580  0.00  0.00     0.062 A 
ATOM      7  F   UNL d   1      -1.507   0.981   3.684  0.00  0.00    -0.097 F 
ATOM      8  F1  UNL d   1      -0.314  -1.116   2.451  0.00  0.00    -0.096 F 
ATOM      9  I   UNL d   1      -1.112  -2.781  -0.162  0.00  0.00    -0.060 I 
ATOM     10  F2  UNL d   1      -3.777  -1.132  -0.810  0.00  0.00    -0.096 F 
ATOM     11  F3  UNL d   1      -4.946   0.965   0.444  0.00  0.00    -0.097 F 
ATOM     12  F4  UNL d   1      -3.821   2.030   2.690  0.00  0.00    -0.092 F 
ENDROOT
TORSDOF 0
ENDMDL
