MODEL 1
REMARK minimizedAffinity -2.69659185
REMARK minimizedRMSD -1
REMARK  0 active torsions:
REMARK  status: ('A' for Active; 'I' for Inactive)
ROOT
ATOM      1  C   UNL d   1      -2.068  -1.269   0.161  0.00  0.00     0.124 A 
ATOM      2  C1  UNL d   1      -3.264  -0.586  -0.010  0.00  0.00     0.062 A 
ATOM      3  C2  UNL d   1      -3.268   0.801  -0.126  0.00  0.00     0.162 A 
ATOM      4  C3  UNL d   1      -2.071   1.515  -0.071  0.00  0.00    -0.034 A 
ATOM      5  C4  UNL d   1      -0.872   0.821   0.102  0.00  0.00     0.162 A 
ATOM      6  C5  UNL d   1      -0.873  -0.565   0.217  0.00  0.00     0.062 A 
ATOM      7  F   UNL d   1       0.284  -1.223   0.383  0.00  0.00    -0.097 F 
ATOM      8  F1  UNL d   1       0.297   1.477   0.159  0.00  0.00    -0.096 F 
ATOM      9  I   UNL d   1      -2.072   3.589  -0.244  0.00  0.00    -0.060 I 
ATOM     10  F2  UNL d   1      -4.438   1.435  -0.291  0.00  0.00    -0.096 F 
ATOM     11  F3  UNL d   1      -4.419  -1.264  -0.063  0.00  0.00    -0.097 F 
ATOM     12  F4  UNL d   1      -2.067  -2.604   0.274  0.00  0.00    -0.092 F 
ENDROOT
TORSDOF 0
ENDMDL
