MODEL 1
REMARK minimizedAffinity -3.58060217
REMARK minimizedRMSD -1
REMARK  2 active torsions:
REMARK  status: ('A' for Active; 'I' for Inactive)
REMARK    1  A    between atoms: C2'_3  and  C1'_4 
REMARK    2  A    between atoms: C1'_4  and  C1_5 
ROOT
ATOM      1  C1  I4B d   1      -0.019   0.037  -0.044  0.00  0.00    -0.075 A 
ATOM      2  C2  I4B d   1       1.350   0.125  -0.030  0.00  0.00     0.003 A 
ATOM      3  C3  I4B d   1       2.133  -0.995   0.343  0.00  0.00     0.002 A 
ATOM      4  C4  I4B d   1       1.507  -2.158   0.742  0.00  0.00    -0.004 A 
ATOM      5  C5  I4B d   1       0.119  -2.253   0.705  0.00  0.00     0.002 A 
ATOM      6  C6  I4B d   1      -0.649  -1.152   0.298  0.00  0.00     0.003 A 
ENDROOT
BRANCH   1   7
ATOM      7  C1' I4B d   1      -0.816   1.249  -0.412  0.00  0.00     0.060 C 
BRANCH   7   8
ATOM      8  C2' I4B d   1      -1.233   1.111  -1.862  0.00  0.00    -0.013 C 
ATOM      9  C4' I4B d   1      -2.596   0.481  -1.979  0.00  0.00     0.013 C 
ATOM     10  C3' I4B d   1      -1.213   2.476  -2.481  0.00  0.00     0.013 C 
ENDBRANCH   7   8
ENDBRANCH   1   7
TORSDOF 2
ENDMDL
