MODEL 1
REMARK minimizedAffinity -5.44646311
REMARK minimizedRMSD -1
REMARK  2 active torsions:
REMARK  status: ('A' for Active; 'I' for Inactive)
REMARK    1  A    between atoms: C2'_3  and  C1'_4 
REMARK    2  A    between atoms: C1'_4  and  C1_5 
ROOT
ATOM      1  C1  I4B d   1      -0.169   0.525  -0.026  0.00  0.00    -0.075 A 
ATOM      2  C2  I4B d   1      -0.330  -0.441   0.937  0.00  0.00     0.003 A 
ATOM      3  C3  I4B d   1       0.588  -1.515   1.029  0.00  0.00     0.002 A 
ATOM      4  C4  I4B d   1       1.616  -1.611   0.113  0.00  0.00    -0.004 A 
ATOM      5  C5  I4B d   1       1.790  -0.619  -0.848  0.00  0.00     0.002 A 
ATOM      6  C6  I4B d   1       0.900   0.462  -0.910  0.00  0.00     0.003 A 
ENDROOT
BRANCH   1   7
ATOM      7  C1' I4B d   1      -1.176   1.627  -0.116  0.00  0.00     0.060 C 
BRANCH   7   8
ATOM      8  C2' I4B d   1      -1.632   1.726  -1.557  0.00  0.00    -0.013 C 
ATOM      9  C4' I4B d   1      -3.067   1.293  -1.706  0.00  0.00     0.013 C 
ATOM     10  C3' I4B d   1      -1.446   3.145  -2.005  0.00  0.00     0.013 C 
ENDBRANCH   7   8
ENDBRANCH   1   7
TORSDOF 2
ENDMDL
