MODEL 1
REMARK minimizedAffinity -4.37507105
REMARK minimizedRMSD -1
REMARK  2 active torsions:
REMARK  status: ('A' for Active; 'I' for Inactive)
REMARK    1  A    between atoms: C2'_3  and  C1'_4 
REMARK    2  A    between atoms: C1'_4  and  C1_5 
ROOT
ATOM      1  C1  I4B d   1      -0.050  -0.209   0.141  0.00  0.00    -0.075 A 
ATOM      2  C2  I4B d   1       1.255  -0.282  -0.279  0.00  0.00     0.003 A 
ATOM      3  C3  I4B d   1       1.986  -1.485  -0.128  0.00  0.00     0.002 A 
ATOM      4  C4  I4B d   1       1.393  -2.568   0.489  0.00  0.00    -0.004 A 
ATOM      5  C5  I4B d   1       0.063  -2.499   0.893  0.00  0.00     0.002 A 
ATOM      6  C6  I4B d   1      -0.667  -1.317   0.707  0.00  0.00     0.003 A 
ENDROOT
BRANCH   1   7
ATOM      7  C1' I4B d   1      -0.783   1.087  -0.004  0.00  0.00     0.060 C 
BRANCH   7   8
ATOM      8  C2' I4B d   1      -1.312   1.169  -1.421  0.00  0.00    -0.013 C 
ATOM      9  C4' I4B d   1      -2.770   0.796  -1.481  0.00  0.00     0.013 C 
ATOM     10  C3' I4B d   1      -1.089   2.566  -1.919  0.00  0.00     0.013 C 
ENDBRANCH   7   8
ENDBRANCH   1   7
TORSDOF 2
ENDMDL
