MODEL 1
REMARK minimizedAffinity -4.91235876
REMARK minimizedRMSD -1
REMARK  2 active torsions:
REMARK  status: ('A' for Active; 'I' for Inactive)
REMARK    1  A    between atoms: C2'_3  and  C1'_4 
REMARK    2  A    between atoms: C1'_4  and  C1_5 
ROOT
ATOM      1  C1  I4B d   1      -0.372   0.175   0.434  0.00  0.00    -0.075 A 
ATOM      2  C2  I4B d   1       0.918  -0.081   0.042  0.00  0.00     0.003 A 
ATOM      3  C3  I4B d   1       1.593  -1.230   0.521  0.00  0.00     0.002 A 
ATOM      4  C4  I4B d   1       0.962  -2.063   1.423  0.00  0.00    -0.004 A 
ATOM      5  C5  I4B d   1      -0.354  -1.814   1.801  0.00  0.00     0.002 A 
ATOM      6  C6  I4B d   1      -1.030  -0.695   1.294  0.00  0.00     0.003 A 
ENDROOT
BRANCH   1   7
ATOM      7  C1' I4B d   1      -1.044   1.415  -0.065  0.00  0.00     0.060 C 
BRANCH   7   8
ATOM      8  C2' I4B d   1      -1.038   1.372  -1.580  0.00  0.00    -0.013 C 
ATOM      9  C4' I4B d   1      -2.419   1.119  -2.124  0.00  0.00     0.013 C 
ATOM     10  C3' I4B d   1      -0.491   2.677  -2.078  0.00  0.00     0.013 C 
ENDBRANCH   7   8
ENDBRANCH   1   7
TORSDOF 2
ENDMDL
