MODEL 1
REMARK minimizedAffinity -6.12035179
REMARK minimizedRMSD -1
REMARK  2 active torsions:
REMARK  status: ('A' for Active; 'I' for Inactive)
REMARK    1  A    between atoms: C2'_3  and  C1'_4 
REMARK    2  A    between atoms: C1'_4  and  C1_5 
ROOT
ATOM      1  C1  I4B d   1      -0.194   0.080  -0.084  0.00  0.00    -0.075 A 
ATOM      2  C2  I4B d   1       1.030   0.175  -0.698  0.00  0.00     0.003 A 
ATOM      3  C3  I4B d   1       1.960  -0.889  -0.604  0.00  0.00     0.002 A 
ATOM      4  C4  I4B d   1       1.646  -2.000   0.152  0.00  0.00    -0.004 A 
ATOM      5  C5  I4B d   1       0.396  -2.105   0.754  0.00  0.00     0.002 A 
ATOM      6  C6  I4B d   1      -0.535  -1.064   0.626  0.00  0.00     0.003 A 
ENDROOT
BRANCH   1   7
ATOM      7  C1' I4B d   1      -1.139   1.236  -0.177  0.00  0.00     0.060 C 
BRANCH   7   8
ATOM      8  C2' I4B d   1      -1.361   1.540  -1.645  0.00  0.00    -0.013 C 
ATOM      9  C4' I4B d   1      -2.759   1.177  -2.071  0.00  0.00     0.013 C 
ATOM     10  C3' I4B d   1      -1.091   3.000  -1.861  0.00  0.00     0.013 C 
ENDBRANCH   7   8
ENDBRANCH   1   7
TORSDOF 2
ENDMDL
