MODEL 1
REMARK minimizedAffinity -1.87559211
REMARK minimizedRMSD -1
REMARK  2 active torsions:
REMARK  status: ('A' for Active; 'I' for Inactive)
REMARK    1  A    between atoms: C2'_3  and  C1'_4 
REMARK    2  A    between atoms: C1'_4  and  C1_5 
ROOT
ATOM      1  C1  I4B d   1      -0.255   0.658  -0.015  0.00  0.00    -0.075 A 
ATOM      2  C2  I4B d   1      -0.532  -0.277   0.950  0.00  0.00     0.003 A 
ATOM      3  C3  I4B d   1       0.447  -1.229   1.323  0.00  0.00     0.002 A 
ATOM      4  C4  I4B d   1       1.665  -1.241   0.674  0.00  0.00    -0.004 A 
ATOM      5  C5  I4B d   1       1.953  -0.278  -0.289  0.00  0.00     0.002 A 
ATOM      6  C6  I4B d   1       0.992   0.686  -0.627  0.00  0.00     0.003 A 
ENDROOT
BRANCH   1   7
ATOM      7  C1' I4B d   1      -1.324   1.627  -0.408  0.00  0.00     0.060 C 
BRANCH   7   8
ATOM      8  C2' I4B d   1      -1.664   1.382  -1.865  0.00  0.00    -0.013 C 
ATOM      9  C4' I4B d   1      -3.075   0.878  -2.018  0.00  0.00     0.013 C 
ATOM     10  C3' I4B d   1      -1.465   2.669  -2.609  0.00  0.00     0.013 C 
ENDBRANCH   7   8
ENDBRANCH   1   7
TORSDOF 2
ENDMDL
