MODEL 1
REMARK minimizedAffinity -1.51681769
REMARK minimizedRMSD -1
REMARK  2 active torsions:
REMARK  status: ('A' for Active; 'I' for Inactive)
REMARK    1  A    between atoms: C2'_3  and  C1'_4 
REMARK    2  A    between atoms: C1'_4  and  C1_5 
ROOT
ATOM      1  C1  I4B d   1       0.463  -1.037   0.361  0.00  0.00    -0.075 A 
ATOM      2  C2  I4B d   1       1.070  -0.090  -0.425  0.00  0.00     0.003 A 
ATOM      3  C3  I4B d   1       0.442   1.160  -0.648  0.00  0.00     0.002 A 
ATOM      4  C4  I4B d   1      -0.806   1.400  -0.110  0.00  0.00    -0.004 A 
ATOM      5  C5  I4B d   1      -1.409   0.447   0.706  0.00  0.00     0.002 A 
ATOM      6  C6  I4B d   1      -0.766  -0.774   0.954  0.00  0.00     0.003 A 
ENDROOT
BRANCH   1   7
ATOM      7  C1' I4B d   1       1.138  -2.358   0.549  0.00  0.00     0.060 C 
BRANCH   7   8
ATOM      8  C2' I4B d   1       1.461  -2.513   2.021  0.00  0.00    -0.013 C 
ATOM      9  C4' I4B d   1       1.770  -3.947   2.364  0.00  0.00     0.013 C 
ATOM     10  C3' I4B d   1       2.623  -1.619   2.337  0.00  0.00     0.013 C 
ENDBRANCH   7   8
ENDBRANCH   1   7
TORSDOF 2
ENDMDL
