MODEL 1
REMARK minimizedAffinity -3.58843613
REMARK minimizedRMSD -1
REMARK  2 active torsions:
REMARK  status: ('A' for Active; 'I' for Inactive)
REMARK    1  A    between atoms: C2'_3  and  C1'_4 
REMARK    2  A    between atoms: C1'_4  and  C1_5 
ROOT
ATOM      1  C1  I4B d   1      -0.036   0.405  -0.158  0.00  0.00    -0.075 A 
ATOM      2  C2  I4B d   1      -0.595  -0.522   0.685  0.00  0.00     0.003 A 
ATOM      3  C3  I4B d   1       0.173  -1.618   1.149  0.00  0.00     0.002 A 
ATOM      4  C4  I4B d   1       1.471  -1.773   0.708  0.00  0.00    -0.004 A 
ATOM      5  C5  I4B d   1       2.043  -0.819  -0.129  0.00  0.00     0.002 A 
ATOM      6  C6  I4B d   1       1.289   0.284  -0.556  0.00  0.00     0.003 A 
ENDROOT
BRANCH   1   7
ATOM      7  C1' I4B d   1      -0.886   1.532  -0.656  0.00  0.00     0.060 C 
BRANCH   7   8
ATOM      8  C2' I4B d   1      -1.305   1.209  -2.075  0.00  0.00    -0.013 C 
ATOM      9  C4' I4B d   1      -2.798   1.041  -2.179  0.00  0.00     0.013 C 
ATOM     10  C3' I4B d   1      -0.822   2.317  -2.964  0.00  0.00     0.013 C 
ENDBRANCH   7   8
ENDBRANCH   1   7
TORSDOF 2
ENDMDL
