MODEL 1
REMARK minimizedAffinity -6.05578518
REMARK minimizedRMSD -1
REMARK  2 active torsions:
REMARK  status: ('A' for Active; 'I' for Inactive)
REMARK    1  A    between atoms: C2'_3  and  C1'_4 
REMARK    2  A    between atoms: C1'_4  and  C1_5 
ROOT
ATOM      1  C1  I4B d   1       0.251  -0.994   0.276  0.00  0.00    -0.075 A 
ATOM      2  C2  I4B d   1       1.325  -1.847   0.330  0.00  0.00     0.003 A 
ATOM      3  C3  I4B d   1       1.492  -2.713   1.439  0.00  0.00     0.002 A 
ATOM      4  C4  I4B d   1       0.596  -2.656   2.486  0.00  0.00    -0.004 A 
ATOM      5  C5  I4B d   1      -0.505  -1.807   2.419  0.00  0.00     0.002 A 
ATOM      6  C6  I4B d   1      -0.686  -0.979   1.301  0.00  0.00     0.003 A 
ENDROOT
BRANCH   1   7
ATOM      7  C1' I4B d   1       0.123  -0.071  -0.894  0.00  0.00     0.060 C 
BRANCH   7   8
ATOM      8  C2' I4B d   1      -1.136   0.751  -0.704  0.00  0.00    -0.013 C 
ATOM      9  C4' I4B d   1      -0.938   1.817   0.342  0.00  0.00     0.013 C 
ATOM     10  C3' I4B d   1      -1.499   1.354  -2.029  0.00  0.00     0.013 C 
ENDBRANCH   7   8
ENDBRANCH   1   7
TORSDOF 2
ENDMDL
