MODEL 1
REMARK minimizedAffinity -3.53792357
REMARK minimizedRMSD -1
REMARK  2 active torsions:
REMARK  status: ('A' for Active; 'I' for Inactive)
REMARK    1  A    between atoms: C2'_3  and  C1'_4 
REMARK    2  A    between atoms: C1'_4  and  C1_5 
ROOT
ATOM      1  C1  I4B d   1      -0.340   0.665   0.121  0.00  0.00    -0.075 A 
ATOM      2  C2  I4B d   1      -0.894  -0.425   0.744  0.00  0.00     0.003 A 
ATOM      3  C3  I4B d   1      -0.098  -1.559   1.038  0.00  0.00     0.002 A 
ATOM      4  C4  I4B d   1       1.226  -1.579   0.648  0.00  0.00    -0.004 A 
ATOM      5  C5  I4B d   1       1.791  -0.464   0.037  0.00  0.00     0.002 A 
ATOM      6  C6  I4B d   1       1.007   0.670  -0.217  0.00  0.00     0.003 A 
ENDROOT
BRANCH   1   7
ATOM      7  C1' I4B d   1      -1.217   1.833  -0.204  0.00  0.00     0.060 C 
BRANCH   7   8
ATOM      8  C2' I4B d   1      -1.466   1.828  -1.698  0.00  0.00    -0.013 C 
ATOM      9  C4' I4B d   1      -2.882   1.421  -2.013  0.00  0.00     0.013 C 
ATOM     10  C3' I4B d   1      -1.168   3.201  -2.222  0.00  0.00     0.013 C 
ENDBRANCH   7   8
ENDBRANCH   1   7
TORSDOF 2
ENDMDL
