MODEL 1
REMARK minimizedAffinity -1.18240106
REMARK minimizedRMSD -1
REMARK  1 active torsions:
REMARK  status: ('A' for Active; 'I' for Inactive)
REMARK    1  A    between atoms: C1_2  and  C2_3 
ROOT
ATOM      1  C2  UNL d   1      -1.877   2.208   2.230  0.00  0.00    -0.081 A 
ATOM      2  C3  UNL d   1      -0.818   1.802   3.052  0.00  0.00     0.006 A 
ATOM      3  C4  UNL d   1       0.142   0.904   2.579  0.00  0.00     0.002 A 
ATOM      4  C5  UNL d   1       0.065   0.404   1.275  0.00  0.00    -0.080 A 
ATOM      5  C6  UNL d   1       1.106  -0.536   0.744  0.00  0.00     0.076 C 
ATOM      6  C7  UNL d   1      -1.002   0.796   0.459  0.00  0.00     0.002 A 
ATOM      7  C8  UNL d   1      -1.963   1.693   0.932  0.00  0.00     0.006 A 
ENDROOT
BRANCH   1   8
ATOM      8  C1  UNL d   1      -2.877   3.225   2.715  0.00  0.00     0.054 C 
ATOM      9  C   UNL d   1      -4.272   2.928   2.182  0.00  0.00     0.018 C 
ENDBRANCH   1   8
TORSDOF 1
ENDMDL
