MODEL 1
REMARK minimizedAffinity -1.35634136
REMARK minimizedRMSD -1
REMARK  1 active torsions:
REMARK  status: ('A' for Active; 'I' for Inactive)
REMARK    1  A    between atoms: C1_2  and  C2_3 
ROOT
ATOM      1  C2  UNL d   1      -3.055   2.639   2.769  0.00  0.00    -0.081 A 
ATOM      2  C3  UNL d   1      -2.180   1.566   2.558  0.00  0.00     0.006 A 
ATOM      3  C4  UNL d   1      -0.941   1.526   3.201  0.00  0.00     0.002 A 
ATOM      4  C5  UNL d   1      -0.560   2.552   4.073  0.00  0.00    -0.080 A 
ATOM      5  C6  UNL d   1       0.754   2.505   4.794  0.00  0.00     0.076 C 
ATOM      6  C7  UNL d   1      -1.427   3.632   4.271  0.00  0.00     0.002 A 
ATOM      7  C8  UNL d   1      -2.666   3.673   3.627  0.00  0.00     0.006 A 
ENDROOT
BRANCH   1   8
ATOM      8  C1  UNL d   1      -4.419   2.653   2.127  0.00  0.00     0.054 C 
ATOM      9  C   UNL d   1      -5.503   3.000   3.138  0.00  0.00     0.018 C 
ENDBRANCH   1   8
TORSDOF 1
ENDMDL
