MODEL 1
REMARK minimizedAffinity -6.00803757
REMARK minimizedRMSD -1
REMARK  1 active torsions:
REMARK  status: ('A' for Active; 'I' for Inactive)
REMARK    1  A    between atoms: C1_2  and  C2_3 
ROOT
ATOM      1  C2  UNL d   1       0.677  -0.565  -1.484  0.00  0.00    -0.081 A 
ATOM      2  C3  UNL d   1       1.311  -1.163  -0.387  0.00  0.00     0.006 A 
ATOM      3  C4  UNL d   1       0.873  -0.901   0.913  0.00  0.00     0.002 A 
ATOM      4  C5  UNL d   1      -0.209  -0.043   1.138  0.00  0.00    -0.080 A 
ATOM      5  C6  UNL d   1      -0.708   0.223   2.527  0.00  0.00     0.076 C 
ATOM      6  C7  UNL d   1      -0.831   0.568   0.044  0.00  0.00     0.002 A 
ATOM      7  C8  UNL d   1      -0.394   0.306  -1.256  0.00  0.00     0.006 A 
ENDROOT
BRANCH   1   8
ATOM      8  C1  UNL d   1       1.105  -0.897  -2.891  0.00  0.00     0.054 C 
ATOM      9  C   UNL d   1       1.432  -2.376  -3.036  0.00  0.00     0.018 C 
ENDBRANCH   1   8
TORSDOF 1
ENDMDL
