MODEL 1
REMARK minimizedAffinity -5.33484411
REMARK minimizedRMSD -1
REMARK  1 active torsions:
REMARK  status: ('A' for Active; 'I' for Inactive)
REMARK    1  A    between atoms: C1_2  and  C2_3 
ROOT
ATOM      1  C2  UNL d   1       0.603  -0.180  -1.238  0.00  0.00    -0.081 A 
ATOM      2  C3  UNL d   1       1.640  -0.463  -0.340  0.00  0.00     0.006 A 
ATOM      3  C4  UNL d   1       1.370  -0.648   1.018  0.00  0.00     0.002 A 
ATOM      4  C5  UNL d   1       0.059  -0.561   1.500  0.00  0.00    -0.080 A 
ATOM      5  C6  UNL d   1      -0.248  -0.787   2.950  0.00  0.00     0.076 C 
ATOM      6  C7  UNL d   1      -0.974  -0.260   0.606  0.00  0.00     0.002 A 
ATOM      7  C8  UNL d   1      -0.705  -0.075  -0.752  0.00  0.00     0.006 A 
ENDROOT
BRANCH   1   8
ATOM      8  C1  UNL d   1       0.883  -0.045  -2.713  0.00  0.00     0.054 C 
ATOM      9  C   UNL d   1       0.226  -1.166  -3.505  0.00  0.00     0.018 C 
ENDBRANCH   1   8
TORSDOF 1
ENDMDL
