MODEL 1
REMARK minimizedAffinity -4.10666513
REMARK minimizedRMSD -1
REMARK  1 active torsions:
REMARK  status: ('A' for Active; 'I' for Inactive)
REMARK    1  A    between atoms: C1_2  and  C2_3 
ROOT
ATOM      1  C2  UNL d   1       0.799   0.609   0.007  0.00  0.00    -0.081 A 
ATOM      2  C3  UNL d   1       1.260   0.896   1.298  0.00  0.00     0.006 A 
ATOM      3  C4  UNL d   1       0.518   0.509   2.417  0.00  0.00     0.002 A 
ATOM      4  C5  UNL d   1      -0.691  -0.178   2.264  0.00  0.00    -0.080 A 
ATOM      5  C6  UNL d   1      -1.482  -0.625   3.458  0.00  0.00     0.076 C 
ATOM      6  C7  UNL d   1      -1.160  -0.449   0.975  0.00  0.00     0.002 A 
ATOM      7  C8  UNL d   1      -0.420  -0.062  -0.145  0.00  0.00     0.006 A 
ENDROOT
BRANCH   1   8
ATOM      8  C1  UNL d   1       1.628   0.967  -1.200  0.00  0.00     0.054 C 
ATOM      9  C   UNL d   1       1.112   0.271  -2.452  0.00  0.00     0.018 C 
ENDBRANCH   1   8
TORSDOF 1
ENDMDL
