MODEL 1
REMARK minimizedAffinity -2.78465509
REMARK minimizedRMSD -1
REMARK  1 active torsions:
REMARK  status: ('A' for Active; 'I' for Inactive)
REMARK    1  A    between atoms: C1_2  and  C2_3 
ROOT
ATOM      1  C2  UNL d   1       0.058  -1.472  -0.899  0.00  0.00    -0.081 A 
ATOM      2  C3  UNL d   1      -0.578  -2.084   0.188  0.00  0.00     0.006 A 
ATOM      3  C4  UNL d   1      -0.673  -1.425   1.416  0.00  0.00     0.002 A 
ATOM      4  C5  UNL d   1      -0.143  -0.140   1.575  0.00  0.00    -0.080 A 
ATOM      5  C6  UNL d   1      -0.265   0.591   2.879  0.00  0.00     0.076 C 
ATOM      6  C7  UNL d   1       0.508   0.465   0.494  0.00  0.00     0.002 A 
ATOM      7  C8  UNL d   1       0.605  -0.194  -0.734  0.00  0.00     0.006 A 
ENDROOT
BRANCH   1   8
ATOM      8  C1  UNL d   1       0.106  -2.154  -2.242  0.00  0.00     0.054 C 
ATOM      9  C   UNL d   1       1.260  -1.632  -3.087  0.00  0.00     0.018 C 
ENDBRANCH   1   8
TORSDOF 1
ENDMDL
