MODEL 1
REMARK minimizedAffinity -5.4256444
REMARK minimizedRMSD -1
REMARK  1 active torsions:
REMARK  status: ('A' for Active; 'I' for Inactive)
REMARK    1  A    between atoms: C1_2  and  C2_3 
ROOT
ATOM      1  C2  UNL d   1       0.255  -0.200  -0.704  0.00  0.00    -0.081 A 
ATOM      2  C3  UNL d   1      -0.935   0.455  -0.365  0.00  0.00     0.006 A 
ATOM      3  C4  UNL d   1      -1.433   0.388   0.939  0.00  0.00     0.002 A 
ATOM      4  C5  UNL d   1      -0.747  -0.328   1.925  0.00  0.00    -0.080 A 
ATOM      5  C6  UNL d   1      -1.255  -0.383   3.335  0.00  0.00     0.076 C 
ATOM      6  C7  UNL d   1       0.432  -0.998   1.581  0.00  0.00     0.002 A 
ATOM      7  C8  UNL d   1       0.931  -0.932   0.278  0.00  0.00     0.006 A 
ENDROOT
BRANCH   1   8
ATOM      8  C1  UNL d   1       0.829  -0.076  -2.093  0.00  0.00     0.054 C 
ATOM      9  C   UNL d   1       0.807  -1.412  -2.822  0.00  0.00     0.018 C 
ENDBRANCH   1   8
TORSDOF 1
ENDMDL
