MODEL 1
REMARK minimizedAffinity -3.14375615
REMARK minimizedRMSD -1
REMARK  1 active torsions:
REMARK  status: ('A' for Active; 'I' for Inactive)
REMARK    1  A    between atoms: C1_2  and  C2_3 
ROOT
ATOM      1  C2  UNL d   1       0.595  -0.414  -1.096  0.00  0.00    -0.081 A 
ATOM      2  C3  UNL d   1       1.658  -0.358  -0.185  0.00  0.00     0.006 A 
ATOM      3  C4  UNL d   1       1.444   0.071   1.127  0.00  0.00     0.002 A 
ATOM      4  C5  UNL d   1       0.164   0.442   1.553  0.00  0.00    -0.080 A 
ATOM      5  C6  UNL d   1      -0.084   0.876   2.967  0.00  0.00     0.076 C 
ATOM      6  C7  UNL d   1      -0.894   0.403   0.639  0.00  0.00     0.002 A 
ATOM      7  C8  UNL d   1      -0.681  -0.025  -0.674  0.00  0.00     0.006 A 
ENDROOT
BRANCH   1   8
ATOM      8  C1  UNL d   1       0.810  -0.938  -2.493  0.00  0.00     0.054 C 
ATOM      9  C   UNL d   1       2.191  -1.558  -2.645  0.00  0.00     0.018 C 
ENDBRANCH   1   8
TORSDOF 1
ENDMDL
