MODEL 1
REMARK minimizedAffinity -4.22063351
REMARK minimizedRMSD -1
REMARK  1 active torsions:
REMARK  status: ('A' for Active; 'I' for Inactive)
REMARK    1  A    between atoms: C1_2  and  C2_3 
ROOT
ATOM      1  C2  UNL d   1       0.479  -0.191  -1.274  0.00  0.00    -0.081 A 
ATOM      2  C3  UNL d   1       1.482   0.012  -0.319  0.00  0.00     0.006 A 
ATOM      3  C4  UNL d   1       1.164   0.075   1.040  0.00  0.00     0.002 A 
ATOM      4  C5  UNL d   1      -0.161  -0.071   1.466  0.00  0.00    -0.080 A 
ATOM      5  C6  UNL d   1      -0.512  -0.035   2.924  0.00  0.00     0.076 C 
ATOM      6  C7  UNL d   1      -1.165  -0.256   0.511  0.00  0.00     0.002 A 
ATOM      7  C8  UNL d   1      -0.848  -0.319  -0.848  0.00  0.00     0.006 A 
ENDROOT
BRANCH   1   8
ATOM      8  C1  UNL d   1       0.827  -0.325  -2.735  0.00  0.00     0.054 C 
ATOM      9  C   UNL d   1       0.574  -1.739  -3.237  0.00  0.00     0.018 C 
ENDBRANCH   1   8
TORSDOF 1
ENDMDL
