MODEL 1
REMARK minimizedAffinity 0.205615833
REMARK minimizedRMSD -1
REMARK  1 active torsions:
REMARK  status: ('A' for Active; 'I' for Inactive)
REMARK    1  A    between atoms: C1_2  and  C2_3 
ROOT
ATOM      1  C2  UNL d   1       1.069   0.371  -1.074  0.00  0.00    -0.081 A 
ATOM      2  C3  UNL d   1       1.955   0.649  -0.026  0.00  0.00     0.006 A 
ATOM      3  C4  UNL d   1       1.507   0.661   1.296  0.00  0.00     0.002 A 
ATOM      4  C5  UNL d   1       0.167   0.388   1.594  0.00  0.00    -0.080 A 
ATOM      5  C6  UNL d   1      -0.321   0.367   3.012  0.00  0.00     0.076 C 
ATOM      6  C7  UNL d   1      -0.722   0.127   0.546  0.00  0.00     0.002 A 
ATOM      7  C8  UNL d   1      -0.274   0.116  -0.777  0.00  0.00     0.006 A 
ENDROOT
BRANCH   1   8
ATOM      8  C1  UNL d   1       1.563   0.294  -2.496  0.00  0.00     0.054 C 
ATOM      9  C   UNL d   1       3.026  -0.120  -2.552  0.00  0.00     0.018 C 
ENDBRANCH   1   8
TORSDOF 1
ENDMDL
