MODEL 1
REMARK minimizedAffinity -2.43050408
REMARK minimizedRMSD -1
REMARK  1 active torsions:
REMARK  status: ('A' for Active; 'I' for Inactive)
REMARK    1  A    between atoms: C1_2  and  C2_3 
ROOT
ATOM      1  C2  UNL d   1       0.059   0.742  -0.829  0.00  0.00    -0.081 A 
ATOM      2  C3  UNL d   1       0.895   0.800   0.292  0.00  0.00     0.006 A 
ATOM      3  C4  UNL d   1       0.466   0.298   1.523  0.00  0.00     0.002 A 
ATOM      4  C5  UNL d   1      -0.802  -0.278   1.651  0.00  0.00    -0.080 A 
ATOM      5  C6  UNL d   1      -1.264  -0.849   2.959  0.00  0.00     0.076 C 
ATOM      6  C7  UNL d   1      -1.645  -0.321   0.535  0.00  0.00     0.002 A 
ATOM      7  C8  UNL d   1      -1.217   0.182  -0.695  0.00  0.00     0.006 A 
ENDROOT
BRANCH   1   8
ATOM      8  C1  UNL d   1       0.543   1.224  -2.172  0.00  0.00     0.054 C 
ATOM      9  C   UNL d   1       1.463   0.204  -2.828  0.00  0.00     0.018 C 
ENDBRANCH   1   8
TORSDOF 1
ENDMDL
