MODEL 1
REMARK minimizedAffinity -4.11311293
REMARK minimizedRMSD -1
REMARK  1 active torsions:
REMARK  status: ('A' for Active; 'I' for Inactive)
REMARK    1  A    between atoms: C1_2  and  C2_3 
ROOT
ATOM      1  C2  UNL d   1       1.162  -0.107  -1.246  0.00  0.00    -0.081 A 
ATOM      2  C3  UNL d   1       1.582  -0.831  -0.123  0.00  0.00     0.006 A 
ATOM      3  C4  UNL d   1       0.835  -0.804   1.057  0.00  0.00     0.002 A 
ATOM      4  C5  UNL d   1      -0.347  -0.060   1.132  0.00  0.00    -0.080 A 
ATOM      5  C6  UNL d   1      -1.174  -0.047   2.383  0.00  0.00     0.076 C 
ATOM      6  C7  UNL d   1      -0.757   0.678   0.016  0.00  0.00     0.002 A 
ATOM      7  C8  UNL d   1      -0.011   0.652  -1.164  0.00  0.00     0.006 A 
ENDROOT
BRANCH   1   8
ATOM      8  C1  UNL d   1       1.931  -0.185  -2.540  0.00  0.00     0.054 C 
ATOM      9  C   UNL d   1       2.999  -1.268  -2.485  0.00  0.00     0.018 C 
ENDBRANCH   1   8
TORSDOF 1
ENDMDL
