MODEL 1
REMARK minimizedAffinity -4.18909264
REMARK minimizedRMSD -1
REMARK  1 active torsions:
REMARK  status: ('A' for Active; 'I' for Inactive)
REMARK    1  A    between atoms: C1_2  and  C2_3 
ROOT
ATOM      1  C2  UNL d   1       0.174  -0.157   1.435  0.00  0.00    -0.081 A 
ATOM      2  C3  UNL d   1       1.513  -0.562   1.380  0.00  0.00     0.006 A 
ATOM      3  C4  UNL d   1       2.115  -0.853   0.154  0.00  0.00     0.002 A 
ATOM      4  C5  UNL d   1       1.391  -0.738  -1.038  0.00  0.00    -0.080 A 
ATOM      5  C6  UNL d   1       2.034  -1.019  -2.363  0.00  0.00     0.076 C 
ATOM      6  C7  UNL d   1       0.048  -0.351  -0.981  0.00  0.00     0.002 A 
ATOM      7  C8  UNL d   1      -0.555  -0.060   0.245  0.00  0.00     0.006 A 
ENDROOT
BRANCH   1   8
ATOM      8  C1  UNL d   1      -0.459   0.220   2.750  0.00  0.00     0.054 C 
ATOM      9  C   UNL d   1      -1.973   0.323   2.626  0.00  0.00     0.018 C 
ENDBRANCH   1   8
TORSDOF 1
ENDMDL
