MODEL 1
REMARK minimizedAffinity -2.09103942
REMARK minimizedRMSD -1
REMARK  1 active torsions:
REMARK  status: ('A' for Active; 'I' for Inactive)
REMARK    1  A    between atoms: C1_2  and  C2_3 
ROOT
ATOM      1  C2  UNL d   1       0.670  -0.184  -1.184  0.00  0.00    -0.081 A 
ATOM      2  C3  UNL d   1      -0.550   0.372  -0.780  0.00  0.00     0.006 A 
ATOM      3  C4  UNL d   1      -0.956   0.295   0.554  0.00  0.00     0.002 A 
ATOM      4  C5  UNL d   1      -0.147  -0.332   1.507  0.00  0.00    -0.080 A 
ATOM      5  C6  UNL d   1      -0.558  -0.395   2.948  0.00  0.00     0.076 C 
ATOM      6  C7  UNL d   1       1.063  -0.903   1.101  0.00  0.00     0.002 A 
ATOM      7  C8  UNL d   1       1.470  -0.827  -0.233  0.00  0.00     0.006 A 
ENDROOT
BRANCH   1   8
ATOM      8  C1  UNL d   1       1.141  -0.046  -2.609  0.00  0.00     0.054 C 
ATOM      9  C   UNL d   1       2.218  -1.070  -2.938  0.00  0.00     0.018 C 
ENDBRANCH   1   8
TORSDOF 1
ENDMDL
