MODEL 1
REMARK minimizedAffinity -4.75512362
REMARK minimizedRMSD -1
REMARK  1 active torsions:
REMARK  status: ('A' for Active; 'I' for Inactive)
REMARK    1  A    between atoms: C1_2  and  C2_3 
ROOT
ATOM      1  C2  UNL d   1       0.046   0.436  -0.542  0.00  0.00    -0.081 A 
ATOM      2  C3  UNL d   1       0.986   0.529   0.491  0.00  0.00     0.006 A 
ATOM      3  C4  UNL d   1       0.648   0.148   1.792  0.00  0.00     0.002 A 
ATOM      4  C5  UNL d   1      -0.631  -0.339   2.079  0.00  0.00    -0.080 A 
ATOM      5  C6  UNL d   1      -0.997  -0.780   3.465  0.00  0.00     0.076 C 
ATOM      6  C7  UNL d   1      -1.576  -0.416   1.050  0.00  0.00     0.002 A 
ATOM      7  C8  UNL d   1      -1.239  -0.034  -0.250  0.00  0.00     0.006 A 
ENDROOT
BRANCH   1   8
ATOM      8  C1  UNL d   1       0.427   0.785  -1.958  0.00  0.00     0.054 C 
ATOM      9  C   UNL d   1       1.646  -0.003  -2.414  0.00  0.00     0.018 C 
ENDBRANCH   1   8
TORSDOF 1
ENDMDL
