MODEL 1
REMARK minimizedAffinity 6.47126436
REMARK minimizedRMSD -1
REMARK  0 active torsions:
REMARK  status: ('A' for Active; 'I' for Inactive)
ROOT
ATOM      1  O1  BZF d   1       4.130  -1.586  -0.017  0.00  0.00    -0.204 OA
ATOM      2  C2  BZF d   1       2.786  -1.650  -0.334  0.00  0.00     0.174 A 
ATOM      3  C3  BZF d   1       2.342  -0.457  -0.778  0.00  0.00    -0.012 A 
ATOM      4  C3A BZF d   1       3.500   0.382  -0.824  0.00  0.00    -0.107 A 
ATOM      5  C4  BZF d   1       3.706   1.679  -1.198  0.00  0.00     0.055 A 
ATOM      6  C5  BZF d   1       4.944   2.220  -1.054  0.00  0.00    -0.016 A 
ATOM      7  C6  BZF d   1       5.997   1.496  -0.536  0.00  0.00     0.022 A 
ATOM      8  C7  BZF d   1       5.843   0.204  -0.155  0.00  0.00     0.029 A 
ATOM      9  C7A BZF d   1       4.601  -0.356  -0.330  0.00  0.00     0.058 A 
ENDROOT
TORSDOF 0
ENDMDL
