MODEL 1
REMARK minimizedAffinity -1.33559978
REMARK minimizedRMSD -1
REMARK  0 active torsions:
REMARK  status: ('A' for Active; 'I' for Inactive)
ROOT
ATOM      1  O1  BZF d   1       4.425   1.452  -1.894  0.00  0.00    -0.204 OA
ATOM      2  C2  BZF d   1       4.084   0.275  -1.256  0.00  0.00     0.174 A 
ATOM      3  C3  BZF d   1       4.457   0.308   0.040  0.00  0.00    -0.012 A 
ATOM      4  C3A BZF d   1       4.986   1.622   0.246  0.00  0.00    -0.107 A 
ATOM      5  C4  BZF d   1       5.504   2.266   1.333  0.00  0.00     0.055 A 
ATOM      6  C5  BZF d   1       6.000   3.522   1.182  0.00  0.00    -0.016 A 
ATOM      7  C6  BZF d   1       5.999   4.161  -0.041  0.00  0.00     0.022 A 
ATOM      8  C7  BZF d   1       5.492   3.564  -1.147  0.00  0.00     0.029 A 
ATOM      9  C7A BZF d   1       4.959   2.308  -0.991  0.00  0.00     0.058 A 
ENDROOT
TORSDOF 0
ENDMDL
