MODEL 1
REMARK minimizedAffinity 10.5097923
REMARK minimizedRMSD -1
REMARK  0 active torsions:
REMARK  status: ('A' for Active; 'I' for Inactive)
ROOT
ATOM      1  O1  BZF d   1      -5.845   2.494   4.713  0.00  0.00    -0.204 OA
ATOM      2  C2  BZF d   1      -5.998   2.982   5.997  0.00  0.00     0.174 A 
ATOM      3  C3  BZF d   1      -5.995   4.330   6.000  0.00  0.00    -0.012 A 
ATOM      4  C3A BZF d   1      -5.922   4.709   4.622  0.00  0.00    -0.107 A 
ATOM      5  C4  BZF d   1      -5.901   5.914   3.980  0.00  0.00     0.055 A 
ATOM      6  C5  BZF d   1      -5.750   5.940   2.629  0.00  0.00    -0.016 A 
ATOM      7  C6  BZF d   1      -5.614   4.783   1.891  0.00  0.00     0.022 A 
ATOM      8  C7  BZF d   1      -5.635   3.564   2.483  0.00  0.00     0.029 A 
ATOM      9  C7A BZF d   1      -5.819   3.533   3.844  0.00  0.00     0.058 A 
ENDROOT
TORSDOF 0
ENDMDL
