MODEL 1
REMARK minimizedAffinity 18.1838799
REMARK minimizedRMSD -1
REMARK  0 active torsions:
REMARK  status: ('A' for Active; 'I' for Inactive)
ROOT
ATOM      1  O1  BZF d   1       4.503   1.946  -1.172  0.00  0.00    -0.204 OA
ATOM      2  C2  BZF d   1       5.792   1.894  -0.679  0.00  0.00     0.174 A 
ATOM      3  C3  BZF d   1       6.000   0.747  -0.000  0.00  0.00    -0.012 A 
ATOM      4  C3A BZF d   1       4.791  -0.004  -0.152  0.00  0.00    -0.107 A 
ATOM      5  C4  BZF d   1       4.390  -1.235   0.281  0.00  0.00     0.055 A 
ATOM      6  C5  BZF d   1       3.120  -1.644   0.023  0.00  0.00    -0.016 A 
ATOM      7  C6  BZF d   1       2.225  -0.848  -0.660  0.00  0.00     0.022 A 
ATOM      8  C7  BZF d   1       2.579   0.379  -1.115  0.00  0.00     0.029 A 
ATOM      9  C7A BZF d   1       3.871   0.782  -0.884  0.00  0.00     0.058 A 
ENDROOT
TORSDOF 0
ENDMDL
