MODEL 1
REMARK minimizedAffinity 8.37873077
REMARK minimizedRMSD -1
REMARK  0 active torsions:
REMARK  status: ('A' for Active; 'I' for Inactive)
ROOT
ATOM      1  O1  BZF d   1       5.701   4.247   0.932  0.00  0.00    -0.204 OA
ATOM      2  C2  BZF d   1       5.677   5.259  -0.007  0.00  0.00     0.174 A 
ATOM      3  C3  BZF d   1       5.300   4.785  -1.212  0.00  0.00    -0.012 A 
ATOM      4  C3A BZF d   1       4.985   3.407  -0.992  0.00  0.00    -0.107 A 
ATOM      5  C4  BZF d   1       4.537   2.405  -1.805  0.00  0.00     0.055 A 
ATOM      6  C5  BZF d   1       4.399   1.153  -1.296  0.00  0.00    -0.016 A 
ATOM      7  C6  BZF d   1       4.705   0.866   0.018  0.00  0.00     0.022 A 
ATOM      8  C7  BZF d   1       5.149   1.828   0.864  0.00  0.00     0.029 A 
ATOM      9  C7A BZF d   1       5.257   3.101   0.361  0.00  0.00     0.058 A 
ENDROOT
TORSDOF 0
ENDMDL
