MODEL 1
REMARK minimizedAffinity 17.9375038
REMARK minimizedRMSD -1
REMARK  0 active torsions:
REMARK  status: ('A' for Active; 'I' for Inactive)
ROOT
ATOM      1  O1  BZF d   1      -3.472   2.107  -5.689  0.00  0.00    -0.204 OA
ATOM      2  C2  BZF d   1      -3.182   0.783  -5.418  0.00  0.00     0.174 A 
ATOM      3  C3  BZF d   1      -3.741   0.400  -4.252  0.00  0.00    -0.012 A 
ATOM      4  C3A BZF d   1      -4.501   1.529  -3.810  0.00  0.00    -0.107 A 
ATOM      5  C4  BZF d   1      -5.294   1.759  -2.722  0.00  0.00     0.055 A 
ATOM      6  C5  BZF d   1      -5.833   2.994  -2.547  0.00  0.00    -0.016 A 
ATOM      7  C6  BZF d   1      -5.596   4.022  -3.436  0.00  0.00     0.022 A 
ATOM      8  C7  BZF d   1      -4.821   3.840  -4.533  0.00  0.00     0.029 A 
ATOM      9  C7A BZF d   1      -4.301   2.584  -4.730  0.00  0.00     0.058 A 
ENDROOT
TORSDOF 0
ENDMDL
