MODEL 1
REMARK minimizedAffinity 15.868351
REMARK minimizedRMSD -1
REMARK  0 active torsions:
REMARK  status: ('A' for Active; 'I' for Inactive)
ROOT
ATOM      1  O1  BZF d   1      -1.116  -0.634  -3.952  0.00  0.00    -0.204 OA
ATOM      2  C2  BZF d   1      -1.665  -1.515  -3.040  0.00  0.00     0.174 A 
ATOM      3  C3  BZF d   1      -3.010  -1.414  -3.027  0.00  0.00    -0.012 A 
ATOM      4  C3A BZF d   1      -3.326  -0.472  -4.057  0.00  0.00    -0.107 A 
ATOM      5  C4  BZF d   1      -4.500   0.033  -4.538  0.00  0.00     0.055 A 
ATOM      6  C5  BZF d   1      -4.461   0.992  -5.500  0.00  0.00    -0.016 A 
ATOM      7  C6  BZF d   1      -3.268   1.471  -6.000  0.00  0.00     0.022 A 
ATOM      8  C7  BZF d   1      -2.078   0.996  -5.558  0.00  0.00     0.029 A 
ATOM      9  C7A BZF d   1      -2.115   0.004  -4.609  0.00  0.00     0.058 A 
ENDROOT
TORSDOF 0
ENDMDL
