MODEL 1
REMARK minimizedAffinity 14.5364113
REMARK minimizedRMSD -1
REMARK  0 active torsions:
REMARK  status: ('A' for Active; 'I' for Inactive)
ROOT
ATOM      1  C   UNL d   1       1.009  -3.077   1.197  0.00  0.00     0.124 A 
ATOM      2  C1  UNL d   1       1.144  -1.894   1.910  0.00  0.00     0.062 A 
ATOM      3  C2  UNL d   1       1.893  -1.865   3.083  0.00  0.00     0.162 A 
ATOM      4  C3  UNL d   1       2.514  -3.023   3.550  0.00  0.00    -0.034 A 
ATOM      5  C4  UNL d   1       2.373  -4.210   2.828  0.00  0.00     0.162 A 
ATOM      6  C5  UNL d   1       1.623  -4.234   1.657  0.00  0.00     0.062 A 
ATOM      7  F   UNL d   1       1.494  -5.378   0.970  0.00  0.00    -0.097 F 
ATOM      8  F1  UNL d   1       2.956  -5.342   3.249  0.00  0.00    -0.096 F 
ATOM      9  I   UNL d   1       3.635  -2.984   5.303  0.00  0.00    -0.060 I 
ATOM     10  F2  UNL d   1       2.007  -0.708   3.751  0.00  0.00    -0.096 F 
ATOM     11  F3  UNL d   1       0.551  -0.775   1.468  0.00  0.00    -0.097 F 
ATOM     12  F4  UNL d   1       0.287  -3.103   0.069  0.00  0.00    -0.092 F 
ENDROOT
TORSDOF 0
ENDMDL
