MODEL 1
REMARK minimizedAffinity 18.1071777
REMARK minimizedRMSD -1
REMARK  0 active torsions:
REMARK  status: ('A' for Active; 'I' for Inactive)
ROOT
ATOM      1  C   UNL d   1       2.979   1.923   1.279  0.00  0.00     0.124 A 
ATOM      2  C1  UNL d   1       2.840   0.834   0.430  0.00  0.00     0.062 A 
ATOM      3  C2  UNL d   1       2.389  -0.386   0.925  0.00  0.00     0.162 A 
ATOM      4  C3  UNL d   1       2.072  -0.524   2.276  0.00  0.00    -0.034 A 
ATOM      5  C4  UNL d   1       2.215   0.575   3.124  0.00  0.00     0.162 A 
ATOM      6  C5  UNL d   1       2.667   1.793   2.625  0.00  0.00     0.062 A 
ATOM      7  F   UNL d   1       2.801   2.844   3.447  0.00  0.00    -0.097 F 
ATOM      8  F1  UNL d   1       1.919   0.478   4.429  0.00  0.00    -0.096 F 
ATOM      9  I   UNL d   1       1.396  -2.347   3.020  0.00  0.00    -0.060 I 
ATOM     10  F2  UNL d   1       2.264  -1.422   0.081  0.00  0.00    -0.096 F 
ATOM     11  F3  UNL d   1       3.142   0.957  -0.870  0.00  0.00    -0.097 F 
ATOM     12  F4  UNL d   1       3.415   3.095   0.801  0.00  0.00    -0.092 F 
ENDROOT
TORSDOF 0
ENDMDL
