MODEL 1
REMARK minimizedAffinity 14.5617676
REMARK minimizedRMSD -1
REMARK  0 active torsions:
REMARK  status: ('A' for Active; 'I' for Inactive)
ROOT
ATOM      1  C   UNL d   1       2.796   1.625   2.790  0.00  0.00     0.124 A 
ATOM      2  C1  UNL d   1       2.420   0.534   3.562  0.00  0.00     0.062 A 
ATOM      3  C2  UNL d   1       1.950  -0.625   2.954  0.00  0.00     0.162 A 
ATOM      4  C3  UNL d   1       1.852  -0.701   1.564  0.00  0.00    -0.034 A 
ATOM      5  C4  UNL d   1       2.231   0.400   0.794  0.00  0.00     0.162 A 
ATOM      6  C5  UNL d   1       2.701   1.557   1.407  0.00  0.00     0.062 A 
ATOM      7  F   UNL d   1       3.063   2.609   0.660  0.00  0.00    -0.097 F 
ATOM      8  F1  UNL d   1       2.150   0.361  -0.544  0.00  0.00    -0.096 F 
ATOM      9  I   UNL d   1       1.149  -2.434   0.650  0.00  0.00    -0.060 I 
ATOM     10  F2  UNL d   1       1.594  -1.664   3.725  0.00  0.00    -0.096 F 
ATOM     11  F3  UNL d   1       2.511   0.598   4.899  0.00  0.00    -0.097 F 
ATOM     12  F4  UNL d   1       3.247   2.740   3.378  0.00  0.00    -0.092 F 
ENDROOT
TORSDOF 0
ENDMDL
