MODEL 1
REMARK minimizedAffinity 14.4955845
REMARK minimizedRMSD -1
REMARK  0 active torsions:
REMARK  status: ('A' for Active; 'I' for Inactive)
ROOT
ATOM      1  C   UNL d   1       3.292  -3.908   4.155  0.00  0.00     0.124 A 
ATOM      2  C1  UNL d   1       2.772  -4.661   3.111  0.00  0.00     0.062 A 
ATOM      3  C2  UNL d   1       1.843  -4.100   2.239  0.00  0.00     0.162 A 
ATOM      4  C3  UNL d   1       1.428  -2.779   2.407  0.00  0.00    -0.034 A 
ATOM      5  C4  UNL d   1       1.955  -2.029   3.460  0.00  0.00     0.162 A 
ATOM      6  C5  UNL d   1       2.883  -2.593   4.329  0.00  0.00     0.062 A 
ATOM      7  F   UNL d   1       3.384  -1.865   5.337  0.00  0.00    -0.097 F 
ATOM      8  F1  UNL d   1       1.578  -0.756   3.650  0.00  0.00    -0.096 F 
ATOM      9  I   UNL d   1       0.039  -1.937   1.106  0.00  0.00    -0.060 I 
ATOM     10  F2  UNL d   1       1.357  -4.850   1.239  0.00  0.00    -0.096 F 
ATOM     11  F3  UNL d   1       3.165  -5.931   2.942  0.00  0.00    -0.097 F 
ATOM     12  F4  UNL d   1       4.185  -4.450   4.993  0.00  0.00    -0.092 F 
ENDROOT
TORSDOF 0
ENDMDL
