MODEL 1
REMARK minimizedAffinity 2.18625689
REMARK minimizedRMSD -1
REMARK  0 active torsions:
REMARK  status: ('A' for Active; 'I' for Inactive)
ROOT
ATOM      1  C   UNL d   1       1.443  -5.999  -1.826  0.00  0.00     0.124 A 
ATOM      2  C1  UNL d   1       0.946  -5.999  -3.122  0.00  0.00     0.062 A 
ATOM      3  C2  UNL d   1       1.819  -5.998  -4.206  0.00  0.00     0.162 A 
ATOM      4  C3  UNL d   1       3.199  -5.999  -3.999  0.00  0.00    -0.034 A 
ATOM      5  C4  UNL d   1       3.691  -5.998  -2.693  0.00  0.00     0.162 A 
ATOM      6  C5  UNL d   1       2.814  -5.999  -1.613  0.00  0.00     0.062 A 
ATOM      7  F   UNL d   1       3.296  -5.999  -0.361  0.00  0.00    -0.097 F 
ATOM      8  F1  UNL d   1       5.011  -5.999  -2.457  0.00  0.00    -0.096 F 
ATOM      9  I   UNL d   1       4.508  -5.998  -5.617  0.00  0.00    -0.060 I 
ATOM     10  F2  UNL d   1       1.312  -5.998  -5.448  0.00  0.00    -0.096 F 
ATOM     11  F3  UNL d   1      -0.378  -5.998  -3.331  0.00  0.00    -0.097 F 
ATOM     12  F4  UNL d   1       0.601  -5.999  -0.785  0.00  0.00    -0.092 F 
ENDROOT
TORSDOF 0
ENDMDL
