MODEL 1
REMARK minimizedAffinity 14.1309004
REMARK minimizedRMSD -1
REMARK  0 active torsions:
REMARK  status: ('A' for Active; 'I' for Inactive)
ROOT
ATOM      1  C   UNL d   1       1.548  -1.112   3.014  0.00  0.00     0.124 A 
ATOM      2  C1  UNL d   1       2.677  -0.789   2.275  0.00  0.00     0.062 A 
ATOM      3  C2  UNL d   1       3.941  -1.148   2.735  0.00  0.00     0.162 A 
ATOM      4  C3  UNL d   1       4.083  -1.834   3.941  0.00  0.00    -0.034 A 
ATOM      5  C4  UNL d   1       2.942  -2.154   4.680  0.00  0.00     0.162 A 
ATOM      6  C5  UNL d   1       1.681  -1.794   4.216  0.00  0.00     0.062 A 
ATOM      7  F   UNL d   1       0.591  -2.106   4.931  0.00  0.00    -0.097 F 
ATOM      8  F1  UNL d   1       3.042  -2.813   5.844  0.00  0.00    -0.096 F 
ATOM      9  I   UNL d   1       5.971  -2.371   4.633  0.00  0.00    -0.060 I 
ATOM     10  F2  UNL d   1       5.015  -0.823   2.000  0.00  0.00    -0.096 F 
ATOM     11  F3  UNL d   1       2.551  -0.130   1.114  0.00  0.00    -0.097 F 
ATOM     12  F4  UNL d   1       0.333  -0.765   2.570  0.00  0.00    -0.092 F 
ENDROOT
TORSDOF 0
ENDMDL
