MODEL 1
REMARK minimizedAffinity 23.5773029
REMARK minimizedRMSD -1
REMARK  0 active torsions:
REMARK  status: ('A' for Active; 'I' for Inactive)
ROOT
ATOM      1  C   UNL d   1      -3.026   0.459  -2.603  0.00  0.00     0.124 A 
ATOM      2  C1  UNL d   1      -4.153   1.064  -3.142  0.00  0.00     0.062 A 
ATOM      3  C2  UNL d   1      -4.882   1.982  -2.392  0.00  0.00     0.162 A 
ATOM      4  C3  UNL d   1      -4.485   2.302  -1.094  0.00  0.00    -0.034 A 
ATOM      5  C4  UNL d   1      -3.351   1.690  -0.558  0.00  0.00     0.162 A 
ATOM      6  C5  UNL d   1      -2.626   0.773  -1.312  0.00  0.00     0.062 A 
ATOM      7  F   UNL d   1      -1.537   0.190  -0.790  0.00  0.00    -0.097 F 
ATOM      8  F1  UNL d   1      -2.941   1.975   0.687  0.00  0.00    -0.096 F 
ATOM      9  I   UNL d   1      -5.572   3.675   0.032  0.00  0.00    -0.060 I 
ATOM     10  F2  UNL d   1      -5.967   2.551  -2.938  0.00  0.00    -0.096 F 
ATOM     11  F3  UNL d   1      -4.543   0.762  -4.390  0.00  0.00    -0.097 F 
ATOM     12  F4  UNL d   1      -2.328  -0.425  -3.328  0.00  0.00    -0.092 F 
ENDROOT
TORSDOF 0
ENDMDL
