MODEL 1
REMARK minimizedAffinity 17.1304703
REMARK minimizedRMSD -1
REMARK  0 active torsions:
REMARK  status: ('A' for Active; 'I' for Inactive)
ROOT
ATOM      1  C   UNL d   1       1.332  -3.373   3.330  0.00  0.00     0.124 A 
ATOM      2  C1  UNL d   1       2.043  -2.306   2.798  0.00  0.00     0.062 A 
ATOM      3  C2  UNL d   1       3.376  -2.109   3.148  0.00  0.00     0.162 A 
ATOM      4  C3  UNL d   1       4.007  -2.982   4.035  0.00  0.00    -0.034 A 
ATOM      5  C4  UNL d   1       3.285  -4.052   4.566  0.00  0.00     0.162 A 
ATOM      6  C5  UNL d   1       1.954  -4.245   4.213  0.00  0.00     0.062 A 
ATOM      7  F   UNL d   1       1.268  -5.276   4.728  0.00  0.00    -0.097 F 
ATOM      8  F1  UNL d   1       3.861  -4.911   5.421  0.00  0.00    -0.096 F 
ATOM      9  I   UNL d   1       6.000  -2.692   4.561  0.00  0.00    -0.060 I 
ATOM     10  F2  UNL d   1       4.039  -1.070   2.619  0.00  0.00    -0.096 F 
ATOM     11  F3  UNL d   1       1.445  -1.462   1.946  0.00  0.00    -0.097 F 
ATOM     12  F4  UNL d   1       0.050  -3.559   2.992  0.00  0.00    -0.092 F 
ENDROOT
TORSDOF 0
ENDMDL
