MODEL 1
REMARK minimizedAffinity 18.1443501
REMARK minimizedRMSD -1
REMARK  0 active torsions:
REMARK  status: ('A' for Active; 'I' for Inactive)
ROOT
ATOM      1  C   UNL d   1      -3.842   3.803   1.424  0.00  0.00     0.124 A 
ATOM      2  C1  UNL d   1      -2.663   3.102   1.208  0.00  0.00     0.062 A 
ATOM      3  C2  UNL d   1      -2.501   2.345   0.052  0.00  0.00     0.162 A 
ATOM      4  C3  UNL d   1      -3.520   2.285  -0.899  0.00  0.00    -0.034 A 
ATOM      5  C4  UNL d   1      -4.703   2.991  -0.674  0.00  0.00     0.162 A 
ATOM      6  C5  UNL d   1      -4.860   3.747   0.483  0.00  0.00     0.062 A 
ATOM      7  F   UNL d   1      -6.000   4.423   0.690  0.00  0.00    -0.097 F 
ATOM      8  F1  UNL d   1      -5.703   2.955  -1.567  0.00  0.00    -0.096 F 
ATOM      9  I   UNL d   1      -3.281   1.153  -2.629  0.00  0.00    -0.060 I 
ATOM     10  F2  UNL d   1      -1.351   1.678  -0.131  0.00  0.00    -0.096 F 
ATOM     11  F3  UNL d   1      -1.678   3.154   2.116  0.00  0.00    -0.097 F 
ATOM     12  F4  UNL d   1      -3.996   4.530   2.538  0.00  0.00    -0.092 F 
ENDROOT
TORSDOF 0
ENDMDL
