MODEL 1
REMARK minimizedAffinity 14.7712402
REMARK minimizedRMSD -1
REMARK  3 active torsions:
REMARK  status: ('A' for Active; 'I' for Inactive)
REMARK    1  A    between atoms: C3'_2  and  C2'_3 
REMARK    2  A    between atoms: C2'_3  and  C1'_4 
REMARK    3  A    between atoms: C1'_4  and  C1_5 
ROOT
ATOM      1  C1  N4B d   1       2.554  -3.181   4.543  0.00  0.00    -0.075 A 
ATOM      2  C2  N4B d   1       2.436  -1.843   4.108  0.00  0.00     0.002 A 
ATOM      3  C3  N4B d   1       1.539  -1.519   3.120  0.00  0.00     0.002 A 
ATOM      4  C4  N4B d   1       0.766  -2.515   2.541  0.00  0.00    -0.004 A 
ATOM      5  C5  N4B d   1       0.868  -3.801   2.985  0.00  0.00     0.002 A 
ATOM      6  C6  N4B d   1       1.762  -4.140   3.980  0.00  0.00     0.002 A 
ENDROOT
BRANCH   1   7
ATOM      7  C1' N4B d   1       3.581  -3.597   5.560  0.00  0.00     0.057 C 
BRANCH   7   8
ATOM      8  C2' N4B d   1       4.773  -2.649   5.485  0.00  0.00     0.009 C 
BRANCH   8   9
ATOM      9  C3' N4B d   1       5.996  -3.320   4.884  0.00  0.00     0.004 C 
ATOM     10  C4' N4B d   1       6.000  -3.286   3.385  0.00  0.00     0.003 C 
ENDBRANCH   8   9
ENDBRANCH   7   8
ENDBRANCH   1   7
TORSDOF 3
ENDMDL
