MODEL 1
REMARK minimizedAffinity 7.92044401
REMARK minimizedRMSD -1
REMARK  3 active torsions:
REMARK  status: ('A' for Active; 'I' for Inactive)
REMARK    1  A    between atoms: C3'_2  and  C2'_3 
REMARK    2  A    between atoms: C2'_3  and  C1'_4 
REMARK    3  A    between atoms: C1'_4  and  C1_5 
ROOT
ATOM      1  C1  N4B d   1      -4.743  -3.784  -4.315  0.00  0.00    -0.075 A 
ATOM      2  C2  N4B d   1      -3.815  -4.849  -4.314  0.00  0.00     0.002 A 
ATOM      3  C3  N4B d   1      -4.005  -5.926  -5.144  0.00  0.00     0.002 A 
ATOM      4  C4  N4B d   1      -5.121  -5.970  -5.966  0.00  0.00    -0.004 A 
ATOM      5  C5  N4B d   1      -5.999  -4.927  -5.980  0.00  0.00     0.002 A 
ATOM      6  C6  N4B d   1      -5.819  -3.835  -5.154  0.00  0.00     0.002 A 
ENDROOT
BRANCH   1   7
ATOM      7  C1' N4B d   1      -4.624  -2.625  -3.364  0.00  0.00     0.057 C 
BRANCH   7   8
ATOM      8  C2' N4B d   1      -5.629  -2.802  -2.230  0.00  0.00     0.009 C 
BRANCH   8   9
ATOM      9  C3' N4B d   1      -5.775  -4.258  -1.822  0.00  0.00     0.004 C 
ATOM     10  C4' N4B d   1      -4.455  -4.934  -1.600  0.00  0.00     0.003 C 
ENDBRANCH   8   9
ENDBRANCH   7   8
ENDBRANCH   1   7
TORSDOF 3
ENDMDL
