MODEL 1
REMARK minimizedAffinity -0.436618477
REMARK minimizedRMSD -1
REMARK  3 active torsions:
REMARK  status: ('A' for Active; 'I' for Inactive)
REMARK    1  A    between atoms: C3'_2  and  C2'_3 
REMARK    2  A    between atoms: C2'_3  and  C1'_4 
REMARK    3  A    between atoms: C1'_4  and  C1_5 
ROOT
ATOM      1  C1  N4B d   1       5.329  -1.959  -4.624  0.00  0.00    -0.075 A 
ATOM      2  C2  N4B d   1       5.997  -0.818  -4.127  0.00  0.00     0.002 A 
ATOM      3  C3  N4B d   1       5.323   0.082  -3.337  0.00  0.00     0.002 A 
ATOM      4  C4  N4B d   1       3.983  -0.128  -3.048  0.00  0.00    -0.004 A 
ATOM      5  C5  N4B d   1       3.353  -1.246  -3.511  0.00  0.00     0.002 A 
ATOM      6  C6  N4B d   1       4.018  -2.161  -4.302  0.00  0.00     0.002 A 
ENDROOT
BRANCH   1   7
ATOM      7  C1' N4B d   1       6.000  -2.926  -5.561  0.00  0.00     0.057 C 
BRANCH   7   8
ATOM      8  C2' N4B d   1       5.114  -4.157  -5.728  0.00  0.00     0.009 C 
BRANCH   8   9
ATOM      9  C3' N4B d   1       5.902  -5.448  -5.584  0.00  0.00     0.004 C 
ATOM     10  C4' N4B d   1       5.983  -5.923  -4.164  0.00  0.00     0.003 C 
ENDBRANCH   8   9
ENDBRANCH   7   8
ENDBRANCH   1   7
TORSDOF 3
ENDMDL
