MODEL 1
REMARK minimizedAffinity 2.88991499
REMARK minimizedRMSD -1
REMARK  0 active torsions:
REMARK  status: ('A' for Active; 'I' for Inactive)
ROOT
ATOM      1  C2' OXE d   1      -3.707   2.296  -0.233  0.00  0.00     0.078 C 
ATOM      2  C1' OXE d   1      -4.349   2.514   2.491  0.00  0.00     0.078 C 
ATOM      3  C1  OXE d   1      -3.086   3.184   2.010  0.00  0.00    -0.078 A 
ATOM      4  C2  OXE d   1      -2.755   3.033   0.685  0.00  0.00    -0.078 A 
ATOM      5  C3  OXE d   1      -1.629   3.675   0.178  0.00  0.00     0.003 A 
ATOM      6  C4  OXE d   1      -0.749   4.346   1.036  0.00  0.00    -0.002 A 
ATOM      7  C5  OXE d   1      -1.047   4.478   2.396  0.00  0.00    -0.002 A 
ATOM      8  C6  OXE d   1      -2.230   3.940   2.890  0.00  0.00     0.003 A 
ENDROOT
TORSDOF 0
ENDMDL
