MODEL 1
REMARK minimizedAffinity 2.07140064
REMARK minimizedRMSD -1
REMARK  0 active torsions:
REMARK  status: ('A' for Active; 'I' for Inactive)
ROOT
ATOM      1  C2' OXE d   1       2.747   0.371   0.615  0.00  0.00     0.078 C 
ATOM      2  C1' OXE d   1       5.087   1.920   0.520  0.00  0.00     0.078 C 
ATOM      3  C1  OXE d   1       4.523   1.415  -0.785  0.00  0.00    -0.078 A 
ATOM      4  C2  OXE d   1       3.405   0.619  -0.725  0.00  0.00    -0.078 A 
ATOM      5  C3  OXE d   1       2.813   0.172  -1.903  0.00  0.00     0.003 A 
ATOM      6  C4  OXE d   1       3.433   0.397  -3.138  0.00  0.00    -0.002 A 
ATOM      7  C5  OXE d   1       4.594   1.173  -3.218  0.00  0.00    -0.002 A 
ATOM      8  C6  OXE d   1       5.128   1.723  -2.058  0.00  0.00     0.003 A 
ENDROOT
TORSDOF 0
ENDMDL
