MODEL 1
REMARK minimizedAffinity 3.9048512
REMARK minimizedRMSD -1
REMARK  0 active torsions:
REMARK  status: ('A' for Active; 'I' for Inactive)
ROOT
ATOM      1  C2' OXE d   1       2.221   0.322   1.147  0.00  0.00     0.078 C 
ATOM      2  C1' OXE d   1       0.820  -0.158  -1.237  0.00  0.00     0.078 C 
ATOM      3  C1  OXE d   1       2.216   0.403  -1.342  0.00  0.00    -0.078 A 
ATOM      4  C2  OXE d   1       2.877   0.678  -0.169  0.00  0.00    -0.078 A 
ATOM      5  C3  OXE d   1       4.187   1.145  -0.209  0.00  0.00     0.003 A 
ATOM      6  C4  OXE d   1       4.783   1.482  -1.431  0.00  0.00    -0.002 A 
ATOM      7  C5  OXE d   1       4.113   1.247  -2.636  0.00  0.00    -0.002 A 
ATOM      8  C6  OXE d   1       2.848   0.670  -2.611  0.00  0.00     0.003 A 
ENDROOT
TORSDOF 0
ENDMDL
