MODEL 1
REMARK minimizedAffinity 7.38897038
REMARK minimizedRMSD -1
REMARK  0 active torsions:
REMARK  status: ('A' for Active; 'I' for Inactive)
ROOT
ATOM      1  C2' OXE d   1       2.432   1.628   1.118  0.00  0.00     0.078 C 
ATOM      2  C1' OXE d   1       0.658   3.738   0.591  0.00  0.00     0.078 C 
ATOM      3  C1  OXE d   1       0.470   2.453  -0.176  0.00  0.00    -0.078 A 
ATOM      4  C2  OXE d   1       1.371   1.441   0.055  0.00  0.00    -0.078 A 
ATOM      5  C3  OXE d   1       1.211   0.216  -0.584  0.00  0.00     0.003 A 
ATOM      6  C4  OXE d   1       0.233   0.055  -1.574  0.00  0.00    -0.002 A 
ATOM      7  C5  OXE d   1      -0.670   1.086  -1.853  0.00  0.00    -0.002 A 
ATOM      8  C6  OXE d   1      -0.593   2.273  -1.134  0.00  0.00     0.003 A 
ENDROOT
TORSDOF 0
ENDMDL
