MODEL 1
REMARK minimizedAffinity 9.0145359
REMARK minimizedRMSD -1
REMARK  0 active torsions:
REMARK  status: ('A' for Active; 'I' for Inactive)
ROOT
ATOM      1  C2' OXE d   1       2.989   0.345  -2.245  0.00  0.00     0.078 C 
ATOM      2  C1' OXE d   1       0.633  -0.368  -0.896  0.00  0.00     0.078 C 
ATOM      3  C1  OXE d   1       1.821   0.048  -0.065  0.00  0.00    -0.078 A 
ATOM      4  C2  OXE d   1       2.984   0.350  -0.732  0.00  0.00    -0.078 A 
ATOM      5  C3  OXE d   1       4.093   0.793  -0.017  0.00  0.00     0.003 A 
ATOM      6  C4  OXE d   1       4.083   0.785   1.383  0.00  0.00    -0.002 A 
ATOM      7  C5  OXE d   1       2.921   0.443   2.083  0.00  0.00    -0.002 A 
ATOM      8  C6  OXE d   1       1.771   0.113   1.375  0.00  0.00     0.003 A 
ENDROOT
TORSDOF 0
ENDMDL
