MODEL 1
REMARK minimizedAffinity -1.42010069
REMARK minimizedRMSD -1
REMARK  0 active torsions:
REMARK  status: ('A' for Active; 'I' for Inactive)
ROOT
ATOM      1  C2' OXE d   1       2.643   0.375  -0.914  0.00  0.00     0.078 C 
ATOM      2  C1' OXE d   1       5.168   1.479  -0.375  0.00  0.00     0.078 C 
ATOM      3  C1  OXE d   1       4.962   0.812  -1.712  0.00  0.00    -0.078 A 
ATOM      4  C2  OXE d   1       3.739   0.233  -1.949  0.00  0.00    -0.078 A 
ATOM      5  C3  OXE d   1       3.479  -0.347  -3.187  0.00  0.00     0.003 A 
ATOM      6  C4  OXE d   1       4.500  -0.483  -4.135  0.00  0.00    -0.002 A 
ATOM      7  C5  OXE d   1       5.766   0.064  -3.898  0.00  0.00    -0.002 A 
ATOM      8  C6  OXE d   1       6.000   0.751  -2.712  0.00  0.00     0.003 A 
ENDROOT
TORSDOF 0
ENDMDL
