MODEL 1
REMARK minimizedAffinity 9.54704189
REMARK minimizedRMSD -1
REMARK  0 active torsions:
REMARK  status: ('A' for Active; 'I' for Inactive)
ROOT
ATOM      1  C2' OXE d   1       5.877   2.581  -2.509  0.00  0.00     0.078 C 
ATOM      2  C1' OXE d   1       5.864   2.408   0.293  0.00  0.00     0.078 C 
ATOM      3  C1  OXE d   1       4.795   1.660  -0.463  0.00  0.00    -0.078 A 
ATOM      4  C2  OXE d   1       4.781   1.788  -1.831  0.00  0.00    -0.078 A 
ATOM      5  C3  OXE d   1       3.849   1.075  -2.580  0.00  0.00     0.003 A 
ATOM      6  C4  OXE d   1       2.833   0.351  -1.945  0.00  0.00    -0.002 A 
ATOM      7  C5  OXE d   1       2.805   0.240  -0.551  0.00  0.00    -0.002 A 
ATOM      8  C6  OXE d   1       3.802   0.852   0.201  0.00  0.00     0.003 A 
ENDROOT
TORSDOF 0
ENDMDL
