MODEL 1
REMARK minimizedAffinity 4.99203682
REMARK minimizedRMSD -1
REMARK  0 active torsions:
REMARK  status: ('A' for Active; 'I' for Inactive)
ROOT
ATOM      1  C2' OXE d   1       4.463   1.723   1.115  0.00  0.00     0.078 C 
ATOM      2  C1' OXE d   1       2.752  -0.221   2.197  0.00  0.00     0.078 C 
ATOM      3  C1  OXE d   1       2.746  -0.033   0.701  0.00  0.00    -0.078 A 
ATOM      4  C2  OXE d   1       3.553   0.952   0.184  0.00  0.00    -0.078 A 
ATOM      5  C3  OXE d   1       3.627   1.131  -1.194  0.00  0.00     0.003 A 
ATOM      6  C4  OXE d   1       2.774   0.420  -2.048  0.00  0.00    -0.002 A 
ATOM      7  C5  OXE d   1       1.916  -0.561  -1.539  0.00  0.00    -0.002 A 
ATOM      8  C6  OXE d   1       1.921  -0.829  -0.174  0.00  0.00     0.003 A 
ENDROOT
TORSDOF 0
ENDMDL
