MODEL 1
REMARK minimizedAffinity 11.2842455
REMARK minimizedRMSD -1
REMARK  0 active torsions:
REMARK  status: ('A' for Active; 'I' for Inactive)
ROOT
ATOM      1  C2' OXE d   1       5.198   1.816   1.132  0.00  0.00     0.078 C 
ATOM      2  C1' OXE d   1       3.415  -0.129   2.092  0.00  0.00     0.078 C 
ATOM      3  C1  OXE d   1       3.321   0.255   0.636  0.00  0.00    -0.078 A 
ATOM      4  C2  OXE d   1       4.166   1.241   0.186  0.00  0.00    -0.078 A 
ATOM      5  C3  OXE d   1       4.158   1.594  -1.160  0.00  0.00     0.003 A 
ATOM      6  C4  OXE d   1       3.193   1.065  -2.026  0.00  0.00    -0.002 A 
ATOM      7  C5  OXE d   1       2.297   0.088  -1.579  0.00  0.00    -0.002 A 
ATOM      8  C6  OXE d   1       2.376  -0.358  -0.264  0.00  0.00     0.003 A 
ENDROOT
TORSDOF 0
ENDMDL
