MODEL 1
REMARK minimizedAffinity 3.04384327
REMARK minimizedRMSD -1
REMARK  0 active torsions:
REMARK  status: ('A' for Active; 'I' for Inactive)
ROOT
ATOM      1  C2' OXE d   1       3.121   0.507   1.378  0.00  0.00     0.078 C 
ATOM      2  C1' OXE d   1       5.328   2.242   1.373  0.00  0.00     0.078 C 
ATOM      3  C1  OXE d   1       4.771   1.808   0.040  0.00  0.00    -0.078 A 
ATOM      4  C2  OXE d   1       3.721   0.922   0.052  0.00  0.00    -0.078 A 
ATOM      5  C3  OXE d   1       3.134   0.532  -1.149  0.00  0.00     0.003 A 
ATOM      6  C4  OXE d   1       3.701   0.912  -2.371  0.00  0.00    -0.002 A 
ATOM      7  C5  OXE d   1       4.796   1.782  -2.406  0.00  0.00    -0.002 A 
ATOM      8  C6  OXE d   1       5.315   2.272  -1.212  0.00  0.00     0.003 A 
ENDROOT
TORSDOF 0
ENDMDL
