MODEL 1
REMARK minimizedAffinity -5.61772728
REMARK minimizedRMSD -1
REMARK  0 active torsions:
REMARK  status: ('A' for Active; 'I' for Inactive)
ROOT
ATOM      1  C   UNL d   1      -2.807  -1.384  -0.178  0.00  0.00     0.124 A 
ATOM      2  C1  UNL d   1      -2.066  -0.852  -1.224  0.00  0.00     0.062 A 
ATOM      3  C2  UNL d   1      -0.842  -0.239  -0.974  0.00  0.00     0.162 A 
ATOM      4  C3  UNL d   1      -0.349  -0.156   0.328  0.00  0.00    -0.034 A 
ATOM      5  C4  UNL d   1      -1.100  -0.692   1.376  0.00  0.00     0.162 A 
ATOM      6  C5  UNL d   1      -2.323  -1.304   1.121  0.00  0.00     0.062 A 
ATOM      7  F   UNL d   1      -3.038  -1.817   2.133  0.00  0.00    -0.097 F 
ATOM      8  F1  UNL d   1      -0.656  -0.630   2.640  0.00  0.00    -0.096 F 
ATOM      9  I   UNL d   1       1.482   0.759   0.706  0.00  0.00    -0.060 I 
ATOM     10  F2  UNL d   1      -0.147   0.266  -2.005  0.00  0.00    -0.096 F 
ATOM     11  F3  UNL d   1      -2.532  -0.927  -2.479  0.00  0.00    -0.097 F 
ATOM     12  F4  UNL d   1      -3.985  -1.972  -0.421  0.00  0.00    -0.092 F 
ENDROOT
TORSDOF 0
ENDMDL
