MODEL 1
REMARK minimizedAffinity -2.86906075
REMARK minimizedRMSD -1
REMARK  0 active torsions:
REMARK  status: ('A' for Active; 'I' for Inactive)
ROOT
ATOM      1  C   UNL d   1      -2.962  -2.130   0.696  0.00  0.00     0.124 A 
ATOM      2  C1  UNL d   1      -2.801  -0.982  -0.067  0.00  0.00     0.062 A 
ATOM      3  C2  UNL d   1      -1.568  -0.338  -0.111  0.00  0.00     0.162 A 
ATOM      4  C3  UNL d   1      -0.484  -0.842   0.608  0.00  0.00    -0.034 A 
ATOM      5  C4  UNL d   1      -0.654  -1.997   1.374  0.00  0.00     0.162 A 
ATOM      6  C5  UNL d   1      -1.888  -2.637   1.416  0.00  0.00     0.062 A 
ATOM      7  F   UNL d   1      -2.042  -3.746   2.153  0.00  0.00    -0.097 F 
ATOM      8  F1  UNL d   1       0.367  -2.508   2.078  0.00  0.00    -0.096 F 
ATOM      9  I   UNL d   1       1.361   0.118   0.544  0.00  0.00    -0.060 I 
ATOM     10  F2  UNL d   1      -1.441   0.770  -0.857  0.00  0.00    -0.096 F 
ATOM     11  F3  UNL d   1      -3.837  -0.490  -0.762  0.00  0.00    -0.097 F 
ATOM     12  F4  UNL d   1      -4.150  -2.747   0.738  0.00  0.00    -0.092 F 
ENDROOT
TORSDOF 0
ENDMDL
