MODEL 1
REMARK minimizedAffinity -3.35964727
REMARK minimizedRMSD -1
REMARK  0 active torsions:
REMARK  status: ('A' for Active; 'I' for Inactive)
ROOT
ATOM      1  C   UNL d   1      -1.891  -1.519   0.784  0.00  0.00     0.124 A 
ATOM      2  C1  UNL d   1      -0.640  -2.013   1.125  0.00  0.00     0.062 A 
ATOM      3  C2  UNL d   1       0.499  -1.242   0.909  0.00  0.00     0.162 A 
ATOM      4  C3  UNL d   1       0.392   0.032   0.351  0.00  0.00    -0.034 A 
ATOM      5  C4  UNL d   1      -0.870   0.521   0.009  0.00  0.00     0.162 A 
ATOM      6  C5  UNL d   1      -2.005  -0.253   0.227  0.00  0.00     0.062 A 
ATOM      7  F   UNL d   1      -3.214   0.226  -0.103  0.00  0.00    -0.097 F 
ATOM      8  F1  UNL d   1      -1.009   1.741  -0.530  0.00  0.00    -0.096 F 
ATOM      9  I   UNL d   1       2.092   1.187   0.027  0.00  0.00    -0.060 I 
ATOM     10  F2  UNL d   1       1.696  -1.745   1.248  0.00  0.00    -0.096 F 
ATOM     11  F3  UNL d   1      -0.527  -3.236   1.662  0.00  0.00    -0.097 F 
ATOM     12  F4  UNL d   1      -2.985  -2.263   0.991  0.00  0.00    -0.092 F 
ENDROOT
TORSDOF 0
ENDMDL
