MODEL 1
REMARK minimizedAffinity -1.62103057
REMARK minimizedRMSD -1
REMARK  0 active torsions:
REMARK  status: ('A' for Active; 'I' for Inactive)
ROOT
ATOM      1  C   UNL d   1       0.673   0.283  -0.756  0.00  0.00     0.124 A 
ATOM      2  C1  UNL d   1      -0.218  -0.053  -1.765  0.00  0.00     0.062 A 
ATOM      3  C2  UNL d   1      -1.403  -0.717  -1.461  0.00  0.00     0.162 A 
ATOM      4  C3  UNL d   1      -1.704  -1.048  -0.140  0.00  0.00    -0.034 A 
ATOM      5  C4  UNL d   1      -0.803  -0.707   0.870  0.00  0.00     0.162 A 
ATOM      6  C5  UNL d   1       0.380  -0.044   0.561  0.00  0.00     0.062 A 
ATOM      7  F   UNL d   1       1.240   0.280   1.537  0.00  0.00    -0.097 F 
ATOM      8  F1  UNL d   1      -1.062  -1.011   2.151  0.00  0.00    -0.096 F 
ATOM      9  I   UNL d   1      -3.475  -2.041   0.320  0.00  0.00    -0.060 I 
ATOM     10  F2  UNL d   1      -2.245  -1.030  -2.457  0.00  0.00    -0.096 F 
ATOM     11  F3  UNL d   1       0.063   0.261  -3.038  0.00  0.00    -0.097 F 
ATOM     12  F4  UNL d   1       1.813   0.921  -1.052  0.00  0.00    -0.092 F 
ENDROOT
TORSDOF 0
ENDMDL
