MODEL 1
REMARK minimizedAffinity 0.836203218
REMARK minimizedRMSD -1
REMARK  0 active torsions:
REMARK  status: ('A' for Active; 'I' for Inactive)
ROOT
ATOM      1  C   UNL d   1      -1.441  -1.695  -0.349  0.00  0.00     0.124 A 
ATOM      2  C1  UNL d   1      -1.435  -0.666  -1.280  0.00  0.00     0.062 A 
ATOM      3  C2  UNL d   1      -0.504   0.364  -1.180  0.00  0.00     0.162 A 
ATOM      4  C3  UNL d   1       0.430   0.369  -0.143  0.00  0.00    -0.034 A 
ATOM      5  C4  UNL d   1       0.417  -0.669   0.790  0.00  0.00     0.162 A 
ATOM      6  C5  UNL d   1      -0.515  -1.696   0.685  0.00  0.00     0.062 A 
ATOM      7  F   UNL d   1      -0.520  -2.689   1.585  0.00  0.00    -0.097 F 
ATOM      8  F1  UNL d   1       1.301  -0.695   1.798  0.00  0.00    -0.096 F 
ATOM      9  I   UNL d   1       1.824   1.907   0.011  0.00  0.00    -0.060 I 
ATOM     10  F2  UNL d   1      -0.521   1.346  -2.093  0.00  0.00    -0.096 F 
ATOM     11  F3  UNL d   1      -2.329  -0.662  -2.280  0.00  0.00    -0.097 F 
ATOM     12  F4  UNL d   1      -2.339  -2.684  -0.448  0.00  0.00    -0.092 F 
ENDROOT
TORSDOF 0
ENDMDL
