MODEL 1
REMARK minimizedAffinity 6.00516605
REMARK minimizedRMSD -1
REMARK  0 active torsions:
REMARK  status: ('A' for Active; 'I' for Inactive)
ROOT
ATOM      1  C   UNL d   1       3.002   3.158   0.309  0.00  0.00     0.124 A 
ATOM      2  C1  UNL d   1       2.308   3.289   1.504  0.00  0.00     0.062 A 
ATOM      3  C2  UNL d   1       1.399   2.310   1.896  0.00  0.00     0.162 A 
ATOM      4  C3  UNL d   1       1.180   1.191   1.094  0.00  0.00    -0.034 A 
ATOM      5  C4  UNL d   1       1.881   1.066  -0.107  0.00  0.00     0.162 A 
ATOM      6  C5  UNL d   1       2.788   2.047  -0.495  0.00  0.00     0.062 A 
ATOM      7  F   UNL d   1       3.458   1.919  -1.649  0.00  0.00    -0.097 F 
ATOM      8  F1  UNL d   1       1.695   0.003  -0.903  0.00  0.00    -0.096 F 
ATOM      9  I   UNL d   1      -0.178  -0.275   1.677  0.00  0.00    -0.060 I 
ATOM     10  F2  UNL d   1       0.742   2.463   3.056  0.00  0.00    -0.096 F 
ATOM     11  F3  UNL d   1       2.512   4.361   2.282  0.00  0.00    -0.097 F 
ATOM     12  F4  UNL d   1       3.875   4.101  -0.067  0.00  0.00    -0.092 F 
ENDROOT
TORSDOF 0
ENDMDL
