MODEL 1
REMARK minimizedAffinity 4.75882196
REMARK minimizedRMSD -1
REMARK  0 active torsions:
REMARK  status: ('A' for Active; 'I' for Inactive)
ROOT
ATOM      1  C   UNL d   1      -1.515  -1.582  -1.059  0.00  0.00     0.124 A 
ATOM      2  C1  UNL d   1      -0.603  -1.804  -0.036  0.00  0.00     0.062 A 
ATOM      3  C2  UNL d   1       0.469  -0.936   0.147  0.00  0.00     0.162 A 
ATOM      4  C3  UNL d   1       0.635   0.164  -0.695  0.00  0.00    -0.034 A 
ATOM      5  C4  UNL d   1      -0.285   0.381  -1.722  0.00  0.00     0.162 A 
ATOM      6  C5  UNL d   1      -1.355  -0.490  -1.901  0.00  0.00     0.062 A 
ATOM      7  F   UNL d   1      -2.234  -0.274  -2.890  0.00  0.00    -0.097 F 
ATOM      8  F1  UNL d   1      -0.155   1.428  -2.550  0.00  0.00    -0.096 F 
ATOM      9  I   UNL d   1       2.237   1.465  -0.425  0.00  0.00    -0.060 I 
ATOM     10  F2  UNL d   1       1.334  -1.175   1.144  0.00  0.00    -0.096 F 
ATOM     11  F3  UNL d   1      -0.755  -2.858   0.778  0.00  0.00    -0.097 F 
ATOM     12  F4  UNL d   1      -2.545  -2.420  -1.234  0.00  0.00    -0.092 F 
ENDROOT
TORSDOF 0
ENDMDL
