MODEL 1
REMARK minimizedAffinity -1.1199882
REMARK minimizedRMSD -1
REMARK  0 active torsions:
REMARK  status: ('A' for Active; 'I' for Inactive)
ROOT
ATOM      1  C   UNL d   1      -2.988  -1.870  -0.018  0.00  0.00     0.124 A 
ATOM      2  C1  UNL d   1      -2.210  -2.100   1.108  0.00  0.00     0.062 A 
ATOM      3  C2  UNL d   1      -0.955  -1.509   1.224  0.00  0.00     0.162 A 
ATOM      4  C3  UNL d   1      -0.470  -0.682   0.212  0.00  0.00    -0.034 A 
ATOM      5  C4  UNL d   1      -1.258  -0.456  -0.918  0.00  0.00     0.162 A 
ATOM      6  C5  UNL d   1      -2.512  -1.048  -1.030  0.00  0.00     0.062 A 
ATOM      7  F   UNL d   1      -3.262  -0.825  -2.118  0.00  0.00    -0.097 F 
ATOM      8  F1  UNL d   1      -0.823   0.335  -1.911  0.00  0.00    -0.096 F 
ATOM      9  I   UNL d   1       1.406   0.203   0.382  0.00  0.00    -0.060 I 
ATOM     10  F2  UNL d   1      -0.224  -1.749   2.324  0.00  0.00    -0.096 F 
ATOM     11  F3  UNL d   1      -2.667  -2.894   2.087  0.00  0.00    -0.097 F 
ATOM     12  F4  UNL d   1      -4.195  -2.440  -0.127  0.00  0.00    -0.092 F 
ENDROOT
TORSDOF 0
ENDMDL
