MODEL 1
REMARK minimizedAffinity -2.20504141
REMARK minimizedRMSD -1
REMARK  0 active torsions:
REMARK  status: ('A' for Active; 'I' for Inactive)
ROOT
ATOM      1  C   UNL d   1      -1.952  -1.985   0.249  0.00  0.00     0.124 A 
ATOM      2  C1  UNL d   1      -1.890  -0.962  -0.687  0.00  0.00     0.062 A 
ATOM      3  C2  UNL d   1      -0.809  -0.085  -0.695  0.00  0.00     0.162 A 
ATOM      4  C3  UNL d   1       0.220  -0.227   0.236  0.00  0.00    -0.034 A 
ATOM      5  C4  UNL d   1       0.150  -1.258   1.175  0.00  0.00     0.162 A 
ATOM      6  C5  UNL d   1      -0.932  -2.133   1.178  0.00  0.00     0.062 A 
ATOM      7  F   UNL d   1      -0.990  -3.121   2.083  0.00  0.00    -0.097 F 
ATOM      8  F1  UNL d   1       1.122  -1.424   2.084  0.00  0.00    -0.096 F 
ATOM      9  I   UNL d   1       1.837   1.083   0.228  0.00  0.00    -0.060 I 
ATOM     10  F2  UNL d   1      -0.776   0.895  -1.610  0.00  0.00    -0.096 F 
ATOM     11  F3  UNL d   1      -2.874  -0.817  -1.586  0.00  0.00    -0.097 F 
ATOM     12  F4  UNL d   1      -2.993  -2.827   0.254  0.00  0.00    -0.092 F 
ENDROOT
TORSDOF 0
ENDMDL
