MODEL 1
REMARK minimizedAffinity -4.77127409
REMARK minimizedRMSD -1
REMARK  0 active torsions:
REMARK  status: ('A' for Active; 'I' for Inactive)
ROOT
ATOM      1  C   UNL d   1       0.142  -0.004  -0.715  0.00  0.00     0.124 A 
ATOM      2  C1  UNL d   1      -0.949   0.294  -1.520  0.00  0.00     0.062 A 
ATOM      3  C2  UNL d   1      -2.189  -0.284  -1.262  0.00  0.00     0.162 A 
ATOM      4  C3  UNL d   1      -2.345  -1.165  -0.192  0.00  0.00    -0.034 A 
ATOM      5  C4  UNL d   1      -1.243  -1.461   0.612  0.00  0.00     0.162 A 
ATOM      6  C5  UNL d   1      -0.006  -0.881   0.350  0.00  0.00     0.062 A 
ATOM      7  F   UNL d   1       1.047  -1.170   1.129  0.00  0.00    -0.097 F 
ATOM      8  F1  UNL d   1      -1.357  -2.304   1.649  0.00  0.00    -0.096 F 
ATOM      9  I   UNL d   1      -4.196  -2.032   0.198  0.00  0.00    -0.060 I 
ATOM     10  F2  UNL d   1      -3.225   0.023  -2.056  0.00  0.00    -0.096 F 
ATOM     11  F3  UNL d   1      -0.809   1.141  -2.551  0.00  0.00    -0.097 F 
ATOM     12  F4  UNL d   1       1.333   0.553  -0.967  0.00  0.00    -0.092 F 
ENDROOT
TORSDOF 0
ENDMDL
