MODEL 1
REMARK minimizedAffinity -5.67126799
REMARK minimizedRMSD -1
REMARK  0 active torsions:
REMARK  status: ('A' for Active; 'I' for Inactive)
ROOT
ATOM      1  C   UNL d   1      -2.629  -1.948   0.648  0.00  0.00     0.124 A 
ATOM      2  C1  UNL d   1      -1.338  -2.454   0.718  0.00  0.00     0.062 A 
ATOM      3  C2  UNL d   1      -0.246  -1.591   0.706  0.00  0.00     0.162 A 
ATOM      4  C3  UNL d   1      -0.440  -0.212   0.625  0.00  0.00    -0.034 A 
ATOM      5  C4  UNL d   1      -1.741   0.290   0.554  0.00  0.00     0.162 A 
ATOM      6  C5  UNL d   1      -2.829  -0.577   0.566  0.00  0.00     0.062 A 
ATOM      7  F   UNL d   1      -4.075  -0.086   0.498  0.00  0.00    -0.097 F 
ATOM      8  F1  UNL d   1      -1.963   1.610   0.475  0.00  0.00    -0.096 F 
ATOM      9  I   UNL d   1       1.190   1.082   0.607  0.00  0.00    -0.060 I 
ATOM     10  F2  UNL d   1       0.989  -2.108   0.775  0.00  0.00    -0.096 F 
ATOM     11  F3  UNL d   1      -1.142  -3.778   0.796  0.00  0.00    -0.097 F 
ATOM     12  F4  UNL d   1      -3.678  -2.781   0.658  0.00  0.00    -0.092 F 
ENDROOT
TORSDOF 0
ENDMDL
