MODEL 1
REMARK minimizedAffinity -3.02717137
REMARK minimizedRMSD -1
REMARK  0 active torsions:
REMARK  status: ('A' for Active; 'I' for Inactive)
ROOT
ATOM      1  C   UNL d   1      -2.305  -1.869   0.414  0.00  0.00     0.124 A 
ATOM      2  C1  UNL d   1      -2.260  -0.793  -0.462  0.00  0.00     0.062 A 
ATOM      3  C2  UNL d   1      -1.098  -0.037  -0.581  0.00  0.00     0.162 A 
ATOM      4  C3  UNL d   1       0.029  -0.353   0.178  0.00  0.00    -0.034 A 
ATOM      5  C4  UNL d   1      -0.025  -1.436   1.057  0.00  0.00     0.162 A 
ATOM      6  C5  UNL d   1      -1.188  -2.190   1.172  0.00  0.00     0.062 A 
ATOM      7  F   UNL d   1      -1.231  -3.229   2.019  0.00  0.00    -0.097 F 
ATOM      8  F1  UNL d   1       1.040  -1.769   1.802  0.00  0.00    -0.096 F 
ATOM      9  I   UNL d   1       1.769   0.776   0.003  0.00  0.00    -0.060 I 
ATOM     10  F2  UNL d   1      -1.082   0.998  -1.435  0.00  0.00    -0.096 F 
ATOM     11  F3  UNL d   1      -3.338  -0.481  -1.195  0.00  0.00    -0.097 F 
ATOM     12  F4  UNL d   1      -3.425  -2.595   0.527  0.00  0.00    -0.092 F 
ENDROOT
TORSDOF 0
ENDMDL
