MODEL 1
REMARK minimizedAffinity -0.612226486
REMARK minimizedRMSD -1
REMARK  0 active torsions:
REMARK  status: ('A' for Active; 'I' for Inactive)
ROOT
ATOM      1  C   UNL d   1      -0.552   0.485  -0.892  0.00  0.00     0.124 A 
ATOM      2  C1  UNL d   1      -1.279  -0.240  -1.826  0.00  0.00     0.062 A 
ATOM      3  C2  UNL d   1      -1.694  -1.537  -1.536  0.00  0.00     0.162 A 
ATOM      4  C3  UNL d   1      -1.385  -2.116  -0.305  0.00  0.00    -0.034 A 
ATOM      5  C4  UNL d   1      -0.654  -1.380   0.629  0.00  0.00     0.162 A 
ATOM      6  C5  UNL d   1      -0.241  -0.085   0.334  0.00  0.00     0.062 A 
ATOM      7  F   UNL d   1       0.461   0.614   1.238  0.00  0.00    -0.097 F 
ATOM      8  F1  UNL d   1      -0.339  -1.907   1.822  0.00  0.00    -0.096 F 
ATOM      9  I   UNL d   1      -2.005  -4.054   0.132  0.00  0.00    -0.060 I 
ATOM     10  F2  UNL d   1      -2.394  -2.214  -2.458  0.00  0.00    -0.096 F 
ATOM     11  F3  UNL d   1      -1.580   0.308  -3.012  0.00  0.00    -0.097 F 
ATOM     12  F4  UNL d   1      -0.153   1.732  -1.174  0.00  0.00    -0.092 F 
ENDROOT
TORSDOF 0
ENDMDL
