MODEL 1
REMARK minimizedAffinity -1.07400692
REMARK minimizedRMSD -1
REMARK  0 active torsions:
REMARK  status: ('A' for Active; 'I' for Inactive)
ROOT
ATOM      1  C   UNL d   1      -3.302  -2.057  -0.445  0.00  0.00     0.124 A 
ATOM      2  C1  UNL d   1      -2.533  -1.655  -1.529  0.00  0.00     0.062 A 
ATOM      3  C2  UNL d   1      -1.321  -1.002  -1.324  0.00  0.00     0.162 A 
ATOM      4  C3  UNL d   1      -0.868  -0.749  -0.029  0.00  0.00    -0.034 A 
ATOM      5  C4  UNL d   1      -1.647  -1.156   1.056  0.00  0.00     0.162 A 
ATOM      6  C5  UNL d   1      -2.858  -1.807   0.846  0.00  0.00     0.062 A 
ATOM      7  F   UNL d   1      -3.599  -2.195   1.894  0.00  0.00    -0.097 F 
ATOM      8  F1  UNL d   1      -1.242  -0.928   2.314  0.00  0.00    -0.096 F 
ATOM      9  I   UNL d   1       0.944   0.226   0.282  0.00  0.00    -0.060 I 
ATOM     10  F2  UNL d   1      -0.599  -0.625  -2.389  0.00  0.00    -0.096 F 
ATOM     11  F3  UNL d   1      -2.960  -1.894  -2.777  0.00  0.00    -0.097 F 
ATOM     12  F4  UNL d   1      -4.468  -2.683  -0.646  0.00  0.00    -0.092 F 
ENDROOT
TORSDOF 0
ENDMDL
