MODEL 1
REMARK minimizedAffinity 1.54388058
REMARK minimizedRMSD -1
REMARK  0 active torsions:
REMARK  status: ('A' for Active; 'I' for Inactive)
ROOT
ATOM      1  C   UNL d   1       1.864  -0.021   0.709  0.00  0.00     0.124 A 
ATOM      2  C1  UNL d   1       1.215  -1.015   1.428  0.00  0.00     0.062 A 
ATOM      3  C2  UNL d   1      -0.116  -1.321   1.157  0.00  0.00     0.162 A 
ATOM      4  C3  UNL d   1      -0.807  -0.631   0.160  0.00  0.00    -0.034 A 
ATOM      5  C4  UNL d   1      -0.148   0.368  -0.558  0.00  0.00     0.162 A 
ATOM      6  C5  UNL d   1       1.182   0.669  -0.284  0.00  0.00     0.062 A 
ATOM      7  F   UNL d   1       1.807   1.630  -0.980  0.00  0.00    -0.097 F 
ATOM      8  F1  UNL d   1      -0.783   1.050  -1.523  0.00  0.00    -0.096 F 
ATOM      9  I   UNL d   1      -2.797  -1.085  -0.248  0.00  0.00    -0.060 I 
ATOM     10  F2  UNL d   1      -0.717  -2.286   1.868  0.00  0.00    -0.096 F 
ATOM     11  F3  UNL d   1       1.871  -1.683   2.388  0.00  0.00    -0.097 F 
ATOM     12  F4  UNL d   1       3.144   0.272   0.972  0.00  0.00    -0.092 F 
ENDROOT
TORSDOF 0
ENDMDL
