MODEL 1
REMARK minimizedAffinity 1.14790344
REMARK minimizedRMSD -1
REMARK  0 active torsions:
REMARK  status: ('A' for Active; 'I' for Inactive)
ROOT
ATOM      1  C   UNL d   1       0.457   0.362   0.634  0.00  0.00     0.124 A 
ATOM      2  C1  UNL d   1       0.389  -0.965   1.036  0.00  0.00     0.062 A 
ATOM      3  C2  UNL d   1      -0.710  -1.745   0.691  0.00  0.00     0.162 A 
ATOM      4  C3  UNL d   1      -1.752  -1.201  -0.061  0.00  0.00    -0.034 A 
ATOM      5  C4  UNL d   1      -1.677   0.134  -0.460  0.00  0.00     0.162 A 
ATOM      6  C5  UNL d   1      -0.576   0.910  -0.113  0.00  0.00     0.062 A 
ATOM      7  F   UNL d   1      -0.512   2.192  -0.503  0.00  0.00    -0.097 F 
ATOM      8  F1  UNL d   1      -2.661   0.689  -1.184  0.00  0.00    -0.096 F 
ATOM      9  I   UNL d   1      -3.398  -2.365  -0.578  0.00  0.00    -0.060 I 
ATOM     10  F2  UNL d   1      -0.749  -3.025   1.093  0.00  0.00    -0.096 F 
ATOM     11  F3  UNL d   1       1.386  -1.496   1.759  0.00  0.00    -0.097 F 
ATOM     12  F4  UNL d   1       1.516   1.111   0.968  0.00  0.00    -0.092 F 
ENDROOT
TORSDOF 0
ENDMDL
