MODEL 1
REMARK minimizedAffinity -3.03705716
REMARK minimizedRMSD -1
REMARK  2 active torsions:
REMARK  status: ('A' for Active; 'I' for Inactive)
REMARK    1  A    between atoms: C1_2  and  C2_3 
REMARK    2  A    between atoms: C2_3  and  C3_4 
ROOT
ATOM      1  C3  UNL d   1       1.701   0.000   2.147  0.00  0.00    -0.075 A 
ATOM      2  C4  UNL d   1       1.250   1.305   2.396  0.00  0.00     0.002 A 
ATOM      3  C5  UNL d   1       1.820   2.068   3.416  0.00  0.00     0.002 A 
ATOM      4  C6  UNL d   1       2.837   1.534   4.204  0.00  0.00    -0.004 A 
ATOM      5  C7  UNL d   1       3.281   0.234   3.976  0.00  0.00     0.002 A 
ATOM      6  C8  UNL d   1       2.716  -0.531   2.954  0.00  0.00     0.002 A 
ENDROOT
BRANCH   1   7
ATOM      7  C2  UNL d   1       1.109  -0.821   1.026  0.00  0.00     0.056 C 
BRANCH   7   8
ATOM      8  C1  UNL d   1       1.440  -0.293  -0.374  0.00  0.00     0.007 C 
ATOM      9  C   UNL d   1       0.289   0.471  -1.015  0.00  0.00     0.009 C 
ENDBRANCH   7   8
ENDBRANCH   1   7
TORSDOF 2
ENDMDL
