MODEL 1
REMARK minimizedAffinity 0.355605632
REMARK minimizedRMSD -1
REMARK  2 active torsions:
REMARK  status: ('A' for Active; 'I' for Inactive)
REMARK    1  A    between atoms: C1_2  and  C2_3 
REMARK    2  A    between atoms: C2_3  and  C3_4 
ROOT
ATOM      1  C3  UNL d   1       0.368   1.882   0.293  0.00  0.00    -0.075 A 
ATOM      2  C4  UNL d   1       0.501   2.400   1.590  0.00  0.00     0.002 A 
ATOM      3  C5  UNL d   1       0.830   1.563   2.657  0.00  0.00     0.002 A 
ATOM      4  C6  UNL d   1       1.019   0.200   2.444  0.00  0.00    -0.004 A 
ATOM      5  C7  UNL d   1       0.873  -0.329   1.163  0.00  0.00     0.002 A 
ATOM      6  C8  UNL d   1       0.549   0.507   0.093  0.00  0.00     0.002 A 
ENDROOT
BRANCH   1   7
ATOM      7  C2  UNL d   1       0.042   2.787  -0.871  0.00  0.00     0.056 C 
BRANCH   7   8
ATOM      8  C1  UNL d   1       0.411   4.256  -0.641  0.00  0.00     0.007 C 
ATOM      9  C   UNL d   1       0.347   5.097  -1.909  0.00  0.00     0.009 C 
ENDBRANCH   7   8
ENDBRANCH   1   7
TORSDOF 2
ENDMDL
