MODEL 1
REMARK minimizedAffinity 4.79900551
REMARK minimizedRMSD -1
REMARK  2 active torsions:
REMARK  status: ('A' for Active; 'I' for Inactive)
REMARK    1  A    between atoms: C1_2  and  C2_3 
REMARK    2  A    between atoms: C2_3  and  C3_4 
ROOT
ATOM      1  C3  UNL d   1       0.828   2.299   1.960  0.00  0.00    -0.075 A 
ATOM      2  C4  UNL d   1       0.420   2.995   0.813  0.00  0.00     0.002 A 
ATOM      3  C5  UNL d   1       1.003   4.218   0.482  0.00  0.00     0.002 A 
ATOM      4  C6  UNL d   1       1.992   4.765   1.296  0.00  0.00    -0.004 A 
ATOM      5  C7  UNL d   1       2.393   4.090   2.447  0.00  0.00     0.002 A 
ATOM      6  C8  UNL d   1       1.815   2.864   2.779  0.00  0.00     0.002 A 
ENDROOT
BRANCH   1   7
ATOM      7  C2  UNL d   1       0.222   0.960   2.308  0.00  0.00     0.056 C 
BRANCH   7   8
ATOM      8  C1  UNL d   1       1.192  -0.218   2.171  0.00  0.00     0.007 C 
ATOM      9  C   UNL d   1       1.498  -0.578   0.723  0.00  0.00     0.009 C 
ENDBRANCH   7   8
ENDBRANCH   1   7
TORSDOF 2
ENDMDL
