MODEL 1
REMARK minimizedAffinity -2.95600891
REMARK minimizedRMSD -1
REMARK  2 active torsions:
REMARK  status: ('A' for Active; 'I' for Inactive)
REMARK    1  A    between atoms: C1_2  and  C2_3 
REMARK    2  A    between atoms: C2_3  and  C3_4 
ROOT
ATOM      1  C3  UNL d   1       0.886   3.128   0.732  0.00  0.00    -0.075 A 
ATOM      2  C4  UNL d   1       1.184   4.490   0.580  0.00  0.00     0.002 A 
ATOM      3  C5  UNL d   1       0.920   5.143  -0.624  0.00  0.00     0.002 A 
ATOM      4  C6  UNL d   1       0.367   4.442  -1.694  0.00  0.00    -0.004 A 
ATOM      5  C7  UNL d   1       0.083   3.085  -1.560  0.00  0.00     0.002 A 
ATOM      6  C8  UNL d   1       0.341   2.430  -0.354  0.00  0.00     0.002 A 
ENDROOT
BRANCH   1   7
ATOM      7  C2  UNL d   1       1.142   2.423   2.042  0.00  0.00     0.056 C 
BRANCH   7   8
ATOM      8  C1  UNL d   1       0.287   1.169   2.252  0.00  0.00     0.007 C 
ATOM      9  C   UNL d   1       1.047  -0.126   1.999  0.00  0.00     0.009 C 
ENDBRANCH   7   8
ENDBRANCH   1   7
TORSDOF 2
ENDMDL
