MODEL 1
REMARK minimizedAffinity -4.15323639
REMARK minimizedRMSD -1
REMARK  2 active torsions:
REMARK  status: ('A' for Active; 'I' for Inactive)
REMARK    1  A    between atoms: C1_2  and  C2_3 
REMARK    2  A    between atoms: C2_3  and  C3_4 
ROOT
ATOM      1  C3  UNL d   1      -0.538   2.494  -1.272  0.00  0.00    -0.075 A 
ATOM      2  C4  UNL d   1      -1.691   2.605  -2.061  0.00  0.00     0.002 A 
ATOM      3  C5  UNL d   1      -1.984   3.796  -2.725  0.00  0.00     0.002 A 
ATOM      4  C6  UNL d   1      -1.134   4.894  -2.600  0.00  0.00    -0.004 A 
ATOM      5  C7  UNL d   1       0.006   4.801  -1.805  0.00  0.00     0.002 A 
ATOM      6  C8  UNL d   1       0.303   3.608  -1.143  0.00  0.00     0.002 A 
ENDROOT
BRANCH   1   7
ATOM      7  C2  UNL d   1      -0.200   1.198  -0.574  0.00  0.00     0.056 C 
BRANCH   7   8
ATOM      8  C1  UNL d   1      -0.096   1.318   0.950  0.00  0.00     0.007 C 
ATOM      9  C   UNL d   1       0.285   0.011   1.631  0.00  0.00     0.009 C 
ENDBRANCH   7   8
ENDBRANCH   1   7
TORSDOF 2
ENDMDL
