MODEL 1
REMARK minimizedAffinity -1.89136446
REMARK minimizedRMSD -1
REMARK  2 active torsions:
REMARK  status: ('A' for Active; 'I' for Inactive)
REMARK    1  A    between atoms: C1_2  and  C2_3 
REMARK    2  A    between atoms: C2_3  and  C3_4 
ROOT
ATOM      1  C3  UNL d   1       0.346   2.741   0.632  0.00  0.00    -0.075 A 
ATOM      2  C4  UNL d   1       0.447   2.385   1.984  0.00  0.00     0.002 A 
ATOM      3  C5  UNL d   1       0.640   1.053   2.353  0.00  0.00     0.002 A 
ATOM      4  C6  UNL d   1       0.723   0.062   1.377  0.00  0.00    -0.004 A 
ATOM      5  C7  UNL d   1       0.607   0.403   0.032  0.00  0.00     0.002 A 
ATOM      6  C8  UNL d   1       0.418   1.735  -0.341  0.00  0.00     0.002 A 
ENDROOT
BRANCH   1   7
ATOM      7  C2  UNL d   1       0.166   4.184   0.225  0.00  0.00     0.056 C 
BRANCH   7   8
ATOM      8  C1  UNL d   1       1.016   4.603  -0.980  0.00  0.00     0.007 C 
ATOM      9  C   UNL d   1       0.184   5.017  -2.186  0.00  0.00     0.009 C 
ENDBRANCH   7   8
ENDBRANCH   1   7
TORSDOF 2
ENDMDL
