MODEL 1
REMARK minimizedAffinity -3.95600486
REMARK minimizedRMSD -1
REMARK  1 active torsions:
REMARK  status: ('A' for Active; 'I' for Inactive)
REMARK    1  A    between atoms: C1_2  and  C2_3 
ROOT
ATOM      1  C2  UNL d   1       0.121  -0.017   0.218  0.00  0.00    -0.081 A 
ATOM      2  C3  UNL d   1       0.341  -1.310  -0.270  0.00  0.00     0.006 A 
ATOM      3  C4  UNL d   1       1.024  -1.507  -1.473  0.00  0.00     0.002 A 
ATOM      4  C5  UNL d   1       1.507  -0.415  -2.202  0.00  0.00    -0.080 A 
ATOM      5  C6  UNL d   1       2.268  -0.614  -3.478  0.00  0.00     0.076 C 
ATOM      6  C7  UNL d   1       1.272   0.878  -1.723  0.00  0.00     0.002 A 
ATOM      7  C8  UNL d   1       0.588   1.076  -0.521  0.00  0.00     0.006 A 
ENDROOT
BRANCH   1   8
ATOM      8  C1  UNL d   1      -0.559   0.196   1.546  0.00  0.00     0.054 C 
ATOM      9  C   UNL d   1      -2.069   0.049   1.424  0.00  0.00     0.018 C 
ENDBRANCH   1   8
TORSDOF 1
ENDMDL
