MODEL 1
REMARK minimizedAffinity -3.21205926
REMARK minimizedRMSD -1
REMARK  1 active torsions:
REMARK  status: ('A' for Active; 'I' for Inactive)
REMARK    1  A    between atoms: C1_2  and  C2_3 
ROOT
ATOM      1  C2  UNL d   1      -3.695   1.615   2.549  0.00  0.00    -0.081 A 
ATOM      2  C3  UNL d   1      -2.604   1.236   3.340  0.00  0.00     0.006 A 
ATOM      3  C4  UNL d   1      -2.168   2.055   4.384  0.00  0.00     0.002 A 
ATOM      4  C5  UNL d   1      -2.820   3.262   4.660  0.00  0.00    -0.080 A 
ATOM      5  C6  UNL d   1      -2.381   4.136   5.797  0.00  0.00     0.076 C 
ATOM      6  C7  UNL d   1      -3.899   3.649   3.858  0.00  0.00     0.002 A 
ATOM      7  C8  UNL d   1      -4.335   2.831   2.813  0.00  0.00     0.006 A 
ENDROOT
BRANCH   1   8
ATOM      8  C1  UNL d   1      -4.208   0.704   1.463  0.00  0.00     0.054 C 
ATOM      9  C   UNL d   1      -3.189  -0.372   1.117  0.00  0.00     0.018 C 
ENDBRANCH   1   8
TORSDOF 1
ENDMDL
