MODEL 1
REMARK minimizedAffinity -5.72812366
REMARK minimizedRMSD -1
REMARK  1 active torsions:
REMARK  status: ('A' for Active; 'I' for Inactive)
REMARK    1  A    between atoms: C1_2  and  C2_3 
ROOT
ATOM      1  C2  UNL d   1      -0.530  -0.170   0.592  0.00  0.00    -0.081 A 
ATOM      2  C3  UNL d   1      -0.308  -1.485   0.164  0.00  0.00     0.006 A 
ATOM      3  C4  UNL d   1       0.482  -1.740  -0.959  0.00  0.00     0.002 A 
ATOM      4  C5  UNL d   1       1.070  -0.686  -1.668  0.00  0.00    -0.080 A 
ATOM      5  C6  UNL d   1       1.945  -0.948  -2.858  0.00  0.00     0.076 C 
ATOM      6  C7  UNL d   1       0.834   0.628  -1.251  0.00  0.00     0.002 A 
ATOM      7  C8  UNL d   1       0.044   0.884  -0.128  0.00  0.00     0.006 A 
ENDROOT
BRANCH   1   8
ATOM      8  C1  UNL d   1      -1.328   0.105   1.841  0.00  0.00     0.054 C 
ATOM      9  C   UNL d   1      -2.818   0.182   1.540  0.00  0.00     0.018 C 
ENDBRANCH   1   8
TORSDOF 1
ENDMDL
