MODEL 1
REMARK minimizedAffinity -5.36261368
REMARK minimizedRMSD -1
REMARK  1 active torsions:
REMARK  status: ('A' for Active; 'I' for Inactive)
REMARK    1  A    between atoms: C1_2  and  C2_3 
ROOT
ATOM      1  C2  UNL d   1      -0.452  -0.256   0.592  0.00  0.00    -0.081 A 
ATOM      2  C3  UNL d   1      -0.440  -1.414  -0.194  0.00  0.00     0.006 A 
ATOM      3  C4  UNL d   1       0.301  -1.459  -1.378  0.00  0.00     0.002 A 
ATOM      4  C5  UNL d   1       1.048  -0.351  -1.790  0.00  0.00    -0.080 A 
ATOM      5  C6  UNL d   1       1.872  -0.396  -3.042  0.00  0.00     0.076 C 
ATOM      6  C7  UNL d   1       1.023   0.813  -1.013  0.00  0.00     0.002 A 
ATOM      7  C8  UNL d   1       0.282   0.859   0.170  0.00  0.00     0.006 A 
ENDROOT
BRANCH   1   8
ATOM      8  C1  UNL d   1      -1.198  -0.226   1.902  0.00  0.00     0.054 C 
ATOM      9  C   UNL d   1      -2.663  -0.592   1.712  0.00  0.00     0.018 C 
ENDBRANCH   1   8
TORSDOF 1
ENDMDL
