MODEL 1
REMARK minimizedAffinity -4.09344006
REMARK minimizedRMSD -1
REMARK  1 active torsions:
REMARK  status: ('A' for Active; 'I' for Inactive)
REMARK    1  A    between atoms: C1_2  and  C2_3 
ROOT
ATOM      1  C2  UNL d   1       0.142   0.146   0.026  0.00  0.00    -0.081 A 
ATOM      2  C3  UNL d   1       0.992   1.000  -0.687  0.00  0.00     0.006 A 
ATOM      3  C4  UNL d   1       1.702   0.531  -1.794  0.00  0.00     0.002 A 
ATOM      4  C5  UNL d   1       1.567  -0.797  -2.213  0.00  0.00    -0.080 A 
ATOM      5  C6  UNL d   1       2.300  -1.306  -3.419  0.00  0.00     0.076 C 
ATOM      6  C7  UNL d   1       0.731  -1.656  -1.491  0.00  0.00     0.002 A 
ATOM      7  C8  UNL d   1       0.021  -1.187  -0.383  0.00  0.00     0.006 A 
ENDROOT
BRANCH   1   8
ATOM      8  C1  UNL d   1      -0.674   0.666   1.181  0.00  0.00     0.054 C 
ATOM      9  C   UNL d   1      -1.502  -0.442   1.817  0.00  0.00     0.018 C 
ENDBRANCH   1   8
TORSDOF 1
ENDMDL
