MODEL 1
REMARK minimizedAffinity -4.43268394
REMARK minimizedRMSD -1
REMARK  1 active torsions:
REMARK  status: ('A' for Active; 'I' for Inactive)
REMARK    1  A    between atoms: C1_2  and  C2_3 
ROOT
ATOM      1  C2  UNL d   1       0.086  -0.581   0.827  0.00  0.00    -0.081 A 
ATOM      2  C3  UNL d   1       0.444   0.727   0.476  0.00  0.00     0.006 A 
ATOM      3  C4  UNL d   1       0.848   1.024  -0.828  0.00  0.00     0.002 A 
ATOM      4  C5  UNL d   1       0.895   0.022  -1.803  0.00  0.00    -0.080 A 
ATOM      5  C6  UNL d   1       1.299   0.334  -3.213  0.00  0.00     0.076 C 
ATOM      6  C7  UNL d   1       0.555  -1.288  -1.447  0.00  0.00     0.002 A 
ATOM      7  C8  UNL d   1       0.151  -1.586  -0.144  0.00  0.00     0.006 A 
ENDROOT
BRANCH   1   8
ATOM      8  C1  UNL d   1      -0.412  -0.892   2.215  0.00  0.00     0.054 C 
ATOM      9  C   UNL d   1      -1.545   0.042   2.619  0.00  0.00     0.018 C 
ENDBRANCH   1   8
TORSDOF 1
ENDMDL
