MODEL 1
REMARK minimizedAffinity -2.42576981
REMARK minimizedRMSD -1
REMARK  1 active torsions:
REMARK  status: ('A' for Active; 'I' for Inactive)
REMARK    1  A    between atoms: C1_2  and  C2_3 
ROOT
ATOM      1  C2  UNL d   1       1.117   0.571  -1.216  0.00  0.00    -0.081 A 
ATOM      2  C3  UNL d   1       0.599  -0.679  -0.854  0.00  0.00     0.006 A 
ATOM      3  C4  UNL d   1      -0.140  -0.826   0.322  0.00  0.00     0.002 A 
ATOM      4  C5  UNL d   1      -0.381   0.274   1.151  0.00  0.00    -0.080 A 
ATOM      5  C6  UNL d   1      -1.198   0.136   2.401  0.00  0.00     0.076 C 
ATOM      6  C7  UNL d   1       0.151   1.519   0.800  0.00  0.00     0.002 A 
ATOM      7  C8  UNL d   1       0.891   1.667  -0.376  0.00  0.00     0.006 A 
ENDROOT
BRANCH   1   8
ATOM      8  C1  UNL d   1       1.859   0.746  -2.516  0.00  0.00     0.054 C 
ATOM      9  C   UNL d   1       3.082  -0.158  -2.581  0.00  0.00     0.018 C 
ENDBRANCH   1   8
TORSDOF 1
ENDMDL
