MODEL 1
REMARK minimizedAffinity 0.767381907
REMARK minimizedRMSD -1
REMARK  1 active torsions:
REMARK  status: ('A' for Active; 'I' for Inactive)
REMARK    1  A    between atoms: C1_2  and  C2_3 
ROOT
ATOM      1  C2  UNL d   1       1.694   0.180  -1.233  0.00  0.00    -0.081 A 
ATOM      2  C3  UNL d   1       0.739  -0.796  -1.543  0.00  0.00     0.006 A 
ATOM      3  C4  UNL d   1      -0.454  -0.874  -0.821  0.00  0.00     0.002 A 
ATOM      4  C5  UNL d   1      -0.717   0.028   0.216  0.00  0.00    -0.080 A 
ATOM      5  C6  UNL d   1      -2.007  -0.025   0.978  0.00  0.00     0.076 C 
ATOM      6  C7  UNL d   1       0.244   0.993   0.536  0.00  0.00     0.002 A 
ATOM      7  C8  UNL d   1       1.438   1.070  -0.184  0.00  0.00     0.006 A 
ENDROOT
BRANCH   1   8
ATOM      8  C1  UNL d   1       2.953   0.308  -2.052  0.00  0.00     0.054 C 
ATOM      9  C   UNL d   1       4.144   0.680  -1.180  0.00  0.00     0.018 C 
ENDBRANCH   1   8
TORSDOF 1
ENDMDL
