MODEL 1
REMARK minimizedAffinity -5.32681799
REMARK minimizedRMSD -1
REMARK  1 active torsions:
REMARK  status: ('A' for Active; 'I' for Inactive)
REMARK    1  A    between atoms: C1_2  and  C2_3 
ROOT
ATOM      1  C2  UNL d   1      -0.477  -0.021  -0.480  0.00  0.00    -0.081 A 
ATOM      2  C3  UNL d   1      -1.811  -0.216  -0.859  0.00  0.00     0.006 A 
ATOM      3  C4  UNL d   1      -2.848   0.071   0.031  0.00  0.00     0.002 A 
ATOM      4  C5  UNL d   1      -2.571   0.564   1.310  0.00  0.00    -0.080 A 
ATOM      5  C6  UNL d   1      -3.676   0.905   2.265  0.00  0.00     0.076 C 
ATOM      6  C7  UNL d   1      -1.237   0.743   1.695  0.00  0.00     0.002 A 
ATOM      7  C8  UNL d   1      -0.199   0.455   0.806  0.00  0.00     0.006 A 
ENDROOT
BRANCH   1   8
ATOM      8  C1  UNL d   1       0.642  -0.268  -1.460  0.00  0.00     0.054 C 
ATOM      9  C   UNL d   1       1.091   1.025  -2.125  0.00  0.00     0.018 C 
ENDBRANCH   1   8
TORSDOF 1
ENDMDL
