MODEL 1
REMARK minimizedAffinity -2.93118048
REMARK minimizedRMSD -1
REMARK  1 active torsions:
REMARK  status: ('A' for Active; 'I' for Inactive)
REMARK    1  A    between atoms: C1_2  and  C2_3 
ROOT
ATOM      1  C2  UNL d   1       1.390   0.625  -0.620  0.00  0.00    -0.081 A 
ATOM      2  C3  UNL d   1       0.560  -0.502  -0.581  0.00  0.00     0.006 A 
ATOM      3  C4  UNL d   1      -0.539  -0.542   0.280  0.00  0.00     0.002 A 
ATOM      4  C5  UNL d   1      -0.831   0.545   1.110  0.00  0.00    -0.080 A 
ATOM      5  C6  UNL d   1      -2.025   0.526   2.017  0.00  0.00     0.076 C 
ATOM      6  C7  UNL d   1       0.008   1.664   1.085  0.00  0.00     0.002 A 
ATOM      7  C8  UNL d   1       1.108   1.705   0.225  0.00  0.00     0.006 A 
ENDROOT
BRANCH   1   8
ATOM      8  C1  UNL d   1       2.538   0.699  -1.594  0.00  0.00     0.054 C 
ATOM      9  C   UNL d   1       2.574  -0.524  -2.500  0.00  0.00     0.018 C 
ENDBRANCH   1   8
TORSDOF 1
ENDMDL
