MODEL 1
REMARK minimizedAffinity -5.69809675
REMARK minimizedRMSD -1
REMARK  1 active torsions:
REMARK  status: ('A' for Active; 'I' for Inactive)
REMARK    1  A    between atoms: C1_2  and  C2_3 
ROOT
ATOM      1  C2  UNL d   1      -0.116  -0.616   0.628  0.00  0.00    -0.081 A 
ATOM      2  C3  UNL d   1       0.477   0.616   0.329  0.00  0.00     0.006 A 
ATOM      3  C4  UNL d   1       1.250   0.769  -0.824  0.00  0.00     0.002 A 
ATOM      4  C5  UNL d   1       1.436  -0.306  -1.701  0.00  0.00    -0.080 A 
ATOM      5  C6  UNL d   1       2.239  -0.147  -2.958  0.00  0.00     0.076 C 
ATOM      6  C7  UNL d   1       0.858  -1.542  -1.393  0.00  0.00     0.002 A 
ATOM      7  C8  UNL d   1       0.085  -1.695  -0.240  0.00  0.00     0.006 A 
ENDROOT
BRANCH   1   8
ATOM      8  C1  UNL d   1      -1.004  -0.766   1.838  0.00  0.00     0.054 C 
ATOM      9  C   UNL d   1      -2.069   0.320   1.880  0.00  0.00     0.018 C 
ENDBRANCH   1   8
TORSDOF 1
ENDMDL
