MODEL 1
REMARK minimizedAffinity 0.495033443
REMARK minimizedRMSD -1
REMARK  1 active torsions:
REMARK  status: ('A' for Active; 'I' for Inactive)
REMARK    1  A    between atoms: C1_2  and  C2_3 
ROOT
ATOM      1  C2  UNL d   1       3.772  -0.781   3.921  0.00  0.00    -0.077 A 
ATOM      2  C3  UNL d   1       5.098  -0.994   3.517  0.00  0.00     0.002 A 
ATOM      3  C4  UNL d   1       5.988  -1.676   4.348  0.00  0.00     0.002 A 
ATOM      4  C5  UNL d   1       5.562  -2.155   5.585  0.00  0.00    -0.004 A 
ATOM      5  C6  UNL d   1       4.246  -1.947   5.996  0.00  0.00     0.002 A 
ATOM      6  C7  UNL d   1       3.355  -1.264   5.168  0.00  0.00     0.002 A 
ENDROOT
BRANCH   1   7
ATOM      7  C1  UNL d   1       2.797  -0.089   3.005  0.00  0.00     0.055 C 
ATOM      8  C   UNL d   1       3.517   0.785   1.988  0.00  0.00     0.019 C 
ENDBRANCH   1   7
TORSDOF 1
ENDMDL
