MODEL 1
REMARK minimizedAffinity 4.57346153
REMARK minimizedRMSD -1
REMARK  1 active torsions:
REMARK  status: ('A' for Active; 'I' for Inactive)
REMARK    1  A    between atoms: C1_2  and  C2_3 
ROOT
ATOM      1  C2  UNL d   1       3.812  -5.823  -3.312  0.00  0.00    -0.077 A 
ATOM      2  C3  UNL d   1       4.791  -5.495  -4.260  0.00  0.00     0.002 A 
ATOM      3  C4  UNL d   1       4.442  -5.298  -5.597  0.00  0.00     0.002 A 
ATOM      4  C5  UNL d   1       3.113  -5.422  -5.998  0.00  0.00    -0.004 A 
ATOM      5  C6  UNL d   1       2.132  -5.750  -5.063  0.00  0.00     0.002 A 
ATOM      6  C7  UNL d   1       2.479  -5.949  -3.726  0.00  0.00     0.002 A 
ENDROOT
BRANCH   1   7
ATOM      7  C1  UNL d   1       4.179  -5.988  -1.860  0.00  0.00     0.055 C 
ATOM      8  C   UNL d   1       2.942  -5.997  -0.974  0.00  0.00     0.019 C 
ENDBRANCH   1   7
TORSDOF 1
ENDMDL
