MODEL 1
REMARK minimizedAffinity 6.47239113
REMARK minimizedRMSD -1
REMARK  1 active torsions:
REMARK  status: ('A' for Active; 'I' for Inactive)
REMARK    1  A    between atoms: C1_2  and  C2_3 
ROOT
ATOM      1  C2  UNL d   1       3.873  -5.966  -2.355  0.00  0.00    -0.077 A 
ATOM      2  C3  UNL d   1       2.650  -5.981  -3.040  0.00  0.00     0.002 A 
ATOM      3  C4  UNL d   1       2.623  -5.995  -4.435  0.00  0.00     0.002 A 
ATOM      4  C5  UNL d   1       3.814  -5.999  -5.158  0.00  0.00    -0.004 A 
ATOM      5  C6  UNL d   1       5.036  -5.982  -4.486  0.00  0.00     0.002 A 
ATOM      6  C7  UNL d   1       5.065  -5.967  -3.091  0.00  0.00     0.002 A 
ENDROOT
BRANCH   1   7
ATOM      7  C1  UNL d   1       3.906  -6.000  -0.849  0.00  0.00     0.055 C 
ATOM      8  C   UNL d   1       2.501  -5.996  -0.265  0.00  0.00     0.019 C 
ENDBRANCH   1   7
TORSDOF 1
ENDMDL
