MODEL 1
REMARK minimizedAffinity 6.39773703
REMARK minimizedRMSD -1
REMARK  1 active torsions:
REMARK  status: ('A' for Active; 'I' for Inactive)
REMARK    1  A    between atoms: C1_2  and  C2_3 
ROOT
ATOM      1  C2  UNL d   1      -5.293   3.762   0.534  0.00  0.00    -0.077 A 
ATOM      2  C3  UNL d   1      -5.949   3.530   1.752  0.00  0.00     0.002 A 
ATOM      3  C4  UNL d   1      -5.278   2.911   2.808  0.00  0.00     0.002 A 
ATOM      4  C5  UNL d   1      -3.948   2.523   2.660  0.00  0.00    -0.004 A 
ATOM      5  C6  UNL d   1      -3.288   2.747   1.452  0.00  0.00     0.002 A 
ATOM      6  C7  UNL d   1      -3.957   3.365   0.395  0.00  0.00     0.002 A 
ENDROOT
BRANCH   1   7
ATOM      7  C1  UNL d   1      -6.000   4.473  -0.590  0.00  0.00     0.055 C 
ATOM      8  C   UNL d   1      -6.000   5.980  -0.378  0.00  0.00     0.019 C 
ENDBRANCH   1   7
TORSDOF 1
ENDMDL
