MODEL 1
REMARK minimizedAffinity 1.32536268
REMARK minimizedRMSD -1
REMARK  1 active torsions:
REMARK  status: ('A' for Active; 'I' for Inactive)
REMARK    1  A    between atoms: C1_2  and  C2_3 
ROOT
ATOM      1  C2  UNL d   1       2.665  -0.982   2.291  0.00  0.00    -0.077 A 
ATOM      2  C3  UNL d   1       1.865  -0.688   3.404  0.00  0.00     0.002 A 
ATOM      3  C4  UNL d   1       1.621  -1.661   4.375  0.00  0.00     0.002 A 
ATOM      4  C5  UNL d   1       2.177  -2.932   4.245  0.00  0.00    -0.004 A 
ATOM      5  C6  UNL d   1       2.972  -3.234   3.141  0.00  0.00     0.002 A 
ATOM      6  C7  UNL d   1       3.216  -2.263   2.169  0.00  0.00     0.002 A 
ENDROOT
BRANCH   1   7
ATOM      7  C1  UNL d   1       2.969   0.081   1.268  0.00  0.00     0.055 C 
ATOM      8  C   UNL d   1       2.561   1.461   1.764  0.00  0.00     0.019 C 
ENDBRANCH   1   7
TORSDOF 1
ENDMDL
