MODEL 1
REMARK minimizedAffinity 4.9003253
REMARK minimizedRMSD -1
REMARK  1 active torsions:
REMARK  status: ('A' for Active; 'I' for Inactive)
REMARK    1  A    between atoms: C1_2  and  C2_3 
ROOT
ATOM      1  C2  UNL d   1       2.370  -1.852   3.794  0.00  0.00    -0.077 A 
ATOM      2  C3  UNL d   1       3.602  -2.480   3.560  0.00  0.00     0.002 A 
ATOM      3  C4  UNL d   1       3.819  -3.791   3.988  0.00  0.00     0.002 A 
ATOM      4  C5  UNL d   1       2.808  -4.487   4.647  0.00  0.00    -0.004 A 
ATOM      5  C6  UNL d   1       1.580  -3.871   4.886  0.00  0.00     0.002 A 
ATOM      6  C7  UNL d   1       1.362  -2.560   4.460  0.00  0.00     0.002 A 
ENDROOT
BRANCH   1   7
ATOM      7  C1  UNL d   1       2.117  -0.455   3.290  0.00  0.00     0.055 C 
ATOM      8  C   UNL d   1       2.987  -0.136   2.083  0.00  0.00     0.019 C 
ENDBRANCH   1   7
TORSDOF 1
ENDMDL
