MODEL 1
REMARK minimizedAffinity 8.40789318
REMARK minimizedRMSD -1
REMARK  1 active torsions:
REMARK  status: ('A' for Active; 'I' for Inactive)
REMARK    1  A    between atoms: C1_2  and  C2_3 
ROOT
ATOM      1  C2  UNL d   1       1.546  -1.162   1.482  0.00  0.00    -0.077 A 
ATOM      2  C3  UNL d   1       0.323  -0.521   1.725  0.00  0.00     0.002 A 
ATOM      3  C4  UNL d   1      -0.710  -0.593   0.789  0.00  0.00     0.002 A 
ATOM      4  C5  UNL d   1      -0.532  -1.308  -0.394  0.00  0.00    -0.004 A 
ATOM      5  C6  UNL d   1       0.681  -1.947  -0.645  0.00  0.00     0.002 A 
ATOM      6  C7  UNL d   1       1.715  -1.875   0.289  0.00  0.00     0.002 A 
ENDROOT
BRANCH   1   7
ATOM      7  C1  UNL d   1       2.644  -1.126   2.513  0.00  0.00     0.055 C 
ATOM      8  C   UNL d   1       2.201  -1.775   3.817  0.00  0.00     0.019 C 
ENDBRANCH   1   7
TORSDOF 1
ENDMDL
