MODEL 1
REMARK minimizedAffinity -0.497989833
REMARK minimizedRMSD -1
REMARK  1 active torsions:
REMARK  status: ('A' for Active; 'I' for Inactive)
REMARK    1  A    between atoms: C1_2  and  C2_3 
ROOT
ATOM      1  C2  UNL d   1       2.391  -1.820   2.824  0.00  0.00    -0.077 A 
ATOM      2  C3  UNL d   1       2.225  -3.188   2.566  0.00  0.00     0.002 A 
ATOM      3  C4  UNL d   1       2.204  -4.107   3.616  0.00  0.00     0.002 A 
ATOM      4  C5  UNL d   1       2.346  -3.669   4.931  0.00  0.00    -0.004 A 
ATOM      5  C6  UNL d   1       2.515  -2.311   5.198  0.00  0.00     0.002 A 
ATOM      6  C7  UNL d   1       2.537  -1.390   4.149  0.00  0.00     0.002 A 
ENDROOT
BRANCH   1   7
ATOM      7  C1  UNL d   1       2.364  -0.821   1.696  0.00  0.00     0.055 C 
ATOM      8  C   UNL d   1       3.539   0.142   1.781  0.00  0.00     0.019 C 
ENDBRANCH   1   7
TORSDOF 1
ENDMDL
