MODEL 1
REMARK minimizedAffinity 3.40473175
REMARK minimizedRMSD -1
REMARK  1 active torsions:
REMARK  status: ('A' for Active; 'I' for Inactive)
REMARK    1  A    between atoms: C1_2  and  C2_3 
ROOT
ATOM      1  C2  UNL d   1       2.074  -1.360   2.584  0.00  0.00    -0.077 A 
ATOM      2  C3  UNL d   1       3.386  -1.206   3.054  0.00  0.00     0.002 A 
ATOM      3  C4  UNL d   1       3.937  -2.145   3.929  0.00  0.00     0.002 A 
ATOM      4  C5  UNL d   1       3.185  -3.245   4.336  0.00  0.00    -0.004 A 
ATOM      5  C6  UNL d   1       1.879  -3.406   3.875  0.00  0.00     0.002 A 
ATOM      6  C7  UNL d   1       1.326  -2.468   3.002  0.00  0.00     0.002 A 
ENDROOT
BRANCH   1   7
ATOM      7  C1  UNL d   1       1.495  -0.375   1.602  0.00  0.00     0.055 C 
ATOM      8  C   UNL d   1       0.309  -0.969   0.856  0.00  0.00     0.019 C 
ENDBRANCH   1   7
TORSDOF 1
ENDMDL
