MODEL 1
REMARK minimizedAffinity 10.5969152
REMARK minimizedRMSD -1
REMARK  1 active torsions:
REMARK  status: ('A' for Active; 'I' for Inactive)
REMARK    1  A    between atoms: C1_2  and  C2_3 
ROOT
ATOM      1  C2  UNL d   1      -5.238   3.850   0.772  0.00  0.00    -0.077 A 
ATOM      2  C3  UNL d   1      -3.848   3.662   0.791  0.00  0.00     0.002 A 
ATOM      3  C4  UNL d   1      -3.235   3.031   1.875  0.00  0.00     0.002 A 
ATOM      4  C5  UNL d   1      -4.003   2.579   2.945  0.00  0.00    -0.004 A 
ATOM      5  C6  UNL d   1      -5.386   2.763   2.937  0.00  0.00     0.002 A 
ATOM      6  C7  UNL d   1      -6.000   3.395   1.855  0.00  0.00     0.002 A 
ENDROOT
BRANCH   1   7
ATOM      7  C1  UNL d   1      -5.906   4.487  -0.418  0.00  0.00     0.055 C 
ATOM      8  C   UNL d   1      -5.973   6.000  -0.272  0.00  0.00     0.019 C 
ENDBRANCH   1   7
TORSDOF 1
ENDMDL
