MODEL 1
REMARK minimizedAffinity 4.60674572
REMARK minimizedRMSD -1
REMARK  1 active torsions:
REMARK  status: ('A' for Active; 'I' for Inactive)
REMARK    1  A    between atoms: C1_2  and  C2_3 
ROOT
ATOM      1  C2  UNL d   1       2.359  -1.864   2.394  0.00  0.00    -0.077 A 
ATOM      2  C3  UNL d   1       2.812  -3.190   2.338  0.00  0.00     0.002 A 
ATOM      3  C4  UNL d   1       2.640  -4.041   3.431  0.00  0.00     0.002 A 
ATOM      4  C5  UNL d   1       2.012  -3.578   4.586  0.00  0.00    -0.004 A 
ATOM      5  C6  UNL d   1       1.560  -2.261   4.652  0.00  0.00     0.002 A 
ATOM      6  C7  UNL d   1       1.731  -1.408   3.561  0.00  0.00     0.002 A 
ENDROOT
BRANCH   1   7
ATOM      7  C1  UNL d   1       2.499  -0.959   1.199  0.00  0.00     0.055 C 
ATOM      8  C   UNL d   1       1.341  -1.140   0.228  0.00  0.00     0.019 C 
ENDBRANCH   1   7
TORSDOF 1
ENDMDL
