MODEL 1
REMARK minimizedAffinity 5.65540504
REMARK minimizedRMSD -1
REMARK  1 active torsions:
REMARK  status: ('A' for Active; 'I' for Inactive)
REMARK    1  A    between atoms: C1_2  and  C2_3 
ROOT
ATOM      1  C2  UNL d   1      -3.248   3.263   1.770  0.00  0.00    -0.077 A 
ATOM      2  C3  UNL d   1      -3.714   2.757   2.992  0.00  0.00     0.002 A 
ATOM      3  C4  UNL d   1      -5.085   2.647   3.234  0.00  0.00     0.002 A 
ATOM      4  C5  UNL d   1      -6.000   3.036   2.258  0.00  0.00    -0.004 A 
ATOM      5  C6  UNL d   1      -5.546   3.543   1.041  0.00  0.00     0.002 A 
ATOM      6  C7  UNL d   1      -4.177   3.655   0.797  0.00  0.00     0.002 A 
ENDROOT
BRANCH   1   7
ATOM      7  C1  UNL d   1      -1.770   3.338   1.488  0.00  0.00     0.055 C 
ATOM      8  C   UNL d   1      -1.467   4.334   0.379  0.00  0.00     0.019 C 
ENDBRANCH   1   7
TORSDOF 1
ENDMDL
