MODEL 1
REMARK minimizedAffinity -1.26891041
REMARK minimizedRMSD -1
REMARK  2 active torsions:
REMARK  status: ('A' for Active; 'I' for Inactive)
REMARK    1  A    between atoms: C1_2  and  C2_3 
REMARK    2  A    between atoms: C2_3  and  C3_4 
ROOT
ATOM      1  C3  UNL d   1      -0.617  -0.622   0.018  0.00  0.00    -0.075 A 
ATOM      2  C4  UNL d   1      -1.516   0.155   0.764  0.00  0.00     0.002 A 
ATOM      3  C5  UNL d   1      -1.222   1.485   1.064  0.00  0.00     0.002 A 
ATOM      4  C6  UNL d   1      -0.025   2.051   0.633  0.00  0.00    -0.004 A 
ATOM      5  C7  UNL d   1       0.883   1.284  -0.094  0.00  0.00     0.002 A 
ATOM      6  C8  UNL d   1       0.590  -0.046  -0.400  0.00  0.00     0.002 A 
ENDROOT
BRANCH   1   7
ATOM      7  C2  UNL d   1      -0.943  -2.054  -0.336  0.00  0.00     0.056 C 
BRANCH   7   8
ATOM      8  C1  UNL d   1      -1.038  -2.317  -1.842  0.00  0.00     0.007 C 
ATOM      9  C   UNL d   1      -2.445  -2.682  -2.300  0.00  0.00     0.009 C 
ENDBRANCH   7   8
ENDBRANCH   1   7
TORSDOF 2
ENDMDL
