MODEL 1
REMARK minimizedAffinity -4.12511587
REMARK minimizedRMSD -1
REMARK  2 active torsions:
REMARK  status: ('A' for Active; 'I' for Inactive)
REMARK    1  A    between atoms: C1_2  and  C2_3 
REMARK    2  A    between atoms: C2_3  and  C3_4 
ROOT
ATOM      1  C3  UNL d   1       0.024  -0.036   0.126  0.00  0.00    -0.075 A 
ATOM      2  C4  UNL d   1      -1.154   0.625   0.499  0.00  0.00     0.002 A 
ATOM      3  C5  UNL d   1      -1.148   1.998   0.749  0.00  0.00     0.002 A 
ATOM      4  C6  UNL d   1       0.036   2.723   0.638  0.00  0.00    -0.004 A 
ATOM      5  C7  UNL d   1       1.216   2.074   0.283  0.00  0.00     0.002 A 
ATOM      6  C8  UNL d   1       1.212   0.701   0.029  0.00  0.00     0.002 A 
ENDROOT
BRANCH   1   7
ATOM      7  C2  UNL d   1       0.018  -1.516  -0.174  0.00  0.00     0.056 C 
BRANCH   7   8
ATOM      8  C1  UNL d   1      -0.005  -1.850  -1.670  0.00  0.00     0.007 C 
ATOM      9  C   UNL d   1      -0.831  -3.087  -1.997  0.00  0.00     0.009 C 
ENDBRANCH   7   8
ENDBRANCH   1   7
TORSDOF 2
ENDMDL
