MODEL 1
REMARK minimizedAffinity -0.89820534
REMARK minimizedRMSD -1
REMARK  2 active torsions:
REMARK  status: ('A' for Active; 'I' for Inactive)
REMARK    1  A    between atoms: C1_2  and  C2_3 
REMARK    2  A    between atoms: C2_3  and  C3_4 
ROOT
ATOM      1  C3  UNL d   1       0.151   1.003  -0.174  0.00  0.00    -0.075 A 
ATOM      2  C4  UNL d   1       0.106   2.395  -0.340  0.00  0.00     0.002 A 
ATOM      3  C5  UNL d   1      -0.896   3.149   0.272  0.00  0.00     0.002 A 
ATOM      4  C6  UNL d   1      -1.869   2.522   1.047  0.00  0.00    -0.004 A 
ATOM      5  C7  UNL d   1      -1.844   1.138   1.205  0.00  0.00     0.002 A 
ATOM      6  C8  UNL d   1      -0.840   0.382   0.598  0.00  0.00     0.002 A 
ENDROOT
BRANCH   1   7
ATOM      7  C2  UNL d   1       1.250   0.185  -0.809  0.00  0.00     0.056 C 
BRANCH   7   8
ATOM      8  C1  UNL d   1       2.630   0.399  -0.178  0.00  0.00     0.007 C 
ATOM      9  C   UNL d   1       3.254  -0.886   0.351  0.00  0.00     0.009 C 
ENDBRANCH   7   8
ENDBRANCH   1   7
TORSDOF 2
ENDMDL
