MODEL 1
REMARK minimizedAffinity -5.56410551
REMARK minimizedRMSD -1
REMARK  2 active torsions:
REMARK  status: ('A' for Active; 'I' for Inactive)
REMARK    1  A    between atoms: C1_2  and  C2_3 
REMARK    2  A    between atoms: C2_3  and  C3_4 
ROOT
ATOM      1  C3  UNL d   1      -0.202  -0.376   0.131  0.00  0.00    -0.075 A 
ATOM      2  C4  UNL d   1       0.671   0.499  -0.533  0.00  0.00     0.002 A 
ATOM      3  C5  UNL d   1       0.499   1.880  -0.436  0.00  0.00     0.002 A 
ATOM      4  C6  UNL d   1      -0.551   2.403   0.316  0.00  0.00    -0.004 A 
ATOM      5  C7  UNL d   1      -1.434   1.544   0.965  0.00  0.00     0.002 A 
ATOM      6  C8  UNL d   1      -1.261   0.161   0.874  0.00  0.00     0.002 A 
ENDROOT
BRANCH   1   7
ATOM      7  C2  UNL d   1      -0.004  -1.871   0.054  0.00  0.00     0.056 C 
BRANCH   7   8
ATOM      8  C1  UNL d   1      -0.067  -2.436  -1.369  0.00  0.00     0.007 C 
ATOM      9  C   UNL d   1      -1.227  -3.401  -1.580  0.00  0.00     0.009 C 
ENDBRANCH   7   8
ENDBRANCH   1   7
TORSDOF 2
ENDMDL
