MODEL 1
REMARK minimizedAffinity -3.53806829
REMARK minimizedRMSD -1
REMARK  2 active torsions:
REMARK  status: ('A' for Active; 'I' for Inactive)
REMARK    1  A    between atoms: C1_2  and  C2_3 
REMARK    2  A    between atoms: C2_3  and  C3_4 
ROOT
ATOM      1  C3  UNL d   1      -1.290  -4.883  -1.898  0.00  0.00    -0.075 A 
ATOM      2  C4  UNL d   1      -0.277  -5.529  -2.621  0.00  0.00     0.002 A 
ATOM      3  C5  UNL d   1       0.598  -4.796  -3.424  0.00  0.00     0.002 A 
ATOM      4  C6  UNL d   1       0.464  -3.413  -3.523  0.00  0.00    -0.004 A 
ATOM      5  C7  UNL d   1      -0.549  -2.763  -2.822  0.00  0.00     0.002 A 
ATOM      6  C8  UNL d   1      -1.423  -3.493  -2.015  0.00  0.00     0.002 A 
ENDROOT
BRANCH   1   7
ATOM      7  C2  UNL d   1      -2.222  -5.667  -1.005  0.00  0.00     0.056 C 
BRANCH   7   8
ATOM      8  C1  UNL d   1      -2.886  -4.829   0.093  0.00  0.00     0.007 C 
ATOM      9  C   UNL d   1      -3.764  -5.650   1.027  0.00  0.00     0.009 C 
ENDBRANCH   7   8
ENDBRANCH   1   7
TORSDOF 2
ENDMDL
