MODEL 1
REMARK minimizedAffinity -0.156627297
REMARK minimizedRMSD -1
REMARK  2 active torsions:
REMARK  status: ('A' for Active; 'I' for Inactive)
REMARK    1  A    between atoms: C1_2  and  C2_3 
REMARK    2  A    between atoms: C2_3  and  C3_4 
ROOT
ATOM      1  C3  UNL d   1       3.823   3.731  -4.193  0.00  0.00    -0.075 A 
ATOM      2  C4  UNL d   1       3.232   2.843  -5.103  0.00  0.00     0.002 A 
ATOM      3  C5  UNL d   1       4.019   2.116  -5.997  0.00  0.00     0.002 A 
ATOM      4  C6  UNL d   1       5.403   2.275  -5.999  0.00  0.00    -0.004 A 
ATOM      5  C7  UNL d   1       6.000   3.167  -5.111  0.00  0.00     0.002 A 
ATOM      6  C8  UNL d   1       5.215   3.892  -4.212  0.00  0.00     0.002 A 
ENDROOT
BRANCH   1   7
ATOM      7  C2  UNL d   1       2.979   4.498  -3.203  0.00  0.00     0.056 C 
BRANCH   7   8
ATOM      8  C1  UNL d   1       1.666   5.031  -3.784  0.00  0.00     0.007 C 
ATOM      9  C   UNL d   1       0.459   4.176  -3.424  0.00  0.00     0.009 C 
ENDBRANCH   7   8
ENDBRANCH   1   7
TORSDOF 2
ENDMDL
