MODEL 1
REMARK minimizedAffinity -5.07682562
REMARK minimizedRMSD -1
REMARK  2 active torsions:
REMARK  status: ('A' for Active; 'I' for Inactive)
REMARK    1  A    between atoms: C1_2  and  C2_3 
REMARK    2  A    between atoms: C2_3  and  C3_4 
ROOT
ATOM      1  C3  UNL d   1       0.158  -0.596  -0.158  0.00  0.00    -0.075 A 
ATOM      2  C4  UNL d   1       1.135   0.345  -0.515  0.00  0.00     0.002 A 
ATOM      3  C5  UNL d   1       0.889   1.711  -0.370  0.00  0.00     0.002 A 
ATOM      4  C6  UNL d   1      -0.336   2.153   0.123  0.00  0.00    -0.004 A 
ATOM      5  C7  UNL d   1      -1.320   1.228   0.465  0.00  0.00     0.002 A 
ATOM      6  C8  UNL d   1      -1.076  -0.140   0.325  0.00  0.00     0.002 A 
ENDROOT
BRANCH   1   7
ATOM      7  C2  UNL d   1       0.429  -2.076  -0.284  0.00  0.00     0.056 C 
BRANCH   7   8
ATOM      8  C1  UNL d   1      -0.457  -2.786  -1.314  0.00  0.00     0.007 C 
ATOM      9  C   UNL d   1      -0.007  -2.559  -2.751  0.00  0.00     0.009 C 
ENDBRANCH   7   8
ENDBRANCH   1   7
TORSDOF 2
ENDMDL
