MODEL 1
REMARK minimizedAffinity -5.15327835
REMARK minimizedRMSD -1
REMARK  2 active torsions:
REMARK  status: ('A' for Active; 'I' for Inactive)
REMARK    1  A    between atoms: C1_2  and  C2_3 
REMARK    2  A    between atoms: C2_3  and  C3_4 
ROOT
ATOM      1  C3  UNL d   1      -1.696  -3.424  -1.258  0.00  0.00    -0.075 A 
ATOM      2  C4  UNL d   1      -1.205  -2.712  -0.155  0.00  0.00     0.002 A 
ATOM      3  C5  UNL d   1      -0.103  -1.867  -0.291  0.00  0.00     0.002 A 
ATOM      4  C6  UNL d   1       0.527  -1.732  -1.526  0.00  0.00    -0.004 A 
ATOM      5  C7  UNL d   1       0.058  -2.448  -2.625  0.00  0.00     0.002 A 
ATOM      6  C8  UNL d   1      -1.047  -3.291  -2.493  0.00  0.00     0.002 A 
ENDROOT
BRANCH   1   7
ATOM      7  C2  UNL d   1      -2.906  -4.317  -1.125  0.00  0.00     0.056 C 
BRANCH   7   8
ATOM      8  C1  UNL d   1      -3.294  -4.630   0.324  0.00  0.00     0.007 C 
ATOM      9  C   UNL d   1      -4.397  -5.674   0.439  0.00  0.00     0.009 C 
ENDBRANCH   7   8
ENDBRANCH   1   7
TORSDOF 2
ENDMDL
