MODEL 1
REMARK minimizedAffinity -5.02618837
REMARK minimizedRMSD -1
REMARK  2 active torsions:
REMARK  status: ('A' for Active; 'I' for Inactive)
REMARK    1  A    between atoms: C1_2  and  C2_3 
REMARK    2  A    between atoms: C2_3  and  C3_4 
ROOT
ATOM      1  C3  UNL d   1       0.236  -0.817  -0.137  0.00  0.00    -0.075 A 
ATOM      2  C4  UNL d   1      -0.978  -0.281   0.318  0.00  0.00     0.002 A 
ATOM      3  C5  UNL d   1      -1.175   1.100   0.349  0.00  0.00     0.002 A 
ATOM      4  C6  UNL d   1      -0.161   1.961  -0.064  0.00  0.00    -0.004 A 
ATOM      5  C7  UNL d   1       1.055   1.440  -0.502  0.00  0.00     0.002 A 
ATOM      6  C8  UNL d   1       1.254   0.059  -0.538  0.00  0.00     0.002 A 
ENDROOT
BRANCH   1   7
ATOM      7  C2  UNL d   1       0.445  -2.311  -0.201  0.00  0.00     0.056 C 
BRANCH   7   8
ATOM      8  C1  UNL d   1      -0.666  -3.065  -0.938  0.00  0.00     0.007 C 
ATOM      9  C   UNL d   1      -0.375  -3.267  -2.419  0.00  0.00     0.009 C 
ENDBRANCH   7   8
ENDBRANCH   1   7
TORSDOF 2
ENDMDL
