MODEL 1
REMARK minimizedAffinity -4.4976573
REMARK minimizedRMSD -1
REMARK  2 active torsions:
REMARK  status: ('A' for Active; 'I' for Inactive)
REMARK    1  A    between atoms: C1_2  and  C2_3 
REMARK    2  A    between atoms: C2_3  and  C3_4 
ROOT
ATOM      1  C3  UNL d   1      -0.284  -1.473  -0.555  0.00  0.00    -0.075 A 
ATOM      2  C4  UNL d   1       0.348  -1.591  -1.801  0.00  0.00     0.002 A 
ATOM      3  C5  UNL d   1       0.190  -2.744  -2.570  0.00  0.00     0.002 A 
ATOM      4  C6  UNL d   1      -0.591  -3.797  -2.099  0.00  0.00    -0.004 A 
ATOM      5  C7  UNL d   1      -1.211  -3.698  -0.855  0.00  0.00     0.002 A 
ATOM      6  C8  UNL d   1      -1.058  -2.543  -0.086  0.00  0.00     0.002 A 
ENDROOT
BRANCH   1   7
ATOM      7  C2  UNL d   1      -0.141  -0.216   0.269  0.00  0.00     0.056 C 
BRANCH   7   8
ATOM      8  C1  UNL d   1      -1.402   0.164   1.052  0.00  0.00     0.007 C 
ATOM      9  C   UNL d   1      -2.019   1.479   0.595  0.00  0.00     0.009 C 
ENDBRANCH   7   8
ENDBRANCH   1   7
TORSDOF 2
ENDMDL
