MODEL 1
REMARK minimizedAffinity -0.544872701
REMARK minimizedRMSD -1
REMARK  0 active torsions:
REMARK  status: ('A' for Active; 'I' for Inactive)
ROOT
ATOM      1  C1  DEN d   1      -1.109  -1.675  -4.877  0.00  0.00     0.130 A 
ATOM      2  C2  DEN d   1      -1.821  -0.989  -5.952  0.00  0.00    -0.031 A 
ATOM      3  C3  DEN d   1      -1.341   0.407  -5.999  0.00  0.00     0.027 A 
ATOM      4  C4  DEN d   1       0.430   1.564  -4.523  0.00  0.00     0.027 A 
ATOM      5  C5  DEN d   1       1.300   1.391  -3.470  0.00  0.00    -0.003 A 
ATOM      6  C6  DEN d   1       1.402   0.204  -2.795  0.00  0.00     0.001 A 
ATOM      7  C7  DEN d   1       0.654  -0.871  -3.195  0.00  0.00     0.017 A 
ATOM      8  C8  DEN d   1      -0.231  -0.703  -4.252  0.00  0.00    -0.094 A 
ATOM      9  C9  DEN d   1      -0.311   0.502  -4.930  0.00  0.00    -0.072 A 
ENDROOT
TORSDOF 0
ENDMDL
