MODEL 1
REMARK minimizedAffinity -2.6321032
REMARK minimizedRMSD -1
REMARK  0 active torsions:
REMARK  status: ('A' for Active; 'I' for Inactive)
ROOT
ATOM      1  C1  DEN d   1      -0.670  -0.026  -0.998  0.00  0.00     0.130 A 
ATOM      2  C2  DEN d   1       0.599  -0.571  -1.470  0.00  0.00    -0.031 A 
ATOM      3  C3  DEN d   1       1.508  -0.682  -0.311  0.00  0.00     0.027 A 
ATOM      4  C4  DEN d   1       1.073  -0.069   2.156  0.00  0.00     0.027 A 
ATOM      5  C5  DEN d   1       0.148   0.441   3.040  0.00  0.00    -0.003 A 
ATOM      6  C6  DEN d   1      -1.093   0.860   2.637  0.00  0.00     0.001 A 
ATOM      7  C7  DEN d   1      -1.459   0.733   1.323  0.00  0.00     0.017 A 
ATOM      8  C8  DEN d   1      -0.528   0.227   0.425  0.00  0.00    -0.094 A 
ATOM      9  C9  DEN d   1       0.716  -0.202   0.854  0.00  0.00    -0.072 A 
ENDROOT
TORSDOF 0
ENDMDL
