MODEL 1
REMARK minimizedAffinity -3.39411592
REMARK minimizedRMSD -1
REMARK  0 active torsions:
REMARK  status: ('A' for Active; 'I' for Inactive)
ROOT
ATOM      1  C1  DEN d   1      -1.459  -0.337  -0.806  0.00  0.00     0.130 A 
ATOM      2  C2  DEN d   1      -0.645  -0.425   0.403  0.00  0.00    -0.031 A 
ATOM      3  C3  DEN d   1       0.766  -0.223   0.019  0.00  0.00     0.027 A 
ATOM      4  C4  DEN d   1       1.764   0.222  -2.318  0.00  0.00     0.027 A 
ATOM      5  C5  DEN d   1       1.468   0.371  -3.655  0.00  0.00    -0.003 A 
ATOM      6  C6  DEN d   1       0.190   0.263  -4.137  0.00  0.00     0.001 A 
ATOM      7  C7  DEN d   1      -0.846   0.042  -3.268  0.00  0.00     0.017 A 
ATOM      8  C8  DEN d   1      -0.555  -0.118  -1.920  0.00  0.00    -0.094 A 
ATOM      9  C9  DEN d   1       0.742   0.007  -1.451  0.00  0.00    -0.072 A 
ENDROOT
TORSDOF 0
ENDMDL
