MODEL 1
REMARK minimizedAffinity -5.63057184
REMARK minimizedRMSD -1
REMARK  0 active torsions:
REMARK  status: ('A' for Active; 'I' for Inactive)
ROOT
ATOM      1  C1  DEN d   1       1.668  -0.087  -0.029  0.00  0.00     0.130 A 
ATOM      2  C2  DEN d   1       1.051  -0.168  -1.350  0.00  0.00    -0.031 A 
ATOM      3  C3  DEN d   1      -0.409  -0.031  -1.181  0.00  0.00     0.027 A 
ATOM      4  C4  DEN d   1      -1.767   0.303   0.986  0.00  0.00     0.027 A 
ATOM      5  C5  DEN d   1      -1.684   0.422   2.356  0.00  0.00    -0.003 A 
ATOM      6  C6  DEN d   1      -0.491   0.346   3.024  0.00  0.00     0.001 A 
ATOM      7  C7  DEN d   1       0.673   0.191   2.319  0.00  0.00     0.017 A 
ATOM      8  C8  DEN d   1       0.597   0.063   0.939  0.00  0.00    -0.094 A 
ATOM      9  C9  DEN d   1      -0.618   0.154   0.280  0.00  0.00    -0.072 A 
ENDROOT
TORSDOF 0
ENDMDL
