MODEL 1
REMARK minimizedAffinity -1.08184505
REMARK minimizedRMSD -1
REMARK  0 active torsions:
REMARK  status: ('A' for Active; 'I' for Inactive)
ROOT
ATOM      1  C1  DEN d   1      -0.895   0.427   0.310  0.00  0.00     0.130 A 
ATOM      2  C2  DEN d   1       0.165   0.131  -0.649  0.00  0.00    -0.031 A 
ATOM      3  C3  DEN d   1       1.353  -0.315   0.107  0.00  0.00     0.027 A 
ATOM      4  C4  DEN d   1       1.649  -0.580   2.655  0.00  0.00     0.027 A 
ATOM      5  C5  DEN d   1       1.031  -0.437   3.878  0.00  0.00    -0.003 A 
ATOM      6  C6  DEN d   1      -0.250   0.031   3.998  0.00  0.00     0.001 A 
ATOM      7  C7  DEN d   1      -0.971   0.332   2.873  0.00  0.00     0.017 A 
ATOM      8  C8  DEN d   1      -0.352   0.199   1.637  0.00  0.00    -0.094 A 
ATOM      9  C9  DEN d   1       0.940  -0.289   1.536  0.00  0.00    -0.072 A 
ENDROOT
TORSDOF 0
ENDMDL
