MODEL 1
REMARK minimizedAffinity -1.76608539
REMARK minimizedRMSD -1
REMARK  0 active torsions:
REMARK  status: ('A' for Active; 'I' for Inactive)
ROOT
ATOM      1  C1  DEN d   1       1.903  -0.350   2.268  0.00  0.00     0.130 A 
ATOM      2  C2  DEN d   1       2.649  -0.848   1.115  0.00  0.00    -0.031 A 
ATOM      3  C3  DEN d   1       1.761  -0.789  -0.063  0.00  0.00     0.027 A 
ATOM      4  C4  DEN d   1      -0.681   0.026  -0.215  0.00  0.00     0.027 A 
ATOM      5  C5  DEN d   1      -1.743   0.530   0.503  0.00  0.00    -0.003 A 
ATOM      6  C6  DEN d   1      -1.676   0.743   1.854  0.00  0.00     0.001 A 
ATOM      7  C7  DEN d   1      -0.507   0.492   2.523  0.00  0.00     0.017 A 
ATOM      8  C8  DEN d   1       0.566  -0.023   1.807  0.00  0.00    -0.094 A 
ATOM      9  C9  DEN d   1       0.482  -0.220   0.440  0.00  0.00    -0.072 A 
ENDROOT
TORSDOF 0
ENDMDL
