MODEL 1
REMARK minimizedAffinity -3.30689669
REMARK minimizedRMSD -1
REMARK  0 active torsions:
REMARK  status: ('A' for Active; 'I' for Inactive)
ROOT
ATOM      1  C1  DEN d   1      -1.825   0.935   1.772  0.00  0.00     0.130 A 
ATOM      2  C2  DEN d   1      -2.916   1.091   0.815  0.00  0.00    -0.031 A 
ATOM      3  C3  DEN d   1      -2.498   0.473  -0.459  0.00  0.00     0.027 A 
ATOM      4  C4  DEN d   1      -0.279  -0.709  -1.038  0.00  0.00     0.027 A 
ATOM      5  C5  DEN d   1       0.957  -1.076  -0.553  0.00  0.00    -0.003 A 
ATOM      6  C6  DEN d   1       1.362  -0.772   0.719  0.00  0.00     0.001 A 
ATOM      7  C7  DEN d   1       0.506  -0.119   1.566  0.00  0.00     0.017 A 
ATOM      8  C8  DEN d   1      -0.739   0.261   1.082  0.00  0.00    -0.094 A 
ATOM      9  C9  DEN d   1      -1.135  -0.066  -0.203  0.00  0.00    -0.072 A 
ENDROOT
TORSDOF 0
ENDMDL
