MODEL 1
REMARK minimizedAffinity -0.810001612
REMARK minimizedRMSD -1
REMARK  0 active torsions:
REMARK  status: ('A' for Active; 'I' for Inactive)
ROOT
ATOM      1  C   UNL d   1       5.311  -5.512   5.668  0.00  0.00    -0.002 A 
ATOM      2  C1  UNL d   1       4.141  -5.461   4.924  0.00  0.00     0.010 A 
ATOM      3  C2  UNL d   1       3.624  -4.237   4.496  0.00  0.00     0.041 A 
ATOM      4  C3  UNL d   1       4.310  -3.053   4.830  0.00  0.00    -0.075 A 
ATOM      5  S   UNL d   1       3.864  -1.440   4.414  0.00  0.00     0.015 SA
ATOM      6  C4  UNL d   1       5.217  -0.780   5.214  0.00  0.00     0.022 A 
ATOM      7  C5  UNL d   1       6.000  -1.752   5.790  0.00  0.00     0.026 A 
ATOM      8  C6  UNL d   1       5.490  -3.078   5.578  0.00  0.00    -0.082 A 
ATOM      9  C7  UNL d   1       5.989  -4.335   5.998  0.00  0.00     0.045 A 
ENDROOT
TORSDOF 0
ENDMDL
