MODEL 1
REMARK minimizedAffinity 10.4738178
REMARK minimizedRMSD -1
REMARK  0 active torsions:
REMARK  status: ('A' for Active; 'I' for Inactive)
ROOT
ATOM      1  C   UNL d   1       4.767   2.215   5.135  0.00  0.00    -0.002 A 
ATOM      2  C1  UNL d   1       4.265   1.934   3.872  0.00  0.00     0.010 A 
ATOM      3  C2  UNL d   1       4.341   0.642   3.348  0.00  0.00     0.041 A 
ATOM      4  C3  UNL d   1       4.933  -0.374   4.124  0.00  0.00    -0.075 A 
ATOM      5  S   UNL d   1       5.135  -2.030   3.688  0.00  0.00     0.015 SA
ATOM      6  C4  UNL d   1       5.890  -2.405   5.169  0.00  0.00     0.022 A 
ATOM      7  C5  UNL d   1       5.995  -1.305   5.988  0.00  0.00     0.026 A 
ATOM      8  C6  UNL d   1       5.444  -0.116   5.399  0.00  0.00    -0.082 A 
ATOM      9  C7  UNL d   1       5.353   1.204   5.901  0.00  0.00     0.045 A 
ENDROOT
TORSDOF 0
ENDMDL
