MODEL 1
REMARK minimizedAffinity 8.21242714
REMARK minimizedRMSD -1
REMARK  0 active torsions:
REMARK  status: ('A' for Active; 'I' for Inactive)
ROOT
ATOM      1  C   UNL d   1       0.610   2.659  -0.521  0.00  0.00    -0.002 A 
ATOM      2  C1  UNL d   1       0.753   1.485  -1.246  0.00  0.00     0.010 A 
ATOM      3  C2  UNL d   1       0.305   0.269  -0.726  0.00  0.00     0.041 A 
ATOM      4  C3  UNL d   1      -0.297   0.254   0.548  0.00  0.00    -0.075 A 
ATOM      5  S   UNL d   1      -0.922  -1.117   1.386  0.00  0.00     0.015 SA
ATOM      6  C4  UNL d   1      -1.394  -0.175   2.726  0.00  0.00     0.022 A 
ATOM      7  C5  UNL d   1      -1.090   1.154   2.556  0.00  0.00     0.026 A 
ATOM      8  C6  UNL d   1      -0.453   1.424   1.297  0.00  0.00    -0.082 A 
ATOM      9  C7  UNL d   1       0.013   2.640   0.742  0.00  0.00     0.045 A 
ENDROOT
TORSDOF 0
ENDMDL
