MODEL 1
REMARK minimizedAffinity 8.36228943
REMARK minimizedRMSD -1
REMARK  0 active torsions:
REMARK  status: ('A' for Active; 'I' for Inactive)
ROOT
ATOM      1  C   UNL d   1       1.933  -0.758  -2.606  0.00  0.00    -0.002 A 
ATOM      2  C1  UNL d   1       1.135   0.355  -2.386  0.00  0.00     0.010 A 
ATOM      3  C2  UNL d   1       0.067   0.298  -1.489  0.00  0.00     0.041 A 
ATOM      4  C3  UNL d   1      -0.187  -0.909  -0.807  0.00  0.00    -0.075 A 
ATOM      5  S   UNL d   1      -1.438  -1.213   0.339  0.00  0.00     0.015 SA
ATOM      6  C4  UNL d   1      -0.942  -2.828   0.564  0.00  0.00     0.022 A 
ATOM      7  C5  UNL d   1       0.150  -3.144  -0.208  0.00  0.00     0.026 A 
ATOM      8  C6  UNL d   1       0.604  -2.044  -1.011  0.00  0.00    -0.082 A 
ATOM      9  C7  UNL d   1       1.678  -1.954  -1.929  0.00  0.00     0.045 A 
ENDROOT
TORSDOF 0
ENDMDL
