MODEL 1
REMARK minimizedAffinity 13.706954
REMARK minimizedRMSD -1
REMARK  0 active torsions:
REMARK  status: ('A' for Active; 'I' for Inactive)
ROOT
ATOM      1  C   UNL d   1       1.256   2.817  -0.752  0.00  0.00    -0.002 A 
ATOM      2  C1  UNL d   1       0.833   3.483   0.390  0.00  0.00     0.010 A 
ATOM      3  C2  UNL d   1       0.104   2.814   1.374  0.00  0.00     0.041 A 
ATOM      4  C3  UNL d   1      -0.194   1.449   1.191  0.00  0.00    -0.075 A 
ATOM      5  S   UNL d   1      -1.073   0.424   2.264  0.00  0.00     0.015 SA
ATOM      6  C4  UNL d   1      -0.908  -0.922   1.232  0.00  0.00     0.022 A 
ATOM      7  C5  UNL d   1      -0.202  -0.615   0.093  0.00  0.00     0.026 A 
ATOM      8  C6  UNL d   1       0.221   0.756   0.051  0.00  0.00    -0.082 A 
ATOM      9  C7  UNL d   1       0.958   1.464  -0.930  0.00  0.00     0.045 A 
ENDROOT
TORSDOF 0
ENDMDL
