MODEL 1
REMARK minimizedAffinity 3.90183616
REMARK minimizedRMSD -1
REMARK  0 active torsions:
REMARK  status: ('A' for Active; 'I' for Inactive)
ROOT
ATOM      1  C   UNL d   1       4.660   1.227   1.710  0.00  0.00    -0.002 A 
ATOM      2  C1  UNL d   1       4.834   0.027   2.384  0.00  0.00     0.010 A 
ATOM      3  C2  UNL d   1       5.249   0.015   3.718  0.00  0.00     0.041 A 
ATOM      4  C3  UNL d   1       5.486   1.241   4.369  0.00  0.00    -0.075 A 
ATOM      5  S   UNL d   1       5.999   1.471   5.999  0.00  0.00     0.015 SA
ATOM      6  C4  UNL d   1       5.997   3.167   5.839  0.00  0.00     0.022 A 
ATOM      7  C5  UNL d   1       5.618   3.566   4.579  0.00  0.00     0.026 A 
ATOM      8  C6  UNL d   1       5.316   2.463   3.711  0.00  0.00    -0.082 A 
ATOM      9  C7  UNL d   1       4.896   2.442   2.359  0.00  0.00     0.045 A 
ENDROOT
TORSDOF 0
ENDMDL
