MODEL 1
REMARK minimizedAffinity 1.8813076
REMARK minimizedRMSD -1
REMARK  0 active torsions:
REMARK  status: ('A' for Active; 'I' for Inactive)
ROOT
ATOM      1  C   UNL d   1       5.866  -2.048   3.912  0.00  0.00    -0.002 A 
ATOM      2  C1  UNL d   1       5.617  -2.075   5.277  0.00  0.00     0.010 A 
ATOM      3  C2  UNL d   1       5.493  -0.887   6.000  0.00  0.00     0.041 A 
ATOM      4  C3  UNL d   1       5.624   0.341   5.321  0.00  0.00    -0.075 A 
ATOM      5  S   UNL d   1       5.510   1.922   6.000  0.00  0.00     0.015 SA
ATOM      6  C4  UNL d   1       5.788   2.670   4.494  0.00  0.00     0.022 A 
ATOM      7  C5  UNL d   1       5.966   1.751   3.487  0.00  0.00     0.026 A 
ATOM      8  C6  UNL d   1       5.874   0.394   3.947  0.00  0.00    -0.082 A 
ATOM      9  C7  UNL d   1       5.995  -0.828   3.242  0.00  0.00     0.045 A 
ENDROOT
TORSDOF 0
ENDMDL
