MODEL 1
REMARK minimizedAffinity 0.960862577
REMARK minimizedRMSD -1
REMARK  0 active torsions:
REMARK  status: ('A' for Active; 'I' for Inactive)
ROOT
ATOM      1  C   UNL d   1       5.600  -1.227   5.672  0.00  0.00    -0.002 A 
ATOM      2  C1  UNL d   1       4.906  -1.471   4.496  0.00  0.00     0.010 A 
ATOM      3  C2  UNL d   1       4.594  -0.425   3.625  0.00  0.00     0.041 A 
ATOM      4  C3  UNL d   1       4.999   0.883   3.959  0.00  0.00    -0.075 A 
ATOM      5  S   UNL d   1       4.729   2.319   3.044  0.00  0.00     0.015 SA
ATOM      6  C4  UNL d   1       5.530   3.290   4.193  0.00  0.00     0.022 A 
ATOM      7  C5  UNL d   1       5.998   2.553   5.255  0.00  0.00     0.026 A 
ATOM      8  C6  UNL d   1       5.700   1.153   5.137  0.00  0.00    -0.082 A 
ATOM      9  C7  UNL d   1       6.000   0.072   6.000  0.00  0.00     0.045 A 
ENDROOT
TORSDOF 0
ENDMDL
