MODEL 1
REMARK minimizedAffinity 0.288555682
REMARK minimizedRMSD -1
REMARK  0 active torsions:
REMARK  status: ('A' for Active; 'I' for Inactive)
ROOT
ATOM      1  C   UNL d   1       5.996  -2.074   3.880  0.00  0.00    -0.002 A 
ATOM      2  C1  UNL d   1       5.969  -2.098   5.268  0.00  0.00     0.010 A 
ATOM      3  C2  UNL d   1       5.927  -0.910   5.999  0.00  0.00     0.041 A 
ATOM      4  C3  UNL d   1       5.911   0.317   5.305  0.00  0.00    -0.075 A 
ATOM      5  S   UNL d   1       5.860   1.898   5.991  0.00  0.00     0.015 SA
ATOM      6  C4  UNL d   1       5.871   2.644   4.458  0.00  0.00     0.022 A 
ATOM      7  C5  UNL d   1       5.914   1.724   3.437  0.00  0.00     0.026 A 
ATOM      8  C6  UNL d   1       5.937   0.367   3.909  0.00  0.00    -0.082 A 
ATOM      9  C7  UNL d   1       5.980  -0.855   3.196  0.00  0.00     0.045 A 
ENDROOT
TORSDOF 0
ENDMDL
