MODEL 1
REMARK minimizedAffinity 1.35901439
REMARK minimizedRMSD -1
REMARK  0 active torsions:
REMARK  status: ('A' for Active; 'I' for Inactive)
ROOT
ATOM      1  C   UNL d   1       5.713   0.903   3.872  0.00  0.00    -0.002 A 
ATOM      2  C1  UNL d   1       5.747   0.935   5.259  0.00  0.00     0.010 A 
ATOM      3  C2  UNL d   1       5.833  -0.249   5.995  0.00  0.00     0.041 A 
ATOM      4  C3  UNL d   1       5.886  -1.477   5.307  0.00  0.00    -0.075 A 
ATOM      5  S   UNL d   1       5.995  -3.052   5.999  0.00  0.00     0.015 SA
ATOM      6  C4  UNL d   1       6.000  -3.805   4.469  0.00  0.00     0.022 A 
ATOM      7  C5  UNL d   1       5.921  -2.892   3.445  0.00  0.00     0.026 A 
ATOM      8  C6  UNL d   1       5.855  -1.535   3.910  0.00  0.00    -0.082 A 
ATOM      9  C7  UNL d   1       5.766  -0.317   3.193  0.00  0.00     0.045 A 
ENDROOT
TORSDOF 0
ENDMDL
