MODEL 1
REMARK minimizedAffinity -0.0348627083
REMARK minimizedRMSD -1
REMARK  0 active torsions:
REMARK  status: ('A' for Active; 'I' for Inactive)
ROOT
ATOM      1  C   UNL d   1       5.262  -0.800   4.019  0.00  0.00    -0.002 A 
ATOM      2  C1  UNL d   1       5.743  -0.816   5.320  0.00  0.00     0.010 A 
ATOM      3  C2  UNL d   1       5.999   0.378   5.998  0.00  0.00     0.041 A 
ATOM      4  C3  UNL d   1       5.759   1.600   5.339  0.00  0.00    -0.075 A 
ATOM      5  S   UNL d   1       5.999   3.186   5.971  0.00  0.00     0.015 SA
ATOM      6  C4  UNL d   1       5.468   3.922   4.529  0.00  0.00     0.022 A 
ATOM      7  C5  UNL d   1       5.113   2.995   3.577  0.00  0.00     0.026 A 
ATOM      8  C6  UNL d   1       5.274   1.642   4.029  0.00  0.00    -0.082 A 
ATOM      9  C7  UNL d   1       5.025   0.414   3.369  0.00  0.00     0.045 A 
ENDROOT
TORSDOF 0
ENDMDL
