MODEL 1
REMARK minimizedAffinity -2.04226851
REMARK minimizedRMSD -1
REMARK  0 active torsions:
REMARK  status: ('A' for Active; 'I' for Inactive)
ROOT
ATOM      1  C   UNL d   1       5.596   3.382   3.914  0.00  0.00    -0.002 A 
ATOM      2  C1  UNL d   1       5.861   3.411   5.276  0.00  0.00     0.010 A 
ATOM      3  C2  UNL d   1       5.998   2.223   5.998  0.00  0.00     0.041 A 
ATOM      4  C3  UNL d   1       5.866   0.995   5.321  0.00  0.00    -0.075 A 
ATOM      5  S   UNL d   1       5.996  -0.585   5.999  0.00  0.00     0.015 SA
ATOM      6  C4  UNL d   1       5.704  -1.335   4.497  0.00  0.00     0.022 A 
ATOM      7  C5  UNL d   1       5.509  -0.418   3.492  0.00  0.00     0.026 A 
ATOM      8  C6  UNL d   1       5.600   0.940   3.950  0.00  0.00    -0.082 A 
ATOM      9  C7  UNL d   1       5.465   2.161   3.246  0.00  0.00     0.045 A 
ENDROOT
TORSDOF 0
ENDMDL
