MODEL 1
REMARK minimizedAffinity -0.348674774
REMARK minimizedRMSD -1
REMARK  0 active torsions:
REMARK  status: ('A' for Active; 'I' for Inactive)
ROOT
ATOM      1  C   UNL d   1       5.760   3.233   3.896  0.00  0.00    -0.002 A 
ATOM      2  C1  UNL d   1       5.942   3.255   5.271  0.00  0.00     0.010 A 
ATOM      3  C2  UNL d   1       5.999   2.065   5.999  0.00  0.00     0.041 A 
ATOM      4  C3  UNL d   1       5.870   0.840   5.315  0.00  0.00    -0.075 A 
ATOM      5  S   UNL d   1       5.909  -0.742   5.999  0.00  0.00     0.015 SA
ATOM      6  C4  UNL d   1       5.687  -1.484   4.481  0.00  0.00     0.022 A 
ATOM      7  C5  UNL d   1       5.583  -0.563   3.467  0.00  0.00     0.026 A 
ATOM      8  C6  UNL d   1       5.687   0.792   3.930  0.00  0.00    -0.082 A 
ATOM      9  C7  UNL d   1       5.633   2.016   3.220  0.00  0.00     0.045 A 
ENDROOT
TORSDOF 0
ENDMDL
