MODEL 1
REMARK minimizedAffinity 1.11335731
REMARK minimizedRMSD -1
REMARK  2 active torsions:
REMARK  status: ('A' for Active; 'I' for Inactive)
REMARK    1  A    between atoms: C1_2  and  C2_3 
REMARK    2  A    between atoms: C2_3  and  C3_4 
ROOT
ATOM      1  C3  UNL d   1       0.706   1.273   0.498  0.00  0.00    -0.075 A 
ATOM      2  C4  UNL d   1      -0.416   1.161   1.333  0.00  0.00     0.002 A 
ATOM      3  C5  UNL d   1      -0.790  -0.078   1.853  0.00  0.00     0.002 A 
ATOM      4  C6  UNL d   1      -0.056  -1.219   1.539  0.00  0.00    -0.004 A 
ATOM      5  C7  UNL d   1       1.050  -1.123   0.698  0.00  0.00     0.002 A 
ATOM      6  C8  UNL d   1       1.429   0.116   0.179  0.00  0.00     0.002 A 
ENDROOT
BRANCH   1   7
ATOM      7  C2  UNL d   1       1.133   2.616  -0.045  0.00  0.00     0.056 C 
BRANCH   7   8
ATOM      8  C1  UNL d   1       2.232   3.299   0.775  0.00  0.00     0.007 C 
ATOM      9  C   UNL d   1       3.559   2.552   0.742  0.00  0.00     0.009 C 
ENDBRANCH   7   8
ENDBRANCH   1   7
TORSDOF 2
ENDMDL
