MODEL 1
REMARK minimizedAffinity -0.130552903
REMARK minimizedRMSD -1
REMARK  2 active torsions:
REMARK  status: ('A' for Active; 'I' for Inactive)
REMARK    1  A    between atoms: C1_2  and  C2_3 
REMARK    2  A    between atoms: C2_3  and  C3_4 
ROOT
ATOM      1  C3  UNL d   1       1.032   1.798  -0.058  0.00  0.00    -0.075 A 
ATOM      2  C4  UNL d   1      -0.180   2.499   0.014  0.00  0.00     0.002 A 
ATOM      3  C5  UNL d   1      -0.190   3.878   0.228  0.00  0.00     0.002 A 
ATOM      4  C6  UNL d   1       1.010   4.570   0.382  0.00  0.00    -0.004 A 
ATOM      5  C7  UNL d   1       2.219   3.881   0.329  0.00  0.00     0.002 A 
ATOM      6  C8  UNL d   1       2.232   2.502   0.111  0.00  0.00     0.002 A 
ENDROOT
BRANCH   1   7
ATOM      7  C2  UNL d   1       1.050   0.311  -0.319  0.00  0.00     0.056 C 
BRANCH   7   8
ATOM      8  C1  UNL d   1       0.980  -0.063  -1.803  0.00  0.00     0.007 C 
ATOM      9  C   UNL d   1       0.948  -1.567  -2.043  0.00  0.00     0.009 C 
ENDBRANCH   7   8
ENDBRANCH   1   7
TORSDOF 2
ENDMDL
