MODEL 1
REMARK minimizedAffinity 4.72166348
REMARK minimizedRMSD -1
REMARK  2 active torsions:
REMARK  status: ('A' for Active; 'I' for Inactive)
REMARK    1  A    between atoms: C1_2  and  C2_3 
REMARK    2  A    between atoms: C2_3  and  C3_4 
ROOT
ATOM      1  C3  UNL d   1      -2.585   1.888   0.135  0.00  0.00    -0.075 A 
ATOM      2  C4  UNL d   1      -2.044   0.842   0.897  0.00  0.00     0.002 A 
ATOM      3  C5  UNL d   1      -0.759   0.945   1.429  0.00  0.00     0.002 A 
ATOM      4  C6  UNL d   1       0.005   2.087   1.199  0.00  0.00    -0.004 A 
ATOM      5  C7  UNL d   1      -0.516   3.125   0.430  0.00  0.00     0.002 A 
ATOM      6  C8  UNL d   1      -1.803   3.027  -0.101  0.00  0.00     0.002 A 
ENDROOT
BRANCH   1   7
ATOM      7  C2  UNL d   1      -3.986   1.795  -0.420  0.00  0.00     0.056 C 
BRANCH   7   8
ATOM      8  C1  UNL d   1      -4.979   1.090   0.509  0.00  0.00     0.007 C 
ATOM      9  C   UNL d   1      -5.106  -0.402   0.231  0.00  0.00     0.009 C 
ENDBRANCH   7   8
ENDBRANCH   1   7
TORSDOF 2
ENDMDL
