MODEL 1
REMARK minimizedAffinity 3.8851161
REMARK minimizedRMSD -1
REMARK  2 active torsions:
REMARK  status: ('A' for Active; 'I' for Inactive)
REMARK    1  A    between atoms: C1_2  and  C2_3 
REMARK    2  A    between atoms: C2_3  and  C3_4 
ROOT
ATOM      1  C3  UNL d   1       0.612   1.392   0.657  0.00  0.00    -0.075 A 
ATOM      2  C4  UNL d   1       0.313   2.716   1.009  0.00  0.00     0.002 A 
ATOM      3  C5  UNL d   1      -0.589   2.989   2.038  0.00  0.00     0.002 A 
ATOM      4  C6  UNL d   1      -1.210   1.945   2.719  0.00  0.00    -0.004 A 
ATOM      5  C7  UNL d   1      -0.933   0.625   2.366  0.00  0.00     0.002 A 
ATOM      6  C8  UNL d   1      -0.028   0.349   1.340  0.00  0.00     0.002 A 
ENDROOT
BRANCH   1   7
ATOM      7  C2  UNL d   1       1.610   1.090  -0.436  0.00  0.00     0.056 C 
BRANCH   7   8
ATOM      8  C1  UNL d   1       2.970   0.606   0.078  0.00  0.00     0.007 C 
ATOM      9  C   UNL d   1       3.930   1.743   0.398  0.00  0.00     0.009 C 
ENDBRANCH   7   8
ENDBRANCH   1   7
TORSDOF 2
ENDMDL
