MODEL 1
REMARK minimizedAffinity 5.1094594
REMARK minimizedRMSD -1
REMARK  2 active torsions:
REMARK  status: ('A' for Active; 'I' for Inactive)
REMARK    1  A    between atoms: C1_2  and  C2_3 
REMARK    2  A    between atoms: C2_3  and  C3_4 
ROOT
ATOM      1  C3  UNL d   1       2.250   0.528  -0.812  0.00  0.00    -0.075 A 
ATOM      2  C4  UNL d   1       1.664  -0.710  -0.514  0.00  0.00     0.002 A 
ATOM      3  C5  UNL d   1       0.880  -1.370  -1.461  0.00  0.00     0.002 A 
ATOM      4  C6  UNL d   1       0.664  -0.796  -2.712  0.00  0.00    -0.004 A 
ATOM      5  C7  UNL d   1       1.228   0.441  -3.013  0.00  0.00     0.002 A 
ATOM      6  C8  UNL d   1       2.016   1.101  -2.069  0.00  0.00     0.002 A 
ENDROOT
BRANCH   1   7
ATOM      7  C2  UNL d   1       3.124   1.233   0.198  0.00  0.00     0.056 C 
BRANCH   7   8
ATOM      8  C1  UNL d   1       2.385   2.277   1.041  0.00  0.00     0.007 C 
ATOM      9  C   UNL d   1       3.162   2.710   2.277  0.00  0.00     0.009 C 
ENDBRANCH   7   8
ENDBRANCH   1   7
TORSDOF 2
ENDMDL
