MODEL 1
REMARK minimizedAffinity 3.44394231
REMARK minimizedRMSD -1
REMARK  2 active torsions:
REMARK  status: ('A' for Active; 'I' for Inactive)
REMARK    1  A    between atoms: C1_2  and  C2_3 
REMARK    2  A    between atoms: C2_3  and  C3_4 
ROOT
ATOM      1  C3  UNL d   1       2.688   1.147  -0.590  0.00  0.00    -0.075 A 
ATOM      2  C4  UNL d   1       3.970   0.913  -1.107  0.00  0.00     0.002 A 
ATOM      3  C5  UNL d   1       4.141   0.570  -2.449  0.00  0.00     0.002 A 
ATOM      4  C6  UNL d   1       3.035   0.447  -3.286  0.00  0.00    -0.004 A 
ATOM      5  C7  UNL d   1       1.755   0.660  -2.779  0.00  0.00     0.002 A 
ATOM      6  C8  UNL d   1       1.581   1.007  -1.438  0.00  0.00     0.002 A 
ENDROOT
BRANCH   1   7
ATOM      7  C2  UNL d   1       2.498   1.547   0.853  0.00  0.00     0.056 C 
BRANCH   7   8
ATOM      8  C1  UNL d   1       1.535   2.722   1.053  0.00  0.00     0.007 C 
ATOM      9  C   UNL d   1       2.245   4.059   1.215  0.00  0.00     0.009 C 
ENDBRANCH   7   8
ENDBRANCH   1   7
TORSDOF 2
ENDMDL
