MODEL 1
REMARK minimizedAffinity -0.861724794
REMARK minimizedRMSD -1
REMARK  2 active torsions:
REMARK  status: ('A' for Active; 'I' for Inactive)
REMARK    1  A    between atoms: C1_2  and  C2_3 
REMARK    2  A    between atoms: C2_3  and  C3_4 
ROOT
ATOM      1  C3  UNL d   1       1.076   2.084   0.356  0.00  0.00    -0.075 A 
ATOM      2  C4  UNL d   1       2.132   2.911   0.763  0.00  0.00     0.002 A 
ATOM      3  C5  UNL d   1       3.412   2.386   0.950  0.00  0.00     0.002 A 
ATOM      4  C6  UNL d   1       3.648   1.029   0.742  0.00  0.00    -0.004 A 
ATOM      5  C7  UNL d   1       2.602   0.195   0.354  0.00  0.00     0.002 A 
ATOM      6  C8  UNL d   1       1.322   0.718   0.163  0.00  0.00     0.002 A 
ENDROOT
BRANCH   1   7
ATOM      7  C2  UNL d   1      -0.304   2.651   0.124  0.00  0.00     0.056 C 
BRANCH   7   8
ATOM      8  C1  UNL d   1      -1.361   2.146   1.112  0.00  0.00     0.007 C 
ATOM      9  C   UNL d   1      -2.620   1.626   0.431  0.00  0.00     0.009 C 
ENDBRANCH   7   8
ENDBRANCH   1   7
TORSDOF 2
ENDMDL
