MODEL 1
REMARK minimizedAffinity 2.06242394
REMARK minimizedRMSD -1
REMARK  2 active torsions:
REMARK  status: ('A' for Active; 'I' for Inactive)
REMARK    1  A    between atoms: C1_2  and  C2_3 
REMARK    2  A    between atoms: C2_3  and  C3_4 
ROOT
ATOM      1  C3  UNL d   1       1.087   2.826   1.251  0.00  0.00    -0.075 A 
ATOM      2  C4  UNL d   1       1.052   2.748   2.651  0.00  0.00     0.002 A 
ATOM      3  C5  UNL d   1      -0.127   3.019   3.347  0.00  0.00     0.002 A 
ATOM      4  C6  UNL d   1      -1.280   3.381   2.655  0.00  0.00    -0.004 A 
ATOM      5  C7  UNL d   1      -1.253   3.478   1.265  0.00  0.00     0.002 A 
ATOM      6  C8  UNL d   1      -0.076   3.203   0.566  0.00  0.00     0.002 A 
ENDROOT
BRANCH   1   7
ATOM      7  C2  UNL d   1       2.351   2.506   0.491  0.00  0.00     0.056 C 
BRANCH   7   8
ATOM      8  C1  UNL d   1       2.942   1.130   0.815  0.00  0.00     0.007 C 
ATOM      9  C   UNL d   1       2.017  -0.023   0.447  0.00  0.00     0.009 C 
ENDBRANCH   7   8
ENDBRANCH   1   7
TORSDOF 2
ENDMDL
