MODEL 1
REMARK minimizedAffinity 8.43384933
REMARK minimizedRMSD -1
REMARK  2 active torsions:
REMARK  status: ('A' for Active; 'I' for Inactive)
REMARK    1  A    between atoms: C1_2  and  C2_3 
REMARK    2  A    between atoms: C2_3  and  C3_4 
ROOT
ATOM      1  C3  UNL d   1       2.346   0.745  -0.513  0.00  0.00    -0.075 A 
ATOM      2  C4  UNL d   1       1.872   1.239  -1.737  0.00  0.00     0.002 A 
ATOM      3  C5  UNL d   1       1.582   0.368  -2.788  0.00  0.00     0.002 A 
ATOM      4  C6  UNL d   1       1.770  -1.003  -2.632  0.00  0.00    -0.004 A 
ATOM      5  C7  UNL d   1       2.256  -1.503  -1.426  0.00  0.00     0.002 A 
ATOM      6  C8  UNL d   1       2.543  -0.635  -0.371  0.00  0.00     0.002 A 
ENDROOT
BRANCH   1   7
ATOM      7  C2  UNL d   1       2.634   1.680   0.638  0.00  0.00     0.056 C 
BRANCH   7   8
ATOM      8  C1  UNL d   1       1.641   2.840   0.763  0.00  0.00     0.007 C 
ATOM      9  C   UNL d   1       0.235   2.390   1.139  0.00  0.00     0.009 C 
ENDBRANCH   7   8
ENDBRANCH   1   7
TORSDOF 2
ENDMDL
