MODEL 1
REMARK minimizedAffinity 3.55182338
REMARK minimizedRMSD -1
REMARK  2 active torsions:
REMARK  status: ('A' for Active; 'I' for Inactive)
REMARK    1  A    between atoms: C1_2  and  C2_3 
REMARK    2  A    between atoms: C2_3  and  C3_4 
ROOT
ATOM      1  C3  UNL d   1       1.462   2.510   1.449  0.00  0.00    -0.075 A 
ATOM      2  C4  UNL d   1       2.242   2.250   2.585  0.00  0.00     0.002 A 
ATOM      3  C5  UNL d   1       3.633   2.205   2.494  0.00  0.00     0.002 A 
ATOM      4  C6  UNL d   1       4.261   2.408   1.267  0.00  0.00    -0.004 A 
ATOM      5  C7  UNL d   1       3.495   2.650   0.128  0.00  0.00     0.002 A 
ATOM      6  C8  UNL d   1       2.103   2.701   0.218  0.00  0.00     0.002 A 
ENDROOT
BRANCH   1   7
ATOM      7  C2  UNL d   1      -0.043   2.589   1.547  0.00  0.00     0.056 C 
BRANCH   7   8
ATOM      8  C1  UNL d   1      -0.588   2.370   2.962  0.00  0.00     0.007 C 
ATOM      9  C   UNL d   1      -1.088   3.650   3.618  0.00  0.00     0.009 C 
ENDBRANCH   7   8
ENDBRANCH   1   7
TORSDOF 2
ENDMDL
