MODEL 1
REMARK minimizedAffinity -2.50847888
REMARK minimizedRMSD -1
REMARK  0 active torsions:
REMARK  status: ('A' for Active; 'I' for Inactive)
ROOT
ATOM      1  C2' OXE d   1       2.233   1.284  -2.991  0.00  0.00     0.078 C 
ATOM      2  C1' OXE d   1       1.082  -1.106  -2.073  0.00  0.00     0.078 C 
ATOM      3  C1  OXE d   1       0.711  -0.633  -3.457  0.00  0.00    -0.078 A 
ATOM      4  C2  OXE d   1       1.243   0.562  -3.880  0.00  0.00    -0.078 A 
ATOM      5  C3  OXE d   1       0.977   1.017  -5.168  0.00  0.00     0.003 A 
ATOM      6  C4  OXE d   1       0.053   0.348  -5.979  0.00  0.00    -0.002 A 
ATOM      7  C5  OXE d   1      -0.531  -0.849  -5.552  0.00  0.00    -0.002 A 
ATOM      8  C6  OXE d   1      -0.180  -1.374  -4.313  0.00  0.00     0.003 A 
ENDROOT
TORSDOF 0
ENDMDL
