MODEL 1
REMARK minimizedAffinity -3.19900894
REMARK minimizedRMSD -1
REMARK  0 active torsions:
REMARK  status: ('A' for Active; 'I' for Inactive)
ROOT
ATOM      1  C2' OXE d   1       1.705  -0.331   1.948  0.00  0.00     0.078 C 
ATOM      2  C1' OXE d   1      -0.728   0.869   2.668  0.00  0.00     0.078 C 
ATOM      3  C1  OXE d   1      -0.577   0.382   1.248  0.00  0.00    -0.078 A 
ATOM      4  C2  OXE d   1       0.634  -0.162   0.892  0.00  0.00    -0.078 A 
ATOM      5  C3  OXE d   1       0.808  -0.678  -0.389  0.00  0.00     0.003 A 
ATOM      6  C4  OXE d   1      -0.185  -0.509  -1.362  0.00  0.00    -0.002 A 
ATOM      7  C5  OXE d   1      -1.411   0.078  -1.031  0.00  0.00    -0.002 A 
ATOM      8  C6  OXE d   1      -1.638   0.489   0.278  0.00  0.00     0.003 A 
ENDROOT
TORSDOF 0
ENDMDL
