MODEL 1
REMARK minimizedAffinity -1.77716601
REMARK minimizedRMSD -1
REMARK  0 active torsions:
REMARK  status: ('A' for Active; 'I' for Inactive)
ROOT
ATOM      1  C2' OXE d   1      -1.255  -0.309  -1.134  0.00  0.00     0.078 C 
ATOM      2  C1' OXE d   1       1.481  -0.827  -0.778  0.00  0.00     0.078 C 
ATOM      3  C1  OXE d   1       1.022  -0.374  -2.142  0.00  0.00    -0.078 A 
ATOM      4  C2  OXE d   1      -0.325  -0.167  -2.319  0.00  0.00    -0.078 A 
ATOM      5  C3  OXE d   1      -0.794   0.304  -3.542  0.00  0.00     0.003 A 
ATOM      6  C4  OXE d   1       0.071   0.423  -4.636  0.00  0.00    -0.002 A 
ATOM      7  C5  OXE d   1       1.441   0.180  -4.487  0.00  0.00    -0.002 A 
ATOM      8  C6  OXE d   1       1.938  -0.178  -3.238  0.00  0.00     0.003 A 
ENDROOT
TORSDOF 0
ENDMDL
