MODEL 1
REMARK minimizedAffinity -1.80087972
REMARK minimizedRMSD -1
REMARK  0 active torsions:
REMARK  status: ('A' for Active; 'I' for Inactive)
ROOT
ATOM      1  C2' OXE d   1       1.901  -0.624   2.242  0.00  0.00     0.078 C 
ATOM      2  C1' OXE d   1      -0.748   0.297   2.357  0.00  0.00     0.078 C 
ATOM      3  C1  OXE d   1      -0.260  -0.281   1.052  0.00  0.00    -0.078 A 
ATOM      4  C2  OXE d   1       1.051  -0.686   0.991  0.00  0.00    -0.078 A 
ATOM      5  C3  OXE d   1       1.537  -1.277  -0.172  0.00  0.00     0.003 A 
ATOM      6  C4  OXE d   1       0.747  -1.322  -1.327  0.00  0.00    -0.002 A 
ATOM      7  C5  OXE d   1      -0.580  -0.878  -1.298  0.00  0.00    -0.002 A 
ATOM      8  C6  OXE d   1      -1.111  -0.395  -0.107  0.00  0.00     0.003 A 
ENDROOT
TORSDOF 0
ENDMDL
