MODEL 1
REMARK minimizedAffinity -1.71500838
REMARK minimizedRMSD -1
REMARK  0 active torsions:
REMARK  status: ('A' for Active; 'I' for Inactive)
ROOT
ATOM      1  C2' OXE d   1       0.199  -2.411  -0.824  0.00  0.00     0.078 C 
ATOM      2  C1' OXE d   1       0.431   0.007   0.582  0.00  0.00     0.078 C 
ATOM      3  C1  OXE d   1       0.532   0.056  -0.922  0.00  0.00    -0.078 A 
ATOM      4  C2  OXE d   1       0.465  -1.138  -1.599  0.00  0.00    -0.078 A 
ATOM      5  C3  OXE d   1       0.498  -1.145  -2.991  0.00  0.00     0.003 A 
ATOM      6  C4  OXE d   1       0.754   0.035  -3.699  0.00  0.00    -0.002 A 
ATOM      7  C5  OXE d   1       0.866   1.257  -3.026  0.00  0.00    -0.002 A 
ATOM      8  C6  OXE d   1       0.715   1.290  -1.645  0.00  0.00     0.003 A 
ENDROOT
TORSDOF 0
ENDMDL
