MODEL 1
REMARK minimizedAffinity -1.90633118
REMARK minimizedRMSD -1
REMARK  0 active torsions:
REMARK  status: ('A' for Active; 'I' for Inactive)
ROOT
ATOM      1  C2' OXE d   1       0.786  -1.024  -0.752  0.00  0.00     0.078 C 
ATOM      2  C1' OXE d   1       1.638  -0.541   1.879  0.00  0.00     0.078 C 
ATOM      3  C1  OXE d   1       0.216  -0.185   1.523  0.00  0.00    -0.078 A 
ATOM      4  C2  OXE d   1      -0.178  -0.381   0.222  0.00  0.00    -0.078 A 
ATOM      5  C3  OXE d   1      -1.495  -0.121  -0.147  0.00  0.00     0.003 A 
ATOM      6  C4  OXE d   1      -2.377   0.483   0.757  0.00  0.00    -0.002 A 
ATOM      7  C5  OXE d   1      -1.984   0.728   2.077  0.00  0.00    -0.002 A 
ATOM      8  C6  OXE d   1      -0.707   0.362   2.487  0.00  0.00     0.003 A 
ENDROOT
TORSDOF 0
ENDMDL
