MODEL 1
REMARK minimizedAffinity -3.86316252
REMARK minimizedRMSD -1
REMARK  0 active torsions:
REMARK  status: ('A' for Active; 'I' for Inactive)
ROOT
ATOM      1  C2' OXE d   1      -1.814   0.675   0.255  0.00  0.00     0.078 C 
ATOM      2  C1' OXE d   1       0.523  -0.623  -0.602  0.00  0.00     0.078 C 
ATOM      3  C1  OXE d   1       0.426  -0.238   0.853  0.00  0.00    -0.078 A 
ATOM      4  C2  OXE d   1      -0.701   0.439   1.254  0.00  0.00    -0.078 A 
ATOM      5  C3  OXE d   1      -0.866   0.769   2.596  0.00  0.00     0.003 A 
ATOM      6  C4  OXE d   1       0.172   0.556   3.511  0.00  0.00    -0.002 A 
ATOM      7  C5  OXE d   1       1.345  -0.096   3.115  0.00  0.00    -0.002 A 
ATOM      8  C6  OXE d   1       1.469  -0.536   1.802  0.00  0.00     0.003 A 
ENDROOT
TORSDOF 0
ENDMDL
