MODEL 1
REMARK minimizedAffinity -2.40723324
REMARK minimizedRMSD -1
REMARK  0 active torsions:
REMARK  status: ('A' for Active; 'I' for Inactive)
ROOT
ATOM      1  C2' OXE d   1      -2.964   0.595  -0.319  0.00  0.00     0.078 C 
ATOM      2  C1' OXE d   1      -1.670   0.315   2.157  0.00  0.00     0.078 C 
ATOM      3  C1  OXE d   1      -0.858   0.079   0.908  0.00  0.00    -0.078 A 
ATOM      4  C2  OXE d   1      -1.511   0.172  -0.298  0.00  0.00    -0.078 A 
ATOM      5  C3  OXE d   1      -0.796   0.017  -1.482  0.00  0.00     0.003 A 
ATOM      6  C4  OXE d   1       0.545  -0.383  -1.454  0.00  0.00    -0.002 A 
ATOM      7  C5  OXE d   1       1.219  -0.523  -0.236  0.00  0.00    -0.002 A 
ATOM      8  C6  OXE d   1       0.545  -0.254   0.950  0.00  0.00     0.003 A 
ENDROOT
TORSDOF 0
ENDMDL
