MODEL 1
REMARK minimizedAffinity -2.82501698
REMARK minimizedRMSD -1
REMARK  0 active torsions:
REMARK  status: ('A' for Active; 'I' for Inactive)
ROOT
ATOM      1  C2' OXE d   1       1.818  -0.942   1.491  0.00  0.00     0.078 C 
ATOM      2  C1' OXE d   1       0.424  -0.408   3.869  0.00  0.00     0.078 C 
ATOM      3  C1  OXE d   1      -0.240  -0.039   2.566  0.00  0.00    -0.078 A 
ATOM      4  C2  OXE d   1       0.469  -0.260   1.410  0.00  0.00    -0.078 A 
ATOM      5  C3  OXE d   1      -0.119   0.012   0.178  0.00  0.00     0.003 A 
ATOM      6  C4  OXE d   1      -1.363   0.651   0.111  0.00  0.00    -0.002 A 
ATOM      7  C5  OXE d   1      -2.085   0.922   1.279  0.00  0.00    -0.002 A 
ATOM      8  C6  OXE d   1      -1.557   0.546   2.509  0.00  0.00     0.003 A 
ENDROOT
TORSDOF 0
ENDMDL
