MODEL 1
REMARK minimizedAffinity -2.01141787
REMARK minimizedRMSD -1
REMARK  0 active torsions:
REMARK  status: ('A' for Active; 'I' for Inactive)
ROOT
ATOM      1  C2' OXE d   1       0.237  -0.431  -1.961  0.00  0.00     0.078 C 
ATOM      2  C1' OXE d   1       1.726  -1.302   0.254  0.00  0.00     0.078 C 
ATOM      3  C1  OXE d   1       0.407  -0.621   0.517  0.00  0.00    -0.078 A 
ATOM      4  C2  OXE d   1      -0.293  -0.156  -0.570  0.00  0.00    -0.078 A 
ATOM      5  C3  OXE d   1      -1.542   0.431  -0.386  0.00  0.00     0.003 A 
ATOM      6  C4  OXE d   1      -2.020   0.690   0.903  0.00  0.00    -0.002 A 
ATOM      7  C5  OXE d   1      -1.304   0.261   2.026  0.00  0.00    -0.002 A 
ATOM      8  C6  OXE d   1      -0.112  -0.433   1.850  0.00  0.00     0.003 A 
ENDROOT
TORSDOF 0
ENDMDL
