MODEL 1
REMARK minimizedAffinity -3.83854771
REMARK minimizedRMSD -1
REMARK  0 active torsions:
REMARK  status: ('A' for Active; 'I' for Inactive)
ROOT
ATOM      1  C   UNL d   1       1.189   4.503  -4.887  0.00  0.00     0.078 C 
ATOM      2  C1  UNL d   1       2.594   4.142  -5.268  0.00  0.00    -0.077 A 
ATOM      3  C2  UNL d   1       3.517   5.128  -5.637  0.00  0.00    -0.001 A 
ATOM      4  C3  UNL d   1       4.818   4.776  -5.999  0.00  0.00     0.003 A 
ATOM      5  C4  UNL d   1       5.208   3.438  -5.995  0.00  0.00    -0.005 A 
ATOM      6  C5  UNL d   1       4.296   2.450  -5.632  0.00  0.00     0.003 A 
ATOM      7  C6  UNL d   1       2.994   2.800  -5.270  0.00  0.00    -0.001 A 
ENDROOT
TORSDOF 0
ENDMDL
