MODEL 1
REMARK minimizedAffinity -1.25097036
REMARK minimizedRMSD -1
REMARK  0 active torsions:
REMARK  status: ('A' for Active; 'I' for Inactive)
ROOT
ATOM      1  C   UNL d   1       1.501   4.212  -5.408  0.00  0.00     0.078 C 
ATOM      2  C1  UNL d   1       2.952   3.892  -5.608  0.00  0.00    -0.077 A 
ATOM      3  C2  UNL d   1       3.895   4.908  -5.804  0.00  0.00    -0.001 A 
ATOM      4  C3  UNL d   1       5.241   4.594  -5.999  0.00  0.00     0.003 A 
ATOM      5  C4  UNL d   1       5.656   3.264  -6.000  0.00  0.00    -0.005 A 
ATOM      6  C5  UNL d   1       4.725   2.246  -5.807  0.00  0.00     0.003 A 
ATOM      7  C6  UNL d   1       3.379   2.558  -5.613  0.00  0.00    -0.001 A 
ENDROOT
TORSDOF 0
ENDMDL
