MODEL 1
REMARK minimizedAffinity -3.40774941
REMARK minimizedRMSD -1
REMARK  0 active torsions:
REMARK  status: ('A' for Active; 'I' for Inactive)
ROOT
ATOM      1  C   UNL d   1       6.000   3.229   2.051  0.00  0.00     0.078 C 
ATOM      2  C1  UNL d   1       5.066   2.057   2.011  0.00  0.00    -0.077 A 
ATOM      3  C2  UNL d   1       5.491   0.782   2.405  0.00  0.00    -0.001 A 
ATOM      4  C3  UNL d   1       4.614  -0.302   2.354  0.00  0.00     0.003 A 
ATOM      5  C4  UNL d   1       3.306  -0.123   1.908  0.00  0.00    -0.005 A 
ATOM      6  C5  UNL d   1       2.874   1.141   1.513  0.00  0.00     0.003 A 
ATOM      7  C6  UNL d   1       3.750   2.227   1.563  0.00  0.00    -0.001 A 
ENDROOT
TORSDOF 0
ENDMDL
