MODEL 1
REMARK minimizedAffinity -2.34899759
REMARK minimizedRMSD -1
REMARK  0 active torsions:
REMARK  status: ('A' for Active; 'I' for Inactive)
ROOT
ATOM      1  C   UNL d   1       3.706   1.898  -5.437  0.00  0.00     0.078 C 
ATOM      2  C1  UNL d   1       3.282   3.322  -5.641  0.00  0.00    -0.077 A 
ATOM      3  C2  UNL d   1       4.229   4.338  -5.817  0.00  0.00    -0.001 A 
ATOM      4  C3  UNL d   1       3.820   5.661  -5.996  0.00  0.00     0.003 A 
ATOM      5  C4  UNL d   1       2.463   5.979  -6.000  0.00  0.00    -0.005 A 
ATOM      6  C5  UNL d   1       1.514   4.975  -5.823  0.00  0.00     0.003 A 
ATOM      7  C6  UNL d   1       1.921   3.652  -5.644  0.00  0.00    -0.001 A 
ENDROOT
TORSDOF 0
ENDMDL
