MODEL 1
REMARK minimizedAffinity -3.09715223
REMARK minimizedRMSD -1
REMARK  0 active torsions:
REMARK  status: ('A' for Active; 'I' for Inactive)
ROOT
ATOM      1  C   UNL d   1       1.504   5.996  -5.747  0.00  0.00     0.078 C 
ATOM      2  C1  UNL d   1       2.713   5.110  -5.687  0.00  0.00    -0.077 A 
ATOM      3  C2  UNL d   1       3.985   5.604  -5.999  0.00  0.00    -0.001 A 
ATOM      4  C3  UNL d   1       5.100   4.765  -5.949  0.00  0.00     0.003 A 
ATOM      5  C4  UNL d   1       4.953   3.427  -5.588  0.00  0.00    -0.005 A 
ATOM      6  C5  UNL d   1       3.690   2.926  -5.278  0.00  0.00     0.003 A 
ATOM      7  C6  UNL d   1       2.574   3.764  -5.328  0.00  0.00    -0.001 A 
ENDROOT
TORSDOF 0
ENDMDL
