MODEL 1
REMARK minimizedAffinity -1.80079448
REMARK minimizedRMSD -1
REMARK  0 active torsions:
REMARK  status: ('A' for Active; 'I' for Inactive)
ROOT
ATOM      1  C   UNL d   1       1.176   4.863  -5.610  0.00  0.00     0.078 C 
ATOM      2  C1  UNL d   1       2.577   4.329  -5.621  0.00  0.00    -0.077 A 
ATOM      3  C2  UNL d   1       2.848   3.007  -5.250  0.00  0.00    -0.001 A 
ATOM      4  C3  UNL d   1       4.159   2.526  -5.255  0.00  0.00     0.003 A 
ATOM      5  C4  UNL d   1       5.209   3.362  -5.631  0.00  0.00    -0.005 A 
ATOM      6  C5  UNL d   1       4.949   4.681  -6.000  0.00  0.00     0.003 A 
ATOM      7  C6  UNL d   1       3.639   5.163  -5.995  0.00  0.00    -0.001 A 
ENDROOT
TORSDOF 0
ENDMDL
