MODEL 1
REMARK minimizedAffinity -3.48538017
REMARK minimizedRMSD -1
REMARK  0 active torsions:
REMARK  status: ('A' for Active; 'I' for Inactive)
ROOT
ATOM      1  C   UNL d   1       0.916   4.531  -5.992  0.00  0.00     0.078 C 
ATOM      2  C1  UNL d   1       2.413   4.447  -5.982  0.00  0.00    -0.077 A 
ATOM      3  C2  UNL d   1       3.200   5.605  -5.990  0.00  0.00    -0.001 A 
ATOM      4  C3  UNL d   1       4.593   5.512  -5.991  0.00  0.00     0.003 A 
ATOM      5  C4  UNL d   1       5.211   4.263  -5.986  0.00  0.00    -0.005 A 
ATOM      6  C5  UNL d   1       4.436   3.105  -5.981  0.00  0.00     0.003 A 
ATOM      7  C6  UNL d   1       3.043   3.196  -5.980  0.00  0.00    -0.001 A 
ENDROOT
TORSDOF 0
ENDMDL
