MODEL 1
REMARK minimizedAffinity -2.64479613
REMARK minimizedRMSD -1
REMARK  0 active torsions:
REMARK  status: ('A' for Active; 'I' for Inactive)
ROOT
ATOM      1  C   UNL d   1       0.992   4.186  -5.984  0.00  0.00     0.078 C 
ATOM      2  C1  UNL d   1       2.483   4.026  -5.997  0.00  0.00    -0.077 A 
ATOM      3  C2  UNL d   1       3.072   2.755  -5.996  0.00  0.00    -0.001 A 
ATOM      4  C3  UNL d   1       4.461   2.621  -5.998  0.00  0.00     0.003 A 
ATOM      5  C4  UNL d   1       5.273   3.753  -5.999  0.00  0.00    -0.005 A 
ATOM      6  C5  UNL d   1       4.697   5.021  -5.998  0.00  0.00     0.003 A 
ATOM      7  C6  UNL d   1       3.308   5.158  -5.996  0.00  0.00    -0.001 A 
ENDROOT
TORSDOF 0
ENDMDL
