MODEL 1
REMARK minimizedAffinity -2.47996068
REMARK minimizedRMSD -1
REMARK  0 active torsions:
REMARK  status: ('A' for Active; 'I' for Inactive)
ROOT
ATOM      1  C   UNL d   1       5.453   5.999  -5.987  0.00  0.00     0.078 C 
ATOM      2  C1  UNL d   1       4.176   5.243  -5.773  0.00  0.00    -0.077 A 
ATOM      3  C2  UNL d   1       4.109   3.863  -5.998  0.00  0.00    -0.001 A 
ATOM      4  C3  UNL d   1       2.911   3.173  -5.804  0.00  0.00     0.003 A 
ATOM      5  C4  UNL d   1       1.771   3.856  -5.387  0.00  0.00    -0.005 A 
ATOM      6  C5  UNL d   1       1.827   5.230  -5.163  0.00  0.00     0.003 A 
ATOM      7  C6  UNL d   1       3.024   5.921  -5.356  0.00  0.00    -0.001 A 
ENDROOT
TORSDOF 0
ENDMDL
