MODEL 1
REMARK minimizedAffinity 8.80453396
REMARK minimizedRMSD -1
REMARK  0 active torsions:
REMARK  status: ('A' for Active; 'I' for Inactive)
ROOT
ATOM      1  C   UNL d   1       4.409   5.759  -5.809  0.00  0.00     0.078 C 
ATOM      2  C1  UNL d   1       3.026   5.181  -5.749  0.00  0.00    -0.077 A 
ATOM      3  C2  UNL d   1       1.899   5.985  -5.957  0.00  0.00    -0.001 A 
ATOM      4  C3  UNL d   1       0.618   5.435  -5.889  0.00  0.00     0.003 A 
ATOM      5  C4  UNL d   1       0.451   4.080  -5.611  0.00  0.00    -0.005 A 
ATOM      6  C5  UNL d   1       1.567   3.272  -5.401  0.00  0.00     0.003 A 
ATOM      7  C6  UNL d   1       2.849   3.820  -5.468  0.00  0.00    -0.001 A 
ENDROOT
TORSDOF 0
ENDMDL
