MODEL 1
REMARK minimizedAffinity -3.01254988
REMARK minimizedRMSD -1
REMARK  0 active torsions:
REMARK  status: ('A' for Active; 'I' for Inactive)
ROOT
ATOM      1  C   UNL d   1       2.296   6.000  -5.643  0.00  0.00     0.078 C 
ATOM      2  C1  UNL d   1       3.582   5.229  -5.642  0.00  0.00    -0.077 A 
ATOM      3  C2  UNL d   1       3.613   3.876  -6.000  0.00  0.00    -0.001 A 
ATOM      4  C3  UNL d   1       4.816   3.169  -5.985  0.00  0.00     0.003 A 
ATOM      5  C4  UNL d   1       5.997   3.806  -5.611  0.00  0.00    -0.005 A 
ATOM      6  C5  UNL d   1       5.977   5.152  -5.252  0.00  0.00     0.003 A 
ATOM      7  C6  UNL d   1       4.774   5.861  -5.266  0.00  0.00    -0.001 A 
ENDROOT
TORSDOF 0
ENDMDL
