MODEL 1
REMARK minimizedAffinity 1.39737892
REMARK minimizedRMSD -1
REMARK  0 active torsions:
REMARK  status: ('A' for Active; 'I' for Inactive)
ROOT
ATOM      1  C   UNL d   1       5.998  -0.656   2.641  0.00  0.00     0.078 C 
ATOM      2  C1  UNL d   1       4.553  -0.256   2.671  0.00  0.00    -0.077 A 
ATOM      3  C2  UNL d   1       3.902   0.184   1.513  0.00  0.00    -0.001 A 
ATOM      4  C3  UNL d   1       2.559   0.562   1.558  0.00  0.00     0.003 A 
ATOM      5  C4  UNL d   1       1.856   0.504   2.760  0.00  0.00    -0.005 A 
ATOM      6  C5  UNL d   1       2.496   0.069   3.919  0.00  0.00     0.003 A 
ATOM      7  C6  UNL d   1       3.839  -0.309   3.875  0.00  0.00    -0.001 A 
ENDROOT
TORSDOF 0
ENDMDL
