MODEL 1
REMARK minimizedAffinity 1.45708084
REMARK minimizedRMSD -1
REMARK  0 active torsions:
REMARK  status: ('A' for Active; 'I' for Inactive)
ROOT
ATOM      1  C   UNL d   1      -0.458   2.303   2.916  0.00  0.00     0.078 C 
ATOM      2  C1  UNL d   1       0.840   1.792   2.366  0.00  0.00    -0.077 A 
ATOM      3  C2  UNL d   1       1.245   0.470   2.585  0.00  0.00    -0.001 A 
ATOM      4  C3  UNL d   1       2.460   0.010   2.076  0.00  0.00     0.003 A 
ATOM      5  C4  UNL d   1       3.281   0.866   1.345  0.00  0.00    -0.005 A 
ATOM      6  C5  UNL d   1       2.887   2.184   1.123  0.00  0.00     0.003 A 
ATOM      7  C6  UNL d   1       1.672   2.646   1.632  0.00  0.00    -0.001 A 
ENDROOT
TORSDOF 0
ENDMDL
