MODEL 1
REMARK minimizedAffinity 0.248407334
REMARK minimizedRMSD -1
REMARK  1 active torsions:
REMARK  status: ('A' for Active; 'I' for Inactive)
REMARK    1  A    between atoms: C1_2  and  C2_3 
ROOT
ATOM      1  C2  UNL d   1      -3.519  -5.329  -5.333  0.00  0.00    -0.077 A 
ATOM      2  C3  UNL d   1      -3.582  -4.010  -5.804  0.00  0.00     0.002 A 
ATOM      3  C4  UNL d   1      -4.815  -3.374  -5.962  0.00  0.00     0.002 A 
ATOM      4  C5  UNL d   1      -5.993  -4.048  -5.648  0.00  0.00    -0.004 A 
ATOM      5  C6  UNL d   1      -5.942  -5.361  -5.181  0.00  0.00     0.002 A 
ATOM      6  C7  UNL d   1      -4.710  -5.998  -5.024  0.00  0.00     0.002 A 
ENDROOT
BRANCH   1   7
ATOM      7  C1  UNL d   1      -2.188  -6.000  -5.115  0.00  0.00     0.055 C 
ATOM      8  C   UNL d   1      -1.235  -5.100  -4.342  0.00  0.00     0.019 C 
ENDBRANCH   1   7
TORSDOF 1
ENDMDL
