MODEL 1
REMARK minimizedAffinity 6.58971548
REMARK minimizedRMSD -1
REMARK  1 active torsions:
REMARK  status: ('A' for Active; 'I' for Inactive)
REMARK    1  A    between atoms: C1_2  and  C2_3 
ROOT
ATOM      1  C2  UNL d   1      -0.183   3.450  -0.074  0.00  0.00    -0.077 A 
ATOM      2  C3  UNL d   1       0.456   3.783  -1.276  0.00  0.00     0.002 A 
ATOM      3  C4  UNL d   1       0.282   5.047  -1.843  0.00  0.00     0.002 A 
ATOM      4  C5  UNL d   1      -0.528   5.989  -1.212  0.00  0.00    -0.004 A 
ATOM      5  C6  UNL d   1      -1.170   5.667  -0.017  0.00  0.00     0.002 A 
ATOM      6  C7  UNL d   1      -0.998   4.404   0.550  0.00  0.00     0.002 A 
ENDROOT
BRANCH   1   7
ATOM      7  C1  UNL d   1       0.043   2.104   0.564  0.00  0.00     0.055 C 
ATOM      8  C   UNL d   1       0.394   2.242   2.038  0.00  0.00     0.019 C 
ENDBRANCH   1   7
TORSDOF 1
ENDMDL
