MODEL 1
REMARK minimizedAffinity 3.03862715
REMARK minimizedRMSD -1
REMARK  1 active torsions:
REMARK  status: ('A' for Active; 'I' for Inactive)
REMARK    1  A    between atoms: C1_2  and  C2_3 
ROOT
ATOM      1  C2  UNL d   1      -0.879   4.119   0.540  0.00  0.00    -0.077 A 
ATOM      2  C3  UNL d   1      -0.749   3.850  -0.829  0.00  0.00     0.002 A 
ATOM      3  C4  UNL d   1      -0.373   2.579  -1.267  0.00  0.00     0.002 A 
ATOM      4  C5  UNL d   1      -0.128   1.566  -0.342  0.00  0.00    -0.004 A 
ATOM      5  C6  UNL d   1      -0.252   1.824   1.023  0.00  0.00     0.002 A 
ATOM      6  C7  UNL d   1      -0.627   3.095   1.462  0.00  0.00     0.002 A 
ENDROOT
BRANCH   1   7
ATOM      7  C1  UNL d   1      -1.332   5.476   1.012  0.00  0.00     0.055 C 
ATOM      8  C   UNL d   1      -2.756   5.430   1.547  0.00  0.00     0.019 C 
ENDBRANCH   1   7
TORSDOF 1
ENDMDL
