MODEL 1
REMARK minimizedAffinity 9.05722618
REMARK minimizedRMSD -1
REMARK  1 active torsions:
REMARK  status: ('A' for Active; 'I' for Inactive)
REMARK    1  A    between atoms: C1_2  and  C2_3 
ROOT
ATOM      1  C2  UNL d   1      -0.307   3.238  -0.357  0.00  0.00    -0.077 A 
ATOM      2  C3  UNL d   1       0.997   3.694  -0.598  0.00  0.00     0.002 A 
ATOM      3  C4  UNL d   1       1.244   4.627  -1.606  0.00  0.00     0.002 A 
ATOM      4  C5  UNL d   1       0.192   5.116  -2.378  0.00  0.00    -0.004 A 
ATOM      5  C6  UNL d   1      -1.108   4.668  -2.147  0.00  0.00     0.002 A 
ATOM      6  C7  UNL d   1      -1.357   3.734  -1.141  0.00  0.00     0.002 A 
ENDROOT
BRANCH   1   7
ATOM      7  C1  UNL d   1      -0.582   2.269   0.763  0.00  0.00     0.055 C 
ATOM      8  C   UNL d   1       0.709   1.789   1.410  0.00  0.00     0.019 C 
ENDBRANCH   1   7
TORSDOF 1
ENDMDL
