MODEL 1
REMARK minimizedAffinity 7.42107201
REMARK minimizedRMSD -1
REMARK  1 active torsions:
REMARK  status: ('A' for Active; 'I' for Inactive)
REMARK    1  A    between atoms: C1_2  and  C2_3 
ROOT
ATOM      1  C2  UNL d   1      -2.348   4.318  -2.288  0.00  0.00    -0.077 A 
ATOM      2  C3  UNL d   1      -1.726   3.078  -2.089  0.00  0.00     0.002 A 
ATOM      3  C4  UNL d   1      -0.623   2.969  -1.240  0.00  0.00     0.002 A 
ATOM      4  C5  UNL d   1      -0.134   4.095  -0.582  0.00  0.00    -0.004 A 
ATOM      5  C6  UNL d   1      -0.744   5.334  -0.776  0.00  0.00     0.002 A 
ATOM      6  C7  UNL d   1      -1.846   5.445  -1.624  0.00  0.00     0.002 A 
ENDROOT
BRANCH   1   7
ATOM      7  C1  UNL d   1      -3.568   4.429  -3.164  0.00  0.00     0.055 C 
ATOM      8  C   UNL d   1      -4.766   4.949  -2.382  0.00  0.00     0.019 C 
ENDBRANCH   1   7
TORSDOF 1
ENDMDL
