MODEL 1
REMARK minimizedAffinity 6.06137896
REMARK minimizedRMSD -1
REMARK  1 active torsions:
REMARK  status: ('A' for Active; 'I' for Inactive)
REMARK    1  A    between atoms: C1_2  and  C2_3 
ROOT
ATOM      1  C2  UNL d   1      -3.174  -4.803  -5.472  0.00  0.00    -0.077 A 
ATOM      2  C3  UNL d   1      -2.664  -3.913  -4.516  0.00  0.00     0.002 A 
ATOM      3  C4  UNL d   1      -1.336  -4.013  -4.097  0.00  0.00     0.002 A 
ATOM      4  C5  UNL d   1      -0.507  -4.998  -4.630  0.00  0.00    -0.004 A 
ATOM      5  C6  UNL d   1      -1.006  -5.889  -5.579  0.00  0.00     0.002 A 
ATOM      6  C7  UNL d   1      -2.333  -5.791  -5.999  0.00  0.00     0.002 A 
ENDROOT
BRANCH   1   7
ATOM      7  C1  UNL d   1      -4.592  -4.667  -5.962  0.00  0.00     0.055 C 
ATOM      8  C   UNL d   1      -5.326  -5.999  -5.913  0.00  0.00     0.019 C 
ENDBRANCH   1   7
TORSDOF 1
ENDMDL
