MODEL 1
REMARK minimizedAffinity 7.82733965
REMARK minimizedRMSD -1
REMARK  1 active torsions:
REMARK  status: ('A' for Active; 'I' for Inactive)
REMARK    1  A    between atoms: C1_2  and  C2_3 
ROOT
ATOM      1  C2  UNL d   1      -0.165   3.500   0.213  0.00  0.00    -0.077 A 
ATOM      2  C3  UNL d   1      -0.786   4.727   0.482  0.00  0.00     0.002 A 
ATOM      3  C4  UNL d   1      -0.948   5.674  -0.532  0.00  0.00     0.002 A 
ATOM      4  C5  UNL d   1      -0.494   5.402  -1.821  0.00  0.00    -0.004 A 
ATOM      5  C6  UNL d   1       0.127   4.184  -2.097  0.00  0.00     0.002 A 
ATOM      6  C7  UNL d   1       0.291   3.238  -1.085  0.00  0.00     0.002 A 
ENDROOT
BRANCH   1   7
ATOM      7  C1  UNL d   1      -0.034   2.458   1.293  0.00  0.00     0.055 C 
ATOM      8  C   UNL d   1       1.309   2.561   2.002  0.00  0.00     0.019 C 
ENDBRANCH   1   7
TORSDOF 1
ENDMDL
