MODEL 1
REMARK minimizedAffinity -0.967357576
REMARK minimizedRMSD -1
REMARK  1 active torsions:
REMARK  status: ('A' for Active; 'I' for Inactive)
REMARK    1  A    between atoms: C1_2  and  C2_3 
ROOT
ATOM      1  C2  UNL d   1       2.009   0.790  -4.152  0.00  0.00    -0.077 A 
ATOM      2  C3  UNL d   1       1.455   1.428  -3.034  0.00  0.00     0.002 A 
ATOM      3  C4  UNL d   1       0.917   2.711  -3.147  0.00  0.00     0.002 A 
ATOM      4  C5  UNL d   1       0.924   3.366  -4.377  0.00  0.00    -0.004 A 
ATOM      5  C6  UNL d   1       1.474   2.740  -5.495  0.00  0.00     0.002 A 
ATOM      6  C7  UNL d   1       2.014   1.458  -5.384  0.00  0.00     0.002 A 
ENDROOT
BRANCH   1   7
ATOM      7  C1  UNL d   1       2.545  -0.613  -4.043  0.00  0.00     0.055 C 
ATOM      8  C   UNL d   1       1.418  -1.632  -3.958  0.00  0.00     0.019 C 
ENDBRANCH   1   7
TORSDOF 1
ENDMDL
