MODEL 1
REMARK minimizedAffinity -2.09477997
REMARK minimizedRMSD -1
REMARK  1 active torsions:
REMARK  status: ('A' for Active; 'I' for Inactive)
REMARK    1  A    between atoms: C1_2  and  C2_3 
ROOT
ATOM      1  C2  UNL d   1       0.460  -0.033  -1.993  0.00  0.00    -0.077 A 
ATOM      2  C3  UNL d   1      -0.337  -1.043  -2.548  0.00  0.00     0.002 A 
ATOM      3  C4  UNL d   1      -0.014  -1.597  -3.788  0.00  0.00     0.002 A 
ATOM      4  C5  UNL d   1       1.109  -1.150  -4.481  0.00  0.00    -0.004 A 
ATOM      5  C6  UNL d   1       1.907  -0.143  -3.938  0.00  0.00     0.002 A 
ATOM      6  C7  UNL d   1       1.585   0.412  -2.699  0.00  0.00     0.002 A 
ENDROOT
BRANCH   1   7
ATOM      7  C1  UNL d   1       0.141   0.531  -0.633  0.00  0.00     0.055 C 
ATOM      8  C   UNL d   1      -0.397  -0.544   0.300  0.00  0.00     0.019 C 
ENDBRANCH   1   7
TORSDOF 1
ENDMDL
