MODEL 1
REMARK minimizedAffinity -3.53193736
REMARK minimizedRMSD -1
REMARK  1 active torsions:
REMARK  status: ('A' for Active; 'I' for Inactive)
REMARK    1  A    between atoms: C1_2  and  C2_3 
ROOT
ATOM      1  C2  UNL d   1       0.096   0.191  -0.400  0.00  0.00    -0.077 A 
ATOM      2  C3  UNL d   1       1.275   0.410   0.327  0.00  0.00     0.002 A 
ATOM      3  C4  UNL d   1       1.310   0.176   1.703  0.00  0.00     0.002 A 
ATOM      4  C5  UNL d   1       0.172  -0.282   2.363  0.00  0.00    -0.004 A 
ATOM      5  C6  UNL d   1      -1.006  -0.501   1.650  0.00  0.00     0.002 A 
ATOM      6  C7  UNL d   1      -1.044  -0.266   0.275  0.00  0.00     0.002 A 
ENDROOT
BRANCH   1   7
ATOM      7  C1  UNL d   1       0.069   0.396  -1.892  0.00  0.00     0.055 C 
ATOM      8  C   UNL d   1       0.923  -0.639  -2.608  0.00  0.00     0.019 C 
ENDBRANCH   1   7
TORSDOF 1
ENDMDL
