MODEL 1
REMARK minimizedAffinity -3.20896482
REMARK minimizedRMSD -1
REMARK  1 active torsions:
REMARK  status: ('A' for Active; 'I' for Inactive)
REMARK    1  A    between atoms: C1_2  and  C2_3 
ROOT
ATOM      1  C2  UNL d   1      -0.054  -0.047  -1.220  0.00  0.00    -0.077 A 
ATOM      2  C3  UNL d   1       0.375  -0.850  -0.154  0.00  0.00     0.002 A 
ATOM      3  C4  UNL d   1      -0.502  -1.177   0.882  0.00  0.00     0.002 A 
ATOM      4  C5  UNL d   1      -1.814  -0.708   0.860  0.00  0.00    -0.004 A 
ATOM      5  C6  UNL d   1      -2.250   0.092  -0.195  0.00  0.00     0.002 A 
ATOM      6  C7  UNL d   1      -1.374   0.421  -1.231  0.00  0.00     0.002 A 
ENDROOT
BRANCH   1   7
ATOM      7  C1  UNL d   1       0.876   0.265  -2.363  0.00  0.00     0.055 C 
ATOM      8  C   UNL d   1       0.954  -0.894  -3.346  0.00  0.00     0.019 C 
ENDBRANCH   1   7
TORSDOF 1
ENDMDL
