MODEL 1
REMARK minimizedAffinity -5.3778367
REMARK minimizedRMSD -1
REMARK  1 active torsions:
REMARK  status: ('A' for Active; 'I' for Inactive)
REMARK    1  A    between atoms: C1_2  and  C2_3 
ROOT
ATOM      1  C2  UNL d   1       0.292  -0.235   0.312  0.00  0.00    -0.077 A 
ATOM      2  C3  UNL d   1      -0.765  -1.069   0.705  0.00  0.00     0.002 A 
ATOM      3  C4  UNL d   1      -1.081  -1.219   2.056  0.00  0.00     0.002 A 
ATOM      4  C5  UNL d   1      -0.349  -0.536   3.025  0.00  0.00    -0.004 A 
ATOM      5  C6  UNL d   1       0.705   0.294   2.645  0.00  0.00     0.002 A 
ATOM      6  C7  UNL d   1       1.024   0.444   1.294  0.00  0.00     0.002 A 
ENDROOT
BRANCH   1   7
ATOM      7  C1  UNL d   1       0.603  -0.034  -1.148  0.00  0.00     0.055 C 
ATOM      8  C   UNL d   1       0.695  -1.363  -1.883  0.00  0.00     0.019 C 
ENDBRANCH   1   7
TORSDOF 1
ENDMDL
