MODEL 1
REMARK minimizedAffinity -4.90439892
REMARK minimizedRMSD -1
REMARK  1 active torsions:
REMARK  status: ('A' for Active; 'I' for Inactive)
REMARK    1  A    between atoms: C1_2  and  C2_3 
ROOT
ATOM      1  C2  UNL d   1       0.301  -0.303  -0.868  0.00  0.00    -0.077 A 
ATOM      2  C3  UNL d   1       1.102   0.485  -1.706  0.00  0.00     0.002 A 
ATOM      3  C4  UNL d   1       1.574  -0.026  -2.916  0.00  0.00     0.002 A 
ATOM      4  C5  UNL d   1       1.247  -1.325  -3.301  0.00  0.00    -0.004 A 
ATOM      5  C6  UNL d   1       0.453  -2.117  -2.474  0.00  0.00     0.002 A 
ATOM      6  C7  UNL d   1      -0.019  -1.609  -1.263  0.00  0.00     0.002 A 
ENDROOT
BRANCH   1   7
ATOM      7  C1  UNL d   1      -0.251   0.263   0.415  0.00  0.00     0.055 C 
ATOM      8  C   UNL d   1       0.142  -0.592   1.611  0.00  0.00     0.019 C 
ENDBRANCH   1   7
TORSDOF 1
ENDMDL
