MODEL 1
REMARK minimizedAffinity 0.170621425
REMARK minimizedRMSD -1
REMARK  0 active torsions:
REMARK  status: ('A' for Active; 'I' for Inactive)
ROOT
ATOM      1  C4' PXY d   1      -0.221  -0.041   1.856  0.00  0.00     0.077 C 
ATOM      2  C1' PXY d   1       3.897  -0.935  -2.100  0.00  0.00     0.077 C 
ATOM      3  C1  PXY d   1       2.822  -0.688  -1.061  0.00  0.00    -0.082 A 
ATOM      4  C2  PXY d   1       2.268  -1.715  -0.436  0.00  0.00     0.003 A 
ATOM      5  C3  PXY d   1       1.272  -1.512   0.483  0.00  0.00     0.003 A 
ATOM      6  C4  PXY d   1       0.875  -0.242   0.806  0.00  0.00    -0.082 A 
ATOM      7  C5  PXY d   1       1.443   0.811   0.181  0.00  0.00     0.003 A 
ATOM      8  C6  PXY d   1       2.424   0.582  -0.779  0.00  0.00     0.003 A 
ENDROOT
TORSDOF 0
ENDMDL
