MODEL 1
REMARK minimizedAffinity -0.202541307
REMARK minimizedRMSD -1
REMARK  0 active torsions:
REMARK  status: ('A' for Active; 'I' for Inactive)
ROOT
ATOM      1  C4' PXY d   1      -0.220   3.379  -4.473  0.00  0.00     0.077 C 
ATOM      2  C1' PXY d   1      -6.000   3.474  -4.491  0.00  0.00     0.077 C 
ATOM      3  C1  PXY d   1      -4.484   3.453  -4.499  0.00  0.00    -0.082 A 
ATOM      4  C2  PXY d   1      -3.836   2.685  -3.638  0.00  0.00     0.003 A 
ATOM      5  C3  PXY d   1      -2.465   2.678  -3.610  0.00  0.00     0.003 A 
ATOM      6  C4  PXY d   1      -1.750   3.424  -4.508  0.00  0.00    -0.082 A 
ATOM      7  C5  PXY d   1      -2.404   4.202  -5.397  0.00  0.00     0.003 A 
ATOM      8  C6  PXY d   1      -3.796   4.226  -5.382  0.00  0.00     0.003 A 
ENDROOT
TORSDOF 0
ENDMDL
