MODEL 1
REMARK minimizedAffinity -2.13104105
REMARK minimizedRMSD -1
REMARK  0 active torsions:
REMARK  status: ('A' for Active; 'I' for Inactive)
ROOT
ATOM      1  C4' PXY d   1       1.097   0.358   2.566  0.00  0.00     0.077 C 
ATOM      2  C1' PXY d   1       1.604  -1.674  -2.821  0.00  0.00     0.077 C 
ATOM      3  C1  PXY d   1       1.477  -1.130  -1.412  0.00  0.00    -0.082 A 
ATOM      4  C2  PXY d   1       1.298  -1.966  -0.402  0.00  0.00     0.003 A 
ATOM      5  C3  PXY d   1       1.150  -1.490   0.875  0.00  0.00     0.003 A 
ATOM      6  C4  PXY d   1       1.239  -0.147   1.128  0.00  0.00    -0.082 A 
ATOM      7  C5  PXY d   1       1.433   0.712   0.104  0.00  0.00     0.003 A 
ATOM      8  C6  PXY d   1       1.540   0.211  -1.190  0.00  0.00     0.003 A 
ENDROOT
TORSDOF 0
ENDMDL
