MODEL 1
REMARK minimizedAffinity 2.10615683
REMARK minimizedRMSD -1
REMARK  0 active torsions:
REMARK  status: ('A' for Active; 'I' for Inactive)
ROOT
ATOM      1  C4' PXY d   1       4.443   0.037  -2.706  0.00  0.00     0.077 C 
ATOM      2  C1' PXY d   1       0.734  -0.750   1.657  0.00  0.00     0.077 C 
ATOM      3  C1  PXY d   1       1.702  -0.532   0.510  0.00  0.00    -0.082 A 
ATOM      4  C2  PXY d   1       2.246  -1.576  -0.093  0.00  0.00     0.003 A 
ATOM      5  C3  PXY d   1       3.148  -1.396  -1.111  0.00  0.00     0.003 A 
ATOM      6  C4  PXY d   1       3.454  -0.136  -1.550  0.00  0.00    -0.082 A 
ATOM      7  C5  PXY d   1       2.894   0.934  -0.947  0.00  0.00     0.003 A 
ATOM      8  C6  PXY d   1       2.013   0.731   0.111  0.00  0.00     0.003 A 
ENDROOT
TORSDOF 0
ENDMDL
