MODEL 1
REMARK minimizedAffinity 1.72865057
REMARK minimizedRMSD -1
REMARK  0 active torsions:
REMARK  status: ('A' for Active; 'I' for Inactive)
ROOT
ATOM      1  C4' PXY d   1       4.082  -0.037  -2.508  0.00  0.00     0.077 C 
ATOM      2  C1' PXY d   1       0.197  -0.460   1.751  0.00  0.00     0.077 C 
ATOM      3  C1  PXY d   1       1.208  -0.341   0.628  0.00  0.00    -0.082 A 
ATOM      4  C2  PXY d   1       2.101  -1.300   0.447  0.00  0.00     0.003 A 
ATOM      5  C3  PXY d   1       3.042  -1.194  -0.544  0.00  0.00     0.003 A 
ATOM      6  C4  PXY d   1       3.036  -0.119  -1.393  0.00  0.00    -0.082 A 
ATOM      7  C5  PXY d   1       2.122   0.859  -1.221  0.00  0.00     0.003 A 
ATOM      8  C6  PXY d   1       1.200   0.751  -0.184  0.00  0.00     0.003 A 
ENDROOT
TORSDOF 0
ENDMDL
