MODEL 1
REMARK minimizedAffinity 4.86231613
REMARK minimizedRMSD -1
REMARK  0 active torsions:
REMARK  status: ('A' for Active; 'I' for Inactive)
ROOT
ATOM      1  C4' PXY d   1      -0.263  -1.108   1.118  0.00  0.00     0.077 C 
ATOM      2  C1' PXY d   1       4.661  -0.053  -1.720  0.00  0.00     0.077 C 
ATOM      3  C1  PXY d   1       3.372  -0.319  -0.968  0.00  0.00    -0.082 A 
ATOM      4  C2  PXY d   1       2.860  -1.539  -0.959  0.00  0.00     0.003 A 
ATOM      5  C3  PXY d   1       1.678  -1.791  -0.310  0.00  0.00     0.003 A 
ATOM      6  C4  PXY d   1       1.041  -0.795   0.380  0.00  0.00    -0.082 A 
ATOM      7  C5  PXY d   1       1.562   0.450   0.384  0.00  0.00     0.003 A 
ATOM      8  C6  PXY d   1       2.741   0.694  -0.314  0.00  0.00     0.003 A 
ENDROOT
TORSDOF 0
ENDMDL
