MODEL 1
REMARK minimizedAffinity 5.28081608
REMARK minimizedRMSD -1
REMARK  0 active torsions:
REMARK  status: ('A' for Active; 'I' for Inactive)
ROOT
ATOM      1  C4' PXY d   1      -3.739  -2.436   2.950  0.00  0.00     0.077 C 
ATOM      2  C1' PXY d   1       1.348  -0.004   1.675  0.00  0.00     0.077 C 
ATOM      3  C1  PXY d   1       0.011  -0.632   2.017  0.00  0.00    -0.082 A 
ATOM      4  C2  PXY d   1      -0.146  -1.941   1.903  0.00  0.00     0.003 A 
ATOM      5  C3  PXY d   1      -1.357  -2.521   2.177  0.00  0.00     0.003 A 
ATOM      6  C4  PXY d   1      -2.404  -1.760   2.624  0.00  0.00    -0.082 A 
ATOM      7  C5  PXY d   1      -2.249  -0.425   2.754  0.00  0.00     0.003 A 
ATOM      8  C6  PXY d   1      -1.024   0.149   2.430  0.00  0.00     0.003 A 
ENDROOT
TORSDOF 0
ENDMDL
