MODEL 1
REMARK minimizedAffinity 2.0417428
REMARK minimizedRMSD -1
REMARK  0 active torsions:
REMARK  status: ('A' for Active; 'I' for Inactive)
ROOT
ATOM      1  C4' PXY d   1       4.045  -1.041  -1.614  0.00  0.00     0.077 C 
ATOM      2  C1' PXY d   1      -0.441  -0.521   1.993  0.00  0.00     0.077 C 
ATOM      3  C1  PXY d   1       0.733  -0.645   1.043  0.00  0.00    -0.082 A 
ATOM      4  C2  PXY d   1       1.109  -1.841   0.621  0.00  0.00     0.003 A 
ATOM      5  C3  PXY d   1       2.189  -1.974  -0.213  0.00  0.00     0.003 A 
ATOM      6  C4  PXY d   1       2.859  -0.867  -0.662  0.00  0.00    -0.082 A 
ATOM      7  C5  PXY d   1       2.475   0.357  -0.244  0.00  0.00     0.003 A 
ATOM      8  C6  PXY d   1       1.402   0.468   0.635  0.00  0.00     0.003 A 
ENDROOT
TORSDOF 0
ENDMDL
