MODEL 1
REMARK minimizedAffinity 1.65430868
REMARK minimizedRMSD -1
REMARK  0 active torsions:
REMARK  status: ('A' for Active; 'I' for Inactive)
ROOT
ATOM      1  C4' PXY d   1      -1.479  -2.184   1.703  0.00  0.00     0.077 C 
ATOM      2  C1' PXY d   1       2.799   1.176  -0.253  0.00  0.00     0.077 C 
ATOM      3  C1  PXY d   1       1.678   0.301   0.272  0.00  0.00    -0.082 A 
ATOM      4  C2  PXY d   1       1.441  -0.870  -0.297  0.00  0.00     0.003 A 
ATOM      5  C3  PXY d   1       0.411  -1.660   0.144  0.00  0.00     0.003 A 
ATOM      6  C4  PXY d   1      -0.351  -1.271   1.213  0.00  0.00    -0.082 A 
ATOM      7  C5  PXY d   1      -0.109  -0.083   1.806  0.00  0.00     0.003 A 
ATOM      8  C6  PXY d   1       0.915   0.723   1.316  0.00  0.00     0.003 A 
ENDROOT
TORSDOF 0
ENDMDL
