MODEL 1
REMARK minimizedAffinity 2.22300267
REMARK minimizedRMSD -1
REMARK  0 active torsions:
REMARK  status: ('A' for Active; 'I' for Inactive)
ROOT
ATOM      1  C4' PXY d   1       2.903   1.291  -1.540  0.00  0.00     0.077 C 
ATOM      2  C1' PXY d   1      -0.257  -1.221   2.597  0.00  0.00     0.077 C 
ATOM      3  C1  PXY d   1       0.576  -0.574   1.509  0.00  0.00    -0.082 A 
ATOM      4  C2  PXY d   1       0.939   0.692   1.629  0.00  0.00     0.003 A 
ATOM      5  C3  PXY d   1       1.666   1.302   0.639  0.00  0.00     0.003 A 
ATOM      6  C4  PXY d   1       2.070   0.594  -0.461  0.00  0.00    -0.082 A 
ATOM      7  C5  PXY d   1       1.712  -0.702  -0.586  0.00  0.00     0.003 A 
ATOM      8  C6  PXY d   1       0.940  -1.291   0.411  0.00  0.00     0.003 A 
ENDROOT
TORSDOF 0
ENDMDL
