MODEL 1
REMARK minimizedAffinity 5.4614687
REMARK minimizedRMSD -1
REMARK  0 active torsions:
REMARK  status: ('A' for Active; 'I' for Inactive)
ROOT
ATOM      1  C4' PXY d   1      -0.919   5.972  -2.299  0.00  0.00     0.077 C 
ATOM      2  C1' PXY d   1      -0.532   0.605  -4.412  0.00  0.00     0.077 C 
ATOM      3  C1  PXY d   1      -0.644   2.015  -3.865  0.00  0.00    -0.082 A 
ATOM      4  C2  PXY d   1       0.432   2.619  -3.389  0.00  0.00     0.003 A 
ATOM      5  C3  PXY d   1       0.342   3.881  -2.861  0.00  0.00     0.003 A 
ATOM      6  C4  PXY d   1      -0.851   4.552  -2.869  0.00  0.00    -0.082 A 
ATOM      7  C5  PXY d   1      -1.952   3.947  -3.363  0.00  0.00     0.003 A 
ATOM      8  C6  PXY d   1      -1.848   2.649  -3.856  0.00  0.00     0.003 A 
ENDROOT
TORSDOF 0
ENDMDL
