MODEL 1
REMARK minimizedAffinity 2.7807734
REMARK minimizedRMSD -1
REMARK  0 active torsions:
REMARK  status: ('A' for Active; 'I' for Inactive)
ROOT
ATOM      1  C4' PXY d   1      -0.613  -0.008   3.032  0.00  0.00     0.077 C 
ATOM      2  C1' PXY d   1       2.518  -1.455  -1.607  0.00  0.00     0.077 C 
ATOM      3  C1  PXY d   1       1.705  -1.067  -0.387  0.00  0.00    -0.082 A 
ATOM      4  C2  PXY d   1       0.878  -1.945   0.155  0.00  0.00     0.003 A 
ATOM      5  C3  PXY d   1       0.112  -1.600   1.238  0.00  0.00     0.003 A 
ATOM      6  C4  PXY d   1       0.234  -0.360   1.806  0.00  0.00    -0.082 A 
ATOM      7  C5  PXY d   1       1.083   0.539   1.265  0.00  0.00     0.003 A 
ATOM      8  C6  PXY d   1       1.822   0.182   0.140  0.00  0.00     0.003 A 
ENDROOT
TORSDOF 0
ENDMDL
