MODEL 1
REMARK minimizedAffinity -1.97832072
REMARK minimizedRMSD -1
REMARK  0 active torsions:
REMARK  status: ('A' for Active; 'I' for Inactive)
ROOT
ATOM      1  C4' PXY d   1       2.860  -1.481  -1.471  0.00  0.00     0.077 C 
ATOM      2  C1' PXY d   1      -1.049  -0.506   2.675  0.00  0.00     0.077 C 
ATOM      3  C1  PXY d   1      -0.026  -0.750   1.582  0.00  0.00    -0.082 A 
ATOM      4  C2  PXY d   1       0.339  -1.989   1.293  0.00  0.00     0.003 A 
ATOM      5  C3  PXY d   1       1.285  -2.226   0.330  0.00  0.00     0.003 A 
ATOM      6  C4  PXY d   1       1.825  -1.188  -0.382  0.00  0.00    -0.082 A 
ATOM      7  C5  PXY d   1       1.450   0.078  -0.100  0.00  0.00     0.003 A 
ATOM      8  C6  PXY d   1       0.518   0.300   0.910  0.00  0.00     0.003 A 
ENDROOT
TORSDOF 0
ENDMDL
