MODEL 1
REMARK minimizedAffinity 0.467703432
REMARK minimizedRMSD -1
REMARK  0 active torsions:
REMARK  status: ('A' for Active; 'I' for Inactive)
ROOT
ATOM      1  C4' PXY d   1       3.517  -1.527  -2.067  0.00  0.00     0.077 C 
ATOM      2  C1' PXY d   1      -0.394   0.290   1.782  0.00  0.00     0.077 C 
ATOM      3  C1  PXY d   1       0.632  -0.198   0.778  0.00  0.00    -0.082 A 
ATOM      4  C2  PXY d   1       1.419   0.675   0.170  0.00  0.00     0.003 A 
ATOM      5  C3  PXY d   1       2.330   0.253  -0.764  0.00  0.00     0.003 A 
ATOM      6  C4  PXY d   1       2.474  -1.080  -1.039  0.00  0.00    -0.082 A 
ATOM      7  C5  PXY d   1       1.682  -1.978  -0.415  0.00  0.00     0.003 A 
ATOM      8  C6  PXY d   1       0.735  -1.526   0.500  0.00  0.00     0.003 A 
ENDROOT
TORSDOF 0
ENDMDL
