MODEL 1
REMARK minimizedAffinity 5.43425989
REMARK minimizedRMSD -1
REMARK  0 active torsions:
REMARK  status: ('A' for Active; 'I' for Inactive)
ROOT
ATOM      1  C4' PXY d   1      -1.463   5.641  -2.451  0.00  0.00     0.077 C 
ATOM      2  C1' PXY d   1      -0.410   0.306  -4.411  0.00  0.00     0.077 C 
ATOM      3  C1  PXY d   1      -0.674   1.706  -3.893  0.00  0.00    -0.082 A 
ATOM      4  C2  PXY d   1      -1.910   2.069  -3.590  0.00  0.00     0.003 A 
ATOM      5  C3  PXY d   1      -2.171   3.342  -3.151  0.00  0.00     0.003 A 
ATOM      6  C4  PXY d   1      -1.149   4.235  -2.969  0.00  0.00    -0.082 A 
ATOM      7  C5  PXY d   1       0.116   3.868  -3.265  0.00  0.00     0.003 A 
ATOM      8  C6  PXY d   1       0.354   2.585  -3.749  0.00  0.00     0.003 A 
ENDROOT
TORSDOF 0
ENDMDL
