MODEL 1
REMARK minimizedAffinity 4.10148048
REMARK minimizedRMSD -1
REMARK  0 active torsions:
REMARK  status: ('A' for Active; 'I' for Inactive)
ROOT
ATOM      1  C4' PXY d   1       3.768   1.551   1.880  0.00  0.00     0.077 C 
ATOM      2  C1' PXY d   1       0.037  -1.805  -0.989  0.00  0.00     0.077 C 
ATOM      3  C1  PXY d   1       1.025  -0.932  -0.241  0.00  0.00    -0.082 A 
ATOM      4  C2  PXY d   1       0.626  -0.258   0.826  0.00  0.00     0.003 A 
ATOM      5  C3  PXY d   1       1.499   0.561   1.495  0.00  0.00     0.003 A 
ATOM      6  C4  PXY d   1       2.807   0.650   1.100  0.00  0.00    -0.082 A 
ATOM      7  C5  PXY d   1       3.224  -0.043   0.019  0.00  0.00     0.003 A 
ATOM      8  C6  PXY d   1       2.312  -0.837  -0.671  0.00  0.00     0.003 A 
ENDROOT
TORSDOF 0
ENDMDL
