MODEL 1
REMARK minimizedAffinity 1.26230371
REMARK minimizedRMSD -1
REMARK  0 active torsions:
REMARK  status: ('A' for Active; 'I' for Inactive)
ROOT
ATOM      1  C4' PXY d   1      -0.618   0.037  -5.169  0.00  0.00     0.077 C 
ATOM      2  C1' PXY d   1      -1.070   5.301  -2.824  0.00  0.00     0.077 C 
ATOM      3  C1  PXY d   1      -0.962   3.917  -3.433  0.00  0.00    -0.082 A 
ATOM      4  C2  PXY d   1       0.217   3.467  -3.831  0.00  0.00     0.003 A 
ATOM      5  C3  PXY d   1       0.327   2.230  -4.413  0.00  0.00     0.003 A 
ATOM      6  C4  PXY d   1      -0.772   1.424  -4.540  0.00  0.00    -0.082 A 
ATOM      7  C5  PXY d   1      -1.977   1.872  -4.127  0.00  0.00     0.003 A 
ATOM      8  C6  PXY d   1      -2.074   3.147  -3.577  0.00  0.00     0.003 A 
ENDROOT
TORSDOF 0
ENDMDL
