MODEL 1
REMARK minimizedAffinity 2.14135218
REMARK minimizedRMSD -1
REMARK  0 active torsions:
REMARK  status: ('A' for Active; 'I' for Inactive)
ROOT
ATOM      1  C4' PXY d   1       2.717  -2.781  -2.060  0.00  0.00     0.077 C 
ATOM      2  C1' PXY d   1       0.637   1.387   1.363  0.00  0.00     0.077 C 
ATOM      3  C1  PXY d   1       1.187   0.303   0.456  0.00  0.00    -0.082 A 
ATOM      4  C2  PXY d   1       0.717  -0.930   0.553  0.00  0.00     0.003 A 
ATOM      5  C3  PXY d   1       1.225  -1.929  -0.237  0.00  0.00     0.003 A 
ATOM      6  C4  PXY d   1       2.186  -1.652  -1.172  0.00  0.00    -0.082 A 
ATOM      7  C5  PXY d   1       2.662  -0.394  -1.284  0.00  0.00     0.003 A 
ATOM      8  C6  PXY d   1       2.163   0.597  -0.445  0.00  0.00     0.003 A 
ENDROOT
TORSDOF 0
ENDMDL
