MODEL 1
REMARK minimizedAffinity -1.57618105
REMARK minimizedRMSD -1
REMARK  0 active torsions:
REMARK  status: ('A' for Active; 'I' for Inactive)
ROOT
ATOM      1  C4' PXY d   1       3.859   1.505  -2.222  0.00  0.00     0.077 C 
ATOM      2  C1' PXY d   1       0.564  -1.828   1.161  0.00  0.00     0.077 C 
ATOM      3  C1  PXY d   1       1.436  -0.963   0.272  0.00  0.00    -0.082 A 
ATOM      4  C2  PXY d   1       1.382   0.354   0.385  0.00  0.00     0.003 A 
ATOM      5  C3  PXY d   1       2.141   1.151  -0.433  0.00  0.00     0.003 A 
ATOM      6  C4  PXY d   1       3.003   0.593  -1.339  0.00  0.00    -0.082 A 
ATOM      7  C5  PXY d   1       3.072  -0.750  -1.452  0.00  0.00     0.003 A 
ATOM      8  C6  PXY d   1       2.263  -1.541  -0.641  0.00  0.00     0.003 A 
ENDROOT
TORSDOF 0
ENDMDL
