MODEL 1
REMARK minimizedAffinity 13.1407833
REMARK minimizedRMSD -1
REMARK  2 active torsions:
REMARK  status: ('A' for Active; 'I' for Inactive)
REMARK    1  A    between atoms: C2'_3  and  C1'_4 
REMARK    2  A    between atoms: C1'_4  and  C1_5 
ROOT
ATOM      1  C1  I4B d   1      -1.420  -1.980  -0.824  0.00  0.00    -0.075 A 
ATOM      2  C2  I4B d   1      -0.632  -1.710  -1.915  0.00  0.00     0.003 A 
ATOM      3  C3  I4B d   1       0.002  -0.450  -2.042  0.00  0.00     0.002 A 
ATOM      4  C4  I4B d   1      -0.219   0.521  -1.087  0.00  0.00    -0.004 A 
ATOM      5  C5  I4B d   1      -0.999   0.238   0.030  0.00  0.00     0.002 A 
ATOM      6  C6  I4B d   1      -1.594  -1.024   0.169  0.00  0.00     0.003 A 
ENDROOT
BRANCH   1   7
ATOM      7  C1' I4B d   1      -2.102  -3.309  -0.738  0.00  0.00     0.060 C 
BRANCH   7   8
ATOM      8  C2' I4B d   1      -3.290  -3.285  -1.677  0.00  0.00    -0.013 C 
ATOM      9  C4' I4B d   1      -3.330  -4.521  -2.537  0.00  0.00     0.013 C 
ATOM     10  C3' I4B d   1      -4.533  -3.163  -0.848  0.00  0.00     0.013 C 
ENDBRANCH   7   8
ENDBRANCH   1   7
TORSDOF 2
ENDMDL
