MODEL 1
REMARK minimizedAffinity 8.34813118
REMARK minimizedRMSD -1
REMARK  2 active torsions:
REMARK  status: ('A' for Active; 'I' for Inactive)
REMARK    1  A    between atoms: C2'_3  and  C1'_4 
REMARK    2  A    between atoms: C1'_4  and  C1_5 
ROOT
ATOM      1  C1  I4B d   1      -1.510  -0.742   0.062  0.00  0.00    -0.075 A 
ATOM      2  C2  I4B d   1      -2.565  -1.554   0.396  0.00  0.00     0.003 A 
ATOM      3  C3  I4B d   1      -2.913  -2.647  -0.434  0.00  0.00     0.002 A 
ATOM      4  C4  I4B d   1      -2.216  -2.860  -1.606  0.00  0.00    -0.004 A 
ATOM      5  C5  I4B d   1      -1.133  -2.049  -1.931  0.00  0.00     0.002 A 
ATOM      6  C6  I4B d   1      -0.769  -0.991  -1.086  0.00  0.00     0.003 A 
ENDROOT
BRANCH   1   7
ATOM      7  C1' I4B d   1      -1.190   0.424   0.944  0.00  0.00     0.060 C 
BRANCH   7   8
ATOM      8  C2' I4B d   1      -0.622   1.526   0.073  0.00  0.00    -0.013 C 
ATOM      9  C4' I4B d   1      -1.717   2.292  -0.621  0.00  0.00     0.013 C 
ATOM     10  C3' I4B d   1       0.200   2.427   0.946  0.00  0.00     0.013 C 
ENDBRANCH   7   8
ENDBRANCH   1   7
TORSDOF 2
ENDMDL
