MODEL 1
REMARK minimizedAffinity 7.10864973
REMARK minimizedRMSD -1
REMARK  2 active torsions:
REMARK  status: ('A' for Active; 'I' for Inactive)
REMARK    1  A    between atoms: C2'_3  and  C1'_4 
REMARK    2  A    between atoms: C1'_4  and  C1_5 
ROOT
ATOM      1  C1  I4B d   1      -0.202   0.925  -0.543  0.00  0.00    -0.075 A 
ATOM      2  C2  I4B d   1      -0.990   0.063   0.179  0.00  0.00     0.003 A 
ATOM      3  C3  I4B d   1      -1.078  -1.301  -0.191  0.00  0.00     0.002 A 
ATOM      4  C4  I4B d   1      -0.407  -1.746  -1.311  0.00  0.00    -0.004 A 
ATOM      5  C5  I4B d   1       0.409  -0.876  -2.028  0.00  0.00     0.002 A 
ATOM      6  C6  I4B d   1       0.523   0.465  -1.635  0.00  0.00     0.003 A 
ENDROOT
BRANCH   1   7
ATOM      7  C1' I4B d   1      -0.157   2.366  -0.144  0.00  0.00     0.060 C 
BRANCH   7   8
ATOM      8  C2' I4B d   1       0.981   2.543   0.840  0.00  0.00    -0.013 C 
ATOM      9  C4' I4B d   1       2.274   2.846   0.130  0.00  0.00     0.013 C 
ATOM     10  C3' I4B d   1       0.610   3.648   1.784  0.00  0.00     0.013 C 
ENDBRANCH   7   8
ENDBRANCH   1   7
TORSDOF 2
ENDMDL
