MODEL 1
REMARK minimizedAffinity 10.3140526
REMARK minimizedRMSD -1
REMARK  2 active torsions:
REMARK  status: ('A' for Active; 'I' for Inactive)
REMARK    1  A    between atoms: C2'_3  and  C1'_4 
REMARK    2  A    between atoms: C1'_4  and  C1_5 
ROOT
ATOM      1  C1  I4B d   1      -0.715  -0.154  -0.229  0.00  0.00    -0.075 A 
ATOM      2  C2  I4B d   1      -1.855  -0.918  -0.223  0.00  0.00     0.003 A 
ATOM      3  C3  I4B d   1      -1.845  -2.218  -0.783  0.00  0.00     0.002 A 
ATOM      4  C4  I4B d   1      -0.695  -2.693  -1.379  0.00  0.00    -0.004 A 
ATOM      5  C5  I4B d   1       0.467  -1.926  -1.364  0.00  0.00     0.002 A 
ATOM      6  C6  I4B d   1       0.461  -0.654  -0.774  0.00  0.00     0.003 A 
ENDROOT
BRANCH   1   7
ATOM      7  C1' I4B d   1      -0.769   1.227   0.342  0.00  0.00     0.060 C 
BRANCH   7   8
ATOM      8  C2' I4B d   1       0.446   1.415   1.228  0.00  0.00    -0.013 C 
ATOM      9  C4' I4B d   1       0.626   2.861   1.606  0.00  0.00     0.013 C 
ATOM     10  C3' I4B d   1       0.270   0.555   2.443  0.00  0.00     0.013 C 
ENDBRANCH   7   8
ENDBRANCH   1   7
TORSDOF 2
ENDMDL
