MODEL 1
REMARK minimizedAffinity 2.64102411
REMARK minimizedRMSD -1
REMARK  2 active torsions:
REMARK  status: ('A' for Active; 'I' for Inactive)
REMARK    1  A    between atoms: C2'_3  and  C1'_4 
REMARK    2  A    between atoms: C1'_4  and  C1_5 
ROOT
ATOM      1  C1  I4B d   1       4.849  -2.850  -3.624  0.00  0.00    -0.075 A 
ATOM      2  C2  I4B d   1       5.947  -3.565  -3.217  0.00  0.00     0.003 A 
ATOM      3  C3  I4B d   1       6.000  -4.107  -1.909  0.00  0.00     0.002 A 
ATOM      4  C4  I4B d   1       4.962  -3.868  -1.032  0.00  0.00    -0.004 A 
ATOM      5  C5  I4B d   1       3.839  -3.162  -1.455  0.00  0.00     0.002 A 
ATOM      6  C6  I4B d   1       3.776  -2.660  -2.763  0.00  0.00     0.003 A 
ENDROOT
BRANCH   1   7
ATOM      7  C1' I4B d   1       4.841  -2.264  -5.001  0.00  0.00     0.060 C 
BRANCH   7   8
ATOM      8  C2' I4B d   1       4.897  -3.406  -5.994  0.00  0.00    -0.013 C 
ATOM      9  C4' I4B d   1       5.996  -4.376  -5.648  0.00  0.00     0.013 C 
ATOM     10  C3' I4B d   1       3.559  -4.083  -5.999  0.00  0.00     0.013 C 
ENDBRANCH   7   8
ENDBRANCH   1   7
TORSDOF 2
ENDMDL
