MODEL 1
REMARK minimizedAffinity 9.51035786
REMARK minimizedRMSD -1
REMARK  2 active torsions:
REMARK  status: ('A' for Active; 'I' for Inactive)
REMARK    1  A    between atoms: C2'_3  and  C1'_4 
REMARK    2  A    between atoms: C1'_4  and  C1_5 
ROOT
ATOM      1  C1  I4B d   1      -0.639   0.960  -0.007  0.00  0.00    -0.075 A 
ATOM      2  C2  I4B d   1      -1.347   0.178   0.871  0.00  0.00     0.003 A 
ATOM      3  C3  I4B d   1      -1.533  -1.201   0.608  0.00  0.00     0.002 A 
ATOM      4  C4  I4B d   1      -1.042  -1.741  -0.563  0.00  0.00    -0.004 A 
ATOM      5  C5  I4B d   1      -0.304  -0.953  -1.441  0.00  0.00     0.002 A 
ATOM      6  C6  I4B d   1      -0.091   0.404  -1.156  0.00  0.00     0.003 A 
ENDROOT
BRANCH   1   7
ATOM      7  C1' I4B d   1      -0.489   2.419   0.286  0.00  0.00     0.060 C 
BRANCH   7   8
ATOM      8  C2' I4B d   1       0.653   2.583   1.267  0.00  0.00    -0.013 C 
ATOM      9  C4' I4B d   1       1.951   2.855   0.553  0.00  0.00     0.013 C 
ATOM     10  C3' I4B d   1       0.304   3.704   2.201  0.00  0.00     0.013 C 
ENDBRANCH   7   8
ENDBRANCH   1   7
TORSDOF 2
ENDMDL
