MODEL 1
REMARK minimizedAffinity 4.64139414
REMARK minimizedRMSD -1
REMARK  2 active torsions:
REMARK  status: ('A' for Active; 'I' for Inactive)
REMARK    1  A    between atoms: C2'_3  and  C1'_4 
REMARK    2  A    between atoms: C1'_4  and  C1_5 
ROOT
ATOM      1  C1  I4B d   1      -2.335  -2.703  -2.138  0.00  0.00    -0.075 A 
ATOM      2  C2  I4B d   1      -3.103  -2.635  -1.003  0.00  0.00     0.003 A 
ATOM      3  C3  I4B d   1      -2.698  -1.823   0.084  0.00  0.00     0.002 A 
ATOM      4  C4  I4B d   1      -1.501  -1.140   0.013  0.00  0.00    -0.004 A 
ATOM      5  C5  I4B d   1      -0.735  -1.192  -1.148  0.00  0.00     0.002 A 
ATOM      6  C6  I4B d   1      -1.160  -1.969  -2.236  0.00  0.00     0.003 A 
ENDROOT
BRANCH   1   7
ATOM      7  C1' I4B d   1      -2.775  -3.597  -3.254  0.00  0.00     0.060 C 
BRANCH   7   8
ATOM      8  C2' I4B d   1      -1.554  -3.955  -4.076  0.00  0.00    -0.013 C 
ATOM      9  C4' I4B d   1      -1.271  -5.433  -4.019  0.00  0.00     0.013 C 
ATOM     10  C3' I4B d   1      -1.796  -3.504  -5.486  0.00  0.00     0.013 C 
ENDBRANCH   7   8
ENDBRANCH   1   7
TORSDOF 2
ENDMDL
