MODEL 1
REMARK minimizedAffinity 2.56883454
REMARK minimizedRMSD -1
REMARK  2 active torsions:
REMARK  status: ('A' for Active; 'I' for Inactive)
REMARK    1  A    between atoms: C2'_3  and  C1'_4 
REMARK    2  A    between atoms: C1'_4  and  C1_5 
ROOT
ATOM      1  C1  I4B d   1      -1.876   0.158   1.848  0.00  0.00    -0.075 A 
ATOM      2  C2  I4B d   1      -2.031  -0.523   3.030  0.00  0.00     0.003 A 
ATOM      3  C3  I4B d   1      -3.229  -0.395   3.774  0.00  0.00     0.002 A 
ATOM      4  C4  I4B d   1      -4.218   0.458   3.329  0.00  0.00    -0.004 A 
ATOM      5  C5  I4B d   1      -4.069   1.129   2.119  0.00  0.00     0.002 A 
ATOM      6  C6  I4B d   1      -2.896   0.969   1.367  0.00  0.00     0.003 A 
ENDROOT
BRANCH   1   7
ATOM      7  C1' I4B d   1      -0.586   0.025   1.103  0.00  0.00     0.060 C 
BRANCH   7   8
ATOM      8  C2' I4B d   1      -0.911  -0.292  -0.342  0.00  0.00    -0.013 C 
ATOM      9  C4' I4B d   1      -0.418   0.794  -1.262  0.00  0.00     0.013 C 
ATOM     10  C3' I4B d   1      -0.285  -1.612  -0.679  0.00  0.00     0.013 C 
ENDBRANCH   7   8
ENDBRANCH   1   7
TORSDOF 2
ENDMDL
