MODEL 1
REMARK minimizedAffinity 9.0941143
REMARK minimizedRMSD -1
REMARK  2 active torsions:
REMARK  status: ('A' for Active; 'I' for Inactive)
REMARK    1  A    between atoms: C2'_3  and  C1'_4 
REMARK    2  A    between atoms: C1'_4  and  C1_5 
ROOT
ATOM      1  C1  I4B d   1       0.242   0.395   0.370  0.00  0.00    -0.075 A 
ATOM      2  C2  I4B d   1       0.685   0.651  -0.904  0.00  0.00     0.003 A 
ATOM      3  C3  I4B d   1       0.261  -0.162  -1.983  0.00  0.00     0.002 A 
ATOM      4  C4  I4B d   1      -0.560  -1.244  -1.737  0.00  0.00    -0.004 A 
ATOM      5  C5  I4B d   1      -1.026  -1.488  -0.448  0.00  0.00     0.002 A 
ATOM      6  C6  I4B d   1      -0.632  -0.656   0.610  0.00  0.00     0.003 A 
ENDROOT
BRANCH   1   7
ATOM      7  C1' I4B d   1       0.736   1.254   1.490  0.00  0.00     0.060 C 
BRANCH   7   8
ATOM      8  C2' I4B d   1       0.685   2.697   1.030  0.00  0.00    -0.013 C 
ATOM      9  C4' I4B d   1       0.265   3.612   2.149  0.00  0.00     0.013 C 
ATOM     10  C3' I4B d   1       2.043   3.065   0.510  0.00  0.00     0.013 C 
ENDBRANCH   7   8
ENDBRANCH   1   7
TORSDOF 2
ENDMDL
