MODEL 1
REMARK minimizedAffinity 12.436801
REMARK minimizedRMSD -1
REMARK  2 active torsions:
REMARK  status: ('A' for Active; 'I' for Inactive)
REMARK    1  A    between atoms: C2'_3  and  C1'_4 
REMARK    2  A    between atoms: C1'_4  and  C1_5 
ROOT
ATOM      1  C1  I4B d   1       5.277  -3.288  -3.017  0.00  0.00    -0.075 A 
ATOM      2  C2  I4B d   1       6.000  -3.526  -4.160  0.00  0.00     0.003 A 
ATOM      3  C3  I4B d   1       5.379  -3.428  -5.429  0.00  0.00     0.002 A 
ATOM      4  C4  I4B d   1       4.032  -3.142  -5.506  0.00  0.00    -0.004 A 
ATOM      5  C5  I4B d   1       3.306  -2.878  -4.348  0.00  0.00     0.002 A 
ATOM      6  C6  I4B d   1       3.935  -2.939  -3.096  0.00  0.00     0.003 A 
ENDROOT
BRANCH   1   7
ATOM      7  C1' I4B d   1       5.956  -3.431  -1.692  0.00  0.00     0.060 C 
BRANCH   7   8
ATOM      8  C2' I4B d   1       5.499  -2.290  -0.807  0.00  0.00    -0.013 C 
ATOM      9  C4' I4B d   1       6.000  -2.459   0.603  0.00  0.00     0.013 C 
ATOM     10  C3' I4B d   1       5.997  -1.009  -1.409  0.00  0.00     0.013 C 
ENDBRANCH   7   8
ENDBRANCH   1   7
TORSDOF 2
ENDMDL
