MODEL 1
REMARK minimizedAffinity -4.05438852
REMARK minimizedRMSD -1
REMARK  2 active torsions:
REMARK  status: ('A' for Active; 'I' for Inactive)
REMARK    1  A    between atoms: C2'_3  and  C1'_4 
REMARK    2  A    between atoms: C1'_4  and  C1_5 
ROOT
ATOM      1  C1  I4B d   1      -0.293   0.657  -0.168  0.00  0.00    -0.075 A 
ATOM      2  C2  I4B d   1       0.253  -0.391  -0.866  0.00  0.00     0.003 A 
ATOM      3  C3  I4B d   1      -0.015  -1.725  -0.475  0.00  0.00     0.002 A 
ATOM      4  C4  I4B d   1      -0.788  -1.964   0.643  0.00  0.00    -0.004 A 
ATOM      5  C5  I4B d   1      -1.360  -0.900   1.336  0.00  0.00     0.002 A 
ATOM      6  C6  I4B d   1      -1.121   0.418   0.921  0.00  0.00     0.003 A 
ENDROOT
BRANCH   1   7
ATOM      7  C1' I4B d   1       0.038   2.053  -0.588  0.00  0.00     0.060 C 
BRANCH   7   8
ATOM      8  C2' I4B d   1       0.984   2.639   0.440  0.00  0.00    -0.013 C 
ATOM      9  C4' I4B d   1       2.201   3.235  -0.216  0.00  0.00     0.013 C 
ATOM     10  C3' I4B d   1       0.232   3.672   1.226  0.00  0.00     0.013 C 
ENDBRANCH   7   8
ENDBRANCH   1   7
TORSDOF 2
ENDMDL
