MODEL 1
REMARK minimizedAffinity 13.0009832
REMARK minimizedRMSD -1
REMARK  0 active torsions:
REMARK  status: ('A' for Active; 'I' for Inactive)
ROOT
ATOM      1  C   UNL d   1       0.294  -1.123   2.812  0.00  0.00    -0.002 A 
ATOM      2  C1  UNL d   1       1.548  -0.703   3.232  0.00  0.00     0.010 A 
ATOM      3  C2  UNL d   1       2.609  -0.618   2.328  0.00  0.00     0.041 A 
ATOM      4  C3  UNL d   1       2.385  -0.964   0.981  0.00  0.00    -0.075 A 
ATOM      5  S   UNL d   1       3.534  -0.937  -0.304  0.00  0.00     0.015 SA
ATOM      6  C4  UNL d   1       2.387  -1.481  -1.441  0.00  0.00     0.022 A 
ATOM      7  C5  UNL d   1       1.152  -1.684  -0.871  0.00  0.00     0.026 A 
ATOM      8  C6  UNL d   1       1.131  -1.389   0.534  0.00  0.00    -0.082 A 
ATOM      9  C7  UNL d   1       0.076  -1.465   1.475  0.00  0.00     0.045 A 
ENDROOT
TORSDOF 0
ENDMDL
