MODEL 1
REMARK minimizedAffinity 0.000572750927
REMARK minimizedRMSD -1
REMARK  0 active torsions:
REMARK  status: ('A' for Active; 'I' for Inactive)
ROOT
ATOM      1  C   UNL d   1      -0.901  -0.453   2.643  0.00  0.00    -0.002 A 
ATOM      2  C1  UNL d   1      -0.896   0.402   1.550  0.00  0.00     0.010 A 
ATOM      3  C2  UNL d   1      -0.080   0.140   0.447  0.00  0.00     0.041 A 
ATOM      4  C3  UNL d   1       0.737  -1.008   0.461  0.00  0.00    -0.075 A 
ATOM      5  S   UNL d   1       1.816  -1.531  -0.777  0.00  0.00     0.015 SA
ATOM      6  C4  UNL d   1       2.295  -2.902   0.115  0.00  0.00     0.022 A 
ATOM      7  C5  UNL d   1       1.657  -2.974   1.331  0.00  0.00     0.026 A 
ATOM      8  C6  UNL d   1       0.748  -1.884   1.550  0.00  0.00    -0.082 A 
ATOM      9  C7  UNL d   1      -0.089  -1.590   2.654  0.00  0.00     0.045 A 
ENDROOT
TORSDOF 0
ENDMDL
