MODEL 1
REMARK minimizedAffinity 14.4563665
REMARK minimizedRMSD -1
REMARK  0 active torsions:
REMARK  status: ('A' for Active; 'I' for Inactive)
ROOT
ATOM      1  C   UNL d   1       2.483  -4.173   1.492  0.00  0.00    -0.002 A 
ATOM      2  C1  UNL d   1       2.648  -3.478   0.303  0.00  0.00     0.010 A 
ATOM      3  C2  UNL d   1       1.953  -2.288   0.074  0.00  0.00     0.041 A 
ATOM      4  C3  UNL d   1       1.085  -1.803   1.072  0.00  0.00    -0.075 A 
ATOM      5  S   UNL d   1       0.132  -0.368   1.013  0.00  0.00     0.015 SA
ATOM      6  C4  UNL d   1      -0.515  -0.644   2.566  0.00  0.00     0.022 A 
ATOM      7  C5  UNL d   1      -0.027  -1.799   3.130  0.00  0.00     0.026 A 
ATOM      8  C6  UNL d   1       0.903  -2.486   2.278  0.00  0.00    -0.082 A 
ATOM      9  C7  UNL d   1       1.621  -3.690   2.479  0.00  0.00     0.045 A 
ENDROOT
TORSDOF 0
ENDMDL
