MODEL 1
REMARK minimizedAffinity 4.27133179
REMARK minimizedRMSD -1
REMARK  0 active torsions:
REMARK  status: ('A' for Active; 'I' for Inactive)
ROOT
ATOM      1  C   UNL d   1       1.562  -3.028   1.924  0.00  0.00    -0.002 A 
ATOM      2  C1  UNL d   1       0.413  -3.083   2.701  0.00  0.00     0.010 A 
ATOM      3  C2  UNL d   1      -0.747  -2.416   2.302  0.00  0.00     0.041 A 
ATOM      4  C3  UNL d   1      -0.734  -1.688   1.096  0.00  0.00    -0.075 A 
ATOM      5  S   UNL d   1      -2.038  -0.794   0.407  0.00  0.00     0.015 SA
ATOM      6  C4  UNL d   1      -1.101  -0.319  -0.935  0.00  0.00     0.022 A 
ATOM      7  C5  UNL d   1       0.177  -0.821  -0.875  0.00  0.00     0.026 A 
ATOM      8  C6  UNL d   1       0.410  -1.619   0.296  0.00  0.00    -0.082 A 
ATOM      9  C7  UNL d   1       1.571  -2.304   0.728  0.00  0.00     0.045 A 
ENDROOT
TORSDOF 0
ENDMDL
