MODEL 1
REMARK minimizedAffinity 4.83300447
REMARK minimizedRMSD -1
REMARK  0 active torsions:
REMARK  status: ('A' for Active; 'I' for Inactive)
ROOT
ATOM      1  C1  DEN d   1       2.024   4.436  -5.960  0.00  0.00     0.130 A 
ATOM      2  C2  DEN d   1       3.101   5.422  -5.976  0.00  0.00    -0.031 A 
ATOM      3  C3  DEN d   1       4.386   4.695  -5.986  0.00  0.00     0.027 A 
ATOM      4  C4  DEN d   1       4.811   2.150  -5.984  0.00  0.00     0.027 A 
ATOM      5  C5  DEN d   1       4.208   0.912  -5.960  0.00  0.00    -0.003 A 
ATOM      6  C6  DEN d   1       2.848   0.762  -5.902  0.00  0.00     0.001 A 
ATOM      7  C7  DEN d   1       2.042   1.870  -5.910  0.00  0.00     0.017 A 
ATOM      8  C8  DEN d   1       2.643   3.123  -5.925  0.00  0.00    -0.094 A 
ATOM      9  C9  DEN d   1       4.019   3.253  -5.997  0.00  0.00    -0.072 A 
ENDROOT
TORSDOF 0
ENDMDL
