MODEL 1
REMARK minimizedAffinity 8.8279562
REMARK minimizedRMSD -1
REMARK  0 active torsions:
REMARK  status: ('A' for Active; 'I' for Inactive)
ROOT
ATOM      1  C1  DEN d   1       1.503   3.584   1.857  0.00  0.00     0.130 A 
ATOM      2  C2  DEN d   1       2.868   3.068   1.911  0.00  0.00    -0.031 A 
ATOM      3  C3  DEN d   1       3.526   3.644   3.101  0.00  0.00     0.027 A 
ATOM      4  C4  DEN d   1       2.569   5.272   4.857  0.00  0.00     0.027 A 
ATOM      5  C5  DEN d   1       1.459   6.000   5.226  0.00  0.00    -0.003 A 
ATOM      6  C6  DEN d   1       0.307   6.000   4.485  0.00  0.00     0.001 A 
ATOM      7  C7  DEN d   1       0.223   5.222   3.361  0.00  0.00     0.017 A 
ATOM      8  C8  DEN d   1       1.340   4.491   2.978  0.00  0.00    -0.094 A 
ATOM      9  C9  DEN d   1       2.492   4.495   3.747  0.00  0.00    -0.072 A 
ENDROOT
TORSDOF 0
ENDMDL
