MODEL 1
REMARK minimizedAffinity -0.741679668
REMARK minimizedRMSD -1
REMARK  0 active torsions:
REMARK  status: ('A' for Active; 'I' for Inactive)
ROOT
ATOM      1  C1  DEN d   1      -0.626   5.999   5.996  0.00  0.00     0.130 A 
ATOM      2  C2  DEN d   1      -1.732   5.977   5.043  0.00  0.00    -0.031 A 
ATOM      3  C3  DEN d   1      -1.198   5.555   3.733  0.00  0.00     0.027 A 
ATOM      4  C4  DEN d   1       1.222   4.933   3.091  0.00  0.00     0.027 A 
ATOM      5  C5  DEN d   1       2.512   4.814   3.560  0.00  0.00    -0.003 A 
ATOM      6  C6  DEN d   1       2.850   5.111   4.853  0.00  0.00     0.001 A 
ATOM      7  C7  DEN d   1       1.877   5.500   5.736  0.00  0.00     0.017 A 
ATOM      8  C8  DEN d   1       0.576   5.630   5.270  0.00  0.00    -0.094 A 
ATOM      9  C9  DEN d   1       0.252   5.313   3.962  0.00  0.00    -0.072 A 
ENDROOT
TORSDOF 0
ENDMDL
