MODEL 1
REMARK minimizedAffinity -2.74283242
REMARK minimizedRMSD -1
REMARK  0 active torsions:
REMARK  status: ('A' for Active; 'I' for Inactive)
ROOT
ATOM      1  C1  DEN d   1       1.061   2.275  -5.952  0.00  0.00     0.130 A 
ATOM      2  C2  DEN d   1       2.208   1.371  -5.958  0.00  0.00    -0.031 A 
ATOM      3  C3  DEN d   1       3.436   2.191  -5.961  0.00  0.00     0.027 A 
ATOM      4  C4  DEN d   1       3.671   4.760  -5.953  0.00  0.00     0.027 A 
ATOM      5  C5  DEN d   1       2.979   5.950  -5.959  0.00  0.00    -0.003 A 
ATOM      6  C6  DEN d   1       1.611   5.999  -5.998  0.00  0.00     0.001 A 
ATOM      7  C7  DEN d   1       0.889   4.835  -5.986  0.00  0.00     0.017 A 
ATOM      8  C8  DEN d   1       1.580   3.630  -5.987  0.00  0.00    -0.094 A 
ATOM      9  C9  DEN d   1       2.964   3.602  -5.935  0.00  0.00    -0.072 A 
ENDROOT
TORSDOF 0
ENDMDL
