MODEL 1
REMARK minimizedAffinity 0.37983489
REMARK minimizedRMSD -1
REMARK  0 active torsions:
REMARK  status: ('A' for Active; 'I' for Inactive)
ROOT
ATOM      1  C1  DEN d   1       3.635   1.360  -5.926  0.00  0.00     0.130 A 
ATOM      2  C2  DEN d   1       5.075   1.120  -5.959  0.00  0.00    -0.031 A 
ATOM      3  C3  DEN d   1       5.755   2.430  -5.996  0.00  0.00     0.027 A 
ATOM      4  C4  DEN d   1       4.723   4.794  -6.000  0.00  0.00     0.027 A 
ATOM      5  C5  DEN d   1       3.543   5.504  -5.991  0.00  0.00    -0.003 A 
ATOM      6  C6  DEN d   1       2.320   4.887  -5.995  0.00  0.00     0.001 A 
ATOM      7  C7  DEN d   1       2.250   3.519  -5.962  0.00  0.00     0.017 A 
ATOM      8  C8  DEN d   1       3.436   2.797  -5.978  0.00  0.00    -0.094 A 
ATOM      9  C9  DEN d   1       4.662   3.439  -5.962  0.00  0.00    -0.072 A 
ENDROOT
TORSDOF 0
ENDMDL
