MODEL 1
REMARK minimizedAffinity 1.50382364
REMARK minimizedRMSD -1
REMARK  0 active torsions:
REMARK  status: ('A' for Active; 'I' for Inactive)
ROOT
ATOM      1  C1  DEN d   1       4.208  -3.184   2.033  0.00  0.00     0.130 A 
ATOM      2  C2  DEN d   1       4.121  -4.488   1.381  0.00  0.00    -0.031 A 
ATOM      3  C3  DEN d   1       4.202  -5.528   2.426  0.00  0.00     0.027 A 
ATOM      4  C4  DEN d   1       4.448  -5.247   4.978  0.00  0.00     0.027 A 
ATOM      5  C5  DEN d   1       4.575  -4.332   6.000  0.00  0.00    -0.003 A 
ATOM      6  C6  DEN d   1       4.622  -2.983   5.770  0.00  0.00     0.001 A 
ATOM      7  C7  DEN d   1       4.497  -2.508   4.491  0.00  0.00     0.017 A 
ATOM      8  C8  DEN d   1       4.376  -3.424   3.455  0.00  0.00    -0.094 A 
ATOM      9  C9  DEN d   1       4.318  -4.784   3.709  0.00  0.00    -0.072 A 
ENDROOT
TORSDOF 0
ENDMDL
