MODEL 1
REMARK minimizedAffinity 0.438398361
REMARK minimizedRMSD -1
REMARK  0 active torsions:
REMARK  status: ('A' for Active; 'I' for Inactive)
ROOT
ATOM      1  C1  DEN d   1       1.871   4.304  -5.993  0.00  0.00     0.130 A 
ATOM      2  C2  DEN d   1       2.449   5.645  -5.967  0.00  0.00    -0.031 A 
ATOM      3  C3  DEN d   1       3.919   5.508  -5.957  0.00  0.00     0.027 A 
ATOM      4  C4  DEN d   1       5.350   3.362  -5.984  0.00  0.00     0.027 A 
ATOM      5  C5  DEN d   1       5.309   1.986  -5.996  0.00  0.00    -0.003 A 
ATOM      6  C6  DEN d   1       4.129   1.290  -5.973  0.00  0.00     0.001 A 
ATOM      7  C7  DEN d   1       2.940   1.971  -5.983  0.00  0.00     0.017 A 
ATOM      8  C8  DEN d   1       2.973   3.359  -5.964  0.00  0.00    -0.094 A 
ATOM      9  C9  DEN d   1       4.176   4.043  -6.000  0.00  0.00    -0.072 A 
ENDROOT
TORSDOF 0
ENDMDL
