MODEL 1
REMARK minimizedAffinity -2.19628644
REMARK minimizedRMSD -1
REMARK  0 active torsions:
REMARK  status: ('A' for Active; 'I' for Inactive)
ROOT
ATOM      1  C1  DEN d   1       1.938   4.997  -5.930  0.00  0.00     0.130 A 
ATOM      2  C2  DEN d   1       1.331   3.669  -5.960  0.00  0.00    -0.031 A 
ATOM      3  C3  DEN d   1       2.418   2.671  -5.995  0.00  0.00     0.027 A 
ATOM      4  C4  DEN d   1       4.969   3.049  -6.000  0.00  0.00     0.027 A 
ATOM      5  C5  DEN d   1       5.962   4.004  -5.993  0.00  0.00    -0.003 A 
ATOM      6  C6  DEN d   1       5.686   5.345  -6.000  0.00  0.00     0.001 A 
ATOM      7  C7  DEN d   1       4.384   5.770  -5.967  0.00  0.00     0.017 A 
ATOM      8  C8  DEN d   1       3.377   4.814  -5.981  0.00  0.00    -0.094 A 
ATOM      9  C9  DEN d   1       3.677   3.463  -5.962  0.00  0.00    -0.072 A 
ENDROOT
TORSDOF 0
ENDMDL
