MODEL 1
REMARK minimizedAffinity -2.45082259
REMARK minimizedRMSD -1
REMARK  0 active torsions:
REMARK  status: ('A' for Active; 'I' for Inactive)
ROOT
ATOM      1  C   UNL d   1       5.985   0.549   5.653  0.00  0.00     0.078 C 
ATOM      2  C1  UNL d   1       5.660  -0.818   5.131  0.00  0.00    -0.077 A 
ATOM      3  C2  UNL d   1       5.518  -1.907   6.000  0.00  0.00    -0.001 A 
ATOM      4  C3  UNL d   1       5.225  -3.176   5.498  0.00  0.00     0.003 A 
ATOM      5  C4  UNL d   1       5.072  -3.369   4.127  0.00  0.00    -0.005 A 
ATOM      6  C5  UNL d   1       5.214  -2.292   3.254  0.00  0.00     0.003 A 
ATOM      7  C6  UNL d   1       5.507  -1.022   3.754  0.00  0.00    -0.001 A 
ENDROOT
TORSDOF 0
ENDMDL
