MODEL 1
REMARK minimizedAffinity -0.465407759
REMARK minimizedRMSD -1
REMARK  0 active torsions:
REMARK  status: ('A' for Active; 'I' for Inactive)
ROOT
ATOM      1  C   UNL d   1      -0.640  -0.074   0.116  0.00  0.00     0.078 C 
ATOM      2  C1  UNL d   1       0.187  -0.618  -1.011  0.00  0.00    -0.077 A 
ATOM      3  C2  UNL d   1       0.548   0.190  -2.096  0.00  0.00    -0.001 A 
ATOM      4  C3  UNL d   1       1.309  -0.332  -3.143  0.00  0.00     0.003 A 
ATOM      5  C4  UNL d   1       1.715  -1.665  -3.115  0.00  0.00    -0.005 A 
ATOM      6  C5  UNL d   1       1.359  -2.477  -2.041  0.00  0.00     0.003 A 
ATOM      7  C6  UNL d   1       0.598  -1.956  -0.993  0.00  0.00    -0.001 A 
ENDROOT
TORSDOF 0
ENDMDL
