MODEL 1
REMARK minimizedAffinity 0.967165172
REMARK minimizedRMSD -1
REMARK  0 active torsions:
REMARK  status: ('A' for Active; 'I' for Inactive)
ROOT
ATOM      1  C   UNL d   1       5.222   2.683   4.507  0.00  0.00     0.078 C 
ATOM      2  C1  UNL d   1       5.308   1.198   4.699  0.00  0.00    -0.077 A 
ATOM      3  C2  UNL d   1       5.912   0.652   5.838  0.00  0.00    -0.001 A 
ATOM      4  C3  UNL d   1       5.993  -0.732   6.000  0.00  0.00     0.003 A 
ATOM      5  C4  UNL d   1       5.475  -1.582   5.024  0.00  0.00    -0.005 A 
ATOM      6  C5  UNL d   1       4.875  -1.048   3.886  0.00  0.00     0.003 A 
ATOM      7  C6  UNL d   1       4.792   0.336   3.723  0.00  0.00    -0.001 A 
ENDROOT
TORSDOF 0
ENDMDL
