MODEL 1
REMARK minimizedAffinity 1.3481009
REMARK minimizedRMSD -1
REMARK  0 active torsions:
REMARK  status: ('A' for Active; 'I' for Inactive)
ROOT
ATOM      1  C   UNL d   1       4.530   5.953  -2.136  0.00  0.00     0.078 C 
ATOM      2  C1  UNL d   1       4.106   5.305  -0.852  0.00  0.00    -0.077 A 
ATOM      3  C2  UNL d   1       3.518   4.034  -0.845  0.00  0.00    -0.001 A 
ATOM      4  C3  UNL d   1       3.120   3.447   0.357  0.00  0.00     0.003 A 
ATOM      5  C4  UNL d   1       3.303   4.124   1.561  0.00  0.00    -0.005 A 
ATOM      6  C5  UNL d   1       3.885   5.390   1.564  0.00  0.00     0.003 A 
ATOM      7  C6  UNL d   1       4.284   5.979   0.363  0.00  0.00    -0.001 A 
ENDROOT
TORSDOF 0
ENDMDL
