MODEL 1
REMARK minimizedAffinity 0.203517511
REMARK minimizedRMSD -1
REMARK  0 active torsions:
REMARK  status: ('A' for Active; 'I' for Inactive)
ROOT
ATOM      1  C   UNL d   1      -0.276  -0.676  -0.410  0.00  0.00     0.078 C 
ATOM      2  C1  UNL d   1       0.662  -1.013  -1.529  0.00  0.00    -0.077 A 
ATOM      3  C2  UNL d   1       0.937  -2.345  -1.863  0.00  0.00    -0.001 A 
ATOM      4  C3  UNL d   1       1.820  -2.645  -2.902  0.00  0.00     0.003 A 
ATOM      5  C4  UNL d   1       2.437  -1.618  -3.614  0.00  0.00    -0.005 A 
ATOM      6  C5  UNL d   1       2.171  -0.290  -3.287  0.00  0.00     0.003 A 
ATOM      7  C6  UNL d   1       1.288   0.012  -2.249  0.00  0.00    -0.001 A 
ENDROOT
TORSDOF 0
ENDMDL
