MODEL 1
REMARK minimizedAffinity 5.2968874
REMARK minimizedRMSD -1
REMARK  0 active torsions:
REMARK  status: ('A' for Active; 'I' for Inactive)
ROOT
ATOM      1  C   UNL d   1       4.905   5.544   3.335  0.00  0.00     0.078 C 
ATOM      2  C1  UNL d   1       4.502   5.071   1.970  0.00  0.00    -0.077 A 
ATOM      3  C2  UNL d   1       4.501   3.707   1.650  0.00  0.00    -0.001 A 
ATOM      4  C3  UNL d   1       4.133   3.282   0.372  0.00  0.00     0.003 A 
ATOM      5  C4  UNL d   1       3.766   4.214  -0.596  0.00  0.00    -0.005 A 
ATOM      6  C5  UNL d   1       3.766   5.573  -0.288  0.00  0.00     0.003 A 
ATOM      7  C6  UNL d   1       4.134   6.000   0.989  0.00  0.00    -0.001 A 
ENDROOT
TORSDOF 0
ENDMDL
