MODEL 1
REMARK minimizedAffinity 3.37297058
REMARK minimizedRMSD -1
REMARK  0 active torsions:
REMARK  status: ('A' for Active; 'I' for Inactive)
ROOT
ATOM      1  C   UNL d   1      -3.074  -5.646  -0.098  0.00  0.00     0.078 C 
ATOM      2  C1  UNL d   1      -2.546  -4.243  -0.059  0.00  0.00    -0.077 A 
ATOM      3  C2  UNL d   1      -1.195  -3.989   0.208  0.00  0.00    -0.001 A 
ATOM      4  C3  UNL d   1      -0.718  -2.678   0.251  0.00  0.00     0.003 A 
ATOM      5  C4  UNL d   1      -1.587  -1.610   0.030  0.00  0.00    -0.005 A 
ATOM      6  C5  UNL d   1      -2.933  -1.853  -0.234  0.00  0.00     0.003 A 
ATOM      7  C6  UNL d   1      -3.411  -3.164  -0.277  0.00  0.00    -0.001 A 
ENDROOT
TORSDOF 0
ENDMDL
