MODEL 1
REMARK minimizedAffinity 0.58397615
REMARK minimizedRMSD -1
REMARK  0 active torsions:
REMARK  status: ('A' for Active; 'I' for Inactive)
ROOT
ATOM      1  C   UNL d   1       0.429  -2.508  -0.328  0.00  0.00     0.078 C 
ATOM      2  C1  UNL d   1      -0.847  -3.257  -0.573  0.00  0.00    -0.077 A 
ATOM      3  C2  UNL d   1      -0.960  -4.614  -0.247  0.00  0.00    -0.001 A 
ATOM      4  C3  UNL d   1      -2.151  -5.301  -0.489  0.00  0.00     0.003 A 
ATOM      5  C4  UNL d   1      -3.237  -4.639  -1.059  0.00  0.00    -0.005 A 
ATOM      6  C5  UNL d   1      -3.133  -3.289  -1.388  0.00  0.00     0.003 A 
ATOM      7  C6  UNL d   1      -1.943  -2.601  -1.147  0.00  0.00    -0.001 A 
ENDROOT
TORSDOF 0
ENDMDL
