MODEL 1
REMARK minimizedAffinity -0.114890635
REMARK minimizedRMSD -1
REMARK  0 active torsions:
REMARK  status: ('A' for Active; 'I' for Inactive)
ROOT
ATOM      1  C   UNL d   1       5.955   3.489   4.574  0.00  0.00     0.078 C 
ATOM      2  C1  UNL d   1       5.968   1.992   4.658  0.00  0.00    -0.077 A 
ATOM      3  C2  UNL d   1       5.997   1.205   3.500  0.00  0.00    -0.001 A 
ATOM      4  C3  UNL d   1       5.999  -0.187   3.593  0.00  0.00     0.003 A 
ATOM      5  C4  UNL d   1       5.971  -0.805   4.842  0.00  0.00    -0.005 A 
ATOM      6  C5  UNL d   1       5.940  -0.030   5.999  0.00  0.00     0.003 A 
ATOM      7  C6  UNL d   1       5.938   1.362   5.908  0.00  0.00    -0.001 A 
ENDROOT
TORSDOF 0
ENDMDL
