MODEL 1
REMARK minimizedAffinity 7.61941957
REMARK minimizedRMSD -1
REMARK  0 active torsions:
REMARK  status: ('A' for Active; 'I' for Inactive)
ROOT
ATOM      1  C   UNL d   1       3.107   3.014   0.063  0.00  0.00     0.078 C 
ATOM      2  C1  UNL d   1       1.799   2.306  -0.125  0.00  0.00    -0.077 A 
ATOM      3  C2  UNL d   1       1.744   1.035  -0.711  0.00  0.00    -0.001 A 
ATOM      4  C3  UNL d   1       0.518   0.392  -0.888  0.00  0.00     0.003 A 
ATOM      5  C4  UNL d   1      -0.662   1.012  -0.484  0.00  0.00    -0.005 A 
ATOM      6  C5  UNL d   1      -0.618   2.277   0.098  0.00  0.00     0.003 A 
ATOM      7  C6  UNL d   1       0.607   2.922   0.276  0.00  0.00    -0.001 A 
ENDROOT
TORSDOF 0
ENDMDL
