MODEL 1
REMARK minimizedAffinity 3.66624665
REMARK minimizedRMSD -1
REMARK  0 active torsions:
REMARK  status: ('A' for Active; 'I' for Inactive)
ROOT
ATOM      1  C   UNL d   1       4.002   4.155   0.768  0.00  0.00     0.078 C 
ATOM      2  C1  UNL d   1       4.462   4.642   2.109  0.00  0.00    -0.077 A 
ATOM      3  C2  UNL d   1       3.821   4.231   3.284  0.00  0.00    -0.001 A 
ATOM      4  C3  UNL d   1       4.254   4.700   4.526  0.00  0.00     0.003 A 
ATOM      5  C4  UNL d   1       5.329   5.583   4.604  0.00  0.00    -0.005 A 
ATOM      6  C5  UNL d   1       5.972   5.999   3.440  0.00  0.00     0.003 A 
ATOM      7  C6  UNL d   1       5.540   5.531   2.198  0.00  0.00    -0.001 A 
ENDROOT
TORSDOF 0
ENDMDL
