MODEL 1
REMARK minimizedAffinity -3.76871252
REMARK minimizedRMSD -1
REMARK  0 active torsions:
REMARK  status: ('A' for Active; 'I' for Inactive)
ROOT
ATOM      1  C   UNL d   1       5.478   1.743   2.699  0.00  0.00     0.078 C 
ATOM      2  C1  UNL d   1       5.490   0.566   3.628  0.00  0.00    -0.077 A 
ATOM      3  C2  UNL d   1       5.358   0.738   5.011  0.00  0.00    -0.001 A 
ATOM      4  C3  UNL d   1       5.380  -0.366   5.865  0.00  0.00     0.003 A 
ATOM      5  C4  UNL d   1       5.535  -1.649   5.346  0.00  0.00    -0.005 A 
ATOM      6  C5  UNL d   1       5.670  -1.830   3.971  0.00  0.00     0.003 A 
ATOM      7  C6  UNL d   1       5.648  -0.728   3.115  0.00  0.00    -0.001 A 
ENDROOT
TORSDOF 0
ENDMDL
