MODEL 1
REMARK minimizedAffinity -4.6056819
REMARK minimizedRMSD -1
REMARK  0 active torsions:
REMARK  status: ('A' for Active; 'I' for Inactive)
ROOT
ATOM      1  C   UNL d   1       1.850   1.053  -4.193  0.00  0.00     0.078 C 
ATOM      2  C1  UNL d   1       1.786  -0.121  -3.262  0.00  0.00    -0.077 A 
ATOM      3  C2  UNL d   1       1.158  -0.018  -2.015  0.00  0.00    -0.001 A 
ATOM      4  C3  UNL d   1       1.114  -1.116  -1.154  0.00  0.00     0.003 A 
ATOM      5  C4  UNL d   1       1.697  -2.324  -1.531  0.00  0.00    -0.005 A 
ATOM      6  C5  UNL d   1       2.326  -2.435  -2.769  0.00  0.00     0.003 A 
ATOM      7  C6  UNL d   1       2.371  -1.338  -3.631  0.00  0.00    -0.001 A 
ENDROOT
TORSDOF 0
ENDMDL
