MODEL 1
REMARK minimizedAffinity 1.09680796
REMARK minimizedRMSD -1
REMARK  0 active torsions:
REMARK  status: ('A' for Active; 'I' for Inactive)
ROOT
ATOM      1  C   UNL d   1      -2.611  -1.152   3.903  0.00  0.00     0.078 C 
ATOM      2  C1  UNL d   1      -2.340  -1.010   2.435  0.00  0.00    -0.077 A 
ATOM      3  C2  UNL d   1      -1.035  -0.846   1.955  0.00  0.00    -0.001 A 
ATOM      4  C3  UNL d   1      -0.799  -0.705   0.586  0.00  0.00     0.003 A 
ATOM      5  C4  UNL d   1      -1.864  -0.726  -0.313  0.00  0.00    -0.005 A 
ATOM      6  C5  UNL d   1      -3.166  -0.886   0.156  0.00  0.00     0.003 A 
ATOM      7  C6  UNL d   1      -3.404  -1.027   1.524  0.00  0.00    -0.001 A 
ENDROOT
TORSDOF 0
ENDMDL
