MODEL 1
REMARK minimizedAffinity 4.35501814
REMARK minimizedRMSD -1
REMARK  0 active torsions:
REMARK  status: ('A' for Active; 'I' for Inactive)
ROOT
ATOM      1  C   UNL d   1       5.553   5.999   3.716  0.00  0.00     0.078 C 
ATOM      2  C1  UNL d   1       4.934   5.314   2.534  0.00  0.00    -0.077 A 
ATOM      3  C2  UNL d   1       4.725   6.000   1.331  0.00  0.00    -0.001 A 
ATOM      4  C3  UNL d   1       4.139   5.353   0.242  0.00  0.00     0.003 A 
ATOM      5  C4  UNL d   1       3.756   4.017   0.346  0.00  0.00    -0.005 A 
ATOM      6  C5  UNL d   1       3.957   3.327   1.540  0.00  0.00     0.003 A 
ATOM      7  C6  UNL d   1       4.543   3.973   2.630  0.00  0.00    -0.001 A 
ENDROOT
TORSDOF 0
ENDMDL
