MODEL 1
REMARK minimizedAffinity 1.52743936
REMARK minimizedRMSD -1
REMARK  0 active torsions:
REMARK  status: ('A' for Active; 'I' for Inactive)
ROOT
ATOM      1  C   UNL d   1       4.500   1.948   5.217  0.00  0.00     0.078 C 
ATOM      2  C1  UNL d   1       4.824   3.268   4.585  0.00  0.00    -0.077 A 
ATOM      3  C2  UNL d   1       5.715   4.160   5.194  0.00  0.00    -0.001 A 
ATOM      4  C3  UNL d   1       6.000   5.391   4.600  0.00  0.00     0.003 A 
ATOM      5  C4  UNL d   1       5.397   5.741   3.393  0.00  0.00    -0.005 A 
ATOM      6  C5  UNL d   1       4.507   4.861   2.780  0.00  0.00     0.003 A 
ATOM      7  C6  UNL d   1       4.221   3.630   3.374  0.00  0.00    -0.001 A 
ENDROOT
TORSDOF 0
ENDMDL
