MODEL 1
REMARK minimizedAffinity -1.94528353
REMARK minimizedRMSD -1
REMARK  0 active torsions:
REMARK  status: ('A' for Active; 'I' for Inactive)
ROOT
ATOM      1  C1  BNZ d   1      -4.119  -3.948  -4.565  0.00  0.00     0.000 A 
ATOM      2  C2  BNZ d   1      -4.143  -5.317  -4.568  0.00  0.00     0.000 A 
ATOM      3  C3  BNZ d   1      -5.072  -6.000  -5.302  0.00  0.00     0.000 A 
ATOM      4  C4  BNZ d   1      -6.000  -5.314  -6.000  0.00  0.00     0.000 A 
ATOM      5  C5  BNZ d   1      -5.995  -3.933  -6.000  0.00  0.00     0.000 A 
ATOM      6  C6  BNZ d   1      -5.034  -3.249  -5.291  0.00  0.00     0.000 A 
ENDROOT
TORSDOF 0
ENDMDL
