MODEL 1
REMARK minimizedAffinity 3.64788914
REMARK minimizedRMSD -1
REMARK  0 active torsions:
REMARK  status: ('A' for Active; 'I' for Inactive)
ROOT
ATOM      1  C1  BNZ d   1      -5.819  -3.729  -5.157  0.00  0.00     0.000 A 
ATOM      2  C2  BNZ d   1      -6.000  -4.793  -6.000  0.00  0.00     0.000 A 
ATOM      3  C3  BNZ d   1      -5.264  -5.936  -5.852  0.00  0.00     0.000 A 
ATOM      4  C4  BNZ d   1      -4.322  -5.998  -4.888  0.00  0.00     0.000 A 
ATOM      5  C5  BNZ d   1      -4.122  -4.930  -4.037  0.00  0.00     0.000 A 
ATOM      6  C6  BNZ d   1      -4.891  -3.796  -4.164  0.00  0.00     0.000 A 
ENDROOT
TORSDOF 0
ENDMDL
