MODEL 1
REMARK minimizedAffinity 5.95609713
REMARK minimizedRMSD -1
REMARK  0 active torsions:
REMARK  status: ('A' for Active; 'I' for Inactive)
ROOT
ATOM      1  C1  BNZ d   1       1.132  -2.880   2.590  0.00  0.00     0.000 A 
ATOM      2  C2  BNZ d   1       0.582  -2.332   3.717  0.00  0.00     0.000 A 
ATOM      3  C3  BNZ d   1       0.337  -3.099   4.821  0.00  0.00     0.000 A 
ATOM      4  C4  BNZ d   1       0.604  -4.421   4.783  0.00  0.00     0.000 A 
ATOM      5  C5  BNZ d   1       1.150  -4.991   3.650  0.00  0.00     0.000 A 
ATOM      6  C6  BNZ d   1       1.431  -4.207   2.554  0.00  0.00     0.000 A 
ENDROOT
TORSDOF 0
ENDMDL
