MODEL 1
REMARK minimizedAffinity 8.89069366
REMARK minimizedRMSD -1
REMARK  0 active torsions:
REMARK  status: ('A' for Active; 'I' for Inactive)
ROOT
ATOM      1  C1  BNZ d   1       0.946   6.000  -1.827  0.00  0.00     0.000 A 
ATOM      2  C2  BNZ d   1       2.222   5.998  -2.323  0.00  0.00     0.000 A 
ATOM      3  C3  BNZ d   1       3.047   4.926  -2.127  0.00  0.00     0.000 A 
ATOM      4  C4  BNZ d   1       2.610   3.876  -1.402  0.00  0.00     0.000 A 
ATOM      5  C5  BNZ d   1       1.328   3.867  -0.888  0.00  0.00     0.000 A 
ATOM      6  C6  BNZ d   1       0.487   4.931  -1.120  0.00  0.00     0.000 A 
ENDROOT
TORSDOF 0
ENDMDL
