MODEL 1
REMARK minimizedAffinity -2.8242991
REMARK minimizedRMSD -1
REMARK  0 active torsions:
REMARK  status: ('A' for Active; 'I' for Inactive)
ROOT
ATOM      1  C1  BNZ d   1       3.770   4.411  -4.043  0.00  0.00     0.000 A 
ATOM      2  C2  BNZ d   1       4.535   4.485  -5.176  0.00  0.00     0.000 A 
ATOM      3  C3  BNZ d   1       5.657   5.265  -5.213  0.00  0.00     0.000 A 
ATOM      4  C4  BNZ d   1       5.990   6.000  -4.132  0.00  0.00     0.000 A 
ATOM      5  C5  BNZ d   1       5.223   5.944  -2.986  0.00  0.00     0.000 A 
ATOM      6  C6  BNZ d   1       4.116   5.128  -2.939  0.00  0.00     0.000 A 
ENDROOT
TORSDOF 0
ENDMDL
