MODEL 1
REMARK minimizedAffinity 2.08077788
REMARK minimizedRMSD -1
REMARK  0 active torsions:
REMARK  status: ('A' for Active; 'I' for Inactive)
ROOT
ATOM      1  C1  BNZ d   1       2.223  -2.357   2.996  0.00  0.00     0.000 A 
ATOM      2  C2  BNZ d   1       1.379  -2.353   4.074  0.00  0.00     0.000 A 
ATOM      3  C3  BNZ d   1       0.356  -1.450   4.158  0.00  0.00     0.000 A 
ATOM      4  C4  BNZ d   1       0.203  -0.528   3.186  0.00  0.00     0.000 A 
ATOM      5  C5  BNZ d   1       1.052  -0.513   2.098  0.00  0.00     0.000 A 
ATOM      6  C6  BNZ d   1       2.057  -1.448   1.997  0.00  0.00     0.000 A 
ENDROOT
TORSDOF 0
ENDMDL
