MODEL 1
REMARK minimizedAffinity 4.86246061
REMARK minimizedRMSD -1
REMARK  0 active torsions:
REMARK  status: ('A' for Active; 'I' for Inactive)
ROOT
ATOM      1  C1  BNZ d   1       4.811   5.998  -5.896  0.00  0.00     0.000 A 
ATOM      2  C2  BNZ d   1       3.635   5.804  -5.222  0.00  0.00     0.000 A 
ATOM      3  C3  BNZ d   1       3.632   5.544  -3.880  0.00  0.00     0.000 A 
ATOM      4  C4  BNZ d   1       4.805   5.439  -3.222  0.00  0.00     0.000 A 
ATOM      5  C5  BNZ d   1       6.000   5.622  -3.890  0.00  0.00     0.000 A 
ATOM      6  C6  BNZ d   1       5.997   5.923  -5.233  0.00  0.00     0.000 A 
ENDROOT
TORSDOF 0
ENDMDL
