MODEL 1
REMARK minimizedAffinity 6.43442059
REMARK minimizedRMSD -1
REMARK  0 active torsions:
REMARK  status: ('A' for Active; 'I' for Inactive)
ROOT
ATOM      1  C1  BNZ d   1      -3.520   1.111  -2.705  0.00  0.00     0.000 A 
ATOM      2  C2  BNZ d   1      -3.257  -0.201  -3.000  0.00  0.00     0.000 A 
ATOM      3  C3  BNZ d   1      -4.191  -1.171  -2.765  0.00  0.00     0.000 A 
ATOM      4  C4  BNZ d   1      -5.368  -0.836  -2.198  0.00  0.00     0.000 A 
ATOM      5  C5  BNZ d   1      -5.644   0.480  -1.887  0.00  0.00     0.000 A 
ATOM      6  C6  BNZ d   1      -4.717   1.460  -2.161  0.00  0.00     0.000 A 
ENDROOT
TORSDOF 0
ENDMDL
