MODEL 1
REMARK minimizedAffinity 3.00746775
REMARK minimizedRMSD -1
REMARK  0 active torsions:
REMARK  status: ('A' for Active; 'I' for Inactive)
ROOT
ATOM      1  C1  BNZ d   1       1.721  -2.549   2.105  0.00  0.00     0.000 A 
ATOM      2  C2  BNZ d   1       1.138  -3.252   3.125  0.00  0.00     0.000 A 
ATOM      3  C3  BNZ d   1       0.812  -2.638   4.302  0.00  0.00     0.000 A 
ATOM      4  C4  BNZ d   1       1.107  -1.333   4.472  0.00  0.00     0.000 A 
ATOM      5  C5  BNZ d   1       1.703  -0.613   3.457  0.00  0.00     0.000 A 
ATOM      6  C6  BNZ d   1       1.994  -1.225   2.259  0.00  0.00     0.000 A 
ENDROOT
TORSDOF 0
ENDMDL
