MODEL 1
REMARK minimizedAffinity 8.60081959
REMARK minimizedRMSD -1
REMARK  3 active torsions:
REMARK  status: ('A' for Active; 'I' for Inactive)
REMARK    1  A    between atoms: C3'_2  and  C2'_3 
REMARK    2  A    between atoms: C2'_3  and  C1'_4 
REMARK    3  A    between atoms: C1'_4  and  C1_5 
ROOT
ATOM      1  C1  N4B d   1      -4.648  -0.279  -0.386  0.00  0.00    -0.075 A 
ATOM      2  C2  N4B d   1      -5.901  -0.689  -0.893  0.00  0.00     0.002 A 
ATOM      3  C3  N4B d   1      -6.000  -1.165  -2.177  0.00  0.00     0.002 A 
ATOM      4  C4  N4B d   1      -4.867  -1.223  -2.976  0.00  0.00    -0.004 A 
ATOM      5  C5  N4B d   1      -3.657  -0.849  -2.471  0.00  0.00     0.002 A 
ATOM      6  C6  N4B d   1      -3.542  -0.372  -1.180  0.00  0.00     0.002 A 
ENDROOT
BRANCH   1   7
ATOM      7  C1' N4B d   1      -4.506   0.329   0.982  0.00  0.00     0.057 C 
BRANCH   7   8
ATOM      8  C2' N4B d   1      -3.103   0.047   1.512  0.00  0.00     0.009 C 
BRANCH   8   9
ATOM      9  C3' N4B d   1      -3.059  -1.208   2.367  0.00  0.00     0.004 C 
ATOM     10  C4' N4B d   1      -2.334  -2.339   1.701  0.00  0.00     0.003 C 
ENDBRANCH   8   9
ENDBRANCH   7   8
ENDBRANCH   1   7
TORSDOF 3
ENDMDL
