MODEL 1
REMARK minimizedAffinity 8.1243782
REMARK minimizedRMSD -1
REMARK  3 active torsions:
REMARK  status: ('A' for Active; 'I' for Inactive)
REMARK    1  A    between atoms: C3'_2  and  C2'_3 
REMARK    2  A    between atoms: C2'_3  and  C1'_4 
REMARK    3  A    between atoms: C1'_4  and  C1_5 
ROOT
ATOM      1  C1  N4B d   1       1.749  -0.389   5.794  0.00  0.00    -0.075 A 
ATOM      2  C2  N4B d   1       0.357  -0.152   5.819  0.00  0.00     0.002 A 
ATOM      3  C3  N4B d   1      -0.517  -1.206   5.928  0.00  0.00     0.002 A 
ATOM      4  C4  N4B d   1      -0.025  -2.501   5.994  0.00  0.00    -0.004 A 
ATOM      5  C5  N4B d   1       1.322  -2.719   5.996  0.00  0.00     0.002 A 
ATOM      6  C6  N4B d   1       2.212  -1.669   5.891  0.00  0.00     0.002 A 
ENDROOT
BRANCH   1   7
ATOM      7  C1' N4B d   1       2.741   0.724   5.590  0.00  0.00     0.057 C 
BRANCH   7   8
ATOM      8  C2' N4B d   1       2.700   1.169   4.131  0.00  0.00     0.009 C 
BRANCH   8   9
ATOM      9  C3' N4B d   1       2.451   2.661   3.999  0.00  0.00     0.004 C 
ATOM     10  C4' N4B d   1       0.995   2.999   3.884  0.00  0.00     0.003 C 
ENDBRANCH   8   9
ENDBRANCH   7   8
ENDBRANCH   1   7
TORSDOF 3
ENDMDL
