MODEL 1
REMARK minimizedAffinity 4.79629087
REMARK minimizedRMSD -1
REMARK  3 active torsions:
REMARK  status: ('A' for Active; 'I' for Inactive)
REMARK    1  A    between atoms: C3'_2  and  C2'_3 
REMARK    2  A    between atoms: C2'_3  and  C1'_4 
REMARK    3  A    between atoms: C1'_4  and  C1_5 
ROOT
ATOM      1  C1  N4B d   1      -1.904  -0.420   2.732  0.00  0.00    -0.075 A 
ATOM      2  C2  N4B d   1      -1.054   0.708   2.736  0.00  0.00     0.002 A 
ATOM      3  C3  N4B d   1      -0.465   1.120   3.907  0.00  0.00     0.002 A 
ATOM      4  C4  N4B d   1      -0.725   0.434   5.084  0.00  0.00    -0.004 A 
ATOM      5  C5  N4B d   1      -1.527  -0.670   5.067  0.00  0.00     0.002 A 
ATOM      6  C6  N4B d   1      -2.122  -1.097   3.897  0.00  0.00     0.002 A 
ENDROOT
BRANCH   1   7
ATOM      7  C1' N4B d   1      -2.638  -0.856   1.494  0.00  0.00     0.057 C 
BRANCH   7   8
ATOM      8  C2' N4B d   1      -4.140  -0.736   1.734  0.00  0.00     0.009 C 
BRANCH   8   9
ATOM      9  C3' N4B d   1      -4.896  -0.420   0.455  0.00  0.00     0.004 C 
ATOM     10  C4' N4B d   1      -5.890  -1.483   0.091  0.00  0.00     0.003 C 
ENDBRANCH   8   9
ENDBRANCH   7   8
ENDBRANCH   1   7
TORSDOF 3
ENDMDL
