MODEL 1
REMARK minimizedAffinity 6.32383871
REMARK minimizedRMSD -1
REMARK  3 active torsions:
REMARK  status: ('A' for Active; 'I' for Inactive)
REMARK    1  A    between atoms: C3'_2  and  C2'_3 
REMARK    2  A    between atoms: C2'_3  and  C1'_4 
REMARK    3  A    between atoms: C1'_4  and  C1_5 
ROOT
ATOM      1  C1  N4B d   1      -1.380  -5.980   3.301  0.00  0.00    -0.075 A 
ATOM      2  C2  N4B d   1      -0.026  -5.987   3.700  0.00  0.00     0.002 A 
ATOM      3  C3  N4B d   1       0.297  -5.996   5.035  0.00  0.00     0.002 A 
ATOM      4  C4  N4B d   1      -0.714  -5.979   5.985  0.00  0.00    -0.004 A 
ATOM      5  C5  N4B d   1      -2.020  -5.998   5.591  0.00  0.00     0.002 A 
ATOM      6  C6  N4B d   1      -2.358  -5.993   4.253  0.00  0.00     0.002 A 
ENDROOT
BRANCH   1   7
ATOM      7  C1' N4B d   1      -1.781  -5.883   1.854  0.00  0.00     0.057 C 
BRANCH   7   8
ATOM      8  C2' N4B d   1      -0.532  -5.961   0.982  0.00  0.00     0.009 C 
BRANCH   8   9
ATOM      9  C3' N4B d   1      -0.777  -5.410  -0.412  0.00  0.00     0.004 C 
ATOM     10  C4' N4B d   1      -0.140  -4.069  -0.627  0.00  0.00     0.003 C 
ENDBRANCH   8   9
ENDBRANCH   7   8
ENDBRANCH   1   7
TORSDOF 3
ENDMDL
