MODEL 1
REMARK minimizedAffinity -2.46195173
REMARK minimizedRMSD -1
REMARK  3 active torsions:
REMARK  status: ('A' for Active; 'I' for Inactive)
REMARK    1  A    between atoms: C3'_2  and  C2'_3 
REMARK    2  A    between atoms: C2'_3  and  C1'_4 
REMARK    3  A    between atoms: C1'_4  and  C1_5 
ROOT
ATOM      1  C1  N4B d   1      -4.616   5.674   2.662  0.00  0.00    -0.075 A 
ATOM      2  C2  N4B d   1      -3.461   5.846   3.456  0.00  0.00     0.002 A 
ATOM      3  C3  N4B d   1      -2.233   5.991   2.858  0.00  0.00     0.002 A 
ATOM      4  C4  N4B d   1      -2.134   5.951   1.475  0.00  0.00    -0.004 A 
ATOM      5  C5  N4B d   1      -3.258   5.810   0.715  0.00  0.00     0.002 A 
ATOM      6  C6  N4B d   1      -4.499   5.667   1.302  0.00  0.00     0.002 A 
ENDROOT
BRANCH   1   7
ATOM      7  C1' N4B d   1      -5.969   5.425   3.271  0.00  0.00     0.057 C 
BRANCH   7   8
ATOM      8  C2' N4B d   1      -5.954   4.079   3.990  0.00  0.00     0.009 C 
BRANCH   8   9
ATOM      9  C3' N4B d   1      -5.660   4.229   5.472  0.00  0.00     0.004 C 
ATOM     10  C4' N4B d   1      -5.959   5.606   5.987  0.00  0.00     0.003 C 
ENDBRANCH   8   9
ENDBRANCH   7   8
ENDBRANCH   1   7
TORSDOF 3
ENDMDL
