MODEL 1
REMARK minimizedAffinity 5.91977882
REMARK minimizedRMSD -1
REMARK  3 active torsions:
REMARK  status: ('A' for Active; 'I' for Inactive)
REMARK    1  A    between atoms: C3'_2  and  C2'_3 
REMARK    2  A    between atoms: C2'_3  and  C1'_4 
REMARK    3  A    between atoms: C1'_4  and  C1_5 
ROOT
ATOM      1  C1  N4B d   1       1.467   1.843   0.667  0.00  0.00    -0.075 A 
ATOM      2  C2  N4B d   1       1.538   0.456   0.411  0.00  0.00     0.002 A 
ATOM      3  C3  N4B d   1       2.690  -0.090  -0.100  0.00  0.00     0.002 A 
ATOM      4  C4  N4B d   1       3.773   0.730  -0.379  0.00  0.00    -0.004 A 
ATOM      5  C5  N4B d   1       3.705   2.064  -0.105  0.00  0.00     0.002 A 
ATOM      6  C6  N4B d   1       2.555   2.626   0.412  0.00  0.00     0.002 A 
ENDROOT
BRANCH   1   7
ATOM      7  C1' N4B d   1       0.201   2.499   1.145  0.00  0.00     0.057 C 
BRANCH   7   8
ATOM      8  C2' N4B d   1       0.263   2.664   2.660  0.00  0.00     0.009 C 
BRANCH   8   9
ATOM      9  C3' N4B d   1      -0.045   1.366   3.387  0.00  0.00     0.004 C 
ATOM     10  C4' N4B d   1       0.396   1.384   4.820  0.00  0.00     0.003 C 
ENDBRANCH   8   9
ENDBRANCH   7   8
ENDBRANCH   1   7
TORSDOF 3
ENDMDL
