MODEL 1
REMARK minimizedAffinity -5.00452471
REMARK minimizedRMSD -1
REMARK  1 active torsions:
REMARK  status: ('A' for Active; 'I' for Inactive)
REMARK    1  A    between atoms: C1_2  and  C2_3 
ROOT
ATOM      1  C2  UNL d   1      -0.333   0.721  -0.315  0.00  0.00    -0.081 A 
ATOM      2  C3  UNL d   1      -0.772   0.112   0.868  0.00  0.00     0.006 A 
ATOM      3  C4  UNL d   1      -0.749  -1.278   0.999  0.00  0.00     0.002 A 
ATOM      4  C5  UNL d   1      -0.281  -2.082  -0.045  0.00  0.00    -0.080 A 
ATOM      5  C6  UNL d   1      -0.223  -3.575   0.095  0.00  0.00     0.076 C 
ATOM      6  C7  UNL d   1       0.141  -1.476  -1.233  0.00  0.00     0.002 A 
ATOM      7  C8  UNL d   1       0.119  -0.086  -1.365  0.00  0.00     0.006 A 
ENDROOT
BRANCH   1   8
ATOM      8  C1  UNL d   1      -0.295   2.223  -0.436  0.00  0.00     0.054 C 
ATOM      9  C   UNL d   1       0.865   2.812   0.353  0.00  0.00     0.018 C 
ENDBRANCH   1   8
TORSDOF 1
ENDMDL
