MODEL 1
REMARK minimizedAffinity -3.57877398
REMARK minimizedRMSD -1
REMARK  1 active torsions:
REMARK  status: ('A' for Active; 'I' for Inactive)
REMARK    1  A    between atoms: C1_2  and  C2_3 
ROOT
ATOM      1  C2  UNL d   1      -0.379   0.654   0.118  0.00  0.00    -0.081 A 
ATOM      2  C3  UNL d   1      -1.022  -0.071   1.129  0.00  0.00     0.006 A 
ATOM      3  C4  UNL d   1      -0.836  -1.451   1.239  0.00  0.00     0.002 A 
ATOM      4  C5  UNL d   1       0.001  -2.128   0.345  0.00  0.00    -0.080 A 
ATOM      5  C6  UNL d   1       0.233  -3.604   0.471  0.00  0.00     0.076 C 
ATOM      6  C7  UNL d   1       0.630  -1.407  -0.675  0.00  0.00     0.002 A 
ATOM      7  C8  UNL d   1       0.444  -0.027  -0.786  0.00  0.00     0.006 A 
ENDROOT
BRANCH   1   8
ATOM      8  C1  UNL d   1      -0.526   2.152   0.036  0.00  0.00     0.054 C 
ATOM      9  C   UNL d   1       0.769   2.856   0.416  0.00  0.00     0.018 C 
ENDBRANCH   1   8
TORSDOF 1
ENDMDL
