MODEL 1
REMARK minimizedAffinity -3.20539808
REMARK minimizedRMSD -1
REMARK  1 active torsions:
REMARK  status: ('A' for Active; 'I' for Inactive)
REMARK    1  A    between atoms: C1_2  and  C2_3 
ROOT
ATOM      1  C2  UNL d   1       0.224   1.480  -0.021  0.00  0.00    -0.081 A 
ATOM      2  C3  UNL d   1      -0.618   1.214   1.066  0.00  0.00     0.006 A 
ATOM      3  C4  UNL d   1      -1.060  -0.086   1.318  0.00  0.00     0.002 A 
ATOM      4  C5  UNL d   1      -0.662  -1.144   0.493  0.00  0.00    -0.080 A 
ATOM      5  C6  UNL d   1      -1.105  -2.550   0.770  0.00  0.00     0.076 C 
ATOM      6  C7  UNL d   1       0.165  -0.876  -0.603  0.00  0.00     0.002 A 
ATOM      7  C8  UNL d   1       0.606   0.425  -0.856  0.00  0.00     0.006 A 
ENDROOT
BRANCH   1   8
ATOM      8  C1  UNL d   1       0.754   2.871  -0.258  0.00  0.00     0.054 C 
ATOM      9  C   UNL d   1       0.539   3.759   0.959  0.00  0.00     0.018 C 
ENDBRANCH   1   8
TORSDOF 1
ENDMDL
