MODEL 1
REMARK minimizedAffinity -3.13326192
REMARK minimizedRMSD -1
REMARK  1 active torsions:
REMARK  status: ('A' for Active; 'I' for Inactive)
REMARK    1  A    between atoms: C1_2  and  C2_3 
ROOT
ATOM      1  C2  UNL d   1      -0.144  -1.080   0.070  0.00  0.00    -0.081 A 
ATOM      2  C3  UNL d   1       1.198  -0.889   0.422  0.00  0.00     0.006 A 
ATOM      3  C4  UNL d   1       1.723   0.400   0.543  0.00  0.00     0.002 A 
ATOM      4  C5  UNL d   1       0.913   1.519   0.323  0.00  0.00    -0.080 A 
ATOM      5  C6  UNL d   1       1.455   2.908   0.480  0.00  0.00     0.076 C 
ATOM      6  C7  UNL d   1      -0.423   1.329  -0.046  0.00  0.00     0.002 A 
ATOM      7  C8  UNL d   1      -0.948   0.040  -0.168  0.00  0.00     0.006 A 
ENDROOT
BRANCH   1   8
ATOM      8  C1  UNL d   1      -0.729  -2.467   0.001  0.00  0.00     0.054 C 
ATOM      9  C   UNL d   1       0.358  -3.530   0.076  0.00  0.00     0.018 C 
ENDBRANCH   1   8
TORSDOF 1
ENDMDL
