MODEL 1
REMARK minimizedAffinity -2.68275619
REMARK minimizedRMSD -1
REMARK  1 active torsions:
REMARK  status: ('A' for Active; 'I' for Inactive)
REMARK    1  A    between atoms: C1_2  and  C2_3 
ROOT
ATOM      1  C2  UNL d   1       0.140   1.089   0.146  0.00  0.00    -0.081 A 
ATOM      2  C3  UNL d   1       0.889   1.811  -0.791  0.00  0.00     0.006 A 
ATOM      3  C4  UNL d   1       1.409   3.067  -0.465  0.00  0.00     0.002 A 
ATOM      4  C5  UNL d   1       1.195   3.616   0.803  0.00  0.00    -0.080 A 
ATOM      5  C6  UNL d   1       1.773   4.950   1.175  0.00  0.00     0.076 C 
ATOM      6  C7  UNL d   1       0.432   2.902   1.733  0.00  0.00     0.002 A 
ATOM      7  C8  UNL d   1      -0.088   1.647   1.409  0.00  0.00     0.006 A 
ENDROOT
BRANCH   1   8
ATOM      8  C1  UNL d   1      -0.366  -0.293  -0.179  0.00  0.00     0.054 C 
ATOM      9  C   UNL d   1      -0.814  -1.028   1.076  0.00  0.00     0.018 C 
ENDBRANCH   1   8
TORSDOF 1
ENDMDL
