MODEL 1
REMARK minimizedAffinity -4.36223888
REMARK minimizedRMSD -1
REMARK  1 active torsions:
REMARK  status: ('A' for Active; 'I' for Inactive)
REMARK    1  A    between atoms: C1_2  and  C2_3 
ROOT
ATOM      1  C2  UNL d   1      -0.388   0.015   0.330  0.00  0.00    -0.081 A 
ATOM      2  C3  UNL d   1      -1.018  -0.818   1.263  0.00  0.00     0.006 A 
ATOM      3  C4  UNL d   1      -0.806  -2.199   1.235  0.00  0.00     0.002 A 
ATOM      4  C5  UNL d   1       0.045  -2.767   0.282  0.00  0.00    -0.080 A 
ATOM      5  C6  UNL d   1       0.305  -4.244   0.261  0.00  0.00     0.076 C 
ATOM      6  C7  UNL d   1       0.661  -1.937  -0.660  0.00  0.00     0.002 A 
ATOM      7  C8  UNL d   1       0.449  -0.557  -0.634  0.00  0.00     0.006 A 
ENDROOT
BRANCH   1   8
ATOM      8  C1  UNL d   1      -0.563   1.511   0.398  0.00  0.00     0.054 C 
ATOM      9  C   UNL d   1       0.772   2.231   0.273  0.00  0.00     0.018 C 
ENDBRANCH   1   8
TORSDOF 1
ENDMDL
