MODEL 1
REMARK minimizedAffinity -2.12636542
REMARK minimizedRMSD -1
REMARK  1 active torsions:
REMARK  status: ('A' for Active; 'I' for Inactive)
REMARK    1  A    between atoms: C1_2  and  C2_3 
ROOT
ATOM      1  C2  UNL d   1       0.154   1.999   0.100  0.00  0.00    -0.081 A 
ATOM      2  C3  UNL d   1      -0.128   1.133   1.164  0.00  0.00     0.006 A 
ATOM      3  C4  UNL d   1      -0.191  -0.247   0.955  0.00  0.00     0.002 A 
ATOM      4  C5  UNL d   1       0.035  -0.784  -0.317  0.00  0.00    -0.080 A 
ATOM      5  C6  UNL d   1       0.000  -2.265  -0.549  0.00  0.00     0.076 C 
ATOM      6  C7  UNL d   1       0.299   0.083  -1.383  0.00  0.00     0.002 A 
ATOM      7  C8  UNL d   1       0.361   1.463  -1.175  0.00  0.00     0.006 A 
ENDROOT
BRANCH   1   8
ATOM      8  C1  UNL d   1       0.286   3.482   0.335  0.00  0.00     0.054 C 
ATOM      9  C   UNL d   1       1.733   3.874   0.597  0.00  0.00     0.018 C 
ENDBRANCH   1   8
TORSDOF 1
ENDMDL
