MODEL 1
REMARK minimizedAffinity -3.46920609
REMARK minimizedRMSD -1
REMARK  1 active torsions:
REMARK  status: ('A' for Active; 'I' for Inactive)
REMARK    1  A    between atoms: C1_2  and  C2_3 
ROOT
ATOM      1  C2  UNL d   1       0.088   1.198  -0.324  0.00  0.00    -0.081 A 
ATOM      2  C3  UNL d   1      -1.085   0.924   0.390  0.00  0.00     0.006 A 
ATOM      3  C4  UNL d   1      -1.401  -0.386   0.758  0.00  0.00     0.002 A 
ATOM      4  C5  UNL d   1      -0.546  -1.442   0.426  0.00  0.00    -0.080 A 
ATOM      5  C6  UNL d   1      -0.858  -2.849   0.841  0.00  0.00     0.076 C 
ATOM      6  C7  UNL d   1       0.618  -1.171  -0.302  0.00  0.00     0.002 A 
ATOM      7  C8  UNL d   1       0.933   0.138  -0.671  0.00  0.00     0.006 A 
ENDROOT
BRANCH   1   8
ATOM      8  C1  UNL d   1       0.463   2.617  -0.666  0.00  0.00     0.054 C 
ATOM      9  C   UNL d   1       1.921   2.899  -0.332  0.00  0.00     0.018 C 
ENDBRANCH   1   8
TORSDOF 1
ENDMDL
