MODEL 1
REMARK minimizedAffinity -5.84831381
REMARK minimizedRMSD -1
REMARK  1 active torsions:
REMARK  status: ('A' for Active; 'I' for Inactive)
REMARK    1  A    between atoms: C1_2  and  C2_3 
ROOT
ATOM      1  C2  UNL d   1       0.213   0.635  -0.334  0.00  0.00    -0.081 A 
ATOM      2  C3  UNL d   1      -0.533   0.080   0.712  0.00  0.00     0.006 A 
ATOM      3  C4  UNL d   1      -0.632  -1.306   0.854  0.00  0.00     0.002 A 
ATOM      4  C5  UNL d   1       0.020  -2.159  -0.043  0.00  0.00    -0.080 A 
ATOM      5  C6  UNL d   1      -0.053  -3.649   0.116  0.00  0.00     0.076 C 
ATOM      6  C7  UNL d   1       0.752  -1.605  -1.099  0.00  0.00     0.002 A 
ATOM      7  C8  UNL d   1       0.850  -0.219  -1.241  0.00  0.00     0.006 A 
ENDROOT
BRANCH   1   8
ATOM      8  C1  UNL d   1       0.375   2.129  -0.452  0.00  0.00     0.054 C 
ATOM      9  C   UNL d   1       1.769   2.570  -0.030  0.00  0.00     0.018 C 
ENDBRANCH   1   8
TORSDOF 1
ENDMDL
