MODEL 1
REMARK minimizedAffinity -5.34846497
REMARK minimizedRMSD -1
REMARK  1 active torsions:
REMARK  status: ('A' for Active; 'I' for Inactive)
REMARK    1  A    between atoms: C1_2  and  C2_3 
ROOT
ATOM      1  C2  UNL d   1      -0.144   0.641   0.186  0.00  0.00    -0.081 A 
ATOM      2  C3  UNL d   1      -0.624  -0.094   1.277  0.00  0.00     0.006 A 
ATOM      3  C4  UNL d   1      -0.615  -1.491   1.249  0.00  0.00     0.002 A 
ATOM      4  C5  UNL d   1      -0.119  -2.175   0.135  0.00  0.00    -0.080 A 
ATOM      5  C6  UNL d   1      -0.075  -3.674   0.104  0.00  0.00     0.076 C 
ATOM      6  C7  UNL d   1       0.345  -1.441  -0.962  0.00  0.00     0.002 A 
ATOM      7  C8  UNL d   1       0.335  -0.045  -0.935  0.00  0.00     0.006 A 
ENDROOT
BRANCH   1   8
ATOM      8  C1  UNL d   1      -0.093   2.146   0.240  0.00  0.00     0.054 C 
ATOM      9  C   UNL d   1       1.342   2.649   0.311  0.00  0.00     0.018 C 
ENDBRANCH   1   8
TORSDOF 1
ENDMDL
