MODEL 1
REMARK minimizedAffinity -5.28883362
REMARK minimizedRMSD -1
REMARK  1 active torsions:
REMARK  status: ('A' for Active; 'I' for Inactive)
REMARK    1  A    between atoms: C1_2  and  C2_3 
ROOT
ATOM      1  C2  UNL d   1       0.169   1.191   0.056  0.00  0.00    -0.081 A 
ATOM      2  C3  UNL d   1      -0.672   0.716   1.070  0.00  0.00     0.006 A 
ATOM      3  C4  UNL d   1      -0.843  -0.657   1.262  0.00  0.00     0.002 A 
ATOM      4  C5  UNL d   1      -0.172  -1.577   0.450  0.00  0.00    -0.080 A 
ATOM      5  C6  UNL d   1      -0.324  -3.054   0.666  0.00  0.00     0.076 C 
ATOM      6  C7  UNL d   1       0.655  -1.103  -0.574  0.00  0.00     0.002 A 
ATOM      7  C8  UNL d   1       0.826   0.270  -0.768  0.00  0.00     0.006 A 
ENDROOT
BRANCH   1   8
ATOM      8  C1  UNL d   1       0.407   2.670  -0.113  0.00  0.00     0.054 C 
ATOM      9  C   UNL d   1       1.871   3.024   0.108  0.00  0.00     0.018 C 
ENDBRANCH   1   8
TORSDOF 1
ENDMDL
