MODEL 1
REMARK minimizedAffinity 4.98362303
REMARK minimizedRMSD -1
REMARK  0 active torsions:
REMARK  status: ('A' for Active; 'I' for Inactive)
ROOT
ATOM      1  C   UNL d   1       0.976  -3.404   0.308  0.00  0.00     0.020 A 
ATOM      2  C1  UNL d   1      -0.405  -3.249   0.415  0.00  0.00     0.020 A 
ATOM      3  C2  UNL d   1      -0.941  -2.030   0.837  0.00  0.00     0.034 A 
ATOM      4  C3  UNL d   1      -0.094  -0.961   1.153  0.00  0.00     0.017 A 
ATOM      5  C4  UNL d   1       1.292  -1.117   1.045  0.00  0.00     0.017 A 
ATOM      6  C5  UNL d   1       1.823  -2.340   0.622  0.00  0.00     0.034 A 
ATOM      7 Cl   UNL d   1       2.400   0.156   1.417  0.00  0.00    -0.070 Cl
ATOM      8 Cl1  UNL d   1      -0.825   0.518   1.667  0.00  0.00    -0.070 Cl
ENDROOT
TORSDOF 0
ENDMDL
