MODEL 1
REMARK minimizedAffinity 7.76356125
REMARK minimizedRMSD -1
REMARK  0 active torsions:
REMARK  status: ('A' for Active; 'I' for Inactive)
ROOT
ATOM      1  C   UNL d   1      -0.908  -1.324   0.615  0.00  0.00     0.020 A 
ATOM      2  C1  UNL d   1      -0.128  -0.229   0.986  0.00  0.00     0.020 A 
ATOM      3  C2  UNL d   1       1.259  -0.275   0.829  0.00  0.00     0.034 A 
ATOM      4  C3  UNL d   1       1.871  -1.418   0.301  0.00  0.00     0.017 A 
ATOM      5  C4  UNL d   1       1.087  -2.516  -0.071  0.00  0.00     0.017 A 
ATOM      6  C5  UNL d   1      -0.301  -2.465   0.088  0.00  0.00     0.034 A 
ATOM      7 Cl   UNL d   1       1.769  -3.961  -0.730  0.00  0.00    -0.070 Cl
ATOM      8 Cl1  UNL d   1       3.590  -1.405   0.135  0.00  0.00    -0.070 Cl
ENDROOT
TORSDOF 0
ENDMDL
