MODEL 1
REMARK minimizedAffinity 4.05229425
REMARK minimizedRMSD -1
REMARK  0 active torsions:
REMARK  status: ('A' for Active; 'I' for Inactive)
ROOT
ATOM      1  C   UNL d   1       1.315  -3.376  -0.470  0.00  0.00     0.020 A 
ATOM      2  C1  UNL d   1      -0.037  -3.208  -0.176  0.00  0.00     0.020 A 
ATOM      3  C2  UNL d   1      -0.447  -2.159   0.650  0.00  0.00     0.034 A 
ATOM      4  C3  UNL d   1       0.497  -1.274   1.185  0.00  0.00     0.017 A 
ATOM      5  C4  UNL d   1       1.854  -1.444   0.889  0.00  0.00     0.017 A 
ATOM      6  C5  UNL d   1       2.259  -2.496   0.061  0.00  0.00     0.034 A 
ATOM      7 Cl   UNL d   1       3.077  -0.394   1.512  0.00  0.00    -0.070 Cl
ATOM      8 Cl1  UNL d   1      -0.081   0.000   2.199  0.00  0.00    -0.070 Cl
ENDROOT
TORSDOF 0
ENDMDL
