MODEL 1
REMARK minimizedAffinity 11.2223787
REMARK minimizedRMSD -1
REMARK  0 active torsions:
REMARK  status: ('A' for Active; 'I' for Inactive)
ROOT
ATOM      1  C   UNL d   1      -0.151  -1.751  -0.341  0.00  0.00     0.020 A 
ATOM      2  C1  UNL d   1       1.200  -1.954  -0.060  0.00  0.00     0.020 A 
ATOM      3  C2  UNL d   1       1.808  -1.257   0.987  0.00  0.00     0.034 A 
ATOM      4  C3  UNL d   1       1.065  -0.355   1.757  0.00  0.00     0.017 A 
ATOM      5  C4  UNL d   1      -0.291  -0.152   1.474  0.00  0.00     0.017 A 
ATOM      6  C5  UNL d   1      -0.894  -0.853   0.425  0.00  0.00     0.034 A 
ATOM      7 Cl   UNL d   1      -1.273   0.945   2.380  0.00  0.00    -0.070 Cl
ATOM      8 Cl1  UNL d   1       1.881   0.472   3.036  0.00  0.00    -0.070 Cl
ENDROOT
TORSDOF 0
ENDMDL
