MODEL 1
REMARK minimizedAffinity -1.64999759
REMARK minimizedRMSD -1
REMARK  0 active torsions:
REMARK  status: ('A' for Active; 'I' for Inactive)
ROOT
ATOM      1  C   UNL d   1      -0.514  -3.018  -0.348  0.00  0.00     0.020 A 
ATOM      2  C1  UNL d   1      -0.800  -1.780   0.227  0.00  0.00     0.020 A 
ATOM      3  C2  UNL d   1       0.240  -0.928   0.605  0.00  0.00     0.034 A 
ATOM      4  C3  UNL d   1       1.572  -1.314   0.410  0.00  0.00     0.017 A 
ATOM      5  C4  UNL d   1       1.858  -2.557  -0.166  0.00  0.00     0.017 A 
ATOM      6  C5  UNL d   1       0.812  -3.405  -0.544  0.00  0.00     0.034 A 
ATOM      7 Cl   UNL d   1       3.475  -3.101  -0.439  0.00  0.00    -0.070 Cl
ATOM      8 Cl1  UNL d   1       2.808  -0.211   0.902  0.00  0.00    -0.070 Cl
ENDROOT
TORSDOF 0
ENDMDL
