MODEL 1
REMARK minimizedAffinity 2.48013592
REMARK minimizedRMSD -1
REMARK  0 active torsions:
REMARK  status: ('A' for Active; 'I' for Inactive)
ROOT
ATOM      1  C   UNL d   1       0.077  -1.109   1.694  0.00  0.00     0.020 A 
ATOM      2  C1  UNL d   1      -1.180  -1.421   1.177  0.00  0.00     0.020 A 
ATOM      3  C2  UNL d   1      -1.300  -2.360   0.151  0.00  0.00     0.034 A 
ATOM      4  C3  UNL d   1      -0.160  -2.992  -0.361  0.00  0.00     0.017 A 
ATOM      5  C4  UNL d   1       1.101  -2.679   0.159  0.00  0.00     0.017 A 
ATOM      6  C5  UNL d   1       1.215  -1.737   1.186  0.00  0.00     0.034 A 
ATOM      7 Cl   UNL d   1       2.552  -3.416  -0.422  0.00  0.00    -0.070 Cl
ATOM      8 Cl1  UNL d   1      -0.382  -4.144  -1.630  0.00  0.00    -0.070 Cl
ENDROOT
TORSDOF 0
ENDMDL
