MODEL 1
REMARK minimizedAffinity 0.920401812
REMARK minimizedRMSD -1
REMARK  0 active torsions:
REMARK  status: ('A' for Active; 'I' for Inactive)
ROOT
ATOM      1  C   UNL d   1      -2.128   1.850   2.752  0.00  0.00     0.020 A 
ATOM      2  C1  UNL d   1      -2.417   1.347   1.484  0.00  0.00     0.020 A 
ATOM      3  C2  UNL d   1      -2.000   0.061   1.131  0.00  0.00     0.034 A 
ATOM      4  C3  UNL d   1      -1.293  -0.725   2.048  0.00  0.00     0.017 A 
ATOM      5  C4  UNL d   1      -1.003  -0.219   3.320  0.00  0.00     0.017 A 
ATOM      6  C5  UNL d   1      -1.423   1.068   3.668  0.00  0.00     0.034 A 
ATOM      7 Cl   UNL d   1      -0.135  -1.131   4.504  0.00  0.00    -0.070 Cl
ATOM      8 Cl1  UNL d   1      -0.809  -2.306   1.544  0.00  0.00    -0.070 Cl
ENDROOT
TORSDOF 0
ENDMDL
