MODEL 1
REMARK minimizedAffinity 5.53785896
REMARK minimizedRMSD -1
REMARK  0 active torsions:
REMARK  status: ('A' for Active; 'I' for Inactive)
ROOT
ATOM      1  C   UNL d   1       2.152  -3.180  -0.039  0.00  0.00     0.020 A 
ATOM      2  C1  UNL d   1       1.152  -3.652  -0.888  0.00  0.00     0.020 A 
ATOM      3  C2  UNL d   1      -0.126  -3.090  -0.842  0.00  0.00     0.034 A 
ATOM      4  C3  UNL d   1      -0.407  -2.054   0.055  0.00  0.00     0.017 A 
ATOM      5  C4  UNL d   1       0.598  -1.581   0.907  0.00  0.00     0.017 A 
ATOM      6  C5  UNL d   1       1.875  -2.147   0.857  0.00  0.00     0.034 A 
ATOM      7 Cl   UNL d   1       0.327  -0.304   2.041  0.00  0.00    -0.070 Cl
ATOM      8 Cl1  UNL d   1      -2.009  -1.406   0.058  0.00  0.00    -0.070 Cl
ENDROOT
TORSDOF 0
ENDMDL
