MODEL 1
REMARK minimizedAffinity 1.63007569
REMARK minimizedRMSD -1
REMARK  0 active torsions:
REMARK  status: ('A' for Active; 'I' for Inactive)
ROOT
ATOM      1  C   UNL d   1       0.403   0.492   1.451  0.00  0.00     0.020 A 
ATOM      2  C1  UNL d   1      -0.749  -0.259   1.219  0.00  0.00     0.020 A 
ATOM      3  C2  UNL d   1      -0.655  -1.508   0.603  0.00  0.00     0.034 A 
ATOM      4  C3  UNL d   1       0.593  -2.011   0.216  0.00  0.00     0.017 A 
ATOM      5  C4  UNL d   1       1.748  -1.257   0.449  0.00  0.00     0.017 A 
ATOM      6  C5  UNL d   1       1.649  -0.006   1.067  0.00  0.00     0.034 A 
ATOM      7 Cl   UNL d   1       3.323  -1.810   0.001  0.00  0.00    -0.070 Cl
ATOM      8 Cl1  UNL d   1       0.634  -3.564  -0.541  0.00  0.00    -0.070 Cl
ENDROOT
TORSDOF 0
ENDMDL
