MODEL 1
REMARK minimizedAffinity -3.56042838
REMARK minimizedRMSD -1
REMARK  0 active torsions:
REMARK  status: ('A' for Active; 'I' for Inactive)
ROOT
ATOM      1  C   UNL d   1      -1.031  -3.518   0.175  0.00  0.00     0.020 A 
ATOM      2  C1  UNL d   1      -1.720  -2.414   0.676  0.00  0.00     0.020 A 
ATOM      3  C2  UNL d   1      -1.042  -1.216   0.912  0.00  0.00     0.034 A 
ATOM      4  C3  UNL d   1       0.329  -1.120   0.647  0.00  0.00     0.017 A 
ATOM      5  C4  UNL d   1       1.020  -2.229   0.144  0.00  0.00     0.017 A 
ATOM      6  C5  UNL d   1       0.335  -3.425  -0.091  0.00  0.00     0.034 A 
ATOM      7 Cl   UNL d   1       2.711  -2.186  -0.208  0.00  0.00    -0.070 Cl
ATOM      8 Cl1  UNL d   1       1.104   0.392   0.963  0.00  0.00    -0.070 Cl
ENDROOT
TORSDOF 0
ENDMDL
