MODEL 1
REMARK minimizedAffinity 4.19978809
REMARK minimizedRMSD -1
REMARK  0 active torsions:
REMARK  status: ('A' for Active; 'I' for Inactive)
ROOT
ATOM      1  C   UNL d   1      -0.476  -3.799  -0.053  0.00  0.00     0.020 A 
ATOM      2  C1  UNL d   1      -0.693  -2.501   0.407  0.00  0.00     0.020 A 
ATOM      3  C2  UNL d   1       0.387  -1.635   0.591  0.00  0.00     0.034 A 
ATOM      4  C3  UNL d   1       1.690  -2.066   0.314  0.00  0.00     0.017 A 
ATOM      5  C4  UNL d   1       1.907  -3.369  -0.148  0.00  0.00     0.017 A 
ATOM      6  C5  UNL d   1       0.822  -4.232  -0.331  0.00  0.00     0.034 A 
ATOM      7 Cl   UNL d   1       3.485  -3.972  -0.511  0.00  0.00    -0.070 Cl
ATOM      8 Cl1  UNL d   1       2.978  -0.942   0.564  0.00  0.00    -0.070 Cl
ENDROOT
TORSDOF 0
ENDMDL
