MODEL 1
REMARK minimizedAffinity -3.23963761
REMARK minimizedRMSD -1
REMARK  0 active torsions:
REMARK  status: ('A' for Active; 'I' for Inactive)
ROOT
ATOM      1  C   UNL d   1      -1.449  -0.764   0.500  0.00  0.00     0.020 A 
ATOM      2  C1  UNL d   1      -1.439  -2.032  -0.079  0.00  0.00     0.020 A 
ATOM      3  C2  UNL d   1      -0.242  -2.745  -0.180  0.00  0.00     0.034 A 
ATOM      4  C3  UNL d   1       0.950  -2.189   0.299  0.00  0.00     0.017 A 
ATOM      5  C4  UNL d   1       0.939  -0.916   0.880  0.00  0.00     0.017 A 
ATOM      6  C5  UNL d   1      -0.262  -0.208   0.979  0.00  0.00     0.034 A 
ATOM      7 Cl   UNL d   1       2.370  -0.165   1.494  0.00  0.00    -0.070 Cl
ATOM      8 Cl1  UNL d   1       2.393  -3.126   0.141  0.00  0.00    -0.070 Cl
ENDROOT
TORSDOF 0
ENDMDL
