MODEL 1
REMARK minimizedAffinity 0.666290104
REMARK minimizedRMSD -1
REMARK  0 active torsions:
REMARK  status: ('A' for Active; 'I' for Inactive)
ROOT
ATOM      1  C   UNL d   1      -5.179  -3.195   1.506  0.00  0.00     0.020 A 
ATOM      2  C1  UNL d   1      -5.443  -4.561   1.596  0.00  0.00     0.020 A 
ATOM      3  C2  UNL d   1      -5.447  -5.190   2.842  0.00  0.00     0.034 A 
ATOM      4  C3  UNL d   1      -5.187  -4.454   4.004  0.00  0.00     0.017 A 
ATOM      5  C4  UNL d   1      -4.923  -3.083   3.913  0.00  0.00     0.017 A 
ATOM      6  C5  UNL d   1      -4.920  -2.457   2.662  0.00  0.00     0.034 A 
ATOM      7 Cl   UNL d   1      -4.593  -2.108   5.301  0.00  0.00    -0.070 Cl
ATOM      8 Cl1  UNL d   1      -5.209  -5.298   5.512  0.00  0.00    -0.070 Cl
ENDROOT
TORSDOF 0
ENDMDL
