MODEL 1
REMARK minimizedAffinity 3.25826764
REMARK minimizedRMSD -1
REMARK  0 active torsions:
REMARK  status: ('A' for Active; 'I' for Inactive)
ROOT
ATOM      1  C   UNL d   1      -0.802  -0.764   1.001  0.00  0.00     0.020 A 
ATOM      2  C1  UNL d   1       0.179   0.073   1.530  0.00  0.00     0.020 A 
ATOM      3  C2  UNL d   1       1.526  -0.167   1.252  0.00  0.00     0.034 A 
ATOM      4  C3  UNL d   1       1.896  -1.248   0.443  0.00  0.00     0.017 A 
ATOM      5  C4  UNL d   1       0.910  -2.088  -0.088  0.00  0.00     0.017 A 
ATOM      6  C5  UNL d   1      -0.437  -1.843   0.194  0.00  0.00     0.034 A 
ATOM      7 Cl   UNL d   1       1.289  -3.441  -1.094  0.00  0.00    -0.070 Cl
ATOM      8 Cl1  UNL d   1       3.580  -1.485   0.140  0.00  0.00    -0.070 Cl
ENDROOT
TORSDOF 0
ENDMDL
