MODEL 1
REMARK minimizedAffinity 2.02237463
REMARK minimizedRMSD -1
REMARK  0 active torsions:
REMARK  status: ('A' for Active; 'I' for Inactive)
ROOT
ATOM      1  C   UNL d   1      -1.060  -0.825   0.905  0.00  0.00     0.020 A 
ATOM      2  C1  UNL d   1      -0.135   0.179   1.189  0.00  0.00     0.020 A 
ATOM      3  C2  UNL d   1       1.227  -0.049   0.983  0.00  0.00     0.034 A 
ATOM      4  C3  UNL d   1       1.669  -1.283   0.491  0.00  0.00     0.017 A 
ATOM      5  C4  UNL d   1       0.739  -2.290   0.206  0.00  0.00     0.017 A 
ATOM      6  C5  UNL d   1      -0.624  -2.057   0.415  0.00  0.00     0.034 A 
ATOM      7 Cl   UNL d   1       1.208  -3.838  -0.403  0.00  0.00    -0.070 Cl
ATOM      8 Cl1  UNL d   1       3.368  -1.494   0.260  0.00  0.00    -0.070 Cl
ENDROOT
TORSDOF 0
ENDMDL
