MODEL 1
REMARK minimizedAffinity 10.2140512
REMARK minimizedRMSD -1
REMARK  0 active torsions:
REMARK  status: ('A' for Active; 'I' for Inactive)
ROOT
ATOM      1  C   UNL d   1       1.104  -4.538  -1.245  0.00  0.00     0.020 A 
ATOM      2  C1  UNL d   1       2.349  -4.158  -0.746  0.00  0.00     0.020 A 
ATOM      3  C2  UNL d   1       2.444  -3.101   0.162  0.00  0.00     0.034 A 
ATOM      4  C3  UNL d   1       1.292  -2.422   0.574  0.00  0.00     0.017 A 
ATOM      5  C4  UNL d   1       0.043  -2.804   0.072  0.00  0.00     0.017 A 
ATOM      6  C5  UNL d   1      -0.046  -3.863  -0.837  0.00  0.00     0.034 A 
ATOM      7 Cl   UNL d   1      -1.423  -2.014   0.534  0.00  0.00    -0.070 Cl
ATOM      8 Cl1  UNL d   1       1.483  -1.125   1.700  0.00  0.00    -0.070 Cl
ENDROOT
TORSDOF 0
ENDMDL
