MODEL 1
REMARK minimizedAffinity -1.75103474
REMARK minimizedRMSD -1
REMARK  0 active torsions:
REMARK  status: ('A' for Active; 'I' for Inactive)
ROOT
ATOM      1  C   UNL d   1      -3.222   0.593   1.092  0.00  0.00     0.020 A 
ATOM      2  C1  UNL d   1      -2.292   1.074   2.013  0.00  0.00     0.020 A 
ATOM      3  C2  UNL d   1      -1.135   0.340   2.285  0.00  0.00     0.034 A 
ATOM      4  C3  UNL d   1      -0.907  -0.879   1.636  0.00  0.00     0.017 A 
ATOM      5  C4  UNL d   1      -1.841  -1.360   0.712  0.00  0.00     0.017 A 
ATOM      6  C5  UNL d   1      -2.997  -0.621   0.443  0.00  0.00     0.034 A 
ATOM      7 Cl   UNL d   1      -1.628  -2.856  -0.129  0.00  0.00    -0.070 Cl
ATOM      8 Cl1  UNL d   1       0.545  -1.734   2.020  0.00  0.00    -0.070 Cl
ENDROOT
TORSDOF 0
ENDMDL
