MODEL 1
REMARK minimizedAffinity 5.08048391
REMARK minimizedRMSD -1
REMARK  0 active torsions:
REMARK  status: ('A' for Active; 'I' for Inactive)
ROOT
ATOM      1  C   UNL d   1      -0.506  -0.973   1.358  0.00  0.00     0.020 A 
ATOM      2  C1  UNL d   1       0.797  -0.860   1.842  0.00  0.00     0.020 A 
ATOM      3  C2  UNL d   1       1.783  -1.749   1.406  0.00  0.00     0.034 A 
ATOM      4  C3  UNL d   1       1.467  -2.754   0.485  0.00  0.00     0.017 A 
ATOM      5  C4  UNL d   1       0.159  -2.866  -0.000  0.00  0.00     0.017 A 
ATOM      6  C5  UNL d   1      -0.824  -1.974   0.439  0.00  0.00     0.034 A 
ATOM      7 Cl   UNL d   1      -0.306  -4.080  -1.139  0.00  0.00    -0.070 Cl
ATOM      8 Cl1  UNL d   1       2.736  -3.817  -0.010  0.00  0.00    -0.070 Cl
ENDROOT
TORSDOF 0
ENDMDL
