MODEL 1
REMARK minimizedAffinity 6.27127123
REMARK minimizedRMSD -1
REMARK  1 active torsions:
REMARK  status: ('A' for Active; 'I' for Inactive)
REMARK    1  A    between atoms: C1_2  and  C2_3 
ROOT
ATOM      1  C2  UNL d   1       1.175  -2.263   0.653  0.00  0.00    -0.081 A 
ATOM      2  C3  UNL d   1       1.289  -2.356  -0.740  0.00  0.00     0.006 A 
ATOM      3  C4  UNL d   1       0.193  -2.082  -1.560  0.00  0.00     0.002 A 
ATOM      4  C5  UNL d   1      -1.034  -1.704  -1.003  0.00  0.00    -0.080 A 
ATOM      5  C6  UNL d   1      -2.210  -1.378  -1.875  0.00  0.00     0.076 C 
ATOM      6  C7  UNL d   1      -1.153  -1.628   0.388  0.00  0.00     0.002 A 
ATOM      7  C8  UNL d   1      -0.057  -1.902   1.209  0.00  0.00     0.006 A 
ENDROOT
BRANCH   1   8
ATOM      8  C1  UNL d   1       2.373  -2.494   1.538  0.00  0.00     0.054 C 
ATOM      9  C   UNL d   1       3.261  -1.260   1.600  0.00  0.00     0.018 C 
ENDBRANCH   1   8
TORSDOF 1
ENDMDL
