MODEL 1
REMARK minimizedAffinity 6.8882246
REMARK minimizedRMSD -1
REMARK  1 active torsions:
REMARK  status: ('A' for Active; 'I' for Inactive)
REMARK    1  A    between atoms: C1_2  and  C2_3 
ROOT
ATOM      1  C2  UNL d   1       0.356  -2.347  -0.609  0.00  0.00    -0.081 A 
ATOM      2  C3  UNL d   1      -0.008  -1.205   0.116  0.00  0.00     0.006 A 
ATOM      3  C4  UNL d   1       0.532  -0.970   1.383  0.00  0.00     0.002 A 
ATOM      4  C5  UNL d   1       1.449  -1.866   1.942  0.00  0.00    -0.080 A 
ATOM      5  C6  UNL d   1       2.058  -1.610   3.288  0.00  0.00     0.076 C 
ATOM      6  C7  UNL d   1       1.799  -3.015   1.225  0.00  0.00     0.002 A 
ATOM      7  C8  UNL d   1       1.259  -3.252  -0.042  0.00  0.00     0.006 A 
ENDROOT
BRANCH   1   8
ATOM      8  C1  UNL d   1      -0.174  -2.570  -2.002  0.00  0.00     0.054 C 
ATOM      9  C   UNL d   1       0.875  -2.238  -3.054  0.00  0.00     0.018 C 
ENDBRANCH   1   8
TORSDOF 1
ENDMDL
