MODEL 1
REMARK minimizedAffinity 9.9242115
REMARK minimizedRMSD -1
REMARK  1 active torsions:
REMARK  status: ('A' for Active; 'I' for Inactive)
REMARK    1  A    between atoms: C1_2  and  C2_3 
ROOT
ATOM      1  C2  UNL d   1      -3.964   2.553  -0.967  0.00  0.00    -0.081 A 
ATOM      2  C3  UNL d   1      -3.388   1.745   0.022  0.00  0.00     0.006 A 
ATOM      3  C4  UNL d   1      -4.037   1.551   1.244  0.00  0.00     0.002 A 
ATOM      4  C5  UNL d   1      -5.274   2.155   1.495  0.00  0.00    -0.080 A 
ATOM      5  C6  UNL d   1      -5.994   1.930   2.791  0.00  0.00     0.076 C 
ATOM      6  C7  UNL d   1      -5.841   2.975   0.514  0.00  0.00     0.002 A 
ATOM      7  C8  UNL d   1      -5.193   3.170  -0.708  0.00  0.00     0.006 A 
ENDROOT
BRANCH   1   8
ATOM      8  C1  UNL d   1      -3.299   2.712  -2.310  0.00  0.00     0.054 C 
ATOM      9  C   UNL d   1      -3.993   1.874  -3.374  0.00  0.00     0.018 C 
ENDBRANCH   1   8
TORSDOF 1
ENDMDL
