MODEL 1
REMARK minimizedAffinity 5.96570158
REMARK minimizedRMSD -1
REMARK  1 active torsions:
REMARK  status: ('A' for Active; 'I' for Inactive)
REMARK    1  A    between atoms: C1_2  and  C2_3 
ROOT
ATOM      1  C2  UNL d   1      -3.733   2.747  -0.860  0.00  0.00    -0.081 A 
ATOM      2  C3  UNL d   1      -3.177   1.998   0.184  0.00  0.00     0.006 A 
ATOM      3  C4  UNL d   1      -3.825   1.914   1.419  0.00  0.00     0.002 A 
ATOM      4  C5  UNL d   1      -5.043   2.571   1.627  0.00  0.00    -0.080 A 
ATOM      5  C6  UNL d   1      -5.764   2.465   2.938  0.00  0.00     0.076 C 
ATOM      6  C7  UNL d   1      -5.589   3.334   0.590  0.00  0.00     0.002 A 
ATOM      7  C8  UNL d   1      -4.941   3.419  -0.644  0.00  0.00     0.006 A 
ENDROOT
BRANCH   1   8
ATOM      8  C1  UNL d   1      -3.069   2.786  -2.213  0.00  0.00     0.054 C 
ATOM      9  C   UNL d   1      -3.632   1.716  -3.137  0.00  0.00     0.018 C 
ENDBRANCH   1   8
TORSDOF 1
ENDMDL
