MODEL 1
REMARK minimizedAffinity 2.19330239
REMARK minimizedRMSD -1
REMARK  1 active torsions:
REMARK  status: ('A' for Active; 'I' for Inactive)
REMARK    1  A    between atoms: C1_2  and  C2_3 
ROOT
ATOM      1  C2  UNL d   1       0.215  -1.121   1.201  0.00  0.00    -0.081 A 
ATOM      2  C3  UNL d   1       1.080  -0.069   1.526  0.00  0.00     0.006 A 
ATOM      3  C4  UNL d   1       2.464  -0.243   1.458  0.00  0.00     0.002 A 
ATOM      4  C5  UNL d   1       3.006  -1.469   1.056  0.00  0.00    -0.080 A 
ATOM      5  C6  UNL d   1       4.490  -1.660   0.949  0.00  0.00     0.076 C 
ATOM      6  C7  UNL d   1       2.142  -2.525   0.748  0.00  0.00     0.002 A 
ATOM      7  C8  UNL d   1       0.758  -2.352   0.817  0.00  0.00     0.006 A 
ENDROOT
BRANCH   1   8
ATOM      8  C1  UNL d   1      -1.278  -0.917   1.212  0.00  0.00     0.054 C 
ATOM      9  C   UNL d   1      -1.635   0.561   1.134  0.00  0.00     0.018 C 
ENDBRANCH   1   8
TORSDOF 1
ENDMDL
