MODEL 1
REMARK minimizedAffinity 0.390611589
REMARK minimizedRMSD -1
REMARK  1 active torsions:
REMARK  status: ('A' for Active; 'I' for Inactive)
REMARK    1  A    between atoms: C1_2  and  C2_3 
ROOT
ATOM      1  C2  UNL d   1      -3.011   2.906  -3.294  0.00  0.00    -0.081 A 
ATOM      2  C3  UNL d   1      -3.703   2.828  -4.510  0.00  0.00     0.006 A 
ATOM      3  C4  UNL d   1      -4.595   1.781  -4.751  0.00  0.00     0.002 A 
ATOM      4  C5  UNL d   1      -4.817   0.799  -3.779  0.00  0.00    -0.080 A 
ATOM      5  C6  UNL d   1      -5.795  -0.313  -4.014  0.00  0.00     0.076 C 
ATOM      6  C7  UNL d   1      -4.113   0.867  -2.572  0.00  0.00     0.002 A 
ATOM      7  C8  UNL d   1      -3.220   1.914  -2.330  0.00  0.00     0.006 A 
ENDROOT
BRANCH   1   8
ATOM      8  C1  UNL d   1      -2.097   4.069  -3.006  0.00  0.00     0.054 C 
ATOM      9  C   UNL d   1      -2.727   5.387  -3.433  0.00  0.00     0.018 C 
ENDBRANCH   1   8
TORSDOF 1
ENDMDL
