MODEL 1
REMARK minimizedAffinity -1.29580963
REMARK minimizedRMSD -1
REMARK  0 active torsions:
REMARK  status: ('A' for Active; 'I' for Inactive)
ROOT
ATOM      1  C   UNL d   1      -3.979   0.480   1.204  0.00  0.00     0.077 C 
ATOM      2  C1  UNL d   1      -2.520   0.699   0.934  0.00  0.00    -0.074 A 
ATOM      3  C2  UNL d   1      -1.824   1.745   1.548  0.00  0.00    -0.005 A 
ATOM      4  C3  UNL d   1      -0.465   1.931   1.295  0.00  0.00     0.006 A 
ATOM      5  C4  UNL d   1       0.211   1.073   0.426  0.00  0.00    -0.005 A 
ATOM      6  C5  UNL d   1      -0.468   0.021  -0.196  0.00  0.00    -0.074 A 
ATOM      7  C6  UNL d   1       0.246  -0.916  -1.125  0.00  0.00     0.077 C 
ATOM      8  C7  UNL d   1      -1.832  -0.163   0.069  0.00  0.00    -0.001 A 
ENDROOT
TORSDOF 0
ENDMDL
