MODEL 1
REMARK minimizedAffinity 0.624503732
REMARK minimizedRMSD -1
REMARK  0 active torsions:
REMARK  status: ('A' for Active; 'I' for Inactive)
ROOT
ATOM      1  C   UNL d   1       1.228   2.528   0.212  0.00  0.00     0.077 C 
ATOM      2  C1  UNL d   1       0.718   1.147  -0.074  0.00  0.00    -0.074 A 
ATOM      3  C2  UNL d   1      -0.650   0.906  -0.241  0.00  0.00    -0.005 A 
ATOM      4  C3  UNL d   1      -1.109  -0.382  -0.516  0.00  0.00     0.006 A 
ATOM      5  C4  UNL d   1      -0.206  -1.441  -0.626  0.00  0.00    -0.005 A 
ATOM      6  C5  UNL d   1       1.165  -1.219  -0.464  0.00  0.00    -0.074 A 
ATOM      7  C6  UNL d   1       2.149  -2.344  -0.589  0.00  0.00     0.077 C 
ATOM      8  C7  UNL d   1       1.619   0.080  -0.195  0.00  0.00    -0.001 A 
ENDROOT
TORSDOF 0
ENDMDL
