MODEL 1
REMARK minimizedAffinity -3.03585792
REMARK minimizedRMSD -1
REMARK  0 active torsions:
REMARK  status: ('A' for Active; 'I' for Inactive)
ROOT
ATOM      1  C   UNL d   1       3.383  -1.317   0.726  0.00  0.00     0.077 C 
ATOM      2  C1  UNL d   1       2.035  -0.717   0.456  0.00  0.00    -0.074 A 
ATOM      3  C2  UNL d   1       1.793   0.640   0.692  0.00  0.00    -0.005 A 
ATOM      4  C3  UNL d   1       0.537   1.187   0.427  0.00  0.00     0.006 A 
ATOM      5  C4  UNL d   1      -0.487   0.383  -0.075  0.00  0.00    -0.005 A 
ATOM      6  C5  UNL d   1      -0.263  -0.976  -0.317  0.00  0.00    -0.074 A 
ATOM      7  C6  UNL d   1      -1.350  -1.852  -0.866  0.00  0.00     0.077 C 
ATOM      8  C7  UNL d   1       1.003  -1.516  -0.055  0.00  0.00    -0.001 A 
ENDROOT
TORSDOF 0
ENDMDL
