MODEL 1
REMARK minimizedAffinity -4.99870872
REMARK minimizedRMSD -1
REMARK  0 active torsions:
REMARK  status: ('A' for Active; 'I' for Inactive)
ROOT
ATOM      1  C   UNL d   1       0.906   2.561  -0.168  0.00  0.00     0.077 C 
ATOM      2  C1  UNL d   1       1.407   1.154  -0.024  0.00  0.00    -0.074 A 
ATOM      3  C2  UNL d   1       2.762   0.893   0.202  0.00  0.00    -0.005 A 
ATOM      4  C3  UNL d   1       3.212  -0.419   0.345  0.00  0.00     0.006 A 
ATOM      5  C4  UNL d   1       2.312  -1.483   0.262  0.00  0.00    -0.005 A 
ATOM      6  C5  UNL d   1       0.953  -1.241   0.038  0.00  0.00    -0.074 A 
ATOM      7  C6  UNL d   1      -0.029  -2.372  -0.043  0.00  0.00     0.077 C 
ATOM      8  C7  UNL d   1       0.508   0.081  -0.097  0.00  0.00    -0.001 A 
ENDROOT
TORSDOF 0
ENDMDL
