MODEL 1
REMARK minimizedAffinity 2.44943476
REMARK minimizedRMSD -1
REMARK  0 active torsions:
REMARK  status: ('A' for Active; 'I' for Inactive)
ROOT
ATOM      1  C   UNL d   1       0.515  -2.343  -1.202  0.00  0.00     0.077 C 
ATOM      2  C1  UNL d   1       0.124  -1.102  -0.456  0.00  0.00    -0.074 A 
ATOM      3  C2  UNL d   1      -1.001  -1.087   0.375  0.00  0.00    -0.005 A 
ATOM      4  C3  UNL d   1      -1.347   0.072   1.070  0.00  0.00     0.006 A 
ATOM      5  C4  UNL d   1      -0.572   1.225   0.941  0.00  0.00    -0.005 A 
ATOM      6  C5  UNL d   1       0.557   1.229   0.116  0.00  0.00    -0.074 A 
ATOM      7  C6  UNL d   1       1.405   2.457  -0.026  0.00  0.00     0.077 C 
ATOM      8  C7  UNL d   1       0.901   0.058  -0.574  0.00  0.00    -0.001 A 
ENDROOT
TORSDOF 0
ENDMDL
