MODEL 1
REMARK minimizedAffinity -5.45856619
REMARK minimizedRMSD -1
REMARK  0 active torsions:
REMARK  status: ('A' for Active; 'I' for Inactive)
ROOT
ATOM      1  C   UNL d   1      -1.448   1.095  -0.358  0.00  0.00     0.077 C 
ATOM      2  C1  UNL d   1      -0.340   0.091  -0.470  0.00  0.00    -0.074 A 
ATOM      3  C2  UNL d   1      -0.547  -1.143  -1.095  0.00  0.00    -0.005 A 
ATOM      4  C3  UNL d   1       0.496  -2.063  -1.200  0.00  0.00     0.006 A 
ATOM      5  C4  UNL d   1       1.755  -1.759  -0.680  0.00  0.00    -0.005 A 
ATOM      6  C5  UNL d   1       1.982  -0.531  -0.052  0.00  0.00    -0.074 A 
ATOM      7  C6  UNL d   1       3.331  -0.185   0.502  0.00  0.00     0.077 C 
ATOM      8  C7  UNL d   1       0.930   0.392   0.043  0.00  0.00    -0.001 A 
ENDROOT
TORSDOF 0
ENDMDL
