MODEL 1
REMARK minimizedAffinity -4.92270088
REMARK minimizedRMSD -1
REMARK  0 active torsions:
REMARK  status: ('A' for Active; 'I' for Inactive)
ROOT
ATOM      1  C   UNL d   1       3.394   1.258   1.224  0.00  0.00     0.077 C 
ATOM      2  C1  UNL d   1       2.426   0.298   0.599  0.00  0.00    -0.074 A 
ATOM      3  C2  UNL d   1       2.847  -0.958   0.150  0.00  0.00    -0.005 A 
ATOM      4  C3  UNL d   1       1.933  -1.844  -0.420  0.00  0.00     0.006 A 
ATOM      5  C4  UNL d   1       0.591  -1.484  -0.547  0.00  0.00    -0.005 A 
ATOM      6  C5  UNL d   1       0.151  -0.233  -0.103  0.00  0.00    -0.074 A 
ATOM      7  C6  UNL d   1      -1.290   0.166  -0.223  0.00  0.00     0.077 C 
ATOM      8  C7  UNL d   1       1.074   0.649   0.475  0.00  0.00    -0.001 A 
ENDROOT
TORSDOF 0
ENDMDL
