MODEL 1
REMARK minimizedAffinity -3.1585083
REMARK minimizedRMSD -1
REMARK  0 active torsions:
REMARK  status: ('A' for Active; 'I' for Inactive)
ROOT
ATOM      1  C   UNL d   1      -2.022   0.829   0.995  0.00  0.00     0.077 C 
ATOM      2  C1  UNL d   1      -1.067   0.010   0.179  0.00  0.00    -0.074 A 
ATOM      3  C2  UNL d   1      -1.413  -0.433  -1.102  0.00  0.00    -0.005 A 
ATOM      4  C3  UNL d   1      -0.511  -1.186  -1.853  0.00  0.00     0.006 A 
ATOM      5  C4  UNL d   1       0.745  -1.502  -1.333  0.00  0.00    -0.005 A 
ATOM      6  C5  UNL d   1       1.109  -1.067  -0.055  0.00  0.00    -0.074 A 
ATOM      7  C6  UNL d   1       2.458  -1.389   0.515  0.00  0.00     0.077 C 
ATOM      8  C7  UNL d   1       0.199  -0.305   0.691  0.00  0.00    -0.001 A 
ENDROOT
TORSDOF 0
ENDMDL
