MODEL 1
REMARK minimizedAffinity -2.77982402
REMARK minimizedRMSD -1
REMARK  1 active torsions:
REMARK  status: ('A' for Active; 'I' for Inactive)
REMARK    1  A    between atoms: C1_2  and  C2_3 
ROOT
ATOM      1  C2  UNL d   1      -0.157   0.043   0.225  0.00  0.00    -0.076 A 
ATOM      2  C3  UNL d   1      -0.962  -1.034   0.635  0.00  0.00     0.004 A 
ATOM      3  C4  UNL d   1      -0.441  -2.324   0.730  0.00  0.00    -0.003 A 
ATOM      4  C5  UNL d   1       0.894  -2.556   0.417  0.00  0.00     0.000 A 
ATOM      5  C6  UNL d   1       1.711  -1.496   0.025  0.00  0.00     0.000 A 
ATOM      6  C7  UNL d   1       1.206  -0.188  -0.059  0.00  0.00    -0.073 A 
ATOM      7  C8  UNL d   1       2.130   0.917  -0.493  0.00  0.00     0.078 C 
ENDROOT
BRANCH   1   8
ATOM      8  C1  UNL d   1      -0.784   1.414   0.115  0.00  0.00     0.053 C 
ATOM      9  C   UNL d   1      -1.501   1.623  -1.210  0.00  0.00     0.018 C 
ENDBRANCH   1   8
TORSDOF 1
ENDMDL
