MODEL 1
REMARK minimizedAffinity -2.82318091
REMARK minimizedRMSD -1
REMARK  1 active torsions:
REMARK  status: ('A' for Active; 'I' for Inactive)
REMARK    1  A    between atoms: C1_2  and  C2_3 
ROOT
ATOM      1  C2  UNL d   1       0.031  -0.094  -0.068  0.00  0.00    -0.076 A 
ATOM      2  C3  UNL d   1      -0.812  -1.087   0.462  0.00  0.00     0.004 A 
ATOM      3  C4  UNL d   1      -0.290  -2.271   0.978  0.00  0.00    -0.003 A 
ATOM      4  C5  UNL d   1       1.085  -2.483   0.972  0.00  0.00     0.000 A 
ATOM      5  C6  UNL d   1       1.937  -1.502   0.467  0.00  0.00     0.000 A 
ATOM      6  C7  UNL d   1       1.428  -0.295  -0.042  0.00  0.00    -0.073 A 
ATOM      7  C8  UNL d   1       2.392   0.726  -0.580  0.00  0.00     0.078 C 
ENDROOT
BRANCH   1   8
ATOM      8  C1  UNL d   1      -0.595   1.159  -0.638  0.00  0.00     0.053 C 
ATOM      9  C   UNL d   1      -1.655   0.856  -1.686  0.00  0.00     0.018 C 
ENDBRANCH   1   8
TORSDOF 1
ENDMDL
