MODEL 1
REMARK minimizedAffinity -3.87572503
REMARK minimizedRMSD -1
REMARK  1 active torsions:
REMARK  status: ('A' for Active; 'I' for Inactive)
REMARK    1  A    between atoms: C1_2  and  C2_3 
ROOT
ATOM      1  C2  UNL d   1      -0.056  -0.355   0.250  0.00  0.00    -0.076 A 
ATOM      2  C3  UNL d   1      -0.732  -1.374   0.945  0.00  0.00     0.004 A 
ATOM      3  C4  UNL d   1      -0.130  -2.611   1.168  0.00  0.00    -0.003 A 
ATOM      4  C5  UNL d   1       1.158  -2.850   0.700  0.00  0.00     0.000 A 
ATOM      5  C6  UNL d   1       1.849  -1.845   0.024  0.00  0.00     0.000 A 
ATOM      6  C7  UNL d   1       1.263  -0.587  -0.195  0.00  0.00    -0.073 A 
ATOM      7  C8  UNL d   1       2.052   0.458  -0.936  0.00  0.00     0.078 C 
ENDROOT
BRANCH   1   8
ATOM      8  C1  UNL d   1      -0.770   0.957   0.014  0.00  0.00     0.053 C 
ATOM      9  C   UNL d   1      -1.690   0.911  -1.196  0.00  0.00     0.018 C 
ENDBRANCH   1   8
TORSDOF 1
ENDMDL
