MODEL 1
REMARK minimizedAffinity -6.26758909
REMARK minimizedRMSD -1
REMARK  1 active torsions:
REMARK  status: ('A' for Active; 'I' for Inactive)
REMARK    1  A    between atoms: C1_2  and  C2_3 
ROOT
ATOM      1  C2  UNL d   1       0.647  -1.134   0.769  0.00  0.00    -0.076 A 
ATOM      2  C3  UNL d   1       1.301  -0.451  -0.272  0.00  0.00     0.004 A 
ATOM      3  C4  UNL d   1       0.737   0.685  -0.850  0.00  0.00    -0.003 A 
ATOM      4  C5  UNL d   1      -0.489   1.158  -0.396  0.00  0.00     0.000 A 
ATOM      5  C6  UNL d   1      -1.143   0.504   0.648  0.00  0.00     0.000 A 
ATOM      6  C7  UNL d   1      -0.581  -0.633   1.252  0.00  0.00    -0.073 A 
ATOM      7  C8  UNL d   1      -1.333  -1.303   2.370  0.00  0.00     0.078 C 
ENDROOT
BRANCH   1   8
ATOM      8  C1  UNL d   1       1.294  -2.376   1.339  0.00  0.00     0.053 C 
ATOM      9  C   UNL d   1       2.441  -2.055   2.284  0.00  0.00     0.018 C 
ENDBRANCH   1   8
TORSDOF 1
ENDMDL
