MODEL 1
REMARK minimizedAffinity -0.844541609
REMARK minimizedRMSD -1
REMARK  1 active torsions:
REMARK  status: ('A' for Active; 'I' for Inactive)
REMARK    1  A    between atoms: C1_2  and  C2_3 
ROOT
ATOM      1  C2  UNL d   1       0.870  -0.825   0.494  0.00  0.00    -0.076 A 
ATOM      2  C3  UNL d   1      -0.460  -1.149   0.815  0.00  0.00     0.004 A 
ATOM      3  C4  UNL d   1      -1.485  -0.219   0.648  0.00  0.00    -0.003 A 
ATOM      4  C5  UNL d   1      -1.197   1.049   0.157  0.00  0.00     0.000 A 
ATOM      5  C6  UNL d   1       0.114   1.382  -0.184  0.00  0.00     0.000 A 
ATOM      6  C7  UNL d   1       1.157   0.451  -0.037  0.00  0.00    -0.073 A 
ATOM      7  C8  UNL d   1       2.553   0.865  -0.414  0.00  0.00     0.078 C 
ENDROOT
BRANCH   1   8
ATOM      8  C1  UNL d   1       1.944  -1.865   0.721  0.00  0.00     0.053 C 
ATOM      9  C   UNL d   1       2.451  -1.875   2.155  0.00  0.00     0.018 C 
ENDBRANCH   1   8
TORSDOF 1
ENDMDL
