MODEL 1
REMARK minimizedAffinity -5.66807747
REMARK minimizedRMSD -1
REMARK  1 active torsions:
REMARK  status: ('A' for Active; 'I' for Inactive)
REMARK    1  A    between atoms: C1_2  and  C2_3 
ROOT
ATOM      1  C2  UNL d   1       0.077  -0.681   0.846  0.00  0.00    -0.076 A 
ATOM      2  C3  UNL d   1       1.310  -1.059   0.286  0.00  0.00     0.004 A 
ATOM      3  C4  UNL d   1       2.072  -2.080   0.851  0.00  0.00    -0.003 A 
ATOM      4  C5  UNL d   1       1.613  -2.740   1.985  0.00  0.00     0.000 A 
ATOM      5  C6  UNL d   1       0.384  -2.390   2.544  0.00  0.00     0.000 A 
ATOM      6  C7  UNL d   1      -0.404  -1.374   1.977  0.00  0.00    -0.073 A 
ATOM      7  C8  UNL d   1      -1.718  -1.034   2.625  0.00  0.00     0.078 C 
ENDROOT
BRANCH   1   8
ATOM      8  C1  UNL d   1      -0.693   0.452   0.205  0.00  0.00     0.053 C 
ATOM      9  C   UNL d   1       0.048   1.067  -0.972  0.00  0.00     0.018 C 
ENDBRANCH   1   8
TORSDOF 1
ENDMDL
