MODEL 1
REMARK minimizedAffinity -3.2116096
REMARK minimizedRMSD -1
REMARK  1 active torsions:
REMARK  status: ('A' for Active; 'I' for Inactive)
REMARK    1  A    between atoms: C1_2  and  C2_3 
ROOT
ATOM      1  C2  UNL d   1      -0.138  -1.259   1.123  0.00  0.00    -0.076 A 
ATOM      2  C3  UNL d   1      -0.560   0.048   0.825  0.00  0.00     0.004 A 
ATOM      3  C4  UNL d   1       0.274   0.935   0.146  0.00  0.00    -0.003 A 
ATOM      4  C5  UNL d   1       1.545   0.528  -0.246  0.00  0.00     0.000 A 
ATOM      5  C6  UNL d   1       1.974  -0.771   0.026  0.00  0.00     0.000 A 
ATOM      6  C7  UNL d   1       1.139  -1.682   0.695  0.00  0.00    -0.073 A 
ATOM      7  C8  UNL d   1       1.655  -3.068   0.967  0.00  0.00     0.078 C 
ENDROOT
BRANCH   1   8
ATOM      8  C1  UNL d   1      -1.076  -2.167   1.885  0.00  0.00     0.053 C 
ATOM      9  C   UNL d   1      -2.091  -1.394   2.713  0.00  0.00     0.018 C 
ENDBRANCH   1   8
TORSDOF 1
ENDMDL
