MODEL 1
REMARK minimizedAffinity -4.68810415
REMARK minimizedRMSD -1
REMARK  1 active torsions:
REMARK  status: ('A' for Active; 'I' for Inactive)
REMARK    1  A    between atoms: C1_2  and  C2_3 
ROOT
ATOM      1  C2  UNL d   1       0.211  -0.398   0.956  0.00  0.00    -0.076 A 
ATOM      2  C3  UNL d   1      -0.861  -0.196   1.843  0.00  0.00     0.004 A 
ATOM      3  C4  UNL d   1      -1.125  -1.103   2.867  0.00  0.00    -0.003 A 
ATOM      4  C5  UNL d   1      -0.321  -2.227   3.023  0.00  0.00     0.000 A 
ATOM      5  C6  UNL d   1       0.758  -2.434   2.164  0.00  0.00     0.000 A 
ATOM      6  C7  UNL d   1       1.048  -1.520   1.136  0.00  0.00    -0.073 A 
ATOM      7  C8  UNL d   1       2.220  -1.796   0.235  0.00  0.00     0.078 C 
ENDROOT
BRANCH   1   8
ATOM      8  C1  UNL d   1       0.433   0.605  -0.153  0.00  0.00     0.053 C 
ATOM      9  C   UNL d   1      -0.647   1.676  -0.194  0.00  0.00     0.018 C 
ENDBRANCH   1   8
TORSDOF 1
ENDMDL
