MODEL 1
REMARK minimizedAffinity -3.36413288
REMARK minimizedRMSD -1
REMARK  1 active torsions:
REMARK  status: ('A' for Active; 'I' for Inactive)
REMARK    1  A    between atoms: C1_2  and  C2_3 
ROOT
ATOM      1  C2  UNL d   1       0.772  -0.912   0.667  0.00  0.00    -0.076 A 
ATOM      2  C3  UNL d   1      -0.439  -1.175   1.331  0.00  0.00     0.004 A 
ATOM      3  C4  UNL d   1      -1.521  -0.302   1.223  0.00  0.00    -0.003 A 
ATOM      4  C5  UNL d   1      -1.409   0.847   0.448  0.00  0.00     0.000 A 
ATOM      5  C6  UNL d   1      -0.222   1.115  -0.232  0.00  0.00     0.000 A 
ATOM      6  C7  UNL d   1       0.873   0.237  -0.147  0.00  0.00    -0.073 A 
ATOM      7  C8  UNL d   1       2.131   0.578  -0.896  0.00  0.00     0.078 C 
ENDROOT
BRANCH   1   8
ATOM      8  C1  UNL d   1       1.919  -1.880   0.843  0.00  0.00     0.053 C 
ATOM      9  C   UNL d   1       1.530  -3.104   1.658  0.00  0.00     0.018 C 
ENDBRANCH   1   8
TORSDOF 1
ENDMDL
