MODEL 1
REMARK minimizedAffinity -5.50190735
REMARK minimizedRMSD -1
REMARK  1 active torsions:
REMARK  status: ('A' for Active; 'I' for Inactive)
REMARK    1  A    between atoms: C1_2  and  C2_3 
ROOT
ATOM      1  C2  UNL d   1      -0.024  -0.999   0.929  0.00  0.00    -0.076 A 
ATOM      2  C3  UNL d   1       0.933  -1.586   0.084  0.00  0.00     0.004 A 
ATOM      3  C4  UNL d   1       1.660  -2.704   0.491  0.00  0.00    -0.003 A 
ATOM      4  C5  UNL d   1       1.441  -3.252   1.750  0.00  0.00     0.000 A 
ATOM      5  C6  UNL d   1       0.483  -2.693   2.594  0.00  0.00     0.000 A 
ATOM      6  C7  UNL d   1      -0.270  -1.576   2.193  0.00  0.00    -0.073 A 
ATOM      7  C8  UNL d   1      -1.287  -1.010   3.147  0.00  0.00     0.078 C 
ENDROOT
BRANCH   1   8
ATOM      8  C1  UNL d   1      -0.763   0.228   0.444  0.00  0.00     0.053 C 
ATOM      9  C   UNL d   1       0.015   0.997  -0.613  0.00  0.00     0.018 C 
ENDBRANCH   1   8
TORSDOF 1
ENDMDL
