MODEL 1
REMARK minimizedAffinity -3.96975398
REMARK minimizedRMSD -1
REMARK  1 active torsions:
REMARK  status: ('A' for Active; 'I' for Inactive)
REMARK    1  A    between atoms: C1_2  and  C2_3 
ROOT
ATOM      1  C2  UNL d   1       0.791  -0.843   0.679  0.00  0.00    -0.076 A 
ATOM      2  C3  UNL d   1      -0.487  -0.936   1.257  0.00  0.00     0.004 A 
ATOM      3  C4  UNL d   1      -1.425   0.083   1.092  0.00  0.00    -0.003 A 
ATOM      4  C5  UNL d   1      -1.100   1.210   0.346  0.00  0.00     0.000 A 
ATOM      5  C6  UNL d   1       0.157   1.310  -0.250  0.00  0.00     0.000 A 
ATOM      6  C7  UNL d   1       1.108   0.285  -0.107  0.00  0.00    -0.073 A 
ATOM      7  C8  UNL d   1       2.450   0.449  -0.767  0.00  0.00     0.078 C 
ENDROOT
BRANCH   1   8
ATOM      8  C1  UNL d   1       1.775  -1.966   0.914  0.00  0.00     0.053 C 
ATOM      9  C   UNL d   1       1.148  -3.339   0.729  0.00  0.00     0.018 C 
ENDBRANCH   1   8
TORSDOF 1
ENDMDL
