MODEL 1
REMARK minimizedAffinity -4.33166313
REMARK minimizedRMSD -1
REMARK  1 active torsions:
REMARK  status: ('A' for Active; 'I' for Inactive)
REMARK    1  A    between atoms: C1_2  and  C2_3 
ROOT
ATOM      1  C2  UNL d   1      -0.036  -0.311   0.282  0.00  0.00    -0.076 A 
ATOM      2  C3  UNL d   1      -0.667  -1.375   0.951  0.00  0.00     0.004 A 
ATOM      3  C4  UNL d   1       0.009  -2.569   1.196  0.00  0.00    -0.003 A 
ATOM      4  C5  UNL d   1       1.326  -2.719   0.777  0.00  0.00     0.000 A 
ATOM      5  C6  UNL d   1       1.973  -1.668   0.128  0.00  0.00     0.000 A 
ATOM      6  C7  UNL d   1       1.312  -0.452  -0.112  0.00  0.00    -0.073 A 
ATOM      7  C8  UNL d   1       2.056   0.646  -0.822  0.00  0.00     0.078 C 
ENDROOT
BRANCH   1   8
ATOM      8  C1  UNL d   1      -0.827   0.950   0.020  0.00  0.00     0.053 C 
ATOM      9  C   UNL d   1      -1.566   0.909  -1.309  0.00  0.00     0.018 C 
ENDBRANCH   1   8
TORSDOF 1
ENDMDL
