MODEL 1
REMARK minimizedAffinity 20.132822
REMARK minimizedRMSD -1
REMARK  0 active torsions:
REMARK  status: ('A' for Active; 'I' for Inactive)
ROOT
ATOM      1  C   UNL d   1      -2.331  -0.614  -5.993  0.00  0.00    -0.002 A 
ATOM      2  C1  UNL d   1      -3.623  -1.120  -5.997  0.00  0.00     0.010 A 
ATOM      3  C2  UNL d   1      -3.846  -2.499  -5.999  0.00  0.00     0.041 A 
ATOM      4  C3  UNL d   1      -2.737  -3.368  -5.995  0.00  0.00    -0.075 A 
ATOM      5  S   UNL d   1      -2.767  -5.092  -5.995  0.00  0.00     0.015 SA
ATOM      6  C4  UNL d   1      -1.066  -5.196  -5.989  0.00  0.00     0.022 A 
ATOM      7  C5  UNL d   1      -0.474  -3.956  -5.987  0.00  0.00     0.026 A 
ATOM      8  C6  UNL d   1      -1.426  -2.882  -5.990  0.00  0.00    -0.082 A 
ATOM      9  C7  UNL d   1      -1.234  -1.479  -5.989  0.00  0.00     0.045 A 
ENDROOT
TORSDOF 0
ENDMDL
