MODEL 1
REMARK minimizedAffinity 10.075388
REMARK minimizedRMSD -1
REMARK  0 active torsions:
REMARK  status: ('A' for Active; 'I' for Inactive)
ROOT
ATOM      1  C   UNL d   1       0.588  -5.428  -2.445  0.00  0.00    -0.002 A 
ATOM      2  C1  UNL d   1       1.127  -4.304  -3.055  0.00  0.00     0.010 A 
ATOM      3  C2  UNL d   1       0.503  -3.731  -4.165  0.00  0.00     0.041 A 
ATOM      4  C3  UNL d   1      -0.684  -4.310  -4.654  0.00  0.00    -0.075 A 
ATOM      5  S   UNL d   1      -1.622  -3.778  -6.000  0.00  0.00     0.015 SA
ATOM      6  C4  UNL d   1      -2.761  -5.030  -5.796  0.00  0.00     0.022 A 
ATOM      7  C5  UNL d   1      -2.449  -5.842  -4.732  0.00  0.00     0.026 A 
ATOM      8  C6  UNL d   1      -1.247  -5.441  -4.056  0.00  0.00    -0.082 A 
ATOM      9  C7  UNL d   1      -0.590  -5.999  -2.933  0.00  0.00     0.045 A 
ENDROOT
TORSDOF 0
ENDMDL
