MODEL 1
REMARK minimizedAffinity 10.116581
REMARK minimizedRMSD -1
REMARK  0 active torsions:
REMARK  status: ('A' for Active; 'I' for Inactive)
ROOT
ATOM      1  C   UNL d   1      -5.430  -4.827  -5.978  0.00  0.00    -0.002 A 
ATOM      2  C1  UNL d   1      -4.562  -5.910  -5.976  0.00  0.00     0.010 A 
ATOM      3  C2  UNL d   1      -3.180  -5.713  -5.982  0.00  0.00     0.041 A 
ATOM      4  C3  UNL d   1      -2.679  -4.396  -5.987  0.00  0.00    -0.075 A 
ATOM      5  S   UNL d   1      -1.024  -3.912  -5.993  0.00  0.00     0.015 SA
ATOM      6  C4  UNL d   1      -1.430  -2.257  -5.997  0.00  0.00     0.022 A 
ATOM      7  C5  UNL d   1      -2.791  -2.060  -5.994  0.00  0.00     0.026 A 
ATOM      8  C6  UNL d   1      -3.533  -3.289  -5.988  0.00  0.00    -0.082 A 
ATOM      9  C7  UNL d   1      -4.930  -3.522  -5.983  0.00  0.00     0.045 A 
ENDROOT
TORSDOF 0
ENDMDL
