MODEL 1
REMARK minimizedAffinity 9.7712431
REMARK minimizedRMSD -1
REMARK  0 active torsions:
REMARK  status: ('A' for Active; 'I' for Inactive)
ROOT
ATOM      1  C   UNL d   1       1.507  -4.427  -3.420  0.00  0.00    -0.002 A 
ATOM      2  C1  UNL d   1       0.914  -5.404  -2.633  0.00  0.00     0.010 A 
ATOM      3  C2  UNL d   1      -0.349  -5.905  -2.954  0.00  0.00     0.041 A 
ATOM      4  C3  UNL d   1      -1.012  -5.404  -4.091  0.00  0.00    -0.075 A 
ATOM      5  S   UNL d   1      -2.565  -5.869  -4.678  0.00  0.00     0.015 SA
ATOM      6  C4  UNL d   1      -2.477  -4.782  -5.988  0.00  0.00     0.022 A 
ATOM      7  C5  UNL d   1      -1.299  -4.074  -5.993  0.00  0.00     0.026 A 
ATOM      8  C6  UNL d   1      -0.435  -4.421  -4.900  0.00  0.00    -0.082 A 
ATOM      9  C7  UNL d   1       0.847  -3.932  -4.548  0.00  0.00     0.045 A 
ENDROOT
TORSDOF 0
ENDMDL
