MODEL 1
REMARK minimizedAffinity 16.4030743
REMARK minimizedRMSD -1
REMARK  0 active torsions:
REMARK  status: ('A' for Active; 'I' for Inactive)
ROOT
ATOM      1  C   UNL d   1       1.815   3.084   1.636  0.00  0.00    -0.002 A 
ATOM      2  C1  UNL d   1       1.040   2.102   2.236  0.00  0.00     0.010 A 
ATOM      3  C2  UNL d   1      -0.071   1.573   1.577  0.00  0.00     0.041 A 
ATOM      4  C3  UNL d   1      -0.392   2.050   0.291  0.00  0.00    -0.075 A 
ATOM      5  S   UNL d   1      -1.707   1.549  -0.706  0.00  0.00     0.015 SA
ATOM      6  C4  UNL d   1      -1.269   2.626  -1.953  0.00  0.00     0.022 A 
ATOM      7  C5  UNL d   1      -0.151   3.358  -1.632  0.00  0.00     0.026 A 
ATOM      8  C6  UNL d   1       0.373   3.038  -0.334  0.00  0.00    -0.082 A 
ATOM      9  C7  UNL d   1       1.493   3.555   0.360  0.00  0.00     0.045 A 
ENDROOT
TORSDOF 0
ENDMDL
