MODEL 1
REMARK minimizedAffinity 11.4366627
REMARK minimizedRMSD -1
REMARK  0 active torsions:
REMARK  status: ('A' for Active; 'I' for Inactive)
ROOT
ATOM      1  C   UNL d   1      -4.431  -5.789  -5.991  0.00  0.00    -0.002 A 
ATOM      2  C1  UNL d   1      -4.970  -4.510  -5.998  0.00  0.00     0.010 A 
ATOM      3  C2  UNL d   1      -4.138  -3.389  -5.999  0.00  0.00     0.041 A 
ATOM      4  C3  UNL d   1      -2.742  -3.576  -5.994  0.00  0.00    -0.075 A 
ATOM      5  S   UNL d   1      -1.529  -2.351  -5.995  0.00  0.00     0.015 SA
ATOM      6  C4  UNL d   1      -0.267  -3.496  -5.986  0.00  0.00     0.022 A 
ATOM      7  C5  UNL d   1      -0.741  -4.786  -5.982  0.00  0.00     0.026 A 
ATOM      8  C6  UNL d   1      -2.176  -4.854  -5.987  0.00  0.00    -0.082 A 
ATOM      9  C7  UNL d   1      -3.046  -5.971  -5.986  0.00  0.00     0.045 A 
ENDROOT
TORSDOF 0
ENDMDL
