MODEL 1
REMARK minimizedAffinity 4.05835438
REMARK minimizedRMSD -1
REMARK  0 active torsions:
REMARK  status: ('A' for Active; 'I' for Inactive)
ROOT
ATOM      1  C   UNL d   1      -4.786  -4.634  -5.984  0.00  0.00    -0.002 A 
ATOM      2  C1  UNL d   1      -4.107  -5.844  -5.978  0.00  0.00     0.010 A 
ATOM      3  C2  UNL d   1      -2.711  -5.876  -5.980  0.00  0.00     0.041 A 
ATOM      4  C3  UNL d   1      -2.002  -4.658  -5.986  0.00  0.00    -0.075 A 
ATOM      5  S   UNL d   1      -0.290  -4.452  -5.988  0.00  0.00     0.015 SA
ATOM      6  C4  UNL d   1      -0.420  -2.753  -5.996  0.00  0.00     0.022 A 
ATOM      7  C5  UNL d   1      -1.730  -2.336  -5.997  0.00  0.00     0.026 A 
ATOM      8  C6  UNL d   1      -2.663  -3.427  -5.991  0.00  0.00    -0.082 A 
ATOM      9  C7  UNL d   1      -4.079  -3.429  -5.990  0.00  0.00     0.045 A 
ENDROOT
TORSDOF 0
ENDMDL
