MODEL 1
REMARK minimizedAffinity 9.86823845
REMARK minimizedRMSD -1
REMARK  0 active torsions:
REMARK  status: ('A' for Active; 'I' for Inactive)
ROOT
ATOM      1  C   UNL d   1      -0.735  -3.887  -1.730  0.00  0.00    -0.002 A 
ATOM      2  C1  UNL d   1       0.313  -4.518  -2.386  0.00  0.00     0.010 A 
ATOM      3  C2  UNL d   1       0.612  -4.203  -3.713  0.00  0.00     0.041 A 
ATOM      4  C3  UNL d   1      -0.165  -3.232  -4.375  0.00  0.00    -0.075 A 
ATOM      5  S   UNL d   1       0.019  -2.684  -6.000  0.00  0.00     0.015 SA
ATOM      6  C4  UNL d   1      -1.288  -1.600  -5.861  0.00  0.00     0.022 A 
ATOM      7  C5  UNL d   1      -1.863  -1.642  -4.612  0.00  0.00     0.026 A 
ATOM      8  C6  UNL d   1      -1.225  -2.583  -3.735  0.00  0.00    -0.082 A 
ATOM      9  C7  UNL d   1      -1.504  -2.925  -2.390  0.00  0.00     0.045 A 
ENDROOT
TORSDOF 0
ENDMDL
