MODEL 1
REMARK minimizedAffinity -5.61371899
REMARK minimizedRMSD -1
REMARK  0 active torsions:
REMARK  status: ('A' for Active; 'I' for Inactive)
ROOT
ATOM      1  N1  IND d   1      -0.024  -0.310  -0.469  0.00  0.00    -0.196 N 
ATOM      2  C2  IND d   1       0.651  -1.052   0.460  0.00  0.00     0.054 A 
ATOM      3  C3  IND d   1       0.714  -0.389   1.637  0.00  0.00    -0.031 A 
ATOM      4  C4  IND d   1      -0.310   1.880   2.292  0.00  0.00     0.051 A 
ATOM      5  C5  IND d   1      -0.985   2.948   1.770  0.00  0.00    -0.031 A 
ATOM      6  C6  IND d   1      -1.385   2.983   0.450  0.00  0.00     0.015 A 
ATOM      7  C7  IND d   1      -1.133   1.943  -0.399  0.00  0.00    -0.016 A 
ATOM      8  C8  IND d   1      -0.441   0.860   0.125  0.00  0.00    -0.047 A 
ATOM      9  C9  IND d   1       0.004   0.837   1.453  0.00  0.00    -0.096 A 
ATOM     10  HN1 IND d   1      -0.164  -0.537  -1.286  0.00  0.00     0.298 HD
ENDROOT
TORSDOF 0
ENDMDL
