MODEL 1
REMARK minimizedAffinity -3.11003232
REMARK minimizedRMSD -1
REMARK  0 active torsions:
REMARK  status: ('A' for Active; 'I' for Inactive)
ROOT
ATOM      1  N1  IND d   1      -0.329   2.344  -1.697  0.00  0.00    -0.196 N 
ATOM      2  C2  IND d   1      -0.351   3.666  -1.348  0.00  0.00     0.054 A 
ATOM      3  C3  IND d   1      -0.253   3.800  -0.006  0.00  0.00    -0.031 A 
ATOM      4  C4  IND d   1       0.056   1.991   1.800  0.00  0.00     0.051 A 
ATOM      5  C5  IND d   1       0.098   0.636   1.971  0.00  0.00    -0.031 A 
ATOM      6  C6  IND d   1       0.000  -0.237   0.907  0.00  0.00     0.015 A 
ATOM      7  C7  IND d   1      -0.132   0.216  -0.375  0.00  0.00    -0.016 A 
ATOM      8  C8  IND d   1      -0.181   1.591  -0.552  0.00  0.00    -0.047 A 
ATOM      9  C9  IND d   1      -0.126   2.481   0.528  0.00  0.00    -0.096 A 
ATOM     10  HN1 IND d   1      -0.395   2.035  -2.496  0.00  0.00     0.298 HD
ENDROOT
TORSDOF 0
ENDMDL
