MODEL 1
REMARK minimizedAffinity 2.28074646
REMARK minimizedRMSD -1
REMARK  0 active torsions:
REMARK  status: ('A' for Active; 'I' for Inactive)
ROOT
ATOM      1  N1  IND d   1      -0.461  -0.436  -1.721  0.00  0.00    -0.196 N 
ATOM      2  C2  IND d   1       0.666   0.082  -1.147  0.00  0.00     0.054 A 
ATOM      3  C3  IND d   1       1.417  -0.906  -0.611  0.00  0.00    -0.031 A 
ATOM      4  C4  IND d   1       1.038  -3.452  -0.647  0.00  0.00     0.051 A 
ATOM      5  C5  IND d   1       0.128  -4.400  -1.023  0.00  0.00    -0.031 A 
ATOM      6  C6  IND d   1      -1.047  -4.069  -1.666  0.00  0.00     0.015 A 
ATOM      7  C7  IND d   1      -1.352  -2.772  -1.969  0.00  0.00    -0.016 A 
ATOM      8  C8  IND d   1      -0.434  -1.806  -1.582  0.00  0.00    -0.047 A 
ATOM      9  C9  IND d   1       0.740  -2.132  -0.891  0.00  0.00    -0.096 A 
ATOM     10  HN1 IND d   1      -1.083   0.018  -2.104  0.00  0.00     0.298 HD
ENDROOT
TORSDOF 0
ENDMDL
