MODEL 1
REMARK minimizedAffinity -4.82337046
REMARK minimizedRMSD -1
REMARK  0 active torsions:
REMARK  status: ('A' for Active; 'I' for Inactive)
ROOT
ATOM      1  N1  IND d   1       0.518   0.061  -0.772  0.00  0.00    -0.196 N 
ATOM      2  C2  IND d   1       1.181  -0.635   0.200  0.00  0.00     0.054 A 
ATOM      3  C3  IND d   1       0.948  -0.086   1.414  0.00  0.00    -0.031 A 
ATOM      4  C4  IND d   1      -0.569   1.894   2.049  0.00  0.00     0.051 A 
ATOM      5  C5  IND d   1      -1.352   2.871   1.500  0.00  0.00    -0.031 A 
ATOM      6  C6  IND d   1      -1.558   2.961   0.139  0.00  0.00     0.015 A 
ATOM      7  C7  IND d   1      -0.995   2.067  -0.728  0.00  0.00    -0.016 A 
ATOM      8  C8  IND d   1      -0.194   1.078  -0.175  0.00  0.00    -0.047 A 
ATOM      9  C9  IND d   1       0.053   1.007   1.203  0.00  0.00    -0.096 A 
ATOM     10  HN1 IND d   1       0.542  -0.107  -1.615  0.00  0.00     0.298 HD
ENDROOT
TORSDOF 0
ENDMDL
