MODEL 1
REMARK minimizedAffinity -6.15804243
REMARK minimizedRMSD -1
REMARK  0 active torsions:
REMARK  status: ('A' for Active; 'I' for Inactive)
ROOT
ATOM      1  N1  IND d   1       0.228   0.412  -1.299  0.00  0.00    -0.196 N 
ATOM      2  C2  IND d   1       0.941  -0.507  -0.581  0.00  0.00     0.054 A 
ATOM      3  C3  IND d   1       0.899  -0.210   0.737  0.00  0.00    -0.031 A 
ATOM      4  C4  IND d   1      -0.361   1.680   1.948  0.00  0.00     0.051 A 
ATOM      5  C5  IND d   1      -1.119   2.793   1.713  0.00  0.00    -0.031 A 
ATOM      6  C6  IND d   1      -1.476   3.175   0.436  0.00  0.00     0.015 A 
ATOM      7  C7  IND d   1      -1.096   2.449  -0.657  0.00  0.00    -0.016 A 
ATOM      8  C8  IND d   1      -0.320   1.323  -0.423  0.00  0.00    -0.047 A 
ATOM      9  C9  IND d   1       0.080   0.953   0.868  0.00  0.00    -0.096 A 
ATOM     10  HN1 IND d   1       0.138   0.421  -2.154  0.00  0.00     0.298 HD
ENDROOT
TORSDOF 0
ENDMDL
