MODEL 1
REMARK minimizedAffinity -3.27614474
REMARK minimizedRMSD -1
REMARK  0 active torsions:
REMARK  status: ('A' for Active; 'I' for Inactive)
ROOT
ATOM      1  O1  BZF d   1       0.515  -0.692   0.788  0.00  0.00    -0.204 OA
ATOM      2  C2  BZF d   1       0.945  -0.370  -0.485  0.00  0.00     0.174 A 
ATOM      3  C3  BZF d   1       0.180   0.605  -1.016  0.00  0.00    -0.012 A 
ATOM      4  C3A BZF d   1      -0.731   0.976   0.023  0.00  0.00    -0.107 A 
ATOM      5  C4  BZF d   1      -1.731   1.903   0.108  0.00  0.00     0.055 A 
ATOM      6  C5  BZF d   1      -2.481   1.962   1.240  0.00  0.00    -0.016 A 
ATOM      7  C6  BZF d   1      -2.264   1.109   2.301  0.00  0.00     0.022 A 
ATOM      8  C7  BZF d   1      -1.280   0.176   2.265  0.00  0.00     0.029 A 
ATOM      9  C7A BZF d   1      -0.499   0.136   1.136  0.00  0.00     0.058 A 
ENDROOT
TORSDOF 0
ENDMDL
