MODEL 1
REMARK minimizedAffinity 0.00946508348
REMARK minimizedRMSD -1
REMARK  0 active torsions:
REMARK  status: ('A' for Active; 'I' for Inactive)
ROOT
ATOM      1  O1  BZF d   1       0.166   1.603  -0.707  0.00  0.00    -0.204 OA
ATOM      2  C2  BZF d   1       0.617   0.580  -1.519  0.00  0.00     0.174 A 
ATOM      3  C3  BZF d   1       0.618  -0.594  -0.854  0.00  0.00    -0.012 A 
ATOM      4  C3A BZF d   1       0.051  -0.301   0.427  0.00  0.00    -0.107 A 
ATOM      5  C4  BZF d   1      -0.226  -1.061   1.527  0.00  0.00     0.055 A 
ATOM      6  C5  BZF d   1      -0.712  -0.456   2.643  0.00  0.00    -0.016 A 
ATOM      7  C6  BZF d   1      -0.926   0.906   2.695  0.00  0.00     0.022 A 
ATOM      8  C7  BZF d   1      -0.671   1.700   1.628  0.00  0.00     0.029 A 
ATOM      9  C7A BZF d   1      -0.211   1.087   0.488  0.00  0.00     0.058 A 
ENDROOT
TORSDOF 0
ENDMDL
