MODEL 1
REMARK minimizedAffinity -3.0091064
REMARK minimizedRMSD -1
REMARK  0 active torsions:
REMARK  status: ('A' for Active; 'I' for Inactive)
ROOT
ATOM      1  O1  BZF d   1      -0.682   1.429   2.260  0.00  0.00    -0.204 OA
ATOM      2  C2  BZF d   1      -1.745   2.146   1.745  0.00  0.00     0.174 A 
ATOM      3  C3  BZF d   1      -1.917   1.872   0.436  0.00  0.00    -0.012 A 
ATOM      4  C3A BZF d   1      -0.956   0.856   0.134  0.00  0.00    -0.107 A 
ATOM      5  C4  BZF d   1      -0.648   0.162  -1.001  0.00  0.00     0.055 A 
ATOM      6  C5  BZF d   1       0.394  -0.710  -0.980  0.00  0.00    -0.016 A 
ATOM      7  C6  BZF d   1       1.151  -0.909   0.156  0.00  0.00     0.022 A 
ATOM      8  C7  BZF d   1       0.881  -0.247   1.308  0.00  0.00     0.029 A 
ATOM      9  C7A BZF d   1      -0.192   0.610   1.299  0.00  0.00     0.058 A 
ENDROOT
TORSDOF 0
ENDMDL
