MODEL 1
REMARK minimizedAffinity -3.64679337
REMARK minimizedRMSD -1
REMARK  0 active torsions:
REMARK  status: ('A' for Active; 'I' for Inactive)
ROOT
ATOM      1  O1  BZF d   1      -1.113  -1.682  -0.028  0.00  0.00    -0.204 OA
ATOM      2  C2  BZF d   1      -0.129  -2.404  -0.674  0.00  0.00     0.174 A 
ATOM      3  C3  BZF d   1       0.671  -1.588  -1.391  0.00  0.00    -0.012 A 
ATOM      4  C3A BZF d   1       0.210  -0.264  -1.106  0.00  0.00    -0.107 A 
ATOM      5  C4  BZF d   1       0.614   0.977  -1.507  0.00  0.00     0.055 A 
ATOM      6  C5  BZF d   1      -0.095   2.064  -1.105  0.00  0.00    -0.016 A 
ATOM      7  C6  BZF d   1      -1.214   1.947  -0.306  0.00  0.00     0.022 A 
ATOM      8  C7  BZF d   1      -1.650   0.737   0.122  0.00  0.00     0.029 A 
ATOM      9  C7A BZF d   1      -0.916  -0.361  -0.256  0.00  0.00     0.058 A 
ENDROOT
TORSDOF 0
ENDMDL
