MODEL 1
REMARK minimizedAffinity -3.15859747
REMARK minimizedRMSD -1
REMARK  0 active torsions:
REMARK  status: ('A' for Active; 'I' for Inactive)
ROOT
ATOM      1  O1  BZF d   1       1.522   0.553  -1.679  0.00  0.00    -0.204 OA
ATOM      2  C2  BZF d   1       1.426  -0.812  -1.489  0.00  0.00     0.174 A 
ATOM      3  C3  BZF d   1       0.285  -1.126  -0.843  0.00  0.00    -0.012 A 
ATOM      4  C3A BZF d   1      -0.418   0.112  -0.697  0.00  0.00    -0.107 A 
ATOM      5  C4  BZF d   1      -1.623   0.449  -0.149  0.00  0.00     0.055 A 
ATOM      6  C5  BZF d   1      -1.983   1.759  -0.102  0.00  0.00    -0.016 A 
ATOM      7  C6  BZF d   1      -1.163   2.756  -0.587  0.00  0.00     0.022 A 
ATOM      8  C7  BZF d   1       0.039   2.470  -1.144  0.00  0.00     0.029 A 
ATOM      9  C7A BZF d   1       0.392   1.145  -1.223  0.00  0.00     0.058 A 
ENDROOT
TORSDOF 0
ENDMDL
