MODEL 1
REMARK minimizedAffinity 0.212729692
REMARK minimizedRMSD -1
REMARK  0 active torsions:
REMARK  status: ('A' for Active; 'I' for Inactive)
ROOT
ATOM      1  O1  BZF d   1       1.084  -0.307   1.598  0.00  0.00    -0.204 OA
ATOM      2  C2  BZF d   1       0.884  -0.808   0.326  0.00  0.00     0.174 A 
ATOM      3  C3  BZF d   1      -0.271  -0.345  -0.193  0.00  0.00    -0.012 A 
ATOM      4  C3A BZF d   1      -0.782   0.571   0.780  0.00  0.00    -0.107 A 
ATOM      5  C4  BZF d   1      -1.893   1.363   0.833  0.00  0.00     0.055 A 
ATOM      6  C5  BZF d   1      -2.137   2.084   1.958  0.00  0.00    -0.016 A 
ATOM      7  C6  BZF d   1      -1.296   2.034   3.050  0.00  0.00     0.022 A 
ATOM      8  C7  BZF d   1      -0.179   1.267   3.043  0.00  0.00     0.029 A 
ATOM      9  C7A BZF d   1       0.089   0.562   1.895  0.00  0.00     0.058 A 
ENDROOT
TORSDOF 0
ENDMDL
