MODEL 1
REMARK minimizedAffinity -0.723555863
REMARK minimizedRMSD -1
REMARK  0 active torsions:
REMARK  status: ('A' for Active; 'I' for Inactive)
ROOT
ATOM      1  O1  BZF d   1      -1.417   2.323   1.319  0.00  0.00    -0.204 OA
ATOM      2  C2  BZF d   1      -1.299   2.505   2.684  0.00  0.00     0.174 A 
ATOM      3  C3  BZF d   1      -0.686   1.448   3.255  0.00  0.00    -0.012 A 
ATOM      4  C3A BZF d   1      -0.321   0.591   2.169  0.00  0.00    -0.107 A 
ATOM      5  C4  BZF d   1       0.329  -0.607   2.096  0.00  0.00     0.055 A 
ATOM      6  C5  BZF d   1       0.460  -1.215   0.887  0.00  0.00    -0.016 A 
ATOM      7  C6  BZF d   1      -0.050  -0.656  -0.266  0.00  0.00     0.022 A 
ATOM      8  C7  BZF d   1      -0.699   0.534  -0.244  0.00  0.00     0.029 A 
ATOM      9  C7A BZF d   1      -0.804   1.166   0.971  0.00  0.00     0.058 A 
ENDROOT
TORSDOF 0
ENDMDL
