MODEL 1
REMARK minimizedAffinity -3.74383521
REMARK minimizedRMSD -1
REMARK  0 active torsions:
REMARK  status: ('A' for Active; 'I' for Inactive)
ROOT
ATOM      1  O1  BZF d   1       1.069   1.467  -0.811  0.00  0.00    -0.204 OA
ATOM      2  C2  BZF d   1       1.684   0.335  -1.311  0.00  0.00     0.174 A 
ATOM      3  C3  BZF d   1       0.912  -0.754  -1.119  0.00  0.00    -0.012 A 
ATOM      4  C3A BZF d   1      -0.299  -0.259  -0.541  0.00  0.00    -0.107 A 
ATOM      5  C4  BZF d   1      -1.460  -0.856  -0.138  0.00  0.00     0.055 A 
ATOM      6  C5  BZF d   1      -2.421  -0.099   0.454  0.00  0.00    -0.016 A 
ATOM      7  C6  BZF d   1      -2.253   1.255   0.663  0.00  0.00     0.022 A 
ATOM      8  C7  BZF d   1      -1.122   1.892   0.275  0.00  0.00     0.029 A 
ATOM      9  C7A BZF d   1      -0.162   1.136  -0.353  0.00  0.00     0.058 A 
ENDROOT
TORSDOF 0
ENDMDL
