MODEL 1
REMARK minimizedAffinity 1.08133161
REMARK minimizedRMSD -1
REMARK  0 active torsions:
REMARK  status: ('A' for Active; 'I' for Inactive)
ROOT
ATOM      1  O1  BZF d   1       1.699  -1.349   0.210  0.00  0.00    -0.204 OA
ATOM      2  C2  BZF d   1       1.463  -0.009  -0.031  0.00  0.00     0.174 A 
ATOM      3  C3  BZF d   1       0.837   0.160  -1.213  0.00  0.00    -0.012 A 
ATOM      4  C3A BZF d   1       0.588  -1.162  -1.701  0.00  0.00    -0.107 A 
ATOM      5  C4  BZF d   1      -0.018  -1.650  -2.822  0.00  0.00     0.055 A 
ATOM      6  C5  BZF d   1      -0.031  -2.993  -3.035  0.00  0.00    -0.016 A 
ATOM      7  C6  BZF d   1       0.556  -3.873  -2.151  0.00  0.00     0.022 A 
ATOM      8  C7  BZF d   1       1.166  -3.436  -1.022  0.00  0.00     0.029 A 
ATOM      9  C7A BZF d   1       1.151  -2.083  -0.788  0.00  0.00     0.058 A 
ENDROOT
TORSDOF 0
ENDMDL
