MODEL 1
REMARK minimizedAffinity -0.914623678
REMARK minimizedRMSD -1
REMARK  0 active torsions:
REMARK  status: ('A' for Active; 'I' for Inactive)
ROOT
ATOM      1  O1  BZF d   1       1.256  -1.704  -0.149  0.00  0.00    -0.204 OA
ATOM      2  C2  BZF d   1       0.550  -0.542  -0.388  0.00  0.00     0.174 A 
ATOM      3  C3  BZF d   1      -0.233  -0.673  -1.478  0.00  0.00    -0.012 A 
ATOM      4  C3A BZF d   1      -0.070  -2.031  -1.897  0.00  0.00    -0.107 A 
ATOM      5  C4  BZF d   1      -0.602  -2.770  -2.915  0.00  0.00     0.055 A 
ATOM      6  C5  BZF d   1      -0.180  -4.049  -3.093  0.00  0.00    -0.016 A 
ATOM      7  C6  BZF d   1       0.773  -4.620  -2.276  0.00  0.00     0.022 A 
ATOM      8  C7  BZF d   1       1.326  -3.928  -1.249  0.00  0.00     0.029 A 
ATOM      9  C7A BZF d   1       0.878  -2.646  -1.047  0.00  0.00     0.058 A 
ENDROOT
TORSDOF 0
ENDMDL
