MODEL 1
REMARK minimizedAffinity 0.462748677
REMARK minimizedRMSD -1
REMARK  0 active torsions:
REMARK  status: ('A' for Active; 'I' for Inactive)
ROOT
ATOM      1  O1  BZF d   1      -3.686  -2.170   2.026  0.00  0.00    -0.204 OA
ATOM      2  C2  BZF d   1      -5.065  -2.079   2.003  0.00  0.00     0.174 A 
ATOM      3  C3  BZF d   1      -5.566  -2.098   3.255  0.00  0.00    -0.012 A 
ATOM      4  C3A BZF d   1      -4.425  -2.115   4.117  0.00  0.00    -0.107 A 
ATOM      5  C4  BZF d   1      -4.274  -2.124   5.475  0.00  0.00     0.055 A 
ATOM      6  C5  BZF d   1      -3.024  -2.215   5.999  0.00  0.00    -0.016 A 
ATOM      7  C6  BZF d   1      -1.904  -2.305   5.198  0.00  0.00     0.022 A 
ATOM      8  C7  BZF d   1      -2.004  -2.295   3.846  0.00  0.00     0.029 A 
ATOM      9  C7A BZF d   1      -3.263  -2.170   3.313  0.00  0.00     0.058 A 
ENDROOT
TORSDOF 0
ENDMDL
