MODEL 1
REMARK minimizedAffinity -1.21226704
REMARK minimizedRMSD -1
REMARK  0 active torsions:
REMARK  status: ('A' for Active; 'I' for Inactive)
ROOT
ATOM      1  O1  BZF d   1      -0.505  -0.160  -0.639  0.00  0.00    -0.204 OA
ATOM      2  C2  BZF d   1       0.622   0.574  -0.325  0.00  0.00     0.174 A 
ATOM      3  C3  BZF d   1       1.729  -0.193  -0.401  0.00  0.00    -0.012 A 
ATOM      4  C3A BZF d   1       1.274  -1.464  -0.876  0.00  0.00    -0.107 A 
ATOM      5  C4  BZF d   1       1.907  -2.638  -1.170  0.00  0.00     0.055 A 
ATOM      6  C5  BZF d   1       1.164  -3.713  -1.542  0.00  0.00    -0.016 A 
ATOM      7  C6  BZF d   1      -0.211  -3.652  -1.626  0.00  0.00     0.022 A 
ATOM      8  C7  BZF d   1      -0.883  -2.508  -1.349  0.00  0.00     0.029 A 
ATOM      9  C7A BZF d   1      -0.133  -1.410  -1.005  0.00  0.00     0.058 A 
ENDROOT
TORSDOF 0
ENDMDL
