MODEL 1
REMARK minimizedAffinity -2.67550802
REMARK minimizedRMSD -1
REMARK  0 active torsions:
REMARK  status: ('A' for Active; 'I' for Inactive)
ROOT
ATOM      1  O1  BZF d   1      -0.223  -1.448  -2.364  0.00  0.00    -0.204 OA
ATOM      2  C2  BZF d   1       0.955  -2.156  -2.223  0.00  0.00     0.174 A 
ATOM      3  C3  BZF d   1       1.569  -1.838  -1.065  0.00  0.00    -0.012 A 
ATOM      4  C3A BZF d   1       0.676  -0.940  -0.400  0.00  0.00    -0.107 A 
ATOM      5  C4  BZF d   1       0.720  -0.289   0.800  0.00  0.00     0.055 A 
ATOM      6  C5  BZF d   1      -0.280   0.573   1.120  0.00  0.00    -0.016 A 
ATOM      7  C6  BZF d   1      -1.335   0.813   0.264  0.00  0.00     0.022 A 
ATOM      8  C7  BZF d   1      -1.425   0.187  -0.935  0.00  0.00     0.029 A 
ATOM      9  C7A BZF d   1      -0.433  -0.710  -1.248  0.00  0.00     0.058 A 
ENDROOT
TORSDOF 0
ENDMDL
