MODEL 1
REMARK minimizedAffinity -4.03665066
REMARK minimizedRMSD -1
REMARK  0 active torsions:
REMARK  status: ('A' for Active; 'I' for Inactive)
ROOT
ATOM      1  O1  BZF d   1      -0.314   0.429  -0.967  0.00  0.00    -0.204 OA
ATOM      2  C2  BZF d   1       0.466  -0.710  -0.910  0.00  0.00     0.174 A 
ATOM      3  C3  BZF d   1       0.653  -1.098   0.368  0.00  0.00    -0.012 A 
ATOM      4  C3A BZF d   1      -0.130  -0.194   1.154  0.00  0.00    -0.107 A 
ATOM      5  C4  BZF d   1      -0.364  -0.077   2.494  0.00  0.00     0.055 A 
ATOM      6  C5  BZF d   1      -1.120   0.960   2.944  0.00  0.00    -0.016 A 
ATOM      7  C6  BZF d   1      -1.651   1.898   2.084  0.00  0.00     0.022 A 
ATOM      8  C7  BZF d   1      -1.449   1.820   0.745  0.00  0.00     0.029 A 
ATOM      9  C7A BZF d   1      -0.714   0.756   0.285  0.00  0.00     0.058 A 
ENDROOT
TORSDOF 0
ENDMDL
