MODEL 1
REMARK minimizedAffinity -4.80601549
REMARK minimizedRMSD -1
REMARK  0 active torsions:
REMARK  status: ('A' for Active; 'I' for Inactive)
ROOT
ATOM      1  O1  BZF d   1      -1.014  -0.522  -0.973  0.00  0.00    -0.204 OA
ATOM      2  C2  BZF d   1      -0.026   0.157  -0.285  0.00  0.00     0.174 A 
ATOM      3  C3  BZF d   1       1.081  -0.603  -0.165  0.00  0.00    -0.012 A 
ATOM      4  C3A BZF d   1       0.798  -1.799  -0.898  0.00  0.00    -0.107 A 
ATOM      5  C4  BZF d   1       1.516  -2.931  -1.161  0.00  0.00     0.055 A 
ATOM      6  C5  BZF d   1       0.924  -3.944  -1.846  0.00  0.00    -0.016 A 
ATOM      7  C6  BZF d   1      -0.384  -3.861  -2.278  0.00  0.00     0.022 A 
ATOM      8  C7  BZF d   1      -1.134  -2.757  -2.046  0.00  0.00     0.029 A 
ATOM      9  C7A BZF d   1      -0.528  -1.718  -1.382  0.00  0.00     0.058 A 
ENDROOT
TORSDOF 0
ENDMDL
