MODEL 1
REMARK minimizedAffinity -4.02954149
REMARK minimizedRMSD -1
REMARK  0 active torsions:
REMARK  status: ('A' for Active; 'I' for Inactive)
ROOT
ATOM      1  O1  BZF d   1      -0.481   0.201  -1.036  0.00  0.00    -0.204 OA
ATOM      2  C2  BZF d   1       0.236  -0.973  -1.166  0.00  0.00     0.174 A 
ATOM      3  C3  BZF d   1       0.630  -1.429   0.040  0.00  0.00    -0.012 A 
ATOM      4  C3A BZF d   1       0.050  -0.530   0.990  0.00  0.00    -0.107 A 
ATOM      5  C4  BZF d   1       0.068  -0.466   2.354  0.00  0.00     0.055 A 
ATOM      6  C5  BZF d   1      -0.538   0.581   2.974  0.00  0.00    -0.016 A 
ATOM      7  C6  BZF d   1      -1.166   1.582   2.262  0.00  0.00     0.022 A 
ATOM      8  C7  BZF d   1      -1.214   1.559   0.908  0.00  0.00     0.029 A 
ATOM      9  C7A BZF d   1      -0.631   0.485   0.280  0.00  0.00     0.058 A 
ENDROOT
TORSDOF 0
ENDMDL
