MODEL 1
REMARK minimizedAffinity -2.065624
REMARK minimizedRMSD -1
REMARK  0 active torsions:
REMARK  status: ('A' for Active; 'I' for Inactive)
ROOT
ATOM      1  O1  BZF d   1      -0.513   0.126  -1.283  0.00  0.00    -0.204 OA
ATOM      2  C2  BZF d   1      -0.042  -1.172  -1.330  0.00  0.00     0.174 A 
ATOM      3  C3  BZF d   1       0.208  -1.636  -0.089  0.00  0.00    -0.012 A 
ATOM      4  C3A BZF d   1      -0.215  -0.593   0.795  0.00  0.00    -0.107 A 
ATOM      5  C4  BZF d   1      -0.235  -0.465   2.154  0.00  0.00     0.055 A 
ATOM      6  C5  BZF d   1      -0.642   0.711   2.701  0.00  0.00    -0.016 A 
ATOM      7  C6  BZF d   1      -1.030   1.779   1.919  0.00  0.00     0.022 A 
ATOM      8  C7  BZF d   1      -1.032   1.698   0.566  0.00  0.00     0.029 A 
ATOM      9  C7A BZF d   1      -0.652   0.500   0.011  0.00  0.00     0.058 A 
ENDROOT
TORSDOF 0
ENDMDL
