MODEL 1
REMARK minimizedAffinity -4.83247566
REMARK minimizedRMSD -1
REMARK  0 active torsions:
REMARK  status: ('A' for Active; 'I' for Inactive)
ROOT
ATOM      1  O1  BZF d   1      -0.885  -3.457  -1.365  0.00  0.00    -0.204 OA
ATOM      2  C2  BZF d   1       0.095  -3.824  -2.268  0.00  0.00     0.174 A 
ATOM      3  C3  BZF d   1       1.102  -2.927  -2.272  0.00  0.00    -0.012 A 
ATOM      4  C3A BZF d   1       0.772  -1.985  -1.247  0.00  0.00    -0.107 A 
ATOM      5  C4  BZF d   1       1.392  -0.870  -0.761  0.00  0.00     0.055 A 
ATOM      6  C5  BZF d   1       0.770  -0.131   0.195  0.00  0.00    -0.016 A 
ATOM      7  C6  BZF d   1      -0.474  -0.475   0.683  0.00  0.00     0.022 A 
ATOM      8  C7  BZF d   1      -1.126  -1.576   0.236  0.00  0.00     0.029 A 
ATOM      9  C7A BZF d   1      -0.485  -2.343  -0.706  0.00  0.00     0.058 A 
ENDROOT
TORSDOF 0
ENDMDL
