MODEL 1
REMARK minimizedAffinity -3.94546843
REMARK minimizedRMSD -1
REMARK  0 active torsions:
REMARK  status: ('A' for Active; 'I' for Inactive)
ROOT
ATOM      1  C4' PXY d   1      -0.644  -2.697  -0.952  0.00  0.00     0.077 C 
ATOM      2  C1' PXY d   1      -0.128   2.595   1.315  0.00  0.00     0.077 C 
ATOM      3  C1  PXY d   1      -0.252   1.209   0.714  0.00  0.00    -0.082 A 
ATOM      4  C2  PXY d   1      -1.446   0.653   0.594  0.00  0.00     0.003 A 
ATOM      5  C3  PXY d   1      -1.574  -0.613   0.082  0.00  0.00     0.003 A 
ATOM      6  C4  PXY d   1      -0.472  -1.295  -0.360  0.00  0.00    -0.082 A 
ATOM      7  C5  PXY d   1       0.749  -0.731  -0.250  0.00  0.00     0.003 A 
ATOM      8  C6  PXY d   1       0.861   0.539   0.310  0.00  0.00     0.003 A 
ENDROOT
TORSDOF 0
ENDMDL
