MODEL 1
REMARK minimizedAffinity -3.5460515
REMARK minimizedRMSD -1
REMARK  0 active torsions:
REMARK  status: ('A' for Active; 'I' for Inactive)
ROOT
ATOM      1  C4' PXY d   1      -0.042  -3.356  -1.643  0.00  0.00     0.077 C 
ATOM      2  C1' PXY d   1      -0.253   1.947   0.648  0.00  0.00     0.077 C 
ATOM      3  C1  PXY d   1      -0.194   0.552   0.059  0.00  0.00    -0.082 A 
ATOM      4  C2  PXY d   1       0.019   0.398  -1.238  0.00  0.00     0.003 A 
ATOM      5  C3  PXY d   1       0.043  -0.856  -1.792  0.00  0.00     0.003 A 
ATOM      6  C4  PXY d   1      -0.100  -1.966  -1.003  0.00  0.00    -0.082 A 
ATOM      7  C5  PXY d   1      -0.307  -1.817   0.323  0.00  0.00     0.003 A 
ATOM      8  C6  PXY d   1      -0.369  -0.534   0.860  0.00  0.00     0.003 A 
ENDROOT
TORSDOF 0
ENDMDL
