MODEL 1
REMARK minimizedAffinity -3.27546525
REMARK minimizedRMSD -1
REMARK  0 active torsions:
REMARK  status: ('A' for Active; 'I' for Inactive)
ROOT
ATOM      1  C4' PXY d   1      -0.123  -3.116  -1.860  0.00  0.00     0.077 C 
ATOM      2  C1' PXY d   1      -0.772   2.053   0.646  0.00  0.00     0.077 C 
ATOM      3  C1  PXY d   1      -0.591   0.695  -0.003  0.00  0.00    -0.082 A 
ATOM      4  C2  PXY d   1      -1.077   0.480  -1.215  0.00  0.00     0.003 A 
ATOM      5  C3  PXY d   1      -0.951  -0.752  -1.804  0.00  0.00     0.003 A 
ATOM      6  C4  PXY d   1      -0.274  -1.758  -1.169  0.00  0.00    -0.082 A 
ATOM      7  C5  PXY d   1       0.234  -1.543   0.063  0.00  0.00     0.003 A 
ATOM      8  C6  PXY d   1       0.059  -0.298   0.661  0.00  0.00     0.003 A 
ENDROOT
TORSDOF 0
ENDMDL
