MODEL 1
REMARK minimizedAffinity -2.79953289
REMARK minimizedRMSD -1
REMARK  0 active torsions:
REMARK  status: ('A' for Active; 'I' for Inactive)
ROOT
ATOM      1  C4' PXY d   1      -0.451   2.013   0.872  0.00  0.00     0.077 C 
ATOM      2  C1' PXY d   1      -0.586  -2.937  -2.111  0.00  0.00     0.077 C 
ATOM      3  C1  PXY d   1      -0.548  -1.646  -1.318  0.00  0.00    -0.082 A 
ATOM      4  C2  PXY d   1      -1.209  -0.588  -1.759  0.00  0.00     0.003 A 
ATOM      5  C3  PXY d   1      -1.159   0.598  -1.071  0.00  0.00     0.003 A 
ATOM      6  C4  PXY d   1      -0.469   0.686   0.109  0.00  0.00    -0.082 A 
ATOM      7  C5  PXY d   1       0.199  -0.393   0.571  0.00  0.00     0.003 A 
ATOM      8  C6  PXY d   1       0.170  -1.574  -0.164  0.00  0.00     0.003 A 
ENDROOT
TORSDOF 0
ENDMDL
