MODEL 1
REMARK minimizedAffinity -5.18092394
REMARK minimizedRMSD -1
REMARK  0 active torsions:
REMARK  status: ('A' for Active; 'I' for Inactive)
ROOT
ATOM      1  C4' PXY d   1      -0.214  -2.524  -2.289  0.00  0.00     0.077 C 
ATOM      2  C1' PXY d   1      -1.123   2.476   0.466  0.00  0.00     0.077 C 
ATOM      3  C1  PXY d   1      -0.874   1.162  -0.249  0.00  0.00    -0.082 A 
ATOM      4  C2  PXY d   1      -1.360   0.978  -1.466  0.00  0.00     0.003 A 
ATOM      5  C3  PXY d   1      -1.171  -0.215  -2.114  0.00  0.00     0.003 A 
ATOM      6  C4  PXY d   1      -0.433  -1.211  -1.533  0.00  0.00    -0.082 A 
ATOM      7  C5  PXY d   1       0.075  -1.026  -0.296  0.00  0.00     0.003 A 
ATOM      8  C6  PXY d   1      -0.162   0.177   0.362  0.00  0.00     0.003 A 
ENDROOT
TORSDOF 0
ENDMDL
