MODEL 1
REMARK minimizedAffinity -3.30711651
REMARK minimizedRMSD -1
REMARK  0 active torsions:
REMARK  status: ('A' for Active; 'I' for Inactive)
ROOT
ATOM      1  C4' PXY d   1      -0.981   2.180   0.825  0.00  0.00     0.077 C 
ATOM      2  C1' PXY d   1      -0.480  -3.166  -1.316  0.00  0.00     0.077 C 
ATOM      3  C1  PXY d   1      -0.617  -1.760  -0.765  0.00  0.00    -0.082 A 
ATOM      4  C2  PXY d   1       0.185  -1.357   0.207  0.00  0.00     0.003 A 
ATOM      5  C3  PXY d   1       0.054  -0.099   0.738  0.00  0.00     0.003 A 
ATOM      6  C4  PXY d   1      -0.873   0.773   0.233  0.00  0.00    -0.082 A 
ATOM      7  C5  PXY d   1      -1.688   0.373  -0.766  0.00  0.00     0.003 A 
ATOM      8  C6  PXY d   1      -1.566  -0.921  -1.263  0.00  0.00     0.003 A 
ENDROOT
TORSDOF 0
ENDMDL
