MODEL 1
REMARK minimizedAffinity -3.34719753
REMARK minimizedRMSD -1
REMARK  0 active torsions:
REMARK  status: ('A' for Active; 'I' for Inactive)
ROOT
ATOM      1  C4' PXY d   1      -0.717  -2.910  -0.776  0.00  0.00     0.077 C 
ATOM      2  C1' PXY d   1      -0.156   2.623   0.799  0.00  0.00     0.077 C 
ATOM      3  C1  PXY d   1      -0.290   1.172   0.383  0.00  0.00    -0.082 A 
ATOM      4  C2  PXY d   1      -1.478   0.695   0.046  0.00  0.00     0.003 A 
ATOM      5  C3  PXY d   1      -1.623  -0.623  -0.302  0.00  0.00     0.003 A 
ATOM      6  C4  PXY d   1      -0.532  -1.449  -0.358  0.00  0.00    -0.082 A 
ATOM      7  C5  PXY d   1       0.684  -0.968  -0.026  0.00  0.00     0.003 A 
ATOM      8  C6  PXY d   1       0.804   0.363   0.364  0.00  0.00     0.003 A 
ENDROOT
TORSDOF 0
ENDMDL
