MODEL 1
REMARK minimizedAffinity -3.83379602
REMARK minimizedRMSD -1
REMARK  0 active torsions:
REMARK  status: ('A' for Active; 'I' for Inactive)
ROOT
ATOM      1  C4' PXY d   1      -0.446   2.684   0.810  0.00  0.00     0.077 C 
ATOM      2  C1' PXY d   1      -0.577  -2.770  -1.102  0.00  0.00     0.077 C 
ATOM      3  C1  PXY d   1      -0.551  -1.336  -0.610  0.00  0.00    -0.082 A 
ATOM      4  C2  PXY d   1       0.485  -0.903   0.090  0.00  0.00     0.003 A 
ATOM      5  C3  PXY d   1       0.510   0.381   0.570  0.00  0.00     0.003 A 
ATOM      6  C4  PXY d   1      -0.511   1.247   0.285  0.00  0.00    -0.082 A 
ATOM      7  C5  PXY d   1      -1.566   0.816  -0.439  0.00  0.00     0.003 A 
ATOM      8  C6  PXY d   1      -1.592  -0.503  -0.881  0.00  0.00     0.003 A 
ENDROOT
TORSDOF 0
ENDMDL
