MODEL 1
REMARK minimizedAffinity -2.96110439
REMARK minimizedRMSD -1
REMARK  0 active torsions:
REMARK  status: ('A' for Active; 'I' for Inactive)
ROOT
ATOM      1  C4' PXY d   1      -0.503  -3.090  -1.403  0.00  0.00     0.077 C 
ATOM      2  C1' PXY d   1      -0.843   2.236   0.818  0.00  0.00     0.077 C 
ATOM      3  C1  PXY d   1      -0.744   0.837   0.243  0.00  0.00    -0.082 A 
ATOM      4  C2  PXY d   1      -1.202   0.595  -0.974  0.00  0.00     0.003 A 
ATOM      5  C3  PXY d   1      -1.149  -0.671  -1.497  0.00  0.00     0.003 A 
ATOM      6  C4  PXY d   1      -0.573  -1.690  -0.786  0.00  0.00    -0.082 A 
ATOM      7  C5  PXY d   1      -0.094  -1.450   0.453  0.00  0.00     0.003 A 
ATOM      8  C6  PXY d   1      -0.194  -0.166   0.981  0.00  0.00     0.003 A 
ENDROOT
TORSDOF 0
ENDMDL
