MODEL 1
REMARK minimizedAffinity -3.99385285
REMARK minimizedRMSD -1
REMARK  0 active torsions:
REMARK  status: ('A' for Active; 'I' for Inactive)
ROOT
ATOM      1  C4' PXY d   1      -0.662  -3.194  -1.112  0.00  0.00     0.077 C 
ATOM      2  C1' PXY d   1      -0.482   2.249   0.826  0.00  0.00     0.077 C 
ATOM      3  C1  PXY d   1      -0.519   0.819   0.326  0.00  0.00    -0.082 A 
ATOM      4  C2  PXY d   1      -1.027   0.556  -0.867  0.00  0.00     0.003 A 
ATOM      5  C3  PXY d   1      -1.098  -0.736  -1.322  0.00  0.00     0.003 A 
ATOM      6  C4  PXY d   1      -0.595  -1.763  -0.570  0.00  0.00    -0.082 A 
ATOM      7  C5  PXY d   1      -0.065  -1.502   0.644  0.00  0.00     0.003 A 
ATOM      8  C6  PXY d   1      -0.040  -0.189   1.105  0.00  0.00     0.003 A 
ENDROOT
TORSDOF 0
ENDMDL
