MODEL 1
REMARK minimizedAffinity -3.84234571
REMARK minimizedRMSD -1
REMARK  0 active torsions:
REMARK  status: ('A' for Active; 'I' for Inactive)
ROOT
ATOM      1  C4' PXY d   1      -1.144  -2.986  -1.795  0.00  0.00     0.077 C 
ATOM      2  C1' PXY d   1      -0.977   2.136   0.881  0.00  0.00     0.077 C 
ATOM      3  C1  PXY d   1      -1.008   0.791   0.182  0.00  0.00    -0.082 A 
ATOM      4  C2  PXY d   1      -1.889   0.574  -0.781  0.00  0.00     0.003 A 
ATOM      5  C3  PXY d   1      -1.953  -0.647  -1.401  0.00  0.00     0.003 A 
ATOM      6  C4  PXY d   1      -1.070  -1.640  -1.069  0.00  0.00    -0.082 A 
ATOM      7  C5  PXY d   1      -0.161  -1.423  -0.095  0.00  0.00     0.003 A 
ATOM      8  C6  PXY d   1      -0.140  -0.190   0.551  0.00  0.00     0.003 A 
ENDROOT
TORSDOF 0
ENDMDL
