MODEL 1
REMARK minimizedAffinity -4.39321232
REMARK minimizedRMSD -1
REMARK  0 active torsions:
REMARK  status: ('A' for Active; 'I' for Inactive)
ROOT
ATOM      1  C4' PXY d   1      -0.468  -3.307  -0.180  0.00  0.00     0.077 C 
ATOM      2  C1' PXY d   1      -0.971   2.412   0.501  0.00  0.00     0.077 C 
ATOM      3  C1  PXY d   1      -0.838   0.914   0.309  0.00  0.00    -0.082 A 
ATOM      4  C2  PXY d   1      -1.312   0.092   1.231  0.00  0.00     0.003 A 
ATOM      5  C3  PXY d   1      -1.172  -1.265   1.089  0.00  0.00     0.003 A 
ATOM      6  C4  PXY d   1      -0.588  -1.787  -0.033  0.00  0.00    -0.082 A 
ATOM      7  C5  PXY d   1      -0.111  -0.956  -0.984  0.00  0.00     0.003 A 
ATOM      8  C6  PXY d   1      -0.227   0.419  -0.801  0.00  0.00     0.003 A 
ENDROOT
TORSDOF 0
ENDMDL
