MODEL 1
REMARK minimizedAffinity -1.539186
REMARK minimizedRMSD -1
REMARK  0 active torsions:
REMARK  status: ('A' for Active; 'I' for Inactive)
ROOT
ATOM      1  C4' PXY d   1      -0.240  -2.646  -1.576  0.00  0.00     0.077 C 
ATOM      2  C1' PXY d   1      -1.066   2.420   1.083  0.00  0.00     0.077 C 
ATOM      3  C1  PXY d   1      -0.839   1.089   0.393  0.00  0.00    -0.082 A 
ATOM      4  C2  PXY d   1      -1.254   0.918  -0.851  0.00  0.00     0.003 A 
ATOM      5  C3  PXY d   1      -1.086  -0.290  -1.478  0.00  0.00     0.003 A 
ATOM      6  C4  PXY d   1      -0.439  -1.316  -0.844  0.00  0.00    -0.082 A 
ATOM      7  C5  PXY d   1      -0.003  -1.146   0.422  0.00  0.00     0.003 A 
ATOM      8  C6  PXY d   1      -0.220   0.075   1.056  0.00  0.00     0.003 A 
ENDROOT
TORSDOF 0
ENDMDL
