MODEL 1
REMARK minimizedAffinity -4.11857653
REMARK minimizedRMSD -1
REMARK  0 active torsions:
REMARK  status: ('A' for Active; 'I' for Inactive)
ROOT
ATOM      1  C4' PXY d   1       0.004  -3.592  -1.723  0.00  0.00     0.077 C 
ATOM      2  C1' PXY d   1      -1.023   1.583   0.640  0.00  0.00     0.077 C 
ATOM      3  C1  PXY d   1      -0.763   0.228   0.011  0.00  0.00    -0.082 A 
ATOM      4  C2  PXY d   1      -0.230  -0.739   0.739  0.00  0.00     0.003 A 
ATOM      5  C3  PXY d   1       0.042  -1.961   0.178  0.00  0.00     0.003 A 
ATOM      6  C4  PXY d   1      -0.285  -2.211  -1.128  0.00  0.00    -0.082 A 
ATOM      7  C5  PXY d   1      -0.840  -1.233  -1.874  0.00  0.00     0.003 A 
ATOM      8  C6  PXY d   1      -1.069   0.013  -1.297  0.00  0.00     0.003 A 
ENDROOT
TORSDOF 0
ENDMDL
