MODEL 1
REMARK minimizedAffinity -4.25826979
REMARK minimizedRMSD -1
REMARK  0 active torsions:
REMARK  status: ('A' for Active; 'I' for Inactive)
ROOT
ATOM      1  C4' PXY d   1      -0.422  -2.998  -1.290  0.00  0.00     0.077 C 
ATOM      2  C1' PXY d   1      -0.378   2.329   0.954  0.00  0.00     0.077 C 
ATOM      3  C1  PXY d   1      -0.385   0.927   0.377  0.00  0.00    -0.082 A 
ATOM      4  C2  PXY d   1      -0.321   0.759  -0.934  0.00  0.00     0.003 A 
ATOM      5  C3  PXY d   1      -0.358  -0.500  -1.475  0.00  0.00     0.003 A 
ATOM      6  C4  PXY d   1      -0.408  -1.602  -0.662  0.00  0.00    -0.082 A 
ATOM      7  C5  PXY d   1      -0.463  -1.439   0.677  0.00  0.00     0.003 A 
ATOM      8  C6  PXY d   1      -0.466  -0.150   1.203  0.00  0.00     0.003 A 
ENDROOT
TORSDOF 0
ENDMDL
