MODEL 1
REMARK minimizedAffinity -2.09039402
REMARK minimizedRMSD -1
REMARK  0 active torsions:
REMARK  status: ('A' for Active; 'I' for Inactive)
ROOT
ATOM      1  C4' PXY d   1      -0.440  -3.125  -1.156  0.00  0.00     0.077 C 
ATOM      2  C1' PXY d   1      -0.609   2.233   1.008  0.00  0.00     0.077 C 
ATOM      3  C1  PXY d   1      -0.552   0.827   0.444  0.00  0.00    -0.082 A 
ATOM      4  C2  PXY d   1      -1.362   0.485  -0.545  0.00  0.00     0.003 A 
ATOM      5  C3  PXY d   1      -1.346  -0.792  -1.044  0.00  0.00     0.003 A 
ATOM      6  C4  PXY d   1      -0.456  -1.713  -0.562  0.00  0.00    -0.082 A 
ATOM      7  C5  PXY d   1       0.381  -1.369   0.440  0.00  0.00     0.003 A 
ATOM      8  C6  PXY d   1       0.321  -0.080   0.961  0.00  0.00     0.003 A 
ENDROOT
TORSDOF 0
ENDMDL
