MODEL 1
REMARK minimizedAffinity -2.05853367
REMARK minimizedRMSD -1
REMARK  0 active torsions:
REMARK  status: ('A' for Active; 'I' for Inactive)
ROOT
ATOM      1  C4' PXY d   1      -0.351  -3.942  -2.225  0.00  0.00     0.077 C 
ATOM      2  C1' PXY d   1      -0.144   0.806   1.065  0.00  0.00     0.077 C 
ATOM      3  C1  PXY d   1      -0.189  -0.445   0.210  0.00  0.00    -0.082 A 
ATOM      4  C2  PXY d   1      -0.610  -0.366  -1.042  0.00  0.00     0.003 A 
ATOM      5  C3  PXY d   1      -0.687  -1.493  -1.820  0.00  0.00     0.003 A 
ATOM      6  C4  PXY d   1      -0.280  -2.704  -1.327  0.00  0.00    -0.082 A 
ATOM      7  C5  PXY d   1       0.161  -2.790  -0.054  0.00  0.00     0.003 A 
ATOM      8  C6  PXY d   1       0.193  -1.642   0.732  0.00  0.00     0.003 A 
ENDROOT
TORSDOF 0
ENDMDL
