MODEL 1
REMARK minimizedAffinity -3.59268856
REMARK minimizedRMSD -1
REMARK  0 active torsions:
REMARK  status: ('A' for Active; 'I' for Inactive)
ROOT
ATOM      1  C4' PXY d   1      -0.611   2.669   0.880  0.00  0.00     0.077 C 
ATOM      2  C1' PXY d   1      -0.469  -2.718  -1.210  0.00  0.00     0.077 C 
ATOM      3  C1  PXY d   1      -0.519  -1.305  -0.662  0.00  0.00    -0.082 A 
ATOM      4  C2  PXY d   1       0.529  -0.511  -0.805  0.00  0.00     0.003 A 
ATOM      5  C3  PXY d   1       0.513   0.759  -0.288  0.00  0.00     0.003 A 
ATOM      6  C4  PXY d   1      -0.608   1.239   0.335  0.00  0.00    -0.082 A 
ATOM      7  C5  PXY d   1      -1.686   0.438   0.476  0.00  0.00     0.003 A 
ATOM      8  C6  PXY d   1      -1.634  -0.862  -0.020  0.00  0.00     0.003 A 
ENDROOT
TORSDOF 0
ENDMDL
