MODEL 1
REMARK minimizedAffinity -3.07181263
REMARK minimizedRMSD -1
REMARK  0 active torsions:
REMARK  status: ('A' for Active; 'I' for Inactive)
ROOT
ATOM      1  C4' PXY d   1      -0.583  -2.929  -1.831  0.00  0.00     0.077 C 
ATOM      2  C1' PXY d   1      -0.444   2.203   0.826  0.00  0.00     0.077 C 
ATOM      3  C1  PXY d   1      -0.469   0.854   0.135  0.00  0.00    -0.082 A 
ATOM      4  C2  PXY d   1      -1.149   0.708  -0.990  0.00  0.00     0.003 A 
ATOM      5  C3  PXY d   1      -1.209  -0.513  -1.612  0.00  0.00     0.003 A 
ATOM      6  C4  PXY d   1      -0.522  -1.583  -1.104  0.00  0.00    -0.082 A 
ATOM      7  C5  PXY d   1       0.183  -1.439   0.038  0.00  0.00     0.003 A 
ATOM      8  C6  PXY d   1       0.197  -0.202   0.676  0.00  0.00     0.003 A 
ENDROOT
TORSDOF 0
ENDMDL
