MODEL 1
REMARK minimizedAffinity 5.46864462
REMARK minimizedRMSD -1
REMARK  0 active torsions:
REMARK  status: ('A' for Active; 'I' for Inactive)
ROOT
ATOM      1  C   UNL d   1       0.327   3.830  -1.385  0.00  0.00     0.023 A 
ATOM      2  C1  UNL d   1      -0.480   4.366  -0.381  0.00  0.00     0.003 A 
ATOM      3  C2  UNL d   1      -1.018   3.533   0.603  0.00  0.00     0.048 A 
ATOM      4  C3  UNL d   1      -0.743   2.166   0.577  0.00  0.00     0.023 A 
ATOM      5  C4  UNL d   1       0.065   1.626  -0.425  0.00  0.00     0.048 A 
ATOM      6  C5  UNL d   1       0.599   2.462  -1.407  0.00  0.00     0.003 A 
ATOM      7  I   UNL d   1      -1.542   0.926   2.041  0.00  0.00    -0.146 I 
ENDROOT
TORSDOF 0
ENDMDL
