MODEL 1
REMARK minimizedAffinity 5.11435652
REMARK minimizedRMSD -1
REMARK  0 active torsions:
REMARK  status: ('A' for Active; 'I' for Inactive)
ROOT
ATOM      1  C   UNL d   1      -0.766   1.862   0.372  0.00  0.00     0.023 A 
ATOM      2  C1  UNL d   1      -1.167   1.797   1.707  0.00  0.00     0.003 A 
ATOM      3  C2  UNL d   1      -0.537   0.912   2.584  0.00  0.00     0.048 A 
ATOM      4  C3  UNL d   1       0.494   0.096   2.121  0.00  0.00     0.023 A 
ATOM      5  C4  UNL d   1       0.900   0.158   0.787  0.00  0.00     0.048 A 
ATOM      6  C5  UNL d   1       0.266   1.043  -0.087  0.00  0.00     0.003 A 
ATOM      7  I   UNL d   1       1.434  -1.221   3.426  0.00  0.00    -0.146 I 
ENDROOT
TORSDOF 0
ENDMDL
