MODEL 1
REMARK minimizedAffinity 5.31241179
REMARK minimizedRMSD -1
REMARK  0 active torsions:
REMARK  status: ('A' for Active; 'I' for Inactive)
ROOT
ATOM      1  C   UNL d   1      -1.149   1.187   2.547  0.00  0.00     0.023 A 
ATOM      2  C1  UNL d   1      -1.880   1.428   1.383  0.00  0.00     0.003 A 
ATOM      3  C2  UNL d   1      -1.458   2.409   0.483  0.00  0.00     0.048 A 
ATOM      4  C3  UNL d   1      -0.304   3.144   0.753  0.00  0.00     0.023 A 
ATOM      5  C4  UNL d   1       0.431   2.905   1.915  0.00  0.00     0.048 A 
ATOM      6  C5  UNL d   1       0.004   1.924   2.813  0.00  0.00     0.003 A 
ATOM      7  I   UNL d   1       0.326   4.604  -0.586  0.00  0.00    -0.146 I 
ENDROOT
TORSDOF 0
ENDMDL
