MODEL 1
REMARK minimizedAffinity 0.60968703
REMARK minimizedRMSD -1
REMARK  0 active torsions:
REMARK  status: ('A' for Active; 'I' for Inactive)
ROOT
ATOM      1  C   UNL d   1       0.420   4.007  -1.827  0.00  0.00     0.023 A 
ATOM      2  C1  UNL d   1      -0.301   4.566  -0.772  0.00  0.00     0.003 A 
ATOM      3  C2  UNL d   1      -0.806   3.748   0.241  0.00  0.00     0.048 A 
ATOM      4  C3  UNL d   1      -0.585   2.372   0.193  0.00  0.00     0.023 A 
ATOM      5  C4  UNL d   1       0.136   1.808  -0.860  0.00  0.00     0.048 A 
ATOM      6  C5  UNL d   1       0.638   2.630  -1.871  0.00  0.00     0.003 A 
ATOM      7  I   UNL d   1      -1.335   1.153   1.700  0.00  0.00    -0.146 I 
ENDROOT
TORSDOF 0
ENDMDL
