MODEL 1
REMARK minimizedAffinity 3.36226392
REMARK minimizedRMSD -1
REMARK  0 active torsions:
REMARK  status: ('A' for Active; 'I' for Inactive)
ROOT
ATOM      1  C   UNL d   1       0.707  -0.772  -2.280  0.00  0.00     0.023 A 
ATOM      2  C1  UNL d   1       1.368  -0.396  -1.110  0.00  0.00     0.003 A 
ATOM      3  C2  UNL d   1       0.718   0.401  -0.165  0.00  0.00     0.048 A 
ATOM      4  C3  UNL d   1      -0.592   0.818  -0.396  0.00  0.00     0.023 A 
ATOM      5  C4  UNL d   1      -1.257   0.444  -1.565  0.00  0.00     0.048 A 
ATOM      6  C5  UNL d   1      -0.604  -0.352  -2.507  0.00  0.00     0.003 A 
ATOM      7  I   UNL d   1      -1.561   2.004   1.009  0.00  0.00    -0.146 I 
ENDROOT
TORSDOF 0
ENDMDL
