MODEL 1
REMARK minimizedAffinity 0.0918250009
REMARK minimizedRMSD -1
REMARK  0 active torsions:
REMARK  status: ('A' for Active; 'I' for Inactive)
ROOT
ATOM      1  C   UNL d   1       0.225   4.109  -0.888  0.00  0.00     0.023 A 
ATOM      2  C1  UNL d   1       0.589   2.772  -1.052  0.00  0.00     0.003 A 
ATOM      3  C2  UNL d   1       0.006   1.786  -0.253  0.00  0.00     0.048 A 
ATOM      4  C3  UNL d   1      -0.940   2.144   0.707  0.00  0.00     0.023 A 
ATOM      5  C4  UNL d   1      -1.307   3.480   0.874  0.00  0.00     0.048 A 
ATOM      6  C5  UNL d   1      -0.721   4.463   0.073  0.00  0.00     0.003 A 
ATOM      7  I   UNL d   1      -1.808   0.678   1.897  0.00  0.00    -0.146 I 
ENDROOT
TORSDOF 0
ENDMDL
