MODEL 1
REMARK minimizedAffinity 4.12354517
REMARK minimizedRMSD -1
REMARK  0 active torsions:
REMARK  status: ('A' for Active; 'I' for Inactive)
ROOT
ATOM      1  C   UNL d   1      -1.220  -0.371   2.547  0.00  0.00     0.023 A 
ATOM      2  C1  UNL d   1      -2.346   0.354   2.155  0.00  0.00     0.003 A 
ATOM      3  C2  UNL d   1      -2.198   1.541   1.434  0.00  0.00     0.048 A 
ATOM      4  C3  UNL d   1      -0.921   1.996   1.107  0.00  0.00     0.023 A 
ATOM      5  C4  UNL d   1       0.208   1.274   1.496  0.00  0.00     0.048 A 
ATOM      6  C5  UNL d   1       0.055   0.089   2.218  0.00  0.00     0.003 A 
ATOM      7  I   UNL d   1      -0.698   3.762   0.033  0.00  0.00    -0.146 I 
ENDROOT
TORSDOF 0
ENDMDL
