MODEL 1
REMARK minimizedAffinity 2.40283966
REMARK minimizedRMSD -1
REMARK  0 active torsions:
REMARK  status: ('A' for Active; 'I' for Inactive)
ROOT
ATOM      1  C   UNL d   1      -2.090   3.871   0.250  0.00  0.00     0.023 A 
ATOM      2  C1  UNL d   1      -3.187   3.475   1.015  0.00  0.00     0.003 A 
ATOM      3  C2  UNL d   1      -3.119   2.314   1.788  0.00  0.00     0.048 A 
ATOM      4  C3  UNL d   1      -1.950   1.554   1.792  0.00  0.00     0.023 A 
ATOM      5  C4  UNL d   1      -0.849   1.947   1.030  0.00  0.00     0.048 A 
ATOM      6  C5  UNL d   1      -0.922   3.108   0.258  0.00  0.00     0.003 A 
ATOM      7  I   UNL d   1      -1.846  -0.174   2.942  0.00  0.00    -0.146 I 
ENDROOT
TORSDOF 0
ENDMDL
