MODEL 1
REMARK minimizedAffinity 3.56332016
REMARK minimizedRMSD -1
REMARK  0 active torsions:
REMARK  status: ('A' for Active; 'I' for Inactive)
ROOT
ATOM      1  C   UNL d   1       1.661   1.414  -0.697  0.00  0.00     0.023 A 
ATOM      2  C1  UNL d   1       0.434   2.009  -0.990  0.00  0.00     0.003 A 
ATOM      3  C2  UNL d   1      -0.620   1.925  -0.078  0.00  0.00     0.048 A 
ATOM      4  C3  UNL d   1      -0.439   1.245   1.126  0.00  0.00     0.023 A 
ATOM      5  C4  UNL d   1       0.787   0.648   1.423  0.00  0.00     0.048 A 
ATOM      6  C5  UNL d   1       1.838   0.734   0.508  0.00  0.00     0.003 A 
ATOM      7  I   UNL d   1      -2.006   1.118   2.485  0.00  0.00    -0.146 I 
ENDROOT
TORSDOF 0
ENDMDL
