MODEL 1
REMARK minimizedAffinity 6.94705868
REMARK minimizedRMSD -1
REMARK  0 active torsions:
REMARK  status: ('A' for Active; 'I' for Inactive)
ROOT
ATOM      1  C   UNL d   1       0.081   4.012  -1.108  0.00  0.00     0.023 A 
ATOM      2  C1  UNL d   1      -0.487   4.470   0.081  0.00  0.00     0.003 A 
ATOM      3  C2  UNL d   1      -1.098   3.571   0.957  0.00  0.00     0.048 A 
ATOM      4  C3  UNL d   1      -1.136   2.214   0.639  0.00  0.00     0.023 A 
ATOM      5  C4  UNL d   1      -0.568   1.750  -0.549  0.00  0.00     0.048 A 
ATOM      6  C5  UNL d   1       0.041   2.653  -1.422  0.00  0.00     0.003 A 
ATOM      7  I   UNL d   1      -2.045   0.873   1.941  0.00  0.00    -0.146 I 
ENDROOT
TORSDOF 0
ENDMDL
