MODEL 1
REMARK minimizedAffinity 6.12416315
REMARK minimizedRMSD -1
REMARK  0 active torsions:
REMARK  status: ('A' for Active; 'I' for Inactive)
ROOT
ATOM      1  C   UNL d   1      -3.489  -2.228   4.353  0.00  0.00     0.023 A 
ATOM      2  C1  UNL d   1      -2.280  -2.235   3.657  0.00  0.00     0.003 A 
ATOM      3  C2  UNL d   1      -1.206  -2.992   4.128  0.00  0.00     0.048 A 
ATOM      4  C3  UNL d   1      -1.347  -3.740   5.296  0.00  0.00     0.023 A 
ATOM      5  C4  UNL d   1      -2.554  -3.737   5.996  0.00  0.00     0.048 A 
ATOM      6  C5  UNL d   1      -3.626  -2.978   5.522  0.00  0.00     0.003 A 
ATOM      7  I   UNL d   1       0.251  -4.868   5.999  0.00  0.00    -0.146 I 
ENDROOT
TORSDOF 0
ENDMDL
