MODEL 1
REMARK minimizedAffinity 4.88811588
REMARK minimizedRMSD -1
REMARK  0 active torsions:
REMARK  status: ('A' for Active; 'I' for Inactive)
ROOT
ATOM      1  C   UNL d   1      -3.041  -2.219   3.901  0.00  0.00     0.023 A 
ATOM      2  C1  UNL d   1      -3.339  -2.987   5.027  0.00  0.00     0.003 A 
ATOM      3  C2  UNL d   1      -2.344  -3.759   5.631  0.00  0.00     0.048 A 
ATOM      4  C3  UNL d   1      -1.053  -3.758   5.104  0.00  0.00     0.023 A 
ATOM      5  C4  UNL d   1      -0.750  -2.990   3.978  0.00  0.00     0.048 A 
ATOM      6  C5  UNL d   1      -1.749  -2.221   3.377  0.00  0.00     0.003 A 
ATOM      7  I   UNL d   1       0.430  -4.905   6.000  0.00  0.00    -0.146 I 
ENDROOT
TORSDOF 0
ENDMDL
