MODEL 1
REMARK minimizedAffinity 2.7654531
REMARK minimizedRMSD -1
REMARK  0 active torsions:
REMARK  status: ('A' for Active; 'I' for Inactive)
ROOT
ATOM      1  C   UNL d   1      -0.101   3.618  -1.363  0.00  0.00     0.023 A 
ATOM      2  C1  UNL d   1      -0.723   4.161  -0.238  0.00  0.00     0.003 A 
ATOM      3  C2  UNL d   1      -1.170   3.324   0.786  0.00  0.00     0.048 A 
ATOM      4  C3  UNL d   1      -0.991   1.945   0.680  0.00  0.00     0.023 A 
ATOM      5  C4  UNL d   1      -0.368   1.398  -0.443  0.00  0.00     0.048 A 
ATOM      6  C5  UNL d   1       0.077   2.239  -1.465  0.00  0.00     0.003 A 
ATOM      7  I   UNL d   1      -1.654   0.697   2.203  0.00  0.00    -0.146 I 
ENDROOT
TORSDOF 0
ENDMDL
