MODEL 1
REMARK minimizedAffinity 6.90433168
REMARK minimizedRMSD -1
REMARK  0 active torsions:
REMARK  status: ('A' for Active; 'I' for Inactive)
ROOT
ATOM      1  C   UNL d   1      -1.251   3.032   1.242  0.00  0.00     0.023 A 
ATOM      2  C1  UNL d   1      -0.771   2.459   0.064  0.00  0.00     0.003 A 
ATOM      3  C2  UNL d   1       0.252   1.511   0.114  0.00  0.00     0.048 A 
ATOM      4  C3  UNL d   1       0.792   1.140   1.345  0.00  0.00     0.023 A 
ATOM      5  C4  UNL d   1       0.314   1.710   2.527  0.00  0.00     0.048 A 
ATOM      6  C5  UNL d   1      -0.709   2.658   2.472  0.00  0.00     0.003 A 
ATOM      7  I   UNL d   1       2.315  -0.272   1.422  0.00  0.00    -0.146 I 
ENDROOT
TORSDOF 0
ENDMDL
