MODEL 1
REMARK minimizedAffinity 6.75658178
REMARK minimizedRMSD -1
REMARK  0 active torsions:
REMARK  status: ('A' for Active; 'I' for Inactive)
ROOT
ATOM      1  C   UNL d   1       0.766   0.629   2.809  0.00  0.00     0.023 A 
ATOM      2  C1  UNL d   1      -0.248   1.514   2.441  0.00  0.00     0.003 A 
ATOM      3  C2  UNL d   1      -0.418   1.864   1.100  0.00  0.00     0.048 A 
ATOM      4  C3  UNL d   1       0.429   1.325   0.132  0.00  0.00     0.023 A 
ATOM      5  C4  UNL d   1       1.444   0.439   0.496  0.00  0.00     0.048 A 
ATOM      6  C5  UNL d   1       1.611   0.093   1.838  0.00  0.00     0.003 A 
ATOM      7  I   UNL d   1       0.178   1.845  -1.864  0.00  0.00    -0.146 I 
ENDROOT
TORSDOF 0
ENDMDL
