MODEL 1
REMARK minimizedAffinity 6.74633646
REMARK minimizedRMSD -1
REMARK  0 active torsions:
REMARK  status: ('A' for Active; 'I' for Inactive)
ROOT
ATOM      1  C   UNL d   1      -1.220   2.598   2.918  0.00  0.00     0.023 A 
ATOM      2  C1  UNL d   1      -1.588   1.642   1.971  0.00  0.00     0.003 A 
ATOM      3  C2  UNL d   1      -0.641   0.737   1.487  0.00  0.00     0.048 A 
ATOM      4  C3  UNL d   1       0.671   0.791   1.956  0.00  0.00     0.023 A 
ATOM      5  C4  UNL d   1       1.043   1.745   2.905  0.00  0.00     0.048 A 
ATOM      6  C5  UNL d   1       0.093   2.649   3.384  0.00  0.00     0.003 A 
ATOM      7  I   UNL d   1       2.081  -0.556   1.238  0.00  0.00    -0.146 I 
ENDROOT
TORSDOF 0
ENDMDL
