MODEL 1
REMARK minimizedAffinity -2.84191108
REMARK minimizedRMSD -1
REMARK  0 active torsions:
REMARK  status: ('A' for Active; 'I' for Inactive)
ROOT
ATOM      1  C   UNL d   1      -3.265  -0.594  -1.467  0.00  0.00     0.172 C 
ATOM      2  N   UNL d   1      -2.937  -1.997  -1.382  0.00  0.00    -0.070 N 
ATOM      3  C1  UNL d   1      -2.604  -2.805  -2.436  0.00  0.00    -0.004 A 
ATOM      4  C2  UNL d   1      -2.363  -4.068  -1.941  0.00  0.00    -0.047 A 
ATOM      5  C3  UNL d   1      -2.558  -4.018  -0.540  0.00  0.00    -0.047 A 
ATOM      6  C4  UNL d   1      -2.913  -2.724  -0.221  0.00  0.00    -0.004 A 
ENDROOT
TORSDOF 0
ENDMDL
