MODEL 1
REMARK minimizedAffinity 3.39999843
REMARK minimizedRMSD -1
REMARK  0 active torsions:
REMARK  status: ('A' for Active; 'I' for Inactive)
ROOT
ATOM      1  C   UNL d   1       1.624  -2.551   1.505  0.00  0.00     0.172 C 
ATOM      2  N   UNL d   1       0.424  -1.753   1.415  0.00  0.00    -0.070 N 
ATOM      3  C1  UNL d   1      -0.832  -2.226   1.143  0.00  0.00    -0.004 A 
ATOM      4  C2  UNL d   1      -1.697  -1.154   1.146  0.00  0.00    -0.047 A 
ATOM      5  C3  UNL d   1      -0.935   0.005   1.430  0.00  0.00    -0.047 A 
ATOM      6  C4  UNL d   1       0.375  -0.395   1.592  0.00  0.00    -0.004 A 
ENDROOT
TORSDOF 0
ENDMDL
