MODEL 1
REMARK minimizedAffinity 5.53454876
REMARK minimizedRMSD -1
REMARK  0 active torsions:
REMARK  status: ('A' for Active; 'I' for Inactive)
ROOT
ATOM      1  C   UNL d   1       1.012  -0.266   2.076  0.00  0.00     0.172 C 
ATOM      2  N   UNL d   1      -0.125   0.113   1.271  0.00  0.00    -0.070 N 
ATOM      3  C1  UNL d   1      -1.290  -0.596   1.150  0.00  0.00    -0.004 A 
ATOM      4  C2  UNL d   1      -2.120   0.097   0.296  0.00  0.00    -0.047 A 
ATOM      5  C3  UNL d   1      -1.430   1.264  -0.111  0.00  0.00    -0.047 A 
ATOM      6  C4  UNL d   1      -0.197   1.248   0.508  0.00  0.00    -0.004 A 
ENDROOT
TORSDOF 0
ENDMDL
