MODEL 1
REMARK minimizedAffinity 4.6549716
REMARK minimizedRMSD -1
REMARK  0 active torsions:
REMARK  status: ('A' for Active; 'I' for Inactive)
ROOT
ATOM      1  C   UNL d   1      -0.611   0.448   0.697  0.00  0.00     0.172 C 
ATOM      2  N   UNL d   1       0.449  -0.353   1.263  0.00  0.00    -0.070 N 
ATOM      3  C1  UNL d   1       1.040  -0.149   2.482  0.00  0.00    -0.004 A 
ATOM      4  C2  UNL d   1       2.000  -1.122   2.653  0.00  0.00    -0.047 A 
ATOM      5  C3  UNL d   1       1.987  -1.938   1.497  0.00  0.00    -0.047 A 
ATOM      6  C4  UNL d   1       1.017  -1.439   0.653  0.00  0.00    -0.004 A 
ENDROOT
TORSDOF 0
ENDMDL
