MODEL 1
REMARK minimizedAffinity 12.7523794
REMARK minimizedRMSD -1
REMARK  0 active torsions:
REMARK  status: ('A' for Active; 'I' for Inactive)
ROOT
ATOM      1  C   UNL d   1      -5.159   5.998  -0.591  0.00  0.00     0.172 C 
ATOM      2  N   UNL d   1      -5.347   5.127  -1.728  0.00  0.00    -0.070 N 
ATOM      3  C1  UNL d   1      -6.000   3.924  -1.712  0.00  0.00    -0.004 A 
ATOM      4  C2  UNL d   1      -5.962   3.407  -2.989  0.00  0.00    -0.047 A 
ATOM      5  C3  UNL d   1      -5.262   4.331  -3.800  0.00  0.00    -0.047 A 
ATOM      6  C4  UNL d   1      -4.892   5.387  -2.994  0.00  0.00    -0.004 A 
ENDROOT
TORSDOF 0
ENDMDL
