MODEL 1
REMARK minimizedAffinity 3.96720386
REMARK minimizedRMSD -1
REMARK  0 active torsions:
REMARK  status: ('A' for Active; 'I' for Inactive)
ROOT
ATOM      1  C   UNL d   1      -3.697   1.381  -2.903  0.00  0.00     0.172 C 
ATOM      2  N   UNL d   1      -3.836   2.718  -3.431  0.00  0.00    -0.070 N 
ATOM      3  C1  UNL d   1      -3.565   3.101  -4.717  0.00  0.00    -0.004 A 
ATOM      4  C2  UNL d   1      -3.824   4.451  -4.820  0.00  0.00    -0.047 A 
ATOM      5  C3  UNL d   1      -4.265   4.895  -3.550  0.00  0.00    -0.047 A 
ATOM      6  C4  UNL d   1      -4.263   3.802  -2.709  0.00  0.00    -0.004 A 
ENDROOT
TORSDOF 0
ENDMDL
