MODEL 1
REMARK minimizedAffinity -1.25748765
REMARK minimizedRMSD -1
REMARK  0 active torsions:
REMARK  status: ('A' for Active; 'I' for Inactive)
ROOT
ATOM      1  C   UNL d   1       5.919  -4.655  -4.170  0.00  0.00     0.172 C 
ATOM      2  N   UNL d   1       5.734  -3.310  -4.661  0.00  0.00    -0.070 N 
ATOM      3  C1  UNL d   1       6.000  -2.880  -5.934  0.00  0.00    -0.004 A 
ATOM      4  C2  UNL d   1       5.692  -1.539  -6.000  0.00  0.00    -0.047 A 
ATOM      5  C3  UNL d   1       5.227  -1.148  -4.722  0.00  0.00    -0.047 A 
ATOM      6  C4  UNL d   1       5.263  -2.263  -3.912  0.00  0.00    -0.004 A 
ENDROOT
TORSDOF 0
ENDMDL
