MODEL 1
REMARK minimizedAffinity 1.42829525
REMARK minimizedRMSD -1
REMARK  0 active torsions:
REMARK  status: ('A' for Active; 'I' for Inactive)
ROOT
ATOM      1  C   UNL d   1       1.671  -0.477   1.956  0.00  0.00     0.172 C 
ATOM      2  N   UNL d   1       1.537  -0.951   3.313  0.00  0.00    -0.070 N 
ATOM      3  C1  UNL d   1       1.021  -0.236   4.361  0.00  0.00    -0.004 A 
ATOM      4  C2  UNL d   1       1.066  -1.036   5.482  0.00  0.00    -0.047 A 
ATOM      5  C3  UNL d   1       1.630  -2.275   5.094  0.00  0.00    -0.047 A 
ATOM      6  C4  UNL d   1       1.912  -2.195   3.747  0.00  0.00    -0.004 A 
ENDROOT
TORSDOF 0
ENDMDL
