MODEL 1
REMARK minimizedAffinity 1.96700585
REMARK minimizedRMSD -1
REMARK  2 active torsions:
REMARK  status: ('A' for Active; 'I' for Inactive)
REMARK    1  A    between atoms: C2'_3  and  C1'_4 
REMARK    2  A    between atoms: C1'_4  and  C1_5 
ROOT
ATOM      1  C1  I4B d   1      -2.170  -0.034   1.328  0.00  0.00    -0.075 A 
ATOM      2  C2  I4B d   1      -1.130  -0.608   0.640  0.00  0.00     0.003 A 
ATOM      3  C3  I4B d   1      -1.245  -0.859  -0.749  0.00  0.00     0.002 A 
ATOM      4  C4  I4B d   1      -2.429  -0.569  -1.395  0.00  0.00    -0.004 A 
ATOM      5  C5  I4B d   1      -3.475   0.034  -0.701  0.00  0.00     0.002 A 
ATOM      6  C6  I4B d   1      -3.340   0.315   0.666  0.00  0.00     0.003 A 
ENDROOT
BRANCH   1   7
ATOM      7  C1' I4B d   1      -2.026   0.187   2.800  0.00  0.00     0.060 C 
BRANCH   7   8
ATOM      8  C2' I4B d   1      -1.976  -1.170   3.473  0.00  0.00    -0.013 C 
ATOM      9  C4' I4B d   1      -0.894  -1.221   4.519  0.00  0.00     0.013 C 
ATOM     10  C3' I4B d   1      -3.324  -1.438   4.075  0.00  0.00     0.013 C 
ENDBRANCH   7   8
ENDBRANCH   1   7
TORSDOF 2
ENDMDL
