MODEL 1
REMARK minimizedAffinity 4.85006571
REMARK minimizedRMSD -1
REMARK  2 active torsions:
REMARK  status: ('A' for Active; 'I' for Inactive)
REMARK    1  A    between atoms: C2'_3  and  C1'_4 
REMARK    2  A    between atoms: C1'_4  and  C1_5 
ROOT
ATOM      1  C1  I4B d   1      -2.130  -0.011   2.204  0.00  0.00    -0.075 A 
ATOM      2  C2  I4B d   1      -3.331  -0.596   2.518  0.00  0.00     0.003 A 
ATOM      3  C3  I4B d   1      -3.440  -1.434   3.655  0.00  0.00     0.002 A 
ATOM      4  C4  I4B d   1      -2.318  -1.698   4.414  0.00  0.00    -0.004 A 
ATOM      5  C5  I4B d   1      -1.107  -1.086   4.107  0.00  0.00     0.002 A 
ATOM      6  C6  I4B d   1      -1.014  -0.227   3.002  0.00  0.00     0.003 A 
ENDROOT
BRANCH   1   7
ATOM      7  C1' I4B d   1      -2.043   0.841   0.978  0.00  0.00     0.060 C 
BRANCH   7   8
ATOM      8  C2' I4B d   1      -2.424  -0.014  -0.214  0.00  0.00    -0.013 C 
ATOM      9  C4' I4B d   1      -3.639   0.537  -0.913  0.00  0.00     0.013 C 
ATOM     10  C3' I4B d   1      -1.246  -0.070  -1.139  0.00  0.00     0.013 C 
ENDBRANCH   7   8
ENDBRANCH   1   7
TORSDOF 2
ENDMDL
