MODEL 1
REMARK minimizedAffinity 3.63841963
REMARK minimizedRMSD -1
REMARK  2 active torsions:
REMARK  status: ('A' for Active; 'I' for Inactive)
REMARK    1  A    between atoms: C2'_3  and  C1'_4 
REMARK    2  A    between atoms: C1'_4  and  C1_5 
ROOT
ATOM      1  C1  I4B d   1      -0.451  -0.169   1.677  0.00  0.00    -0.075 A 
ATOM      2  C2  I4B d   1      -1.717  -0.048   2.193  0.00  0.00     0.003 A 
ATOM      3  C3  I4B d   1      -1.972  -0.393   3.542  0.00  0.00     0.002 A 
ATOM      4  C4  I4B d   1      -0.951  -0.899   4.320  0.00  0.00    -0.004 A 
ATOM      5  C5  I4B d   1       0.337  -0.999   3.801  0.00  0.00     0.002 A 
ATOM      6  C6  I4B d   1       0.592  -0.621   2.475  0.00  0.00     0.003 A 
ENDROOT
BRANCH   1   7
ATOM      7  C1' I4B d   1      -0.223   0.173   0.238  0.00  0.00     0.060 C 
BRANCH   7   8
ATOM      8  C2' I4B d   1      -1.533  -0.019  -0.500  0.00  0.00    -0.013 C 
ATOM      9  C4' I4B d   1      -1.731   1.047  -1.545  0.00  0.00     0.013 C 
ATOM     10  C3' I4B d   1      -1.520  -1.386  -1.117  0.00  0.00     0.013 C 
ENDBRANCH   7   8
ENDBRANCH   1   7
TORSDOF 2
ENDMDL
