MODEL 1
REMARK minimizedAffinity 5.17313957
REMARK minimizedRMSD -1
REMARK  2 active torsions:
REMARK  status: ('A' for Active; 'I' for Inactive)
REMARK    1  A    between atoms: C2'_3  and  C1'_4 
REMARK    2  A    between atoms: C1'_4  and  C1_5 
ROOT
ATOM      1  C1  I4B d   1      -1.400   0.203   1.289  0.00  0.00    -0.075 A 
ATOM      2  C2  I4B d   1      -2.013   0.394   0.076  0.00  0.00     0.003 A 
ATOM      3  C3  I4B d   1      -1.259   0.328  -1.121  0.00  0.00     0.002 A 
ATOM      4  C4  I4B d   1       0.104   0.122  -1.055  0.00  0.00    -0.004 A 
ATOM      5  C5  I4B d   1       0.719  -0.093   0.174  0.00  0.00     0.002 A 
ATOM      6  C6  I4B d   1      -0.039  -0.065   1.354  0.00  0.00     0.003 A 
ENDROOT
BRANCH   1   7
ATOM      7  C1' I4B d   1      -2.221   0.312   2.535  0.00  0.00     0.060 C 
BRANCH   7   8
ATOM      8  C2' I4B d   1      -2.320  -1.069   3.151  0.00  0.00    -0.013 C 
ATOM      9  C4' I4B d   1      -1.319  -1.243   4.263  0.00  0.00     0.013 C 
ATOM     10  C3' I4B d   1      -3.721  -1.254   3.650  0.00  0.00     0.013 C 
ENDBRANCH   7   8
ENDBRANCH   1   7
TORSDOF 2
ENDMDL
