MODEL 1
REMARK minimizedAffinity 11.4429359
REMARK minimizedRMSD -1
REMARK  2 active torsions:
REMARK  status: ('A' for Active; 'I' for Inactive)
REMARK    1  A    between atoms: C2'_3  and  C1'_4 
REMARK    2  A    between atoms: C1'_4  and  C1_5 
ROOT
ATOM      1  C1  I4B d   1       0.062   0.346   0.657  0.00  0.00    -0.075 A 
ATOM      2  C2  I4B d   1      -0.524   0.037  -0.545  0.00  0.00     0.003 A 
ATOM      3  C3  I4B d   1      -1.931   0.092  -0.687  0.00  0.00     0.002 A 
ATOM      4  C4  I4B d   1      -2.713   0.410   0.405  0.00  0.00    -0.004 A 
ATOM      5  C5  I4B d   1      -2.116   0.746   1.616  0.00  0.00     0.002 A 
ATOM      6  C6  I4B d   1      -0.719   0.726   1.741  0.00  0.00     0.003 A 
ENDROOT
BRANCH   1   7
ATOM      7  C1' I4B d   1       1.549   0.245   0.781  0.00  0.00     0.060 C 
BRANCH   7   8
ATOM      8  C2' I4B d   1       2.152   1.518   0.223  0.00  0.00    -0.013 C 
ATOM      9  C4' I4B d   1       2.542   2.466   1.326  0.00  0.00     0.013 C 
ATOM     10  C3' I4B d   1       3.339   1.141  -0.613  0.00  0.00     0.013 C 
ENDBRANCH   7   8
ENDBRANCH   1   7
TORSDOF 2
ENDMDL
