MODEL 1
REMARK minimizedAffinity 7.66102791
REMARK minimizedRMSD -1
REMARK  2 active torsions:
REMARK  status: ('A' for Active; 'I' for Inactive)
REMARK    1  A    between atoms: C2'_3  and  C1'_4 
REMARK    2  A    between atoms: C1'_4  and  C1_5 
ROOT
ATOM      1  C1  I4B d   1      -1.794  -0.234   2.230  0.00  0.00    -0.075 A 
ATOM      2  C2  I4B d   1      -2.840  -0.794   2.920  0.00  0.00     0.003 A 
ATOM      3  C3  I4B d   1      -2.600  -1.516   4.115  0.00  0.00     0.002 A 
ATOM      4  C4  I4B d   1      -1.304  -1.695   4.552  0.00  0.00    -0.004 A 
ATOM      5  C5  I4B d   1      -0.247  -1.107   3.863  0.00  0.00     0.002 A 
ATOM      6  C6  I4B d   1      -0.494  -0.362   2.701  0.00  0.00     0.003 A 
ENDROOT
BRANCH   1   7
ATOM      7  C1' I4B d   1      -2.080   0.494   0.954  0.00  0.00     0.060 C 
BRANCH   7   8
ATOM      8  C2' I4B d   1      -2.124  -0.526  -0.165  0.00  0.00    -0.013 C 
ATOM      9  C4' I4B d   1      -3.518  -0.669  -0.718  0.00  0.00     0.013 C 
ATOM     10  C3' I4B d   1      -1.162  -0.089  -1.229  0.00  0.00     0.013 C 
ENDBRANCH   7   8
ENDBRANCH   1   7
TORSDOF 2
ENDMDL
