MODEL 1
REMARK minimizedAffinity -3.9816401
REMARK minimizedRMSD -1
REMARK  0 active torsions:
REMARK  status: ('A' for Active; 'I' for Inactive)
ROOT
ATOM      1  C1  BNZ d   1      -0.890  -0.035   0.392  0.00  0.00     0.000 A 
ATOM      2  C2  BNZ d   1      -0.962  -1.370   0.690  0.00  0.00     0.000 A 
ATOM      3  C3  BNZ d   1       0.120  -2.187   0.509  0.00  0.00     0.000 A 
ATOM      4  C4  BNZ d   1       1.257  -1.676  -0.005  0.00  0.00     0.000 A 
ATOM      5  C5  BNZ d   1       1.342  -0.335  -0.319  0.00  0.00     0.000 A 
ATOM      6  C6  BNZ d   1       0.264   0.492  -0.099  0.00  0.00     0.000 A 
ENDROOT
TORSDOF 0
ENDMDL
