MODEL 1
REMARK minimizedAffinity -2.0930357
REMARK minimizedRMSD -1
REMARK  0 active torsions:
REMARK  status: ('A' for Active; 'I' for Inactive)
ROOT
ATOM      1  C1  BNZ d   1       0.233   0.544   0.243  0.00  0.00     0.000 A 
ATOM      2  C2  BNZ d   1       0.421  -0.673   0.843  0.00  0.00     0.000 A 
ATOM      3  C3  BNZ d   1       0.760  -1.772   0.105  0.00  0.00     0.000 A 
ATOM      4  C4  BNZ d   1       0.872  -1.663  -1.235  0.00  0.00     0.000 A 
ATOM      5  C5  BNZ d   1       0.677  -0.445  -1.855  0.00  0.00     0.000 A 
ATOM      6  C6  BNZ d   1       0.373   0.668  -1.105  0.00  0.00     0.000 A 
ENDROOT
TORSDOF 0
ENDMDL
