MODEL 1
REMARK minimizedAffinity -1.44313276
REMARK minimizedRMSD -1
REMARK  0 active torsions:
REMARK  status: ('A' for Active; 'I' for Inactive)
ROOT
ATOM      1  C1  BNZ d   1       0.173   2.134  -2.661  0.00  0.00     0.000 A 
ATOM      2  C2  BNZ d   1      -0.197   1.700  -1.416  0.00  0.00     0.000 A 
ATOM      3  C3  BNZ d   1       0.650   1.824  -0.351  0.00  0.00     0.000 A 
ATOM      4  C4  BNZ d   1       1.881   2.343  -0.540  0.00  0.00     0.000 A 
ATOM      5  C5  BNZ d   1       2.273   2.776  -1.791  0.00  0.00     0.000 A 
ATOM      6  C6  BNZ d   1       1.403   2.686  -2.853  0.00  0.00     0.000 A 
ENDROOT
TORSDOF 0
ENDMDL
