MODEL 1
REMARK minimizedAffinity -4.74445438
REMARK minimizedRMSD -1
REMARK  0 active torsions:
REMARK  status: ('A' for Active; 'I' for Inactive)
ROOT
ATOM      1  C1  BNZ d   1      -1.923  -2.476   1.658  0.00  0.00     0.000 A 
ATOM      2  C2  BNZ d   1      -0.826  -2.585   0.845  0.00  0.00     0.000 A 
ATOM      3  C3  BNZ d   1      -0.373  -1.509   0.134  0.00  0.00     0.000 A 
ATOM      4  C4  BNZ d   1      -1.039  -0.339   0.205  0.00  0.00     0.000 A 
ATOM      5  C5  BNZ d   1      -2.152  -0.216   1.013  0.00  0.00     0.000 A 
ATOM      6  C6  BNZ d   1      -2.583  -1.290   1.757  0.00  0.00     0.000 A 
ENDROOT
TORSDOF 0
ENDMDL
