MODEL 1
REMARK minimizedAffinity -2.03926682
REMARK minimizedRMSD -1
REMARK  0 active torsions:
REMARK  status: ('A' for Active; 'I' for Inactive)
ROOT
ATOM      1  C1  BNZ d   1       0.105  -2.330  -0.652  0.00  0.00     0.000 A 
ATOM      2  C2  BNZ d   1       0.103  -0.964  -0.563  0.00  0.00     0.000 A 
ATOM      3  C3  BNZ d   1      -0.424  -0.334   0.529  0.00  0.00     0.000 A 
ATOM      4  C4  BNZ d   1      -0.983  -1.069   1.512  0.00  0.00     0.000 A 
ATOM      5  C5  BNZ d   1      -0.997  -2.447   1.433  0.00  0.00     0.000 A 
ATOM      6  C6  BNZ d   1      -0.431  -3.079   0.350  0.00  0.00     0.000 A 
ENDROOT
TORSDOF 0
ENDMDL
