MODEL 1
REMARK minimizedAffinity -1.52255428
REMARK minimizedRMSD -1
REMARK  0 active torsions:
REMARK  status: ('A' for Active; 'I' for Inactive)
ROOT
ATOM      1  C1  BNZ d   1       0.181  -1.736  -0.875  0.00  0.00     0.000 A 
ATOM      2  C2  BNZ d   1      -0.006  -0.542  -1.520  0.00  0.00     0.000 A 
ATOM      3  C3  BNZ d   1       0.302   0.640  -0.908  0.00  0.00     0.000 A 
ATOM      4  C4  BNZ d   1       0.758   0.631   0.361  0.00  0.00     0.000 A 
ATOM      5  C5  BNZ d   1       0.944  -0.564   1.028  0.00  0.00     0.000 A 
ATOM      6  C6  BNZ d   1       0.669  -1.754   0.395  0.00  0.00     0.000 A 
ENDROOT
TORSDOF 0
ENDMDL
