MODEL 1
REMARK minimizedAffinity -3.24029636
REMARK minimizedRMSD -1
REMARK  0 active torsions:
REMARK  status: ('A' for Active; 'I' for Inactive)
ROOT
ATOM      1  C1  BNZ d   1       0.007  -1.420  -1.240  0.00  0.00     0.000 A 
ATOM      2  C2  BNZ d   1      -0.100  -0.234  -1.916  0.00  0.00     0.000 A 
ATOM      3  C3  BNZ d   1       0.157   0.953  -1.290  0.00  0.00     0.000 A 
ATOM      4  C4  BNZ d   1       0.481   0.956   0.019  0.00  0.00     0.000 A 
ATOM      5  C5  BNZ d   1       0.585  -0.231   0.717  0.00  0.00     0.000 A 
ATOM      6  C6  BNZ d   1       0.363  -1.427   0.073  0.00  0.00     0.000 A 
ENDROOT
TORSDOF 0
ENDMDL
