MODEL 1
REMARK minimizedAffinity -3.81127858
REMARK minimizedRMSD -1
REMARK  0 active torsions:
REMARK  status: ('A' for Active; 'I' for Inactive)
ROOT
ATOM      1  C1  BNZ d   1       0.522  -0.023  -0.053  0.00  0.00     0.000 A 
ATOM      2  C2  BNZ d   1       0.004  -1.222   0.357  0.00  0.00     0.000 A 
ATOM      3  C3  BNZ d   1      -1.216  -1.284   0.971  0.00  0.00     0.000 A 
ATOM      4  C4  BNZ d   1      -1.897  -0.145   1.209  0.00  0.00     0.000 A 
ATOM      5  C5  BNZ d   1      -1.383   1.073   0.810  0.00  0.00     0.000 A 
ATOM      6  C6  BNZ d   1      -0.173   1.128   0.158  0.00  0.00     0.000 A 
ENDROOT
TORSDOF 0
ENDMDL
