MODEL 1
REMARK minimizedAffinity -2.91829181
REMARK minimizedRMSD -1
REMARK  0 active torsions:
REMARK  status: ('A' for Active; 'I' for Inactive)
ROOT
ATOM      1  C1  BNZ d   1      -2.031  -0.647  -0.164  0.00  0.00     0.000 A 
ATOM      2  C2  BNZ d   1      -2.265  -1.856   0.435  0.00  0.00     0.000 A 
ATOM      3  C3  BNZ d   1      -1.356  -2.394   1.302  0.00  0.00     0.000 A 
ATOM      4  C4  BNZ d   1      -0.199  -1.744   1.538  0.00  0.00     0.000 A 
ATOM      5  C5  BNZ d   1       0.056  -0.528   0.935  0.00  0.00     0.000 A 
ATOM      6  C6  BNZ d   1      -0.879   0.029   0.092  0.00  0.00     0.000 A 
ENDROOT
TORSDOF 0
ENDMDL
