MODEL 1
REMARK minimizedAffinity -3.11958957
REMARK minimizedRMSD -1
REMARK  0 active torsions:
REMARK  status: ('A' for Active; 'I' for Inactive)
ROOT
ATOM      1  C1  BNZ d   1      -0.094  -0.446  -0.944  0.00  0.00     0.000 A 
ATOM      2  C2  BNZ d   1      -0.767  -0.232   0.228  0.00  0.00     0.000 A 
ATOM      3  C3  BNZ d   1      -0.875   1.025   0.754  0.00  0.00     0.000 A 
ATOM      4  C4  BNZ d   1      -0.276   2.059   0.129  0.00  0.00     0.000 A 
ATOM      5  C5  BNZ d   1       0.415   1.858  -1.049  0.00  0.00     0.000 A 
ATOM      6  C6  BNZ d   1       0.488   0.597  -1.596  0.00  0.00     0.000 A 
ENDROOT
TORSDOF 0
ENDMDL
