MODEL 1
REMARK minimizedAffinity -2.51535034
REMARK minimizedRMSD -1
REMARK  0 active torsions:
REMARK  status: ('A' for Active; 'I' for Inactive)
ROOT
ATOM      1  C1  BNZ d   1       0.006  -1.468  -0.722  0.00  0.00     0.000 A 
ATOM      2  C2  BNZ d   1      -0.405  -0.252  -1.198  0.00  0.00     0.000 A 
ATOM      3  C3  BNZ d   1       0.198   0.902  -0.781  0.00  0.00     0.000 A 
ATOM      4  C4  BNZ d   1       1.181   0.842   0.139  0.00  0.00     0.000 A 
ATOM      5  C5  BNZ d   1       1.600  -0.376   0.636  0.00  0.00     0.000 A 
ATOM      6  C6  BNZ d   1       1.017  -1.539   0.186  0.00  0.00     0.000 A 
ENDROOT
TORSDOF 0
ENDMDL
