MODEL 1
REMARK minimizedAffinity -3.36802149
REMARK minimizedRMSD -1
REMARK  0 active torsions:
REMARK  status: ('A' for Active; 'I' for Inactive)
ROOT
ATOM      1  C1  BNZ d   1       0.236   0.136  -1.272  0.00  0.00     0.000 A 
ATOM      2  C2  BNZ d   1      -0.106   0.144  -2.598  0.00  0.00     0.000 A 
ATOM      3  C3  BNZ d   1       0.413   1.080  -3.448  0.00  0.00     0.000 A 
ATOM      4  C4  BNZ d   1       1.240   2.030  -2.964  0.00  0.00     0.000 A 
ATOM      5  C5  BNZ d   1       1.586   2.040  -1.628  0.00  0.00     0.000 A 
ATOM      6  C6  BNZ d   1       1.093   1.073  -0.783  0.00  0.00     0.000 A 
ENDROOT
TORSDOF 0
ENDMDL
