MODEL 1
REMARK minimizedAffinity -3.5725379
REMARK minimizedRMSD -1
REMARK  0 active torsions:
REMARK  status: ('A' for Active; 'I' for Inactive)
ROOT
ATOM      1  C1  BNZ d   1       0.020   0.381  -1.913  0.00  0.00     0.000 A 
ATOM      2  C2  BNZ d   1      -0.170   0.299  -3.266  0.00  0.00     0.000 A 
ATOM      3  C3  BNZ d   1       0.379   1.226  -4.108  0.00  0.00     0.000 A 
ATOM      4  C4  BNZ d   1       1.083   2.254  -3.593  0.00  0.00     0.000 A 
ATOM      5  C5  BNZ d   1       1.276   2.356  -2.230  0.00  0.00     0.000 A 
ATOM      6  C6  BNZ d   1       0.755   1.400  -1.389  0.00  0.00     0.000 A 
ENDROOT
TORSDOF 0
ENDMDL
