MODEL 1
REMARK minimizedAffinity -4.43441772
REMARK minimizedRMSD -1
REMARK  0 active torsions:
REMARK  status: ('A' for Active; 'I' for Inactive)
ROOT
ATOM      1  C1  BNZ d   1      -1.311  -0.001   1.199  0.00  0.00     0.000 A 
ATOM      2  C2  BNZ d   1      -1.249  -1.310   1.597  0.00  0.00     0.000 A 
ATOM      3  C3  BNZ d   1      -0.210  -2.110   1.212  0.00  0.00     0.000 A 
ATOM      4  C4  BNZ d   1       0.743  -1.614   0.398  0.00  0.00     0.000 A 
ATOM      5  C5  BNZ d   1       0.689  -0.299  -0.021  0.00  0.00     0.000 A 
ATOM      6  C6  BNZ d   1      -0.337   0.515   0.401  0.00  0.00     0.000 A 
ENDROOT
TORSDOF 0
ENDMDL
