MODEL 1
REMARK minimizedAffinity -4.23363113
REMARK minimizedRMSD -1
REMARK  0 active torsions:
REMARK  status: ('A' for Active; 'I' for Inactive)
ROOT
ATOM      1  C1  BNZ d   1       0.614  -0.875  -1.947  0.00  0.00     0.000 A 
ATOM      2  C2  BNZ d   1       0.945   0.185  -2.748  0.00  0.00     0.000 A 
ATOM      3  C3  BNZ d   1       1.110   1.436  -2.221  0.00  0.00     0.000 A 
ATOM      4  C4  BNZ d   1       0.906   1.632  -0.903  0.00  0.00     0.000 A 
ATOM      5  C5  BNZ d   1       0.563   0.574  -0.084  0.00  0.00     0.000 A 
ATOM      6  C6  BNZ d   1       0.435  -0.690  -0.611  0.00  0.00     0.000 A 
ENDROOT
TORSDOF 0
ENDMDL
