MODEL 1
REMARK minimizedAffinity -2.83216548
REMARK minimizedRMSD -1
REMARK  0 active torsions:
REMARK  status: ('A' for Active; 'I' for Inactive)
ROOT
ATOM      1  C1  BNZ d   1      -0.174   0.334  -0.025  0.00  0.00     0.000 A 
ATOM      2  C2  BNZ d   1      -0.896  -0.295   0.954  0.00  0.00     0.000 A 
ATOM      3  C3  BNZ d   1      -0.654  -1.601   1.274  0.00  0.00     0.000 A 
ATOM      4  C4  BNZ d   1       0.282  -2.289   0.588  0.00  0.00     0.000 A 
ATOM      5  C5  BNZ d   1       1.012  -1.672  -0.408  0.00  0.00     0.000 A 
ATOM      6  C6  BNZ d   1       0.792  -0.346  -0.701  0.00  0.00     0.000 A 
ENDROOT
TORSDOF 0
ENDMDL
