MODEL 1
REMARK minimizedAffinity -2.95236182
REMARK minimizedRMSD -1
REMARK  0 active torsions:
REMARK  status: ('A' for Active; 'I' for Inactive)
ROOT
ATOM      1  C1  BNZ d   1      -0.153  -0.702  -0.602  0.00  0.00     0.000 A 
ATOM      2  C2  BNZ d   1      -1.011  -1.691  -0.200  0.00  0.00     0.000 A 
ATOM      3  C3  BNZ d   1      -0.718  -2.476   0.879  0.00  0.00     0.000 A 
ATOM      4  C4  BNZ d   1       0.450  -2.299   1.531  0.00  0.00     0.000 A 
ATOM      5  C5  BNZ d   1       1.330  -1.313   1.132  0.00  0.00     0.000 A 
ATOM      6  C6  BNZ d   1       1.013  -0.498   0.069  0.00  0.00     0.000 A 
ENDROOT
TORSDOF 0
ENDMDL
