MODEL 1
REMARK minimizedAffinity -3.32874918
REMARK minimizedRMSD -1
REMARK  0 active torsions:
REMARK  status: ('A' for Active; 'I' for Inactive)
ROOT
ATOM      1  C1  BNZ d   1       1.186   1.258  -1.872  0.00  0.00     0.000 A 
ATOM      2  C2  BNZ d   1       2.323   1.218  -2.635  0.00  0.00     0.000 A 
ATOM      3  C3  BNZ d   1       2.340   1.747  -3.895  0.00  0.00     0.000 A 
ATOM      4  C4  BNZ d   1       1.211   2.278  -4.406  0.00  0.00     0.000 A 
ATOM      5  C5  BNZ d   1       0.054   2.318  -3.653  0.00  0.00     0.000 A 
ATOM      6  C6  BNZ d   1       0.051   1.820  -2.371  0.00  0.00     0.000 A 
ENDROOT
TORSDOF 0
ENDMDL
