MODEL 1
REMARK minimizedAffinity -2.54807377
REMARK minimizedRMSD -1
REMARK  0 active torsions:
REMARK  status: ('A' for Active; 'I' for Inactive)
ROOT
ATOM      1  O1  BZF d   1       0.293  -0.582  -0.700  0.00  0.00    -0.204 OA
ATOM      2  C2  BZF d   1       0.062   0.552  -1.455  0.00  0.00     0.174 A 
ATOM      3  C3  BZF d   1      -0.696   0.262  -2.532  0.00  0.00    -0.012 A 
ATOM      4  C3A BZF d   1      -1.032  -1.122  -2.395  0.00  0.00    -0.107 A 
ATOM      5  C4  BZF d   1      -1.779  -1.985  -3.145  0.00  0.00     0.055 A 
ATOM      6  C5  BZF d   1      -1.849  -3.291  -2.775  0.00  0.00    -0.016 A 
ATOM      7  C6  BZF d   1      -1.182  -3.768  -1.665  0.00  0.00     0.022 A 
ATOM      8  C7  BZF d   1      -0.433  -2.948  -0.888  0.00  0.00     0.029 A 
ATOM      9  C7A BZF d   1      -0.387  -1.622  -1.241  0.00  0.00     0.058 A 
ENDROOT
TORSDOF 0
ENDMDL
