MODEL 1
REMARK minimizedAffinity -1.63575578
REMARK minimizedRMSD -1
REMARK  0 active torsions:
REMARK  status: ('A' for Active; 'I' for Inactive)
ROOT
ATOM      1  O1  BZF d   1      -0.488   2.021   2.303  0.00  0.00    -0.204 OA
ATOM      2  C2  BZF d   1      -1.452   2.813   1.709  0.00  0.00     0.174 A 
ATOM      3  C3  BZF d   1      -1.632   2.461   0.419  0.00  0.00    -0.012 A 
ATOM      4  C3A BZF d   1      -0.790   1.321   0.219  0.00  0.00    -0.107 A 
ATOM      5  C4  BZF d   1      -0.545   0.512  -0.853  0.00  0.00     0.055 A 
ATOM      6  C5  BZF d   1       0.388  -0.470  -0.740  0.00  0.00    -0.016 A 
ATOM      7  C6  BZF d   1       1.098  -0.666   0.427  0.00  0.00     0.022 A 
ATOM      8  C7  BZF d   1       0.886   0.108   1.519  0.00  0.00     0.029 A 
ATOM      9  C7A BZF d   1      -0.080   1.080   1.418  0.00  0.00     0.058 A 
ENDROOT
TORSDOF 0
ENDMDL
