MODEL 1
REMARK minimizedAffinity -3.54102182
REMARK minimizedRMSD -1
REMARK  0 active torsions:
REMARK  status: ('A' for Active; 'I' for Inactive)
ROOT
ATOM      1  O1  BZF d   1       0.469   0.512  -1.119  0.00  0.00    -0.204 OA
ATOM      2  C2  BZF d   1      -0.172   1.157  -2.160  0.00  0.00     0.174 A 
ATOM      3  C3  BZF d   1      -1.195   1.906  -1.701  0.00  0.00    -0.012 A 
ATOM      4  C3A BZF d   1      -1.136   1.791  -0.276  0.00  0.00    -0.107 A 
ATOM      5  C4  BZF d   1      -1.879   2.320   0.740  0.00  0.00     0.055 A 
ATOM      6  C5  BZF d   1      -1.606   1.952   2.019  0.00  0.00    -0.016 A 
ATOM      7  C6  BZF d   1      -0.602   1.054   2.318  0.00  0.00     0.022 A 
ATOM      8  C7  BZF d   1       0.165   0.506   1.344  0.00  0.00     0.029 A 
ATOM      9  C7A BZF d   1      -0.087   0.902   0.053  0.00  0.00     0.058 A 
ENDROOT
TORSDOF 0
ENDMDL
