MODEL 1
REMARK minimizedAffinity -2.60427451
REMARK minimizedRMSD -1
REMARK  0 active torsions:
REMARK  status: ('A' for Active; 'I' for Inactive)
ROOT
ATOM      1  O1  BZF d   1       0.728  -0.443  -0.083  0.00  0.00    -0.204 OA
ATOM      2  C2  BZF d   1       0.921  -0.683   1.264  0.00  0.00     0.174 A 
ATOM      3  C3  BZF d   1       0.241   0.211   2.011  0.00  0.00    -0.012 A 
ATOM      4  C3A BZF d   1      -0.492   1.005   1.073  0.00  0.00    -0.107 A 
ATOM      5  C4  BZF d   1      -1.364   2.047   1.206  0.00  0.00     0.055 A 
ATOM      6  C5  BZF d   1      -1.849   2.649   0.087  0.00  0.00    -0.016 A 
ATOM      7  C6  BZF d   1      -1.479   2.238  -1.176  0.00  0.00     0.022 A 
ATOM      8  C7  BZF d   1      -0.621   1.204  -1.358  0.00  0.00     0.029 A 
ATOM      9  C7A BZF d   1      -0.155   0.573  -0.230  0.00  0.00     0.058 A 
ENDROOT
TORSDOF 0
ENDMDL
