MODEL 1
REMARK minimizedAffinity -1.34246349
REMARK minimizedRMSD -1
REMARK  0 active torsions:
REMARK  status: ('A' for Active; 'I' for Inactive)
ROOT
ATOM      1  O1  BZF d   1       0.681   0.683  -2.076  0.00  0.00    -0.204 OA
ATOM      2  C2  BZF d   1      -0.181   1.475  -2.810  0.00  0.00     0.174 A 
ATOM      3  C3  BZF d   1      -1.035   2.132  -1.999  0.00  0.00    -0.012 A 
ATOM      4  C3A BZF d   1      -0.626   1.797  -0.670  0.00  0.00    -0.107 A 
ATOM      5  C4  BZF d   1      -1.076   2.152   0.569  0.00  0.00     0.055 A 
ATOM      6  C5  BZF d   1      -0.504   1.591   1.666  0.00  0.00    -0.016 A 
ATOM      7  C6  BZF d   1       0.516   0.668   1.561  0.00  0.00     0.022 A 
ATOM      8  C7  BZF d   1       1.000   0.288   0.354  0.00  0.00     0.029 A 
ATOM      9  C7A BZF d   1       0.446   0.878  -0.756  0.00  0.00     0.058 A 
ENDROOT
TORSDOF 0
ENDMDL
