MODEL 1
REMARK minimizedAffinity -3.1193924
REMARK minimizedRMSD -1
REMARK  0 active torsions:
REMARK  status: ('A' for Active; 'I' for Inactive)
ROOT
ATOM      1  O1  BZF d   1       1.514  -0.372  -0.405  0.00  0.00    -0.204 OA
ATOM      2  C2  BZF d   1       1.861  -0.630   0.907  0.00  0.00     0.174 A 
ATOM      3  C3  BZF d   1       1.124   0.117   1.753  0.00  0.00    -0.012 A 
ATOM      4  C3A BZF d   1       0.197   0.823   0.922  0.00  0.00    -0.107 A 
ATOM      5  C4  BZF d   1      -0.807   1.711   1.180  0.00  0.00     0.055 A 
ATOM      6  C5  BZF d   1      -1.476   2.272   0.138  0.00  0.00    -0.016 A 
ATOM      7  C6  BZF d   1      -1.164   1.973  -1.171  0.00  0.00     0.022 A 
ATOM      8  C7  BZF d   1      -0.179   1.093  -1.477  0.00  0.00     0.029 A 
ATOM      9  C7A BZF d   1       0.477   0.500  -0.426  0.00  0.00     0.058 A 
ENDROOT
TORSDOF 0
ENDMDL
