MODEL 1
REMARK minimizedAffinity -5.6446538
REMARK minimizedRMSD -1
REMARK  0 active torsions:
REMARK  status: ('A' for Active; 'I' for Inactive)
ROOT
ATOM      1  O1  BZF d   1       1.943  -0.043   0.712  0.00  0.00    -0.204 OA
ATOM      2  C2  BZF d   1       2.143  -0.294   2.056  0.00  0.00     0.174 A 
ATOM      3  C3  BZF d   1       1.234   0.361   2.806  0.00  0.00    -0.012 A 
ATOM      4  C3A BZF d   1       0.357   0.992   1.867  0.00  0.00    -0.107 A 
ATOM      5  C4  BZF d   1      -0.755   1.774   2.000  0.00  0.00     0.055 A 
ATOM      6  C5  BZF d   1      -1.337   2.289   0.886  0.00  0.00    -0.016 A 
ATOM      7  C6  BZF d   1      -0.832   2.048  -0.375  0.00  0.00     0.022 A 
ATOM      8  C7  BZF d   1       0.266   1.275  -0.557  0.00  0.00     0.029 A 
ATOM      9  C7A BZF d   1       0.837   0.725   0.565  0.00  0.00     0.058 A 
ENDROOT
TORSDOF 0
ENDMDL
