MODEL 1
REMARK minimizedAffinity -3.80087566
REMARK minimizedRMSD -1
REMARK  0 active torsions:
REMARK  status: ('A' for Active; 'I' for Inactive)
ROOT
ATOM      1  O1  BZF d   1       1.038   0.963  -1.077  0.00  0.00    -0.204 OA
ATOM      2  C2  BZF d   1       0.401   1.570  -2.142  0.00  0.00     0.174 A 
ATOM      3  C3  BZF d   1      -0.615   2.345  -1.713  0.00  0.00    -0.012 A 
ATOM      4  C3A BZF d   1      -0.556   2.287  -0.285  0.00  0.00    -0.107 A 
ATOM      5  C4  BZF d   1      -1.294   2.863   0.710  0.00  0.00     0.055 A 
ATOM      6  C5  BZF d   1      -1.023   2.544   2.003  0.00  0.00    -0.016 A 
ATOM      7  C6  BZF d   1      -0.026   1.650   2.336  0.00  0.00     0.022 A 
ATOM      8  C7  BZF d   1       0.736   1.058   1.385  0.00  0.00     0.029 A 
ATOM      9  C7A BZF d   1       0.486   1.403   0.079  0.00  0.00     0.058 A 
ENDROOT
TORSDOF 0
ENDMDL
