MODEL 1
REMARK minimizedAffinity -1.17645442
REMARK minimizedRMSD -1
REMARK  0 active torsions:
REMARK  status: ('A' for Active; 'I' for Inactive)
ROOT
ATOM      1  O1  BZF d   1       0.290   0.880   2.087  0.00  0.00    -0.204 OA
ATOM      2  C2  BZF d   1      -0.243   2.028   2.640  0.00  0.00     0.174 A 
ATOM      3  C3  BZF d   1      -0.711   2.851   1.679  0.00  0.00    -0.012 A 
ATOM      4  C3A BZF d   1      -0.538   2.133   0.453  0.00  0.00    -0.107 A 
ATOM      5  C4  BZF d   1      -0.828   2.418  -0.850  0.00  0.00     0.055 A 
ATOM      6  C5  BZF d   1      -0.465   1.534  -1.816  0.00  0.00    -0.016 A 
ATOM      7  C6  BZF d   1       0.191   0.358  -1.515  0.00  0.00     0.022 A 
ATOM      8  C7  BZF d   1       0.495   0.030  -0.236  0.00  0.00     0.029 A 
ATOM      9  C7A BZF d   1       0.101   0.906   0.745  0.00  0.00     0.058 A 
ENDROOT
TORSDOF 0
ENDMDL
