MODEL 1
REMARK minimizedAffinity -3.38698339
REMARK minimizedRMSD -1
REMARK  0 active torsions:
REMARK  status: ('A' for Active; 'I' for Inactive)
ROOT
ATOM      1  O1  BZF d   1       1.427   0.021   0.456  0.00  0.00    -0.204 OA
ATOM      2  C2  BZF d   1       1.190  -0.986  -0.460  0.00  0.00     0.174 A 
ATOM      3  C3  BZF d   1      -0.102  -0.984  -0.849  0.00  0.00    -0.012 A 
ATOM      4  C3A BZF d   1      -0.688   0.149  -0.200  0.00  0.00    -0.107 A 
ATOM      5  C4  BZF d   1      -1.943   0.687  -0.205  0.00  0.00     0.055 A 
ATOM      6  C5  BZF d   1      -2.207   1.755   0.594  0.00  0.00    -0.016 A 
ATOM      7  C6  BZF d   1      -1.242   2.304   1.413  0.00  0.00     0.022 A 
ATOM      8  C7  BZF d   1       0.018   1.807   1.448  0.00  0.00     0.029 A 
ATOM      9  C7A BZF d   1       0.296   0.749   0.617  0.00  0.00     0.058 A 
ENDROOT
TORSDOF 0
ENDMDL
