MODEL 1
REMARK minimizedAffinity -3.07354236
REMARK minimizedRMSD -1
REMARK  1 active torsions:
REMARK  status: ('A' for Active; 'I' for Inactive)
REMARK    1  A    between atoms: C1_2  and  C2_3 
ROOT
ATOM      1  C2  UNL d   1       0.435   0.051  -0.634  0.00  0.00    -0.073 A 
ATOM      2  C3  UNL d   1       1.004  -1.215  -0.812  0.00  0.00    -0.002 A 
ATOM      3  C4  UNL d   1       1.494  -1.598  -2.062  0.00  0.00     0.004 A 
ATOM      4  C5  UNL d   1       1.426  -0.719  -3.142  0.00  0.00    -0.004 A 
ATOM      5  C6  UNL d   1       0.871   0.555  -2.981  0.00  0.00    -0.075 A 
ATOM      6  C7  UNL d   1       0.789   1.512  -4.134  0.00  0.00     0.076 C 
ATOM      7  C8  UNL d   1       0.379   0.932  -1.724  0.00  0.00     0.001 A 
ENDROOT
BRANCH   1   8
ATOM      8  C1  UNL d   1      -0.089   0.472   0.715  0.00  0.00     0.053 C 
ATOM      9  C   UNL d   1       0.943   0.275   1.814  0.00  0.00     0.018 C 
ENDBRANCH   1   8
TORSDOF 1
ENDMDL
