MODEL 1
REMARK minimizedAffinity -3.16028118
REMARK minimizedRMSD -1
REMARK  1 active torsions:
REMARK  status: ('A' for Active; 'I' for Inactive)
REMARK    1  A    between atoms: C1_2  and  C2_3 
ROOT
ATOM      1  C2  UNL d   1      -0.917   0.462   0.488  0.00  0.00    -0.073 A 
ATOM      2  C3  UNL d   1      -0.186   1.461   1.141  0.00  0.00    -0.002 A 
ATOM      3  C4  UNL d   1      -0.381   1.701   2.502  0.00  0.00     0.004 A 
ATOM      4  C5  UNL d   1      -1.302   0.942   3.224  0.00  0.00    -0.004 A 
ATOM      5  C6  UNL d   1      -2.033  -0.069   2.591  0.00  0.00    -0.075 A 
ATOM      6  C7  UNL d   1      -3.030  -0.892   3.352  0.00  0.00     0.076 C 
ATOM      7  C8  UNL d   1      -1.834  -0.302   1.223  0.00  0.00     0.001 A 
ENDROOT
BRANCH   1   8
ATOM      8  C1  UNL d   1      -0.705   0.195  -0.980  0.00  0.00     0.053 C 
ATOM      9  C   UNL d   1       0.642  -0.455  -1.253  0.00  0.00     0.018 C 
ENDBRANCH   1   8
TORSDOF 1
ENDMDL
