MODEL 1
REMARK minimizedAffinity -4.24281359
REMARK minimizedRMSD -1
REMARK  1 active torsions:
REMARK  status: ('A' for Active; 'I' for Inactive)
REMARK    1  A    between atoms: C1_2  and  C2_3 
ROOT
ATOM      1  C2  UNL d   1       0.469  -0.394  -0.402  0.00  0.00    -0.073 A 
ATOM      2  C3  UNL d   1      -0.663  -1.144  -0.739  0.00  0.00    -0.002 A 
ATOM      3  C4  UNL d   1      -1.816  -1.072   0.044  0.00  0.00     0.004 A 
ATOM      4  C5  UNL d   1      -1.851  -0.246   1.167  0.00  0.00    -0.004 A 
ATOM      5  C6  UNL d   1      -0.733   0.521   1.514  0.00  0.00    -0.075 A 
ATOM      6  C7  UNL d   1      -0.754   1.413   2.720  0.00  0.00     0.076 C 
ATOM      7  C8  UNL d   1       0.421   0.441   0.723  0.00  0.00     0.001 A 
ENDROOT
BRANCH   1   8
ATOM      8  C1  UNL d   1       1.713  -0.464  -1.249  0.00  0.00     0.053 C 
ATOM      9  C   UNL d   1       1.395  -0.422  -2.735  0.00  0.00     0.018 C 
ENDBRANCH   1   8
TORSDOF 1
ENDMDL
