MODEL 1
REMARK minimizedAffinity -4.54710102
REMARK minimizedRMSD -1
REMARK  1 active torsions:
REMARK  status: ('A' for Active; 'I' for Inactive)
REMARK    1  A    between atoms: C1_2  and  C2_3 
ROOT
ATOM      1  C2  UNL d   1      -0.347   0.131   0.647  0.00  0.00    -0.073 A 
ATOM      2  C3  UNL d   1      -1.411   0.217   1.552  0.00  0.00    -0.002 A 
ATOM      3  C4  UNL d   1      -1.164   0.347   2.919  0.00  0.00     0.004 A 
ATOM      4  C5  UNL d   1       0.146   0.400   3.395  0.00  0.00    -0.004 A 
ATOM      5  C6  UNL d   1       1.223   0.327   2.505  0.00  0.00    -0.075 A 
ATOM      6  C7  UNL d   1       2.638   0.379   3.000  0.00  0.00     0.076 C 
ATOM      7  C8  UNL d   1       0.967   0.194   1.133  0.00  0.00     0.001 A 
ENDROOT
BRANCH   1   8
ATOM      8  C1  UNL d   1      -0.608  -0.003  -0.831  0.00  0.00     0.053 C 
ATOM      9  C   UNL d   1       0.658  -0.334  -1.606  0.00  0.00     0.018 C 
ENDBRANCH   1   8
TORSDOF 1
ENDMDL
