MODEL 1
REMARK minimizedAffinity -5.8613801
REMARK minimizedRMSD -1
REMARK  1 active torsions:
REMARK  status: ('A' for Active; 'I' for Inactive)
REMARK    1  A    between atoms: C1_2  and  C2_3 
ROOT
ATOM      1  C2  UNL d   1       0.171   0.380   2.063  0.00  0.00    -0.073 A 
ATOM      2  C3  UNL d   1      -1.141   0.860   2.151  0.00  0.00    -0.002 A 
ATOM      3  C4  UNL d   1      -1.981   0.822   1.038  0.00  0.00     0.004 A 
ATOM      4  C5  UNL d   1      -1.522   0.297  -0.171  0.00  0.00    -0.004 A 
ATOM      5  C6  UNL d   1      -0.219  -0.198  -0.275  0.00  0.00    -0.075 A 
ATOM      6  C7  UNL d   1       0.291  -0.764  -1.568  0.00  0.00     0.076 C 
ATOM      7  C8  UNL d   1       0.620  -0.154   0.847  0.00  0.00     0.001 A 
ENDROOT
BRANCH   1   8
ATOM      8  C1  UNL d   1       1.080   0.414   3.264  0.00  0.00     0.053 C 
ATOM      9  C   UNL d   1       1.337  -0.977   3.824  0.00  0.00     0.018 C 
ENDBRANCH   1   8
TORSDOF 1
ENDMDL
