MODEL 1
REMARK minimizedAffinity -4.87965775
REMARK minimizedRMSD -1
REMARK  1 active torsions:
REMARK  status: ('A' for Active; 'I' for Inactive)
REMARK    1  A    between atoms: C1_2  and  C2_3 
ROOT
ATOM      1  C2  UNL d   1       0.664  -0.078   0.244  0.00  0.00    -0.073 A 
ATOM      2  C3  UNL d   1       1.875  -0.434   0.849  0.00  0.00    -0.002 A 
ATOM      3  C4  UNL d   1       2.100  -0.148   2.196  0.00  0.00     0.004 A 
ATOM      4  C5  UNL d   1       1.117   0.490   2.953  0.00  0.00    -0.004 A 
ATOM      5  C6  UNL d   1      -0.104   0.843   2.369  0.00  0.00    -0.075 A 
ATOM      6  C7  UNL d   1      -1.171   1.531   3.168  0.00  0.00     0.076 C 
ATOM      7  C8  UNL d   1      -0.322   0.554   1.015  0.00  0.00     0.001 A 
ENDROOT
BRANCH   1   8
ATOM      8  C1  UNL d   1       0.414  -0.391  -1.209  0.00  0.00     0.053 C 
ATOM      9  C   UNL d   1       1.425   0.286  -2.120  0.00  0.00     0.018 C 
ENDBRANCH   1   8
TORSDOF 1
ENDMDL
