MODEL 1
REMARK minimizedAffinity 5.4416399
REMARK minimizedRMSD -1
REMARK  0 active torsions:
REMARK  status: ('A' for Active; 'I' for Inactive)
ROOT
ATOM      1  C   UNL d   1       0.955   5.989  -5.991  0.00  0.00     0.077 C 
ATOM      2  C1  UNL d   1       2.248   5.323  -5.624  0.00  0.00    -0.074 A 
ATOM      3  C2  UNL d   1       2.261   4.091  -4.963  0.00  0.00    -0.005 A 
ATOM      4  C3  UNL d   1       3.471   3.479  -4.637  0.00  0.00     0.006 A 
ATOM      5  C4  UNL d   1       4.680   4.093  -4.967  0.00  0.00    -0.005 A 
ATOM      6  C5  UNL d   1       4.687   5.326  -5.629  0.00  0.00    -0.074 A 
ATOM      7  C6  UNL d   1       5.978   5.994  -6.000  0.00  0.00     0.077 C 
ATOM      8  C7  UNL d   1       3.467   5.930  -5.959  0.00  0.00    -0.001 A 
ENDROOT
TORSDOF 0
ENDMDL
