MODEL 1
REMARK minimizedAffinity 3.94393563
REMARK minimizedRMSD -1
REMARK  0 active torsions:
REMARK  status: ('A' for Active; 'I' for Inactive)
ROOT
ATOM      1  C   UNL d   1       1.017  -1.849   0.940  0.00  0.00     0.077 C 
ATOM      2  C1  UNL d   1       2.350  -2.519   1.092  0.00  0.00    -0.074 A 
ATOM      3  C2  UNL d   1       3.081  -2.928  -0.028  0.00  0.00    -0.005 A 
ATOM      4  C3  UNL d   1       4.324  -3.541   0.129  0.00  0.00     0.006 A 
ATOM      5  C4  UNL d   1       4.848  -3.751   1.406  0.00  0.00    -0.005 A 
ATOM      6  C5  UNL d   1       4.132  -3.348   2.537  0.00  0.00    -0.074 A 
ATOM      7  C6  UNL d   1       4.685  -3.558   3.916  0.00  0.00     0.077 C 
ATOM      8  C7  UNL d   1       2.887  -2.727   2.371  0.00  0.00    -0.001 A 
ENDROOT
TORSDOF 0
ENDMDL
