MODEL 1
REMARK minimizedAffinity 1.76300466
REMARK minimizedRMSD -1
REMARK  0 active torsions:
REMARK  status: ('A' for Active; 'I' for Inactive)
ROOT
ATOM      1  C   UNL d   1       2.634  -2.227   0.071  0.00  0.00     0.077 C 
ATOM      2  C1  UNL d   1       3.301  -3.083   1.106  0.00  0.00    -0.074 A 
ATOM      3  C2  UNL d   1       3.472  -4.456   0.903  0.00  0.00    -0.005 A 
ATOM      4  C3  UNL d   1       4.103  -5.237   1.870  0.00  0.00     0.006 A 
ATOM      5  C4  UNL d   1       4.569  -4.655   3.050  0.00  0.00    -0.005 A 
ATOM      6  C5  UNL d   1       4.408  -3.284   3.271  0.00  0.00    -0.074 A 
ATOM      7  C6  UNL d   1       4.912  -2.640   4.528  0.00  0.00     0.077 C 
ATOM      8  C7  UNL d   1       3.779  -2.504   2.290  0.00  0.00    -0.001 A 
ENDROOT
TORSDOF 0
ENDMDL
