MODEL 1
REMARK minimizedAffinity 5.37026978
REMARK minimizedRMSD -1
REMARK  0 active torsions:
REMARK  status: ('A' for Active; 'I' for Inactive)
ROOT
ATOM      1  C   UNL d   1       4.676  -2.670   4.142  0.00  0.00     0.077 C 
ATOM      2  C1  UNL d   1       3.830  -2.966   2.939  0.00  0.00    -0.074 A 
ATOM      3  C2  UNL d   1       4.027  -4.131   2.191  0.00  0.00    -0.005 A 
ATOM      4  C3  UNL d   1       3.226  -4.398   1.081  0.00  0.00     0.006 A 
ATOM      5  C4  UNL d   1       2.221  -3.505   0.708  0.00  0.00    -0.005 A 
ATOM      6  C5  UNL d   1       2.008  -2.335   1.445  0.00  0.00    -0.074 A 
ATOM      7  C6  UNL d   1       0.926  -1.369   1.064  0.00  0.00     0.077 C 
ATOM      8  C7  UNL d   1       2.813  -2.077   2.563  0.00  0.00    -0.001 A 
ENDROOT
TORSDOF 0
ENDMDL
