MODEL 1
REMARK minimizedAffinity 8.00833225
REMARK minimizedRMSD -1
REMARK  0 active torsions:
REMARK  status: ('A' for Active; 'I' for Inactive)
ROOT
ATOM      1  C   UNL d   1       5.998  -2.631   0.383  0.00  0.00     0.077 C 
ATOM      2  C1  UNL d   1       4.567  -3.067   0.490  0.00  0.00    -0.074 A 
ATOM      3  C2  UNL d   1       4.167  -4.335   0.058  0.00  0.00    -0.005 A 
ATOM      4  C3  UNL d   1       2.834  -4.730   0.172  0.00  0.00     0.006 A 
ATOM      5  C4  UNL d   1       1.889  -3.861   0.720  0.00  0.00    -0.005 A 
ATOM      6  C5  UNL d   1       2.271  -2.589   1.159  0.00  0.00    -0.074 A 
ATOM      7  C6  UNL d   1       1.269  -1.647   1.759  0.00  0.00     0.077 C 
ATOM      8  C7  UNL d   1       3.613  -2.203   1.047  0.00  0.00    -0.001 A 
ENDROOT
TORSDOF 0
ENDMDL
