MODEL 1
REMARK minimizedAffinity -1.03825212
REMARK minimizedRMSD -1
REMARK  0 active torsions:
REMARK  status: ('A' for Active; 'I' for Inactive)
ROOT
ATOM      1  C   UNL d   1       1.538  -0.183  -1.460  0.00  0.00     0.124 A 
ATOM      2  C1  UNL d   1       0.986  -0.928  -0.427  0.00  0.00     0.062 A 
ATOM      3  C2  UNL d   1      -0.084  -0.423   0.306  0.00  0.00     0.162 A 
ATOM      4  C3  UNL d   1      -0.610   0.834   0.007  0.00  0.00    -0.034 A 
ATOM      5  C4  UNL d   1      -0.050   1.577  -1.032  0.00  0.00     0.162 A 
ATOM      6  C5  UNL d   1       1.020   1.068  -1.762  0.00  0.00     0.062 A 
ATOM      7  F   UNL d   1       1.552   1.790  -2.760  0.00  0.00    -0.097 F 
ATOM      8  F1  UNL d   1      -0.532   2.789  -1.346  0.00  0.00    -0.096 F 
ATOM      9  I   UNL d   1      -2.211   1.592   1.101  0.00  0.00    -0.060 I 
ATOM     10  F2  UNL d   1      -0.597  -1.165   1.298  0.00  0.00    -0.096 F 
ATOM     11  F3  UNL d   1       1.486  -2.137  -0.134  0.00  0.00    -0.097 F 
ATOM     12  F4  UNL d   1       2.568  -0.671  -2.163  0.00  0.00    -0.092 F 
ENDROOT
TORSDOF 0
ENDMDL
