MODEL 1
REMARK minimizedAffinity -0.278983384
REMARK minimizedRMSD -1
REMARK  0 active torsions:
REMARK  status: ('A' for Active; 'I' for Inactive)
ROOT
ATOM      1  C   UNL d   1      -1.558   2.084   1.053  0.00  0.00     0.124 A 
ATOM      2  C1  UNL d   1      -0.941   2.249  -0.180  0.00  0.00     0.062 A 
ATOM      3  C2  UNL d   1      -0.263   1.187  -0.772  0.00  0.00     0.162 A 
ATOM      4  C3  UNL d   1      -0.200  -0.051  -0.132  0.00  0.00    -0.034 A 
ATOM      5  C4  UNL d   1      -0.822  -0.210   1.107  0.00  0.00     0.162 A 
ATOM      6  C5  UNL d   1      -1.498   0.855   1.695  0.00  0.00     0.062 A 
ATOM      7  F   UNL d   1      -2.093   0.693   2.885  0.00  0.00    -0.097 F 
ATOM      8  F1  UNL d   1      -0.781  -1.387   1.749  0.00  0.00    -0.096 F 
ATOM      9  I   UNL d   1       0.812  -1.642  -1.014  0.00  0.00    -0.060 I 
ATOM     10  F2  UNL d   1       0.323   1.375  -1.963  0.00  0.00    -0.096 F 
ATOM     11  F3  UNL d   1      -0.996   3.436  -0.802  0.00  0.00    -0.097 F 
ATOM     12  F4  UNL d   1      -2.208   3.107   1.620  0.00  0.00    -0.092 F 
ENDROOT
TORSDOF 0
ENDMDL
