MODEL 1
REMARK minimizedAffinity -2.46035814
REMARK minimizedRMSD -1
REMARK  0 active torsions:
REMARK  status: ('A' for Active; 'I' for Inactive)
ROOT
ATOM      1  C   UNL d   1      -1.734   1.590   0.893  0.00  0.00     0.124 A 
ATOM      2  C1  UNL d   1      -1.184   1.563  -0.382  0.00  0.00     0.062 A 
ATOM      3  C2  UNL d   1      -0.319   0.536  -0.749  0.00  0.00     0.162 A 
ATOM      4  C3  UNL d   1       0.002  -0.472   0.160  0.00  0.00    -0.034 A 
ATOM      5  C4  UNL d   1      -0.554  -0.437   1.440  0.00  0.00     0.162 A 
ATOM      6  C5  UNL d   1      -1.418   0.591   1.802  0.00  0.00     0.062 A 
ATOM      7  F   UNL d   1      -1.948   0.616   3.034  0.00  0.00    -0.097 F 
ATOM      8  F1  UNL d   1      -0.266  -1.391   2.339  0.00  0.00    -0.096 F 
ATOM      9  I   UNL d   1       1.296  -2.009  -0.385  0.00  0.00    -0.060 I 
ATOM     10  F2  UNL d   1       0.197   0.534  -1.987  0.00  0.00    -0.096 F 
ATOM     11  F3  UNL d   1      -1.487   2.528  -1.262  0.00  0.00    -0.097 F 
ATOM     12  F4  UNL d   1      -2.565   2.580   1.243  0.00  0.00    -0.092 F 
ENDROOT
TORSDOF 0
ENDMDL
