MODEL 1
REMARK minimizedAffinity -0.684220612
REMARK minimizedRMSD -1
REMARK  0 active torsions:
REMARK  status: ('A' for Active; 'I' for Inactive)
ROOT
ATOM      1  C   UNL d   1      -1.018   1.404   1.039  0.00  0.00     0.124 A 
ATOM      2  C1  UNL d   1      -0.727   1.339  -0.317  0.00  0.00     0.062 A 
ATOM      3  C2  UNL d   1      -0.111   0.210  -0.847  0.00  0.00     0.162 A 
ATOM      4  C3  UNL d   1       0.218  -0.865  -0.021  0.00  0.00    -0.034 A 
ATOM      5  C4  UNL d   1      -0.077  -0.792   1.341  0.00  0.00     0.162 A 
ATOM      6  C5  UNL d   1      -0.693   0.339   1.866  0.00  0.00     0.062 A 
ATOM      7  F   UNL d   1      -0.973   0.400   3.176  0.00  0.00    -0.097 F 
ATOM      8  F1  UNL d   1       0.226  -1.808   2.164  0.00  0.00    -0.096 F 
ATOM      9  I   UNL d   1       1.140  -2.556  -0.810  0.00  0.00    -0.060 I 
ATOM     10  F2  UNL d   1       0.159   0.174  -2.160  0.00  0.00    -0.096 F 
ATOM     11  F3  UNL d   1      -1.040   2.368  -1.118  0.00  0.00    -0.097 F 
ATOM     12  F4  UNL d   1      -1.610   2.493   1.547  0.00  0.00    -0.092 F 
ENDROOT
TORSDOF 0
ENDMDL
