MODEL 1
REMARK minimizedAffinity -3.63893986
REMARK minimizedRMSD -1
REMARK  0 active torsions:
REMARK  status: ('A' for Active; 'I' for Inactive)
ROOT
ATOM      1  C   UNL d   1      -1.157   2.270   0.680  0.00  0.00     0.124 A 
ATOM      2  C1  UNL d   1      -0.204   2.523  -0.296  0.00  0.00     0.062 A 
ATOM      3  C2  UNL d   1       0.538   1.477  -0.837  0.00  0.00     0.162 A 
ATOM      4  C3  UNL d   1       0.329   0.168  -0.404  0.00  0.00    -0.034 A 
ATOM      5  C4  UNL d   1      -0.631  -0.079   0.579  0.00  0.00     0.162 A 
ATOM      6  C5  UNL d   1      -1.370   0.970   1.117  0.00  0.00     0.062 A 
ATOM      7  F   UNL d   1      -2.291   0.724   2.060  0.00  0.00    -0.097 F 
ATOM      8  F1  UNL d   1      -0.857  -1.326   1.019  0.00  0.00    -0.096 F 
ATOM      9  I   UNL d   1       1.437  -1.399  -1.210  0.00  0.00    -0.060 I 
ATOM     10  F2  UNL d   1       1.453   1.750  -1.779  0.00  0.00    -0.096 F 
ATOM     11  F3  UNL d   1       0.004   3.778  -0.719  0.00  0.00    -0.097 F 
ATOM     12  F4  UNL d   1      -1.869   3.278   1.200  0.00  0.00    -0.092 F 
ENDROOT
TORSDOF 0
ENDMDL
