MODEL 1
REMARK minimizedAffinity 0.791303158
REMARK minimizedRMSD -1
REMARK  0 active torsions:
REMARK  status: ('A' for Active; 'I' for Inactive)
ROOT
ATOM      1  C   UNL d   1      -0.322   1.470   0.807  0.00  0.00     0.124 A 
ATOM      2  C1  UNL d   1       0.515   1.458  -0.301  0.00  0.00     0.062 A 
ATOM      3  C2  UNL d   1       0.730   0.276  -1.003  0.00  0.00     0.162 A 
ATOM      4  C3  UNL d   1       0.107  -0.905  -0.601  0.00  0.00    -0.034 A 
ATOM      5  C4  UNL d   1      -0.733  -0.886   0.514  0.00  0.00     0.162 A 
ATOM      6  C5  UNL d   1      -0.945   0.298   1.213  0.00  0.00     0.062 A 
ATOM      7  F   UNL d   1      -1.753   0.307   2.283  0.00  0.00    -0.097 F 
ATOM      8  F1  UNL d   1      -1.348  -2.004   0.929  0.00  0.00    -0.096 F 
ATOM      9  I   UNL d   1       0.426  -2.675  -1.649  0.00  0.00    -0.060 I 
ATOM     10  F2  UNL d   1       1.543   0.295  -2.070  0.00  0.00    -0.096 F 
ATOM     11  F3  UNL d   1       1.118   2.589  -0.695  0.00  0.00    -0.097 F 
ATOM     12  F4  UNL d   1      -0.527   2.608   1.481  0.00  0.00    -0.092 F 
ENDROOT
TORSDOF 0
ENDMDL
