MODEL 1
REMARK minimizedAffinity 3.10630441
REMARK minimizedRMSD -1
REMARK  0 active torsions:
REMARK  status: ('A' for Active; 'I' for Inactive)
ROOT
ATOM      1  C   UNL d   1      -0.606   1.643   0.854  0.00  0.00     0.124 A 
ATOM      2  C1  UNL d   1       0.059   1.608  -0.364  0.00  0.00     0.062 A 
ATOM      3  C2  UNL d   1       0.631   0.422  -0.815  0.00  0.00     0.162 A 
ATOM      4  C3  UNL d   1       0.539  -0.740  -0.049  0.00  0.00    -0.034 A 
ATOM      5  C4  UNL d   1      -0.131  -0.697   1.175  0.00  0.00     0.162 A 
ATOM      6  C5  UNL d   1      -0.701   0.491   1.622  0.00  0.00     0.062 A 
ATOM      7  F   UNL d   1      -1.343   0.523   2.799  0.00  0.00    -0.097 F 
ATOM      8  F1  UNL d   1      -0.238  -1.796   1.937  0.00  0.00    -0.096 F 
ATOM      9  I   UNL d   1       1.392  -2.516  -0.721  0.00  0.00    -0.060 I 
ATOM     10  F2  UNL d   1       1.267   0.417  -1.996  0.00  0.00    -0.096 F 
ATOM     11  F3  UNL d   1       0.153   2.720  -1.107  0.00  0.00    -0.097 F 
ATOM     12  F4  UNL d   1      -1.154   2.786   1.287  0.00  0.00    -0.092 F 
ENDROOT
TORSDOF 0
ENDMDL
