MODEL 1
REMARK minimizedAffinity 0.300465107
REMARK minimizedRMSD -1
REMARK  0 active torsions:
REMARK  status: ('A' for Active; 'I' for Inactive)
ROOT
ATOM      1  C   UNL d   1      -0.914   0.336   1.746  0.00  0.00     0.124 A 
ATOM      2  C1  UNL d   1       0.434   0.098   1.519  0.00  0.00     0.062 A 
ATOM      3  C2  UNL d   1       1.044   0.575   0.363  0.00  0.00     0.162 A 
ATOM      4  C3  UNL d   1       0.306   1.296  -0.577  0.00  0.00    -0.034 A 
ATOM      5  C4  UNL d   1      -1.051   1.530  -0.342  0.00  0.00     0.162 A 
ATOM      6  C5  UNL d   1      -1.655   1.051   0.816  0.00  0.00     0.062 A 
ATOM      7  F   UNL d   1      -2.958   1.281   1.033  0.00  0.00    -0.097 F 
ATOM      8  F1  UNL d   1      -1.790   2.219  -1.224  0.00  0.00    -0.096 F 
ATOM      9  I   UNL d   1       1.214   2.010  -2.307  0.00  0.00    -0.060 I 
ATOM     10  F2  UNL d   1       2.349   0.331   0.169  0.00  0.00    -0.096 F 
ATOM     11  F3  UNL d   1       1.152  -0.593   2.416  0.00  0.00    -0.097 F 
ATOM     12  F4  UNL d   1      -1.499  -0.125   2.860  0.00  0.00    -0.092 F 
ENDROOT
TORSDOF 0
ENDMDL
