MODEL 1
REMARK minimizedAffinity -3.07038879
REMARK minimizedRMSD -1
REMARK  0 active torsions:
REMARK  status: ('A' for Active; 'I' for Inactive)
ROOT
ATOM      1  C   UNL d   1      -1.369   2.092   0.845  0.00  0.00     0.124 A 
ATOM      2  C1  UNL d   1      -0.748   2.234  -0.388  0.00  0.00     0.062 A 
ATOM      3  C2  UNL d   1       0.049   1.211  -0.892  0.00  0.00     0.162 A 
ATOM      4  C3  UNL d   1       0.229   0.035  -0.164  0.00  0.00    -0.034 A 
ATOM      5  C4  UNL d   1      -0.398  -0.100   1.076  0.00  0.00     0.162 A 
ATOM      6  C5  UNL d   1      -1.194   0.926   1.576  0.00  0.00     0.062 A 
ATOM      7  F   UNL d   1      -1.793   0.787   2.768  0.00  0.00    -0.097 F 
ATOM      8  F1  UNL d   1      -0.246  -1.217   1.803  0.00  0.00    -0.096 F 
ATOM      9  I   UNL d   1       1.420  -1.498  -0.914  0.00  0.00    -0.060 I 
ATOM     10  F2  UNL d   1       0.636   1.375  -2.087  0.00  0.00    -0.096 F 
ATOM     11  F3  UNL d   1      -0.916   3.361  -1.095  0.00  0.00    -0.097 F 
ATOM     12  F4  UNL d   1      -2.135   3.079   1.329  0.00  0.00    -0.092 F 
ENDROOT
TORSDOF 0
ENDMDL
