MODEL 1
REMARK minimizedAffinity 1.74546957
REMARK minimizedRMSD -1
REMARK  0 active torsions:
REMARK  status: ('A' for Active; 'I' for Inactive)
ROOT
ATOM      1  C   UNL d   1       1.323   0.036  -1.156  0.00  0.00     0.124 A 
ATOM      2  C1  UNL d   1       0.715  -0.736  -0.176  0.00  0.00     0.062 A 
ATOM      3  C2  UNL d   1      -0.284  -0.190   0.625  0.00  0.00     0.162 A 
ATOM      4  C3  UNL d   1      -0.683   1.134   0.448  0.00  0.00    -0.034 A 
ATOM      5  C4  UNL d   1      -0.066   1.905  -0.539  0.00  0.00     0.162 A 
ATOM      6  C5  UNL d   1       0.932   1.355  -1.337  0.00  0.00     0.062 A 
ATOM      7  F   UNL d   1       1.518   2.103  -2.284  0.00  0.00    -0.097 F 
ATOM      8  F1  UNL d   1      -0.426   3.182  -0.736  0.00  0.00    -0.096 F 
ATOM      9  I   UNL d   1      -2.177   1.954   1.643  0.00  0.00    -0.060 I 
ATOM     10  F2  UNL d   1      -0.854  -0.960   1.564  0.00  0.00    -0.096 F 
ATOM     11  F3  UNL d   1       1.092  -2.010   0.001  0.00  0.00    -0.097 F 
ATOM     12  F4  UNL d   1       2.285  -0.491  -1.924  0.00  0.00    -0.092 F 
ENDROOT
TORSDOF 0
ENDMDL
