MODEL 1
REMARK minimizedAffinity -1.8741982
REMARK minimizedRMSD -1
REMARK  0 active torsions:
REMARK  status: ('A' for Active; 'I' for Inactive)
ROOT
ATOM      1  C   UNL d   1      -1.253   1.864   0.171  0.00  0.00     0.124 A 
ATOM      2  C1  UNL d   1      -1.572   0.653   0.768  0.00  0.00     0.062 A 
ATOM      3  C2  UNL d   1      -0.880  -0.504   0.418  0.00  0.00     0.162 A 
ATOM      4  C3  UNL d   1       0.138  -0.454  -0.534  0.00  0.00    -0.034 A 
ATOM      5  C4  UNL d   1       0.452   0.769  -1.131  0.00  0.00     0.162 A 
ATOM      6  C5  UNL d   1      -0.242   1.921  -0.778  0.00  0.00     0.062 A 
ATOM      7  F   UNL d   1       0.067   3.091  -1.356  0.00  0.00    -0.097 F 
ATOM      8  F1  UNL d   1       1.425   0.852  -2.050  0.00  0.00    -0.096 F 
ATOM      9  I   UNL d   1       1.175  -2.180  -1.060  0.00  0.00    -0.060 I 
ATOM     10  F2  UNL d   1      -1.209  -1.661   1.012  0.00  0.00    -0.096 F 
ATOM     11  F3  UNL d   1      -2.549   0.595   1.684  0.00  0.00    -0.097 F 
ATOM     12  F4  UNL d   1      -1.921   2.975   0.508  0.00  0.00    -0.092 F 
ENDROOT
TORSDOF 0
ENDMDL
