MODEL 1
REMARK minimizedAffinity -1.60648036
REMARK minimizedRMSD -1
REMARK  0 active torsions:
REMARK  status: ('A' for Active; 'I' for Inactive)
ROOT
ATOM      1  C   UNL d   1      -0.634   1.146   1.598  0.00  0.00     0.124 A 
ATOM      2  C1  UNL d   1      -1.323   1.353   0.411  0.00  0.00     0.062 A 
ATOM      3  C2  UNL d   1      -1.112   0.511  -0.677  0.00  0.00     0.162 A 
ATOM      4  C3  UNL d   1      -0.207  -0.546  -0.583  0.00  0.00    -0.034 A 
ATOM      5  C4  UNL d   1       0.483  -0.747   0.614  0.00  0.00     0.162 A 
ATOM      6  C5  UNL d   1       0.268   0.097   1.699  0.00  0.00     0.062 A 
ATOM      7  F   UNL d   1       0.935  -0.104   2.844  0.00  0.00    -0.097 F 
ATOM      8  F1  UNL d   1       1.360  -1.755   0.739  0.00  0.00    -0.096 F 
ATOM      9  I   UNL d   1       0.112  -1.807  -2.207  0.00  0.00    -0.060 I 
ATOM     10  F2  UNL d   1      -1.792   0.734  -1.811  0.00  0.00    -0.096 F 
ATOM     11  F3  UNL d   1      -2.195   2.367   0.312  0.00  0.00    -0.097 F 
ATOM     12  F4  UNL d   1      -0.839   1.958   2.643  0.00  0.00    -0.092 F 
ENDROOT
TORSDOF 0
ENDMDL
