MODEL 1
REMARK minimizedAffinity 1.08701265
REMARK minimizedRMSD -1
REMARK  0 active torsions:
REMARK  status: ('A' for Active; 'I' for Inactive)
ROOT
ATOM      1  C   UNL d   1      -0.436   0.739   1.092  0.00  0.00     0.124 A 
ATOM      2  C1  UNL d   1       0.445  -0.325   1.220  0.00  0.00     0.062 A 
ATOM      3  C2  UNL d   1       0.670  -1.181   0.145  0.00  0.00     0.162 A 
ATOM      4  C3  UNL d   1       0.013  -0.975  -1.068  0.00  0.00    -0.034 A 
ATOM      5  C4  UNL d   1      -0.872   0.097  -1.189  0.00  0.00     0.162 A 
ATOM      6  C5  UNL d   1      -1.094   0.949  -0.112  0.00  0.00     0.062 A 
ATOM      7  F   UNL d   1      -1.946   1.977  -0.238  0.00  0.00    -0.097 F 
ATOM      8  F1  UNL d   1      -1.521   0.324  -2.341  0.00  0.00    -0.096 F 
ATOM      9  I   UNL d   1       0.347  -2.253  -2.677  0.00  0.00    -0.060 I 
ATOM     10  F2  UNL d   1       1.527  -2.201   0.298  0.00  0.00    -0.096 F 
ATOM     11  F3  UNL d   1       1.081  -0.531   2.382  0.00  0.00    -0.097 F 
ATOM     12  F4  UNL d   1      -0.651   1.561   2.127  0.00  0.00    -0.092 F 
ENDROOT
TORSDOF 0
ENDMDL
