MODEL 1
REMARK minimizedAffinity 1.03563285
REMARK minimizedRMSD -1
REMARK  0 active torsions:
REMARK  status: ('A' for Active; 'I' for Inactive)
ROOT
ATOM      1  C   UNL d   1      -1.730   2.007   1.225  0.00  0.00     0.124 A 
ATOM      2  C1  UNL d   1      -1.416   0.922   2.032  0.00  0.00     0.062 A 
ATOM      3  C2  UNL d   1      -0.611  -0.103   1.544  0.00  0.00     0.162 A 
ATOM      4  C3  UNL d   1      -0.114  -0.049   0.242  0.00  0.00    -0.034 A 
ATOM      5  C4  UNL d   1      -0.435   1.045  -0.564  0.00  0.00     0.162 A 
ATOM      6  C5  UNL d   1      -1.240   2.067  -0.071  0.00  0.00     0.062 A 
ATOM      7  F   UNL d   1      -1.542   3.115  -0.852  0.00  0.00    -0.097 F 
ATOM      8  F1  UNL d   1       0.027   1.130  -1.820  0.00  0.00    -0.096 F 
ATOM      9  I   UNL d   1       1.090  -1.580  -0.491  0.00  0.00    -0.060 I 
ATOM     10  F2  UNL d   1      -0.324  -1.140   2.346  0.00  0.00    -0.096 F 
ATOM     11  F3  UNL d   1      -1.890   0.861   3.285  0.00  0.00    -0.097 F 
ATOM     12  F4  UNL d   1      -2.506   2.992   1.697  0.00  0.00    -0.092 F 
ENDROOT
TORSDOF 0
ENDMDL
