MODEL 1
REMARK minimizedAffinity -1.01478446
REMARK minimizedRMSD -1
REMARK  0 active torsions:
REMARK  status: ('A' for Active; 'I' for Inactive)
ROOT
ATOM      1  C   UNL d   1      -1.017   1.455   0.581  0.00  0.00     0.124 A 
ATOM      2  C1  UNL d   1      -0.827   0.420   1.486  0.00  0.00     0.062 A 
ATOM      3  C2  UNL d   1      -0.117  -0.716   1.111  0.00  0.00     0.162 A 
ATOM      4  C3  UNL d   1       0.410  -0.824  -0.176  0.00  0.00    -0.034 A 
ATOM      5  C4  UNL d   1       0.215   0.220  -1.081  0.00  0.00     0.162 A 
ATOM      6  C5  UNL d   1      -0.496   1.355  -0.702  0.00  0.00     0.062 A 
ATOM      7  F   UNL d   1      -0.677   2.353  -1.578  0.00  0.00    -0.097 F 
ATOM      8  F1  UNL d   1       0.709   0.150  -2.326  0.00  0.00    -0.096 F 
ATOM      9  I   UNL d   1       1.473  -2.522  -0.740  0.00  0.00    -0.060 I 
ATOM     10  F2  UNL d   1       0.050  -1.701   2.006  0.00  0.00    -0.096 F 
ATOM     11  F3  UNL d   1      -1.331   0.515   2.725  0.00  0.00    -0.097 F 
ATOM     12  F4  UNL d   1      -1.701   2.548   0.944  0.00  0.00    -0.092 F 
ENDROOT
TORSDOF 0
ENDMDL
