MODEL 1
REMARK minimizedAffinity 3.42362928
REMARK minimizedRMSD -1
REMARK  0 active torsions:
REMARK  status: ('A' for Active; 'I' for Inactive)
ROOT
ATOM      1  C1  BNZ d   1       3.521   3.422  -5.970  0.00  0.00     0.000 A 
ATOM      2  C2  BNZ d   1       4.746   4.034  -5.966  0.00  0.00     0.000 A 
ATOM      3  C3  BNZ d   1       5.897   3.297  -5.999  0.00  0.00     0.000 A 
ATOM      4  C4  BNZ d   1       5.823   1.951  -5.997  0.00  0.00     0.000 A 
ATOM      5  C5  BNZ d   1       4.595   1.319  -5.992  0.00  0.00     0.000 A 
ATOM      6  C6  BNZ d   1       3.439   2.064  -5.998  0.00  0.00     0.000 A 
ENDROOT
TORSDOF 0
ENDMDL
