MODEL 1
REMARK minimizedAffinity 2.50879598
REMARK minimizedRMSD -1
REMARK  0 active torsions:
REMARK  status: ('A' for Active; 'I' for Inactive)
ROOT
ATOM      1  C1  BNZ d   1       3.548  -5.984  -3.285  0.00  0.00     0.000 A 
ATOM      2  C2  BNZ d   1       4.917  -5.997  -3.317  0.00  0.00     0.000 A 
ATOM      3  C3  BNZ d   1       5.589  -5.985  -4.507  0.00  0.00     0.000 A 
ATOM      4  C4  BNZ d   1       4.893  -6.000  -5.662  0.00  0.00     0.000 A 
ATOM      5  C5  BNZ d   1       3.512  -5.996  -5.646  0.00  0.00     0.000 A 
ATOM      6  C6  BNZ d   1       2.839  -5.968  -4.447  0.00  0.00     0.000 A 
ENDROOT
TORSDOF 0
ENDMDL
