MODEL 1
REMARK minimizedAffinity 0.499931902
REMARK minimizedRMSD -1
REMARK  0 active torsions:
REMARK  status: ('A' for Active; 'I' for Inactive)
ROOT
ATOM      1  C1  BNZ d   1       2.412  -5.987  -3.636  0.00  0.00     0.000 A 
ATOM      2  C2  BNZ d   1       3.782  -5.978  -3.654  0.00  0.00     0.000 A 
ATOM      3  C3  BNZ d   1       4.466  -5.954  -4.837  0.00  0.00     0.000 A 
ATOM      4  C4  BNZ d   1       3.782  -5.981  -5.999  0.00  0.00     0.000 A 
ATOM      5  C5  BNZ d   1       2.401  -6.000  -5.997  0.00  0.00     0.000 A 
ATOM      6  C6  BNZ d   1       1.715  -5.984  -4.804  0.00  0.00     0.000 A 
ENDROOT
TORSDOF 0
ENDMDL
