MODEL 1
REMARK minimizedAffinity 5.92473698
REMARK minimizedRMSD -1
REMARK  0 active torsions:
REMARK  status: ('A' for Active; 'I' for Inactive)
ROOT
ATOM      1  C1  BNZ d   1       2.667  -0.434  -0.204  0.00  0.00     0.000 A 
ATOM      2  C2  BNZ d   1       3.030  -0.323  -1.519  0.00  0.00     0.000 A 
ATOM      3  C3  BNZ d   1       2.223   0.317  -2.417  0.00  0.00     0.000 A 
ATOM      4  C4  BNZ d   1       1.036   0.810  -2.007  0.00  0.00     0.000 A 
ATOM      5  C5  BNZ d   1       0.651   0.698  -0.686  0.00  0.00     0.000 A 
ATOM      6  C6  BNZ d   1       1.484   0.087   0.223  0.00  0.00     0.000 A 
ENDROOT
TORSDOF 0
ENDMDL
