MODEL 1
REMARK minimizedAffinity -0.168504283
REMARK minimizedRMSD -1
REMARK  0 active torsions:
REMARK  status: ('A' for Active; 'I' for Inactive)
ROOT
ATOM      1  C1  BNZ d   1       3.965   4.828   5.354  0.00  0.00     0.000 A 
ATOM      2  C2  BNZ d   1       3.987   4.786   3.985  0.00  0.00     0.000 A 
ATOM      3  C3  BNZ d   1       2.993   5.369   3.251  0.00  0.00     0.000 A 
ATOM      4  C4  BNZ d   1       1.958   5.958   3.885  0.00  0.00     0.000 A 
ATOM      5  C5  BNZ d   1       1.916   6.000   5.264  0.00  0.00     0.000 A 
ATOM      6  C6  BNZ d   1       2.939   5.446   6.000  0.00  0.00     0.000 A 
ENDROOT
TORSDOF 0
ENDMDL
