MODEL 1
REMARK minimizedAffinity 3.53419948
REMARK minimizedRMSD -1
REMARK  0 active torsions:
REMARK  status: ('A' for Active; 'I' for Inactive)
ROOT
ATOM      1  C1  BNZ d   1      -2.605   4.233  -5.999  0.00  0.00     0.000 A 
ATOM      2  C2  BNZ d   1      -3.541   5.232  -5.999  0.00  0.00     0.000 A 
ATOM      3  C3  BNZ d   1      -4.876   4.939  -5.975  0.00  0.00     0.000 A 
ATOM      4  C4  BNZ d   1      -5.273   3.650  -5.990  0.00  0.00     0.000 A 
ATOM      5  C5  BNZ d   1      -4.341   2.632  -6.000  0.00  0.00     0.000 A 
ATOM      6  C6  BNZ d   1      -2.998   2.930  -5.985  0.00  0.00     0.000 A 
ENDROOT
TORSDOF 0
ENDMDL
