MODEL 1
REMARK minimizedAffinity 7.45378733
REMARK minimizedRMSD -1
REMARK  0 active torsions:
REMARK  status: ('A' for Active; 'I' for Inactive)
ROOT
ATOM      1  C1  BNZ d   1       4.212   3.475   3.955  0.00  0.00     0.000 A 
ATOM      2  C2  BNZ d   1       4.221   4.610   4.722  0.00  0.00     0.000 A 
ATOM      3  C3  BNZ d   1       5.129   4.766   5.731  0.00  0.00     0.000 A 
ATOM      4  C4  BNZ d   1       6.000   3.771   5.999  0.00  0.00     0.000 A 
ATOM      5  C5  BNZ d   1       5.998   2.617   5.241  0.00  0.00     0.000 A 
ATOM      6  C6  BNZ d   1       5.107   2.480   4.201  0.00  0.00     0.000 A 
ENDROOT
TORSDOF 0
ENDMDL
