MODEL 1
REMARK minimizedAffinity 5.80754614
REMARK minimizedRMSD -1
REMARK  0 active torsions:
REMARK  status: ('A' for Active; 'I' for Inactive)
ROOT
ATOM      1  C1  BNZ d   1       5.769   1.166  -3.581  0.00  0.00     0.000 A 
ATOM      2  C2  BNZ d   1       5.511   1.063  -2.240  0.00  0.00     0.000 A 
ATOM      3  C3  BNZ d   1       5.471   2.176  -1.448  0.00  0.00     0.000 A 
ATOM      4  C4  BNZ d   1       5.728   3.384  -1.988  0.00  0.00     0.000 A 
ATOM      5  C5  BNZ d   1       5.999   3.503  -3.337  0.00  0.00     0.000 A 
ATOM      6  C6  BNZ d   1       6.000   2.385  -4.139  0.00  0.00     0.000 A 
ENDROOT
TORSDOF 0
ENDMDL
