MODEL 1
REMARK minimizedAffinity 9.66619682
REMARK minimizedRMSD -1
REMARK  0 active torsions:
REMARK  status: ('A' for Active; 'I' for Inactive)
ROOT
ATOM      1  C1  BNZ d   1       3.231   5.879   5.986  0.00  0.00     0.000 A 
ATOM      2  C2  BNZ d   1       2.557   5.926   4.795  0.00  0.00     0.000 A 
ATOM      3  C3  BNZ d   1       3.235   5.960   3.608  0.00  0.00     0.000 A 
ATOM      4  C4  BNZ d   1       4.583   5.987   3.615  0.00  0.00     0.000 A 
ATOM      5  C5  BNZ d   1       5.277   5.949   4.808  0.00  0.00     0.000 A 
ATOM      6  C6  BNZ d   1       4.592   5.875   5.999  0.00  0.00     0.000 A 
ENDROOT
TORSDOF 0
ENDMDL
