MODEL 1
REMARK minimizedAffinity 9.65750217
REMARK minimizedRMSD -1
REMARK  0 active torsions:
REMARK  status: ('A' for Active; 'I' for Inactive)
ROOT
ATOM      1  C1  BNZ d   1      -3.641  -2.619   4.108  0.00  0.00     0.000 A 
ATOM      2  C2  BNZ d   1      -3.618  -1.420   3.447  0.00  0.00     0.000 A 
ATOM      3  C3  BNZ d   1      -4.780  -0.807   3.070  0.00  0.00     0.000 A 
ATOM      4  C4  BNZ d   1      -5.960  -1.411   3.318  0.00  0.00     0.000 A 
ATOM      5  C5  BNZ d   1      -5.999  -2.624   3.976  0.00  0.00     0.000 A 
ATOM      6  C6  BNZ d   1      -4.830  -3.220   4.388  0.00  0.00     0.000 A 
ENDROOT
TORSDOF 0
ENDMDL
