MODEL 1
REMARK minimizedAffinity -2.85253406
REMARK minimizedRMSD -1
REMARK  0 active torsions:
REMARK  status: ('A' for Active; 'I' for Inactive)
ROOT
ATOM      1  O1  BZF d   1       0.734   0.870  -0.559  0.00  0.00    -0.204 OA
ATOM      2  C2  BZF d   1       0.389  -0.336  -1.137  0.00  0.00     0.174 A 
ATOM      3  C3  BZF d   1      -0.515  -0.989  -0.378  0.00  0.00    -0.012 A 
ATOM      4  C3A BZF d   1      -0.819  -0.096   0.698  0.00  0.00    -0.107 A 
ATOM      5  C4  BZF d   1      -1.661  -0.171   1.770  0.00  0.00     0.055 A 
ATOM      6  C5  BZF d   1      -1.668   0.843   2.676  0.00  0.00    -0.016 A 
ATOM      7  C6  BZF d   1      -0.845   1.942   2.542  0.00  0.00     0.022 A 
ATOM      8  C7  BZF d   1       0.003   2.063   1.492  0.00  0.00     0.029 A 
ATOM      9  C7A BZF d   1      -0.010   1.056   0.558  0.00  0.00     0.058 A 
ENDROOT
TORSDOF 0
ENDMDL
