MODEL 1
REMARK minimizedAffinity -4.13065243
REMARK minimizedRMSD -1
REMARK  0 active torsions:
REMARK  status: ('A' for Active; 'I' for Inactive)
ROOT
ATOM      1  O1  BZF d   1       0.398   1.234   2.280  0.00  0.00    -0.204 OA
ATOM      2  C2  BZF d   1      -0.876   1.657   2.607  0.00  0.00     0.174 A 
ATOM      3  C3  BZF d   1      -1.771   1.231   1.693  0.00  0.00    -0.012 A 
ATOM      4  C3A BZF d   1      -1.023   0.418   0.784  0.00  0.00    -0.107 A 
ATOM      5  C4  BZF d   1      -1.358  -0.299  -0.329  0.00  0.00     0.055 A 
ATOM      6  C5  BZF d   1      -0.377  -0.924  -1.032  0.00  0.00    -0.016 A 
ATOM      7  C6  BZF d   1       0.947  -0.850  -0.654  0.00  0.00     0.022 A 
ATOM      8  C7  BZF d   1       1.328  -0.155   0.446  0.00  0.00     0.029 A 
ATOM      9  C7A BZF d   1       0.335   0.450   1.177  0.00  0.00     0.058 A 
ENDROOT
TORSDOF 0
ENDMDL
