MODEL 1
REMARK minimizedAffinity -1.52123594
REMARK minimizedRMSD -1
REMARK  0 active torsions:
REMARK  status: ('A' for Active; 'I' for Inactive)
ROOT
ATOM      1  O1  BZF d   1       0.861  -0.320  -3.631  0.00  0.00    -0.204 OA
ATOM      2  C2  BZF d   1       1.362   0.862  -4.140  0.00  0.00     0.174 A 
ATOM      3  C3  BZF d   1       1.460   1.796  -3.172  0.00  0.00    -0.012 A 
ATOM      4  C3A BZF d   1       1.079   1.129  -1.965  0.00  0.00    -0.107 A 
ATOM      5  C4  BZF d   1       0.990   1.525  -0.661  0.00  0.00     0.055 A 
ATOM      6  C5  BZF d   1       0.514   0.650   0.263  0.00  0.00    -0.016 A 
ATOM      7  C6  BZF d   1       0.114  -0.624  -0.081  0.00  0.00     0.022 A 
ATOM      8  C7  BZF d   1       0.188  -1.064  -1.361  0.00  0.00     0.029 A 
ATOM      9  C7A BZF d   1       0.700  -0.194  -2.292  0.00  0.00     0.058 A 
ENDROOT
TORSDOF 0
ENDMDL
