MODEL 1
REMARK minimizedAffinity -6.30154133
REMARK minimizedRMSD -1
REMARK  0 active torsions:
REMARK  status: ('A' for Active; 'I' for Inactive)
ROOT
ATOM      1  O1  BZF d   1       0.289   0.734   2.429  0.00  0.00    -0.204 OA
ATOM      2  C2  BZF d   1      -0.772   1.315   3.096  0.00  0.00     0.174 A 
ATOM      3  C3  BZF d   1      -1.855   1.393   2.296  0.00  0.00    -0.012 A 
ATOM      4  C3A BZF d   1      -1.474   0.740   1.082  0.00  0.00    -0.107 A 
ATOM      5  C4  BZF d   1      -2.126   0.482  -0.090  0.00  0.00     0.055 A 
ATOM      6  C5  BZF d   1      -1.447  -0.110  -1.107  0.00  0.00    -0.016 A 
ATOM      7  C6  BZF d   1      -0.116  -0.452  -0.990  0.00  0.00     0.022 A 
ATOM      8  C7  BZF d   1       0.572  -0.220   0.155  0.00  0.00     0.029 A 
ATOM      9  C7A BZF d   1      -0.120   0.348   1.196  0.00  0.00     0.058 A 
ENDROOT
TORSDOF 0
ENDMDL
