MODEL 1
REMARK minimizedAffinity -3.90354776
REMARK minimizedRMSD -1
REMARK  0 active torsions:
REMARK  status: ('A' for Active; 'I' for Inactive)
ROOT
ATOM      1  O1  BZF d   1       0.759   0.640  -0.445  0.00  0.00    -0.204 OA
ATOM      2  C2  BZF d   1      -0.144  -0.271   0.066  0.00  0.00     0.174 A 
ATOM      3  C3  BZF d   1      -0.672  -1.025  -0.919  0.00  0.00    -0.012 A 
ATOM      4  C3A BZF d   1       0.008  -0.619  -2.110  0.00  0.00    -0.107 A 
ATOM      5  C4  BZF d   1      -0.066  -1.014  -3.415  0.00  0.00     0.055 A 
ATOM      6  C5  BZF d   1       0.682  -0.366  -4.345  0.00  0.00    -0.016 A 
ATOM      7  C6  BZF d   1       1.511   0.684  -4.007  0.00  0.00     0.022 A 
ATOM      8  C7  BZF d   1       1.622   1.109  -2.725  0.00  0.00     0.029 A 
ATOM      9  C7A BZF d   1       0.891   0.434  -1.777  0.00  0.00     0.058 A 
ENDROOT
TORSDOF 0
ENDMDL
