MODEL 1
REMARK minimizedAffinity -5.99006748
REMARK minimizedRMSD -1
REMARK  2 active torsions:
REMARK  status: ('A' for Active; 'I' for Inactive)
REMARK    1  A    between atoms: C2'_3  and  C1'_4 
REMARK    2  A    between atoms: C1'_4  and  C1_5 
ROOT
ATOM      1  C1  I4B d   1       0.474   1.160   0.378  0.00  0.00    -0.075 A 
ATOM      2  C2  I4B d   1       1.618   0.985  -0.359  0.00  0.00     0.003 A 
ATOM      3  C3  I4B d   1       2.771   1.758  -0.079  0.00  0.00     0.002 A 
ATOM      4  C4  I4B d   1       2.721   2.721   0.908  0.00  0.00    -0.004 A 
ATOM      5  C5  I4B d   1       1.567   2.880   1.670  0.00  0.00     0.002 A 
ATOM      6  C6  I4B d   1       0.440   2.087   1.412  0.00  0.00     0.003 A 
ENDROOT
BRANCH   1   7
ATOM      7  C1' I4B d   1      -0.736   0.350   0.034  0.00  0.00     0.060 C 
BRANCH   7   8
ATOM      8  C2' I4B d   1      -0.269  -0.923  -0.642  0.00  0.00    -0.013 C 
ATOM      9  C4' I4B d   1      -0.315  -2.092   0.307  0.00  0.00     0.013 C 
ATOM     10  C3' I4B d   1      -1.144  -1.161  -1.836  0.00  0.00     0.013 C 
ENDBRANCH   7   8
ENDBRANCH   1   7
TORSDOF 2
ENDMDL
