MODEL 1
REMARK minimizedAffinity -5.95021439
REMARK minimizedRMSD -1
REMARK  2 active torsions:
REMARK  status: ('A' for Active; 'I' for Inactive)
REMARK    1  A    between atoms: C2'_3  and  C1'_4 
REMARK    2  A    between atoms: C1'_4  and  C1_5 
ROOT
ATOM      1  C1  I4B d   1      -0.922  -0.390  -0.555  0.00  0.00    -0.075 A 
ATOM      2  C2  I4B d   1      -0.725  -1.714  -0.856  0.00  0.00     0.003 A 
ATOM      3  C3  I4B d   1      -1.424  -2.312  -1.933  0.00  0.00     0.002 A 
ATOM      4  C4  I4B d   1      -2.341  -1.566  -2.645  0.00  0.00    -0.004 A 
ATOM      5  C5  I4B d   1      -2.523  -0.218  -2.352  0.00  0.00     0.002 A 
ATOM      6  C6  I4B d   1      -1.800   0.378  -1.309  0.00  0.00     0.003 A 
ENDROOT
BRANCH   1   7
ATOM      7  C1' I4B d   1      -0.192   0.200   0.610  0.00  0.00     0.060 C 
BRANCH   7   8
ATOM      8  C2' I4B d   1       0.668   1.336   0.095  0.00  0.00    -0.013 C 
ATOM      9  C4' I4B d   1       0.871   2.389   1.152  0.00  0.00     0.013 C 
ATOM     10  C3' I4B d   1       1.978   0.758  -0.351  0.00  0.00     0.013 C 
ENDBRANCH   7   8
ENDBRANCH   1   7
TORSDOF 2
ENDMDL
