MODEL 1
REMARK minimizedAffinity -5.78145981
REMARK minimizedRMSD -1
REMARK  2 active torsions:
REMARK  status: ('A' for Active; 'I' for Inactive)
REMARK    1  A    between atoms: C2'_3  and  C1'_4 
REMARK    2  A    between atoms: C1'_4  and  C1_5 
ROOT
ATOM      1  C1  I4B d   1       0.777   1.769   1.046  0.00  0.00    -0.075 A 
ATOM      2  C2  I4B d   1       0.053   1.770   2.212  0.00  0.00     0.003 A 
ATOM      3  C3  I4B d   1      -0.810   0.688   2.516  0.00  0.00     0.002 A 
ATOM      4  C4  I4B d   1      -0.955  -0.341   1.608  0.00  0.00    -0.004 A 
ATOM      5  C5  I4B d   1      -0.202  -0.351   0.437  0.00  0.00     0.002 A 
ATOM      6  C6  I4B d   1       0.678   0.705   0.160  0.00  0.00     0.003 A 
ENDROOT
BRANCH   1   7
ATOM      7  C1' I4B d   1       1.653   2.943   0.741  0.00  0.00     0.060 C 
BRANCH   7   8
ATOM      8  C2' I4B d   1       3.094   2.509   0.922  0.00  0.00    -0.013 C 
ATOM      9  C4' I4B d   1       3.233   1.545   2.070  0.00  0.00     0.013 C 
ATOM     10  C3' I4B d   1       3.555   1.890  -0.364  0.00  0.00     0.013 C 
ENDBRANCH   7   8
ENDBRANCH   1   7
TORSDOF 2
ENDMDL
