MODEL 1
REMARK minimizedAffinity -4.72206831
REMARK minimizedRMSD -1
REMARK  2 active torsions:
REMARK  status: ('A' for Active; 'I' for Inactive)
REMARK    1  A    between atoms: C2'_3  and  C1'_4 
REMARK    2  A    between atoms: C1'_4  and  C1_5 
ROOT
ATOM      1  C1  I4B d   1       1.264   1.313   0.239  0.00  0.00    -0.075 A 
ATOM      2  C2  I4B d   1       1.111   2.483   0.940  0.00  0.00     0.003 A 
ATOM      3  C3  I4B d   1       2.213   3.054   1.621  0.00  0.00     0.002 A 
ATOM      4  C4  I4B d   1       3.428   2.401   1.617  0.00  0.00    -0.004 A 
ATOM      5  C5  I4B d   1       3.587   1.226   0.887  0.00  0.00     0.002 A 
ATOM      6  C6  I4B d   1       2.501   0.685   0.183  0.00  0.00     0.003 A 
ENDROOT
BRANCH   1   7
ATOM      7  C1' I4B d   1       0.071   0.720  -0.442  0.00  0.00     0.060 C 
BRANCH   7   8
ATOM      8  C2' I4B d   1      -0.264  -0.583   0.255  0.00  0.00    -0.013 C 
ATOM      9  C4' I4B d   1      -1.054  -0.341   1.514  0.00  0.00     0.013 C 
ATOM     10  C3' I4B d   1      -1.031  -1.440  -0.708  0.00  0.00     0.013 C 
ENDBRANCH   7   8
ENDBRANCH   1   7
TORSDOF 2
ENDMDL
