MODEL 1
REMARK minimizedAffinity -1.08940101
REMARK minimizedRMSD -1
REMARK  2 active torsions:
REMARK  status: ('A' for Active; 'I' for Inactive)
REMARK    1  A    between atoms: C2'_3  and  C1'_4 
REMARK    2  A    between atoms: C1'_4  and  C1_5 
ROOT
ATOM      1  C1  I4B d   1       0.887   1.082   0.276  0.00  0.00    -0.075 A 
ATOM      2  C2  I4B d   1       1.061   0.253  -0.804  0.00  0.00     0.003 A 
ATOM      3  C3  I4B d   1       0.135  -0.787  -1.060  0.00  0.00     0.002 A 
ATOM      4  C4  I4B d   1      -0.916  -0.991  -0.189  0.00  0.00    -0.004 A 
ATOM      5  C5  I4B d   1      -1.103  -0.135   0.892  0.00  0.00     0.002 A 
ATOM      6  C6  I4B d   1      -0.203   0.916   1.119  0.00  0.00     0.003 A 
ENDROOT
BRANCH   1   7
ATOM      7  C1' I4B d   1       1.903   2.149   0.536  0.00  0.00     0.060 C 
BRANCH   7   8
ATOM      8  C2' I4B d   1       1.646   2.712   1.919  0.00  0.00    -0.013 C 
ATOM      9  C4' I4B d   1       1.981   1.705   2.988  0.00  0.00     0.013 C 
ATOM     10  C3' I4B d   1       2.466   3.958   2.072  0.00  0.00     0.013 C 
ENDBRANCH   7   8
ENDBRANCH   1   7
TORSDOF 2
ENDMDL
