MODEL 1
REMARK minimizedAffinity -6.01090431
REMARK minimizedRMSD -1
REMARK  2 active torsions:
REMARK  status: ('A' for Active; 'I' for Inactive)
REMARK    1  A    between atoms: C2'_3  and  C1'_4 
REMARK    2  A    between atoms: C1'_4  and  C1_5 
ROOT
ATOM      1  C1  I4B d   1       1.072   1.080  -0.080  0.00  0.00    -0.075 A 
ATOM      2  C2  I4B d   1       2.434   0.915  -0.047  0.00  0.00     0.003 A 
ATOM      3  C3  I4B d   1       3.232   1.735   0.788  0.00  0.00     0.002 A 
ATOM      4  C4  I4B d   1       2.635   2.734   1.529  0.00  0.00    -0.004 A 
ATOM      5  C5  I4B d   1       1.251   2.885   1.512  0.00  0.00     0.002 A 
ATOM      6  C6  I4B d   1       0.463   2.045   0.712  0.00  0.00     0.003 A 
ENDROOT
BRANCH   1   7
ATOM      7  C1' I4B d   1       0.264   0.219  -0.998  0.00  0.00     0.060 C 
BRANCH   7   8
ATOM      8  C2' I4B d   1      -0.434  -0.831  -0.158  0.00  0.00    -0.013 C 
ATOM      9  C4' I4B d   1      -0.942  -0.247   1.134  0.00  0.00     0.013 C 
ATOM     10  C3' I4B d   1      -1.557  -1.404  -0.972  0.00  0.00     0.013 C 
ENDBRANCH   7   8
ENDBRANCH   1   7
TORSDOF 2
ENDMDL
