MODEL 1
REMARK minimizedAffinity -2.98239517
REMARK minimizedRMSD -1
REMARK  2 active torsions:
REMARK  status: ('A' for Active; 'I' for Inactive)
REMARK    1  A    between atoms: C2'_3  and  C1'_4 
REMARK    2  A    between atoms: C1'_4  and  C1_5 
ROOT
ATOM      1  C1  I4B d   1       1.024   0.930  -0.063  0.00  0.00    -0.075 A 
ATOM      2  C2  I4B d   1       2.336   1.216   0.224  0.00  0.00     0.003 A 
ATOM      3  C3  I4B d   1       2.655   2.216   1.175  0.00  0.00     0.002 A 
ATOM      4  C4  I4B d   1       1.641   2.934   1.773  0.00  0.00    -0.004 A 
ATOM      5  C5  I4B d   1       0.311   2.626   1.498  0.00  0.00     0.002 A 
ATOM      6  C6  I4B d   1       0.000   1.610   0.583  0.00  0.00     0.003 A 
ENDROOT
BRANCH   1   7
ATOM      7  C1' I4B d   1       0.723  -0.109  -1.097  0.00  0.00     0.060 C 
BRANCH   7   8
ATOM      8  C2' I4B d   1      -0.521  -0.855  -0.660  0.00  0.00    -0.013 C 
ATOM      9  C4' I4B d   1      -1.341  -1.289  -1.846  0.00  0.00     0.013 C 
ATOM     10  C3' I4B d   1      -0.090  -2.033   0.161  0.00  0.00     0.013 C 
ENDBRANCH   7   8
ENDBRANCH   1   7
TORSDOF 2
ENDMDL
