MODEL 1
REMARK minimizedAffinity -0.27437523
REMARK minimizedRMSD -1
REMARK  2 active torsions:
REMARK  status: ('A' for Active; 'I' for Inactive)
REMARK    1  A    between atoms: C2'_3  and  C1'_4 
REMARK    2  A    between atoms: C1'_4  and  C1_5 
ROOT
ATOM      1  C1  I4B d   1       0.327  -0.655  -0.579  0.00  0.00    -0.075 A 
ATOM      2  C2  I4B d   1       1.530  -0.128  -0.980  0.00  0.00     0.003 A 
ATOM      3  C3  I4B d   1       1.990   1.095  -0.435  0.00  0.00     0.002 A 
ATOM      4  C4  I4B d   1       1.197   1.780   0.463  0.00  0.00    -0.004 A 
ATOM      5  C5  I4B d   1      -0.012   1.233   0.886  0.00  0.00     0.002 A 
ATOM      6  C6  I4B d   1      -0.444   0.002   0.371  0.00  0.00     0.003 A 
ENDROOT
BRANCH   1   7
ATOM      7  C1' I4B d   1      -0.143  -1.932  -1.199  0.00  0.00     0.060 C 
BRANCH   7   8
ATOM      8  C2' I4B d   1      -1.445  -1.649  -1.920  0.00  0.00    -0.013 C 
ATOM      9  C4' I4B d   1      -1.236  -1.559  -3.409  0.00  0.00     0.013 C 
ATOM     10  C3' I4B d   1      -2.412  -2.742  -1.574  0.00  0.00     0.013 C 
ENDBRANCH   7   8
ENDBRANCH   1   7
TORSDOF 2
ENDMDL
