MODEL 1
REMARK minimizedAffinity -5.17417479
REMARK minimizedRMSD -1
REMARK  2 active torsions:
REMARK  status: ('A' for Active; 'I' for Inactive)
REMARK    1  A    between atoms: C2'_3  and  C1'_4 
REMARK    2  A    between atoms: C1'_4  and  C1_5 
ROOT
ATOM      1  C1  I4B d   1       0.224   1.003   0.103  0.00  0.00    -0.075 A 
ATOM      2  C2  I4B d   1       0.275   1.997   1.049  0.00  0.00     0.003 A 
ATOM      3  C3  I4B d   1       1.522   2.525   1.462  0.00  0.00     0.002 A 
ATOM      4  C4  I4B d   1       2.688   2.000   0.943  0.00  0.00    -0.004 A 
ATOM      5  C5  I4B d   1       2.634   1.009  -0.032  0.00  0.00     0.002 A 
ATOM      6  C6  I4B d   1       1.394   0.516  -0.464  0.00  0.00     0.003 A 
ENDROOT
BRANCH   1   7
ATOM      7  C1' I4B d   1      -1.108   0.445  -0.285  0.00  0.00     0.060 C 
BRANCH   7   8
ATOM      8  C2' I4B d   1      -0.872  -0.696  -1.254  0.00  0.00    -0.013 C 
ATOM      9  C4' I4B d   1      -1.450  -1.984  -0.730  0.00  0.00     0.013 C 
ATOM     10  C3' I4B d   1      -1.486  -0.322  -2.569  0.00  0.00     0.013 C 
ENDBRANCH   7   8
ENDBRANCH   1   7
TORSDOF 2
ENDMDL
