MODEL 1
REMARK minimizedAffinity -4.8405714
REMARK minimizedRMSD -1
REMARK  2 active torsions:
REMARK  status: ('A' for Active; 'I' for Inactive)
REMARK    1  A    between atoms: C2'_3  and  C1'_4 
REMARK    2  A    between atoms: C1'_4  and  C1_5 
ROOT
ATOM      1  C1  I4B d   1       0.469   0.107   0.001  0.00  0.00    -0.075 A 
ATOM      2  C2  I4B d   1      -0.512   0.551   0.852  0.00  0.00     0.003 A 
ATOM      3  C3  I4B d   1      -0.342   1.763   1.565  0.00  0.00     0.002 A 
ATOM      4  C4  I4B d   1       0.837   2.467   1.436  0.00  0.00    -0.004 A 
ATOM      5  C5  I4B d   1       1.822   2.027   0.556  0.00  0.00     0.002 A 
ATOM      6  C6  I4B d   1       1.632   0.845  -0.175  0.00  0.00     0.003 A 
ENDROOT
BRANCH   1   7
ATOM      7  C1' I4B d   1       0.271  -1.194  -0.711  0.00  0.00     0.060 C 
BRANCH   7   8
ATOM      8  C2' I4B d   1      -1.072  -1.143  -1.410  0.00  0.00    -0.013 C 
ATOM      9  C4' I4B d   1      -0.906  -0.992  -2.900  0.00  0.00     0.013 C 
ATOM     10  C3' I4B d   1      -1.818  -2.400  -1.073  0.00  0.00     0.013 C 
ENDBRANCH   7   8
ENDBRANCH   1   7
TORSDOF 2
ENDMDL
