MODEL 1
REMARK minimizedAffinity -5.05558586
REMARK minimizedRMSD -1
REMARK  2 active torsions:
REMARK  status: ('A' for Active; 'I' for Inactive)
REMARK    1  A    between atoms: C2'_3  and  C1'_4 
REMARK    2  A    between atoms: C1'_4  and  C1_5 
ROOT
ATOM      1  C1  I4B d   1       0.041  -0.084   0.028  0.00  0.00    -0.075 A 
ATOM      2  C2  I4B d   1       1.152   0.705  -0.132  0.00  0.00     0.003 A 
ATOM      3  C3  I4B d   1       1.333   1.855   0.675  0.00  0.00     0.002 A 
ATOM      4  C4  I4B d   1       0.359   2.203   1.589  0.00  0.00    -0.004 A 
ATOM      5  C5  I4B d   1      -0.756   1.389   1.766  0.00  0.00     0.002 A 
ATOM      6  C6  I4B d   1      -0.911   0.231   0.990  0.00  0.00     0.003 A 
ENDROOT
BRANCH   1   7
ATOM      7  C1' I4B d   1      -0.134  -1.272  -0.864  0.00  0.00     0.060 C 
BRANCH   7   8
ATOM      8  C2' I4B d   1      -1.381  -1.051  -1.696  0.00  0.00    -0.013 C 
ATOM      9  C4' I4B d   1      -1.032  -0.719  -3.123  0.00  0.00     0.013 C 
ATOM     10  C3' I4B d   1      -2.216  -2.294  -1.618  0.00  0.00     0.013 C 
ENDBRANCH   7   8
ENDBRANCH   1   7
TORSDOF 2
ENDMDL
