MODEL 1
REMARK minimizedAffinity -5.68357086
REMARK minimizedRMSD -1
REMARK  2 active torsions:
REMARK  status: ('A' for Active; 'I' for Inactive)
REMARK    1  A    between atoms: C2'_3  and  C1'_4 
REMARK    2  A    between atoms: C1'_4  and  C1_5 
ROOT
ATOM      1  C1  I4B d   1       1.513   1.954   0.813  0.00  0.00    -0.075 A 
ATOM      2  C2  I4B d   1       1.033   0.716   0.463  0.00  0.00     0.003 A 
ATOM      3  C3  I4B d   1      -0.318   0.378   0.717  0.00  0.00     0.002 A 
ATOM      4  C4  I4B d   1      -1.136   1.283   1.362  0.00  0.00    -0.004 A 
ATOM      5  C5  I4B d   1      -0.654   2.545   1.695  0.00  0.00     0.002 A 
ATOM      6  C6  I4B d   1       0.675   2.888   1.408  0.00  0.00     0.003 A 
ENDROOT
BRANCH   1   7
ATOM      7  C1' I4B d   1       2.954   2.267   0.561  0.00  0.00     0.060 C 
BRANCH   7   8
ATOM      8  C2' I4B d   1       3.576   1.072  -0.134  0.00  0.00    -0.013 C 
ATOM      9  C4' I4B d   1       4.382   1.498  -1.333  0.00  0.00     0.013 C 
ATOM     10  C3' I4B d   1       4.430   0.349   0.864  0.00  0.00     0.013 C 
ENDBRANCH   7   8
ENDBRANCH   1   7
TORSDOF 2
ENDMDL
