MODEL 1
REMARK minimizedAffinity -5.72208881
REMARK minimizedRMSD -1
REMARK  2 active torsions:
REMARK  status: ('A' for Active; 'I' for Inactive)
REMARK    1  A    between atoms: C2'_3  and  C1'_4 
REMARK    2  A    between atoms: C1'_4  and  C1_5 
ROOT
ATOM      1  C1  I4B d   1       0.835   1.036   0.455  0.00  0.00    -0.075 A 
ATOM      2  C2  I4B d   1       0.652   2.159   1.223  0.00  0.00     0.003 A 
ATOM      3  C3  I4B d   1       1.759   2.964   1.585  0.00  0.00     0.002 A 
ATOM      4  C4  I4B d   1       3.029   2.584   1.203  0.00  0.00    -0.004 A 
ATOM      5  C5  I4B d   1       3.211   1.458   0.405  0.00  0.00     0.002 A 
ATOM      6  C6  I4B d   1       2.106   0.686   0.018  0.00  0.00     0.003 A 
ENDROOT
BRANCH   1   7
ATOM      7  C1' I4B d   1      -0.353   0.191   0.118  0.00  0.00     0.060 C 
BRANCH   7   8
ATOM      8  C2' I4B d   1       0.077  -0.824  -0.921  0.00  0.00    -0.013 C 
ATOM      9  C4' I4B d   1       0.611  -2.074  -0.274  0.00  0.00     0.013 C 
ATOM     10  C3' I4B d   1      -1.108  -1.128  -1.788  0.00  0.00     0.013 C 
ENDBRANCH   7   8
ENDBRANCH   1   7
TORSDOF 2
ENDMDL
