MODEL 1
REMARK minimizedAffinity -3.38837194
REMARK minimizedRMSD -1
REMARK  2 active torsions:
REMARK  status: ('A' for Active; 'I' for Inactive)
REMARK    1  A    between atoms: C2'_3  and  C1'_4 
REMARK    2  A    between atoms: C1'_4  and  C1_5 
ROOT
ATOM      1  C1  I4B d   1       0.718   1.770   0.531  0.00  0.00    -0.075 A 
ATOM      2  C2  I4B d   1       0.884   2.934   1.239  0.00  0.00     0.003 A 
ATOM      3  C3  I4B d   1       2.185   3.400   1.549  0.00  0.00     0.002 A 
ATOM      4  C4  I4B d   1       3.282   2.650   1.178  0.00  0.00    -0.004 A 
ATOM      5  C5  I4B d   1       3.113   1.482   0.440  0.00  0.00     0.002 A 
ATOM      6  C6  I4B d   1       1.823   1.045   0.104  0.00  0.00     0.003 A 
ENDROOT
BRANCH   1   7
ATOM      7  C1' I4B d   1      -0.670   1.290   0.249  0.00  0.00     0.060 C 
BRANCH   7   8
ATOM      8  C2' I4B d   1      -0.798  -0.117   0.797  0.00  0.00    -0.013 C 
ATOM      9  C4' I4B d   1      -1.879  -0.199   1.842  0.00  0.00     0.013 C 
ATOM     10  C3' I4B d   1      -1.083  -1.038  -0.352  0.00  0.00     0.013 C 
ENDBRANCH   7   8
ENDBRANCH   1   7
TORSDOF 2
ENDMDL
