MODEL 1
REMARK minimizedAffinity 17.7045574
REMARK minimizedRMSD -1
REMARK  1 active torsions:
REMARK  status: ('A' for Active; 'I' for Inactive)
REMARK    1  A    between atoms: C1_2  and  C2_3 
ROOT
ATOM      1  C2  UNL d   1      -3.458   3.612   5.292  0.00  0.00    -0.081 A 
ATOM      2  C3  UNL d   1      -3.764   3.506   3.929  0.00  0.00     0.006 A 
ATOM      3  C4  UNL d   1      -3.729   2.265   3.290  0.00  0.00     0.002 A 
ATOM      4  C5  UNL d   1      -3.395   1.108   4.002  0.00  0.00    -0.080 A 
ATOM      5  C6  UNL d   1      -3.383  -0.234   3.334  0.00  0.00     0.076 C 
ATOM      6  C7  UNL d   1      -3.073   1.216   5.359  0.00  0.00     0.002 A 
ATOM      7  C8  UNL d   1      -3.107   2.457   5.999  0.00  0.00     0.006 A 
ENDROOT
BRANCH   1   8
ATOM      8  C1  UNL d   1      -3.558   4.939   6.000  0.00  0.00     0.054 C 
ATOM      9  C   UNL d   1      -4.986   5.464   5.992  0.00  0.00     0.018 C 
ENDBRANCH   1   8
TORSDOF 1
ENDMDL
