MODEL 1
REMARK minimizedAffinity 12.2753916
REMARK minimizedRMSD -1
REMARK  1 active torsions:
REMARK  status: ('A' for Active; 'I' for Inactive)
REMARK    1  A    between atoms: C1_2  and  C2_3 
ROOT
ATOM      1  C2  UNL d   1       2.632  -4.622   0.351  0.00  0.00    -0.081 A 
ATOM      2  C3  UNL d   1       3.559  -3.623   0.672  0.00  0.00     0.006 A 
ATOM      3  C4  UNL d   1       3.126  -2.365   1.097  0.00  0.00     0.002 A 
ATOM      4  C5  UNL d   1       1.760  -2.088   1.216  0.00  0.00    -0.080 A 
ATOM      5  C6  UNL d   1       1.281  -0.751   1.701  0.00  0.00     0.076 C 
ATOM      6  C7  UNL d   1       0.833  -3.080   0.879  0.00  0.00     0.002 A 
ATOM      7  C8  UNL d   1       1.266  -4.338   0.453  0.00  0.00     0.006 A 
ENDROOT
BRANCH   1   8
ATOM      8  C1  UNL d   1       3.097  -6.000  -0.047  0.00  0.00     0.054 C 
ATOM      9  C   UNL d   1       4.540  -5.979  -0.529  0.00  0.00     0.018 C 
ENDBRANCH   1   8
TORSDOF 1
ENDMDL
