MODEL 1
REMARK minimizedAffinity 8.87260818
REMARK minimizedRMSD -1
REMARK  1 active torsions:
REMARK  status: ('A' for Active; 'I' for Inactive)
REMARK    1  A    between atoms: C1_2  and  C2_3 
ROOT
ATOM      1  C2  UNL d   1       1.297  -2.244   1.485  0.00  0.00    -0.081 A 
ATOM      2  C3  UNL d   1      -0.031  -2.671   1.365  0.00  0.00     0.006 A 
ATOM      3  C4  UNL d   1      -1.031  -2.107   2.160  0.00  0.00     0.002 A 
ATOM      4  C5  UNL d   1      -0.722  -1.102   3.083  0.00  0.00    -0.080 A 
ATOM      5  C6  UNL d   1      -1.792  -0.467   3.921  0.00  0.00     0.076 C 
ATOM      6  C7  UNL d   1       0.607  -0.687   3.216  0.00  0.00     0.002 A 
ATOM      7  C8  UNL d   1       1.608  -1.251   2.421  0.00  0.00     0.006 A 
ENDROOT
BRANCH   1   8
ATOM      8  C1  UNL d   1       2.367  -2.804   0.584  0.00  0.00     0.054 C 
ATOM      9  C   UNL d   1       2.115  -4.272   0.272  0.00  0.00     0.018 C 
ENDBRANCH   1   8
TORSDOF 1
ENDMDL
