MODEL 1
REMARK minimizedAffinity 12.1850986
REMARK minimizedRMSD -1
REMARK  1 active torsions:
REMARK  status: ('A' for Active; 'I' for Inactive)
REMARK    1  A    between atoms: C1_2  and  C2_3 
ROOT
ATOM      1  C2  UNL d   1       2.732  -2.044   1.564  0.00  0.00    -0.081 A 
ATOM      2  C3  UNL d   1       2.209  -3.112   0.824  0.00  0.00     0.006 A 
ATOM      3  C4  UNL d   1       1.129  -2.914  -0.040  0.00  0.00     0.002 A 
ATOM      4  C5  UNL d   1       0.560  -1.644  -0.184  0.00  0.00    -0.080 A 
ATOM      5  C6  UNL d   1      -0.580  -1.411  -1.130  0.00  0.00     0.076 C 
ATOM      6  C7  UNL d   1       1.071  -0.581   0.568  0.00  0.00     0.002 A 
ATOM      7  C8  UNL d   1       2.150  -0.779   1.432  0.00  0.00     0.006 A 
ENDROOT
BRANCH   1   8
ATOM      8  C1  UNL d   1       3.937  -2.242   2.447  0.00  0.00     0.054 C 
ATOM      9  C   UNL d   1       3.611  -1.942   3.903  0.00  0.00     0.018 C 
ENDBRANCH   1   8
TORSDOF 1
ENDMDL
