MODEL 1
REMARK minimizedAffinity 11.234726
REMARK minimizedRMSD -1
REMARK  1 active torsions:
REMARK  status: ('A' for Active; 'I' for Inactive)
REMARK    1  A    between atoms: C1_2  and  C2_3 
ROOT
ATOM      1  C2  UNL d   1       3.631  -2.575   4.510  0.00  0.00    -0.081 A 
ATOM      2  C3  UNL d   1       4.676  -2.368   5.420  0.00  0.00     0.006 A 
ATOM      3  C4  UNL d   1       5.418  -3.448   5.904  0.00  0.00     0.002 A 
ATOM      4  C5  UNL d   1       5.133  -4.751   5.481  0.00  0.00    -0.080 A 
ATOM      5  C6  UNL d   1       5.942  -5.916   5.970  0.00  0.00     0.076 C 
ATOM      6  C7  UNL d   1       4.078  -4.959   4.586  0.00  0.00     0.002 A 
ATOM      7  C8  UNL d   1       3.336  -3.880   4.102  0.00  0.00     0.006 A 
ENDROOT
BRANCH   1   8
ATOM      8  C1  UNL d   1       2.872  -1.406   3.937  0.00  0.00     0.054 C 
ATOM      9  C   UNL d   1       2.227  -1.764   2.605  0.00  0.00     0.018 C 
ENDBRANCH   1   8
TORSDOF 1
ENDMDL
