MODEL 1
REMARK minimizedAffinity 10.511775
REMARK minimizedRMSD -1
REMARK  1 active torsions:
REMARK  status: ('A' for Active; 'I' for Inactive)
REMARK    1  A    between atoms: C1_2  and  C2_3 
ROOT
ATOM      1  C2  UNL d   1      -5.297   1.315  -4.484  0.00  0.00    -0.081 A 
ATOM      2  C3  UNL d   1      -4.146   1.571  -3.729  0.00  0.00     0.006 A 
ATOM      3  C4  UNL d   1      -3.694   2.881  -3.549  0.00  0.00     0.002 A 
ATOM      4  C5  UNL d   1      -4.390   3.955  -4.113  0.00  0.00    -0.080 A 
ATOM      5  C6  UNL d   1      -3.933   5.368  -3.902  0.00  0.00     0.076 C 
ATOM      6  C7  UNL d   1      -5.530   3.698  -4.882  0.00  0.00     0.002 A 
ATOM      7  C8  UNL d   1      -5.982   2.389  -5.063  0.00  0.00     0.006 A 
ENDROOT
BRANCH   1   8
ATOM      8  C1  UNL d   1      -5.823  -0.091  -4.626  0.00  0.00     0.054 C 
ATOM      9  C   UNL d   1      -5.361  -0.725  -5.931  0.00  0.00     0.018 C 
ENDBRANCH   1   8
TORSDOF 1
ENDMDL
