MODEL 1
REMARK minimizedAffinity 18.3584938
REMARK minimizedRMSD -1
REMARK  1 active torsions:
REMARK  status: ('A' for Active; 'I' for Inactive)
REMARK    1  A    between atoms: C1_2  and  C2_3 
ROOT
ATOM      1  C2  UNL d   1       3.795  -2.009   4.246  0.00  0.00    -0.081 A 
ATOM      2  C3  UNL d   1       2.546  -1.409   4.040  0.00  0.00     0.006 A 
ATOM      3  C4  UNL d   1       1.941  -1.446   2.781  0.00  0.00     0.002 A 
ATOM      4  C5  UNL d   1       2.570  -2.091   1.711  0.00  0.00    -0.080 A 
ATOM      5  C6  UNL d   1       1.917  -2.165   0.362  0.00  0.00     0.076 C 
ATOM      6  C7  UNL d   1       3.825  -2.676   1.912  0.00  0.00     0.002 A 
ATOM      7  C8  UNL d   1       4.430  -2.638   3.169  0.00  0.00     0.006 A 
ENDROOT
BRANCH   1   8
ATOM      8  C1  UNL d   1       4.420  -2.026   5.617  0.00  0.00     0.054 C 
ATOM      9  C   UNL d   1       5.940  -2.038   5.532  0.00  0.00     0.018 C 
ENDBRANCH   1   8
TORSDOF 1
ENDMDL
