MODEL 1
REMARK minimizedAffinity 5.40433645
REMARK minimizedRMSD -1
REMARK  1 active torsions:
REMARK  status: ('A' for Active; 'I' for Inactive)
REMARK    1  A    between atoms: C1_2  and  C2_3 
ROOT
ATOM      1  C2  UNL d   1       1.629   4.925  -5.081  0.00  0.00    -0.081 A 
ATOM      2  C3  UNL d   1       2.227   5.995  -5.759  0.00  0.00     0.006 A 
ATOM      3  C4  UNL d   1       3.603   5.999  -6.000  0.00  0.00     0.002 A 
ATOM      4  C5  UNL d   1       4.402   4.933  -5.575  0.00  0.00    -0.080 A 
ATOM      5  C6  UNL d   1       5.875   4.911  -5.854  0.00  0.00     0.076 C 
ATOM      6  C7  UNL d   1       3.807   3.873  -4.882  0.00  0.00     0.002 A 
ATOM      7  C8  UNL d   1       2.431   3.868  -4.640  0.00  0.00     0.006 A 
ENDROOT
BRANCH   1   8
ATOM      8  C1  UNL d   1       0.136   4.886  -4.876  0.00  0.00     0.054 C 
ATOM      9  C   UNL d   1      -0.241   3.969  -3.722  0.00  0.00     0.018 C 
ENDBRANCH   1   8
TORSDOF 1
ENDMDL
