MODEL 1
REMARK minimizedAffinity 11.7359638
REMARK minimizedRMSD -1
REMARK  1 active torsions:
REMARK  status: ('A' for Active; 'I' for Inactive)
REMARK    1  A    between atoms: C1_2  and  C2_3 
ROOT
ATOM      1  C2  UNL d   1       4.367   4.633  -5.341  0.00  0.00    -0.081 A 
ATOM      2  C3  UNL d   1       5.572   4.128  -5.844  0.00  0.00     0.006 A 
ATOM      3  C4  UNL d   1       5.995   2.840  -5.507  0.00  0.00     0.002 A 
ATOM      4  C5  UNL d   1       5.218   2.034  -4.669  0.00  0.00    -0.080 A 
ATOM      5  C6  UNL d   1       5.646   0.638  -4.325  0.00  0.00     0.076 C 
ATOM      6  C7  UNL d   1       4.023   2.545  -4.152  0.00  0.00     0.002 A 
ATOM      7  C8  UNL d   1       3.600   3.833  -4.488  0.00  0.00     0.006 A 
ENDROOT
BRANCH   1   8
ATOM      8  C1  UNL d   1       3.877   5.998  -5.753  0.00  0.00     0.054 C 
ATOM      9  C   UNL d   1       2.375   5.994  -5.998  0.00  0.00     0.018 C 
ENDBRANCH   1   8
TORSDOF 1
ENDMDL
