MODEL 1
REMARK minimizedAffinity -3.54050589
REMARK minimizedRMSD -1
REMARK  1 active torsions:
REMARK  status: ('A' for Active; 'I' for Inactive)
REMARK    1  A    between atoms: C1_2  and  C2_3 
ROOT
ATOM      1  C2  UNL d   1      -0.298   0.192   0.003  0.00  0.00    -0.077 A 
ATOM      2  C3  UNL d   1      -0.999   1.200  -0.674  0.00  0.00     0.002 A 
ATOM      3  C4  UNL d   1      -1.900   2.017   0.012  0.00  0.00     0.002 A 
ATOM      4  C5  UNL d   1      -2.106   1.837   1.378  0.00  0.00    -0.004 A 
ATOM      5  C6  UNL d   1      -1.415   0.836   2.060  0.00  0.00     0.002 A 
ATOM      6  C7  UNL d   1      -0.515   0.018   1.376  0.00  0.00     0.002 A 
ENDROOT
BRANCH   1   7
ATOM      7  C1  UNL d   1       0.710  -0.657  -0.725  0.00  0.00     0.055 C 
ATOM      8  C   UNL d   1       0.032  -1.759  -1.525  0.00  0.00     0.019 C 
ENDBRANCH   1   7
TORSDOF 1
ENDMDL
