MODEL 1
REMARK minimizedAffinity -6.07413483
REMARK minimizedRMSD -1
REMARK  1 active torsions:
REMARK  status: ('A' for Active; 'I' for Inactive)
REMARK    1  A    between atoms: C1_2  and  C2_3 
ROOT
ATOM      1  C2  UNL d   1       0.008   0.153  -0.265  0.00  0.00    -0.077 A 
ATOM      2  C3  UNL d   1      -0.368   1.408  -0.763  0.00  0.00     0.002 A 
ATOM      3  C4  UNL d   1      -1.144   2.272   0.013  0.00  0.00     0.002 A 
ATOM      4  C5  UNL d   1      -1.547   1.891   1.291  0.00  0.00    -0.004 A 
ATOM      5  C6  UNL d   1      -1.180   0.644   1.794  0.00  0.00     0.002 A 
ATOM      6  C7  UNL d   1      -0.405  -0.221   1.020  0.00  0.00     0.002 A 
ENDROOT
BRANCH   1   7
ATOM      7  C1  UNL d   1       0.886  -0.760  -1.080  0.00  0.00     0.055 C 
ATOM      8  C   UNL d   1       0.120  -1.985  -1.557  0.00  0.00     0.019 C 
ENDBRANCH   1   7
TORSDOF 1
ENDMDL
