MODEL 1
REMARK minimizedAffinity -5.7078228
REMARK minimizedRMSD -1
REMARK  1 active torsions:
REMARK  status: ('A' for Active; 'I' for Inactive)
REMARK    1  A    between atoms: C1_2  and  C2_3 
ROOT
ATOM      1  C2  UNL d   1       0.387   0.354   0.284  0.00  0.00    -0.077 A 
ATOM      2  C3  UNL d   1      -0.169   1.577  -0.117  0.00  0.00     0.002 A 
ATOM      3  C4  UNL d   1      -1.265   2.111   0.563  0.00  0.00     0.002 A 
ATOM      4  C5  UNL d   1      -1.812   1.432   1.649  0.00  0.00    -0.004 A 
ATOM      5  C6  UNL d   1      -1.268   0.214   2.055  0.00  0.00     0.002 A 
ATOM      6  C7  UNL d   1      -0.173  -0.322   1.376  0.00  0.00     0.002 A 
ENDROOT
BRANCH   1   7
ATOM      7  C1  UNL d   1       1.600  -0.200  -0.416  0.00  0.00     0.055 C 
ATOM      8  C   UNL d   1       1.304  -1.550  -1.052  0.00  0.00     0.019 C 
ENDBRANCH   1   7
TORSDOF 1
ENDMDL
