MODEL 1
REMARK minimizedAffinity -4.82224703
REMARK minimizedRMSD -1
REMARK  1 active torsions:
REMARK  status: ('A' for Active; 'I' for Inactive)
REMARK    1  A    between atoms: C1_2  and  C2_3 
ROOT
ATOM      1  C2  UNL d   1      -0.097  -0.094  -0.049  0.00  0.00    -0.077 A 
ATOM      2  C3  UNL d   1      -0.369   1.103  -0.725  0.00  0.00     0.002 A 
ATOM      3  C4  UNL d   1      -1.191   2.071  -0.144  0.00  0.00     0.002 A 
ATOM      4  C5  UNL d   1      -1.743   1.853   1.117  0.00  0.00    -0.004 A 
ATOM      5  C6  UNL d   1      -1.480   0.664   1.796  0.00  0.00     0.002 A 
ATOM      6  C7  UNL d   1      -0.660  -0.305   1.216  0.00  0.00     0.002 A 
ENDROOT
BRANCH   1   7
ATOM      7  C1  UNL d   1       0.828  -1.118  -0.653  0.00  0.00     0.055 C 
ATOM      8  C   UNL d   1       0.136  -1.911  -1.752  0.00  0.00     0.019 C 
ENDBRANCH   1   7
TORSDOF 1
ENDMDL
