MODEL 1
REMARK minimizedAffinity -1.66894972
REMARK minimizedRMSD -1
REMARK  1 active torsions:
REMARK  status: ('A' for Active; 'I' for Inactive)
REMARK    1  A    between atoms: C1_2  and  C2_3 
ROOT
ATOM      1  C2  UNL d   1       0.550  -0.761  -0.939  0.00  0.00    -0.077 A 
ATOM      2  C3  UNL d   1       0.589  -1.380   0.318  0.00  0.00     0.002 A 
ATOM      3  C4  UNL d   1       0.006  -0.763   1.427  0.00  0.00     0.002 A 
ATOM      4  C5  UNL d   1      -0.623   0.472   1.289  0.00  0.00    -0.004 A 
ATOM      5  C6  UNL d   1      -0.666   1.097   0.043  0.00  0.00     0.002 A 
ATOM      6  C7  UNL d   1      -0.083   0.482  -1.066  0.00  0.00     0.002 A 
ENDROOT
BRANCH   1   7
ATOM      7  C1  UNL d   1       1.134  -1.447  -2.146  0.00  0.00     0.055 C 
ATOM      8  C   UNL d   1       0.457  -2.785  -2.404  0.00  0.00     0.019 C 
ENDBRANCH   1   7
TORSDOF 1
ENDMDL
