MODEL 1
REMARK minimizedAffinity -5.46739912
REMARK minimizedRMSD -1
REMARK  1 active torsions:
REMARK  status: ('A' for Active; 'I' for Inactive)
REMARK    1  A    between atoms: C1_2  and  C2_3 
ROOT
ATOM      1  C2  UNL d   1      -0.788   0.960   0.706  0.00  0.00    -0.077 A 
ATOM      2  C3  UNL d   1      -0.097  -0.260   0.703  0.00  0.00     0.002 A 
ATOM      3  C4  UNL d   1       0.933  -0.486  -0.212  0.00  0.00     0.002 A 
ATOM      4  C5  UNL d   1       1.283   0.503  -1.128  0.00  0.00    -0.004 A 
ATOM      5  C6  UNL d   1       0.601   1.719  -1.135  0.00  0.00     0.002 A 
ATOM      6  C7  UNL d   1      -0.429   1.947  -0.222  0.00  0.00     0.002 A 
ENDROOT
BRANCH   1   7
ATOM      7  C1  UNL d   1      -1.866   1.225   1.724  0.00  0.00     0.055 C 
ATOM      8  C   UNL d   1      -2.348   2.667   1.658  0.00  0.00     0.019 C 
ENDBRANCH   1   7
TORSDOF 1
ENDMDL
