MODEL 1
REMARK minimizedAffinity -6.09368181
REMARK minimizedRMSD -1
REMARK  1 active torsions:
REMARK  status: ('A' for Active; 'I' for Inactive)
REMARK    1  A    between atoms: C1_2  and  C2_3 
ROOT
ATOM      1  C2  UNL d   1      -0.209   0.166   0.097  0.00  0.00    -0.077 A 
ATOM      2  C3  UNL d   1      -0.613  -0.113   1.411  0.00  0.00     0.002 A 
ATOM      3  C4  UNL d   1      -1.625   0.637   2.013  0.00  0.00     0.002 A 
ATOM      4  C5  UNL d   1      -2.244   1.667   1.308  0.00  0.00    -0.004 A 
ATOM      5  C6  UNL d   1      -1.848   1.953   0.002  0.00  0.00     0.002 A 
ATOM      6  C7  UNL d   1      -0.836   1.206  -0.601  0.00  0.00     0.002 A 
ENDROOT
BRANCH   1   7
ATOM      7  C1  UNL d   1       0.849  -0.673  -0.571  0.00  0.00     0.055 C 
ATOM      8  C   UNL d   1       0.229  -1.720  -1.486  0.00  0.00     0.019 C 
ENDBRANCH   1   7
TORSDOF 1
ENDMDL
