MODEL 1
REMARK minimizedAffinity -4.92194796
REMARK minimizedRMSD -1
REMARK  1 active torsions:
REMARK  status: ('A' for Active; 'I' for Inactive)
REMARK    1  A    between atoms: C1_2  and  C2_3 
ROOT
ATOM      1  C2  UNL d   1       0.398   0.381  -0.455  0.00  0.00    -0.077 A 
ATOM      2  C3  UNL d   1       1.511   1.011  -1.029  0.00  0.00     0.002 A 
ATOM      3  C4  UNL d   1       1.386   2.275  -1.610  0.00  0.00     0.002 A 
ATOM      4  C5  UNL d   1       0.151   2.920  -1.618  0.00  0.00    -0.004 A 
ATOM      5  C6  UNL d   1      -0.962   2.301  -1.052  0.00  0.00     0.002 A 
ATOM      6  C7  UNL d   1      -0.839   1.037  -0.473  0.00  0.00     0.002 A 
ENDROOT
BRANCH   1   7
ATOM      7  C1  UNL d   1       0.542  -0.960   0.215  0.00  0.00     0.055 C 
ATOM      8  C   UNL d   1       0.228  -0.873   1.701  0.00  0.00     0.019 C 
ENDBRANCH   1   7
TORSDOF 1
ENDMDL
