MODEL 1
REMARK minimizedAffinity -2.65208507
REMARK minimizedRMSD -1
REMARK  1 active torsions:
REMARK  status: ('A' for Active; 'I' for Inactive)
REMARK    1  A    between atoms: C1_2  and  C2_3 
ROOT
ATOM      1  C2  UNL d   1      -0.811   0.675   1.180  0.00  0.00    -0.077 A 
ATOM      2  C3  UNL d   1      -0.225  -0.417   1.834  0.00  0.00     0.002 A 
ATOM      3  C4  UNL d   1       0.703  -1.222   1.171  0.00  0.00     0.002 A 
ATOM      4  C5  UNL d   1       1.056  -0.941  -0.148  0.00  0.00    -0.004 A 
ATOM      5  C6  UNL d   1       0.476   0.142  -0.807  0.00  0.00     0.002 A 
ATOM      6  C7  UNL d   1      -0.452   0.947  -0.146  0.00  0.00     0.002 A 
ENDROOT
BRANCH   1   7
ATOM      7  C1  UNL d   1      -1.775   1.574   1.910  0.00  0.00     0.055 C 
ATOM      8  C   UNL d   1      -1.544   3.036   1.556  0.00  0.00     0.019 C 
ENDBRANCH   1   7
TORSDOF 1
ENDMDL
