MODEL 1
REMARK minimizedAffinity -4.24953461
REMARK minimizedRMSD -1
REMARK  1 active torsions:
REMARK  status: ('A' for Active; 'I' for Inactive)
REMARK    1  A    between atoms: C1_2  and  C2_3 
ROOT
ATOM      1  C2  UNL d   1      -0.178   0.375   0.860  0.00  0.00    -0.077 A 
ATOM      2  C3  UNL d   1      -0.314   1.136   2.029  0.00  0.00     0.002 A 
ATOM      3  C4  UNL d   1      -1.237   2.183   2.087  0.00  0.00     0.002 A 
ATOM      4  C5  UNL d   1      -2.032   2.475   0.981  0.00  0.00    -0.004 A 
ATOM      5  C6  UNL d   1      -1.902   1.725  -0.187  0.00  0.00     0.002 A 
ATOM      6  C7  UNL d   1      -0.980   0.679  -0.247  0.00  0.00     0.002 A 
ENDROOT
BRANCH   1   7
ATOM      7  C1  UNL d   1       0.781  -0.786   0.812  0.00  0.00     0.055 C 
ATOM      8  C   UNL d   1       0.862  -1.493   2.157  0.00  0.00     0.019 C 
ENDBRANCH   1   7
TORSDOF 1
ENDMDL
