MODEL 1
REMARK minimizedAffinity -5.40745544
REMARK minimizedRMSD -1
REMARK  1 active torsions:
REMARK  status: ('A' for Active; 'I' for Inactive)
REMARK    1  A    between atoms: C1_2  and  C2_3 
ROOT
ATOM      1  C2  UNL d   1       0.257  -0.114  -0.144  0.00  0.00    -0.077 A 
ATOM      2  C3  UNL d   1      -0.601   0.940  -0.490  0.00  0.00     0.002 A 
ATOM      3  C4  UNL d   1      -1.473   1.480   0.457  0.00  0.00     0.002 A 
ATOM      4  C5  UNL d   1      -1.493   0.976   1.756  0.00  0.00    -0.004 A 
ATOM      5  C6  UNL d   1      -0.645  -0.073   2.109  0.00  0.00     0.002 A 
ATOM      6  C7  UNL d   1       0.227  -0.615   1.164  0.00  0.00     0.002 A 
ENDROOT
BRANCH   1   7
ATOM      7  C1  UNL d   1       1.233  -0.665  -1.150  0.00  0.00     0.055 C 
ATOM      8  C   UNL d   1       1.111  -2.177  -1.270  0.00  0.00     0.019 C 
ENDBRANCH   1   7
TORSDOF 1
ENDMDL
