MODEL 1
REMARK minimizedAffinity -4.36646223
REMARK minimizedRMSD -1
REMARK  1 active torsions:
REMARK  status: ('A' for Active; 'I' for Inactive)
REMARK    1  A    between atoms: C1_2  and  C2_3 
ROOT
ATOM      1  C2  UNL d   1      -0.437  -0.758   0.370  0.00  0.00    -0.077 A 
ATOM      2  C3  UNL d   1      -1.222  -1.493  -0.529  0.00  0.00     0.002 A 
ATOM      3  C4  UNL d   1      -0.655  -2.028  -1.687  0.00  0.00     0.002 A 
ATOM      4  C5  UNL d   1       0.699  -1.837  -1.955  0.00  0.00    -0.004 A 
ATOM      5  C6  UNL d   1       1.487  -1.105  -1.068  0.00  0.00     0.002 A 
ATOM      6  C7  UNL d   1       0.922  -0.569   0.090  0.00  0.00     0.002 A 
ENDROOT
BRANCH   1   7
ATOM      7  C1  UNL d   1      -1.035  -0.222   1.645  0.00  0.00     0.055 C 
ATOM      8  C   UNL d   1      -1.105   1.298   1.627  0.00  0.00     0.019 C 
ENDBRANCH   1   7
TORSDOF 1
ENDMDL
