MODEL 1
REMARK minimizedAffinity -3.73443699
REMARK minimizedRMSD -1
REMARK  1 active torsions:
REMARK  status: ('A' for Active; 'I' for Inactive)
REMARK    1  A    between atoms: C1_2  and  C2_3 
ROOT
ATOM      1  C2  UNL d   1      -0.133   0.153   0.481  0.00  0.00    -0.077 A 
ATOM      2  C3  UNL d   1      -0.910  -0.793   1.164  0.00  0.00     0.002 A 
ATOM      3  C4  UNL d   1      -1.737  -0.398   2.219  0.00  0.00     0.002 A 
ATOM      4  C5  UNL d   1      -1.796   0.942   2.596  0.00  0.00    -0.004 A 
ATOM      5  C6  UNL d   1      -1.025   1.889   1.924  0.00  0.00     0.002 A 
ATOM      6  C7  UNL d   1      -0.198   1.497   0.871  0.00  0.00     0.002 A 
ENDROOT
BRANCH   1   7
ATOM      7  C1  UNL d   1       0.722  -0.263  -0.688  0.00  0.00     0.055 C 
ATOM      8  C   UNL d   1       0.442  -1.702  -1.094  0.00  0.00     0.019 C 
ENDBRANCH   1   7
TORSDOF 1
ENDMDL
