MODEL 1
REMARK minimizedAffinity -1.89895356
REMARK minimizedRMSD -1
REMARK  0 active torsions:
REMARK  status: ('A' for Active; 'I' for Inactive)
ROOT
ATOM      1  C4' PXY d   1       0.778  -0.493  -2.479  0.00  0.00     0.077 C 
ATOM      2  C1' PXY d   1      -0.220   0.826   3.060  0.00  0.00     0.077 C 
ATOM      3  C1  PXY d   1       0.028   0.479   1.605  0.00  0.00    -0.082 A 
ATOM      4  C2  PXY d   1       1.176  -0.076   1.252  0.00  0.00     0.003 A 
ATOM      5  C3  PXY d   1       1.431  -0.367  -0.063  0.00  0.00     0.003 A 
ATOM      6  C4  PXY d   1       0.479  -0.135  -1.021  0.00  0.00    -0.082 A 
ATOM      7  C5  PXY d   1      -0.699   0.421  -0.667  0.00  0.00     0.003 A 
ATOM      8  C6  PXY d   1      -0.921   0.747   0.668  0.00  0.00     0.003 A 
ENDROOT
TORSDOF 0
ENDMDL
