MODEL 1
REMARK minimizedAffinity -4.33387661
REMARK minimizedRMSD -1
REMARK  0 active torsions:
REMARK  status: ('A' for Active; 'I' for Inactive)
ROOT
ATOM      1  C4' PXY d   1      -2.104  -0.325   3.879  0.00  0.00     0.077 C 
ATOM      2  C1' PXY d   1       0.619   0.323  -1.179  0.00  0.00     0.077 C 
ATOM      3  C1  PXY d   1      -0.105   0.160   0.143  0.00  0.00    -0.082 A 
ATOM      4  C2  PXY d   1       0.588  -0.092   1.241  0.00  0.00     0.003 A 
ATOM      5  C3  PXY d   1      -0.054  -0.274   2.439  0.00  0.00     0.003 A 
ATOM      6  C4  PXY d   1      -1.414  -0.143   2.524  0.00  0.00    -0.082 A 
ATOM      7  C5  PXY d   1      -2.127   0.125   1.409  0.00  0.00     0.003 A 
ATOM      8  C6  PXY d   1      -1.461   0.265   0.195  0.00  0.00     0.003 A 
ENDROOT
TORSDOF 0
ENDMDL
