MODEL 1
REMARK minimizedAffinity -4.95756912
REMARK minimizedRMSD -1
REMARK  0 active torsions:
REMARK  status: ('A' for Active; 'I' for Inactive)
ROOT
ATOM      1  C4' PXY d   1      -2.239   0.488   0.246  0.00  0.00     0.077 C 
ATOM      2  C1' PXY d   1       1.931  -1.193  -3.388  0.00  0.00     0.077 C 
ATOM      3  C1  PXY d   1       0.840  -0.740  -2.438  0.00  0.00    -0.082 A 
ATOM      4  C2  PXY d   1       0.492  -1.515  -1.424  0.00  0.00     0.003 A 
ATOM      5  C3  PXY d   1      -0.515  -1.135  -0.574  0.00  0.00     0.003 A 
ATOM      6  C4  PXY d   1      -1.136   0.075  -0.733  0.00  0.00    -0.082 A 
ATOM      7  C5  PXY d   1      -0.778   0.877  -1.758  0.00  0.00     0.003 A 
ATOM      8  C6  PXY d   1       0.218   0.454  -2.634  0.00  0.00     0.003 A 
ENDROOT
TORSDOF 0
ENDMDL
