MODEL 1
REMARK minimizedAffinity -1.86997497
REMARK minimizedRMSD -1
REMARK  0 active torsions:
REMARK  status: ('A' for Active; 'I' for Inactive)
ROOT
ATOM      1  C4' PXY d   1       0.865  -0.791  -2.821  0.00  0.00     0.077 C 
ATOM      2  C1' PXY d   1       0.018   0.617   2.721  0.00  0.00     0.077 C 
ATOM      3  C1  PXY d   1       0.229   0.254   1.265  0.00  0.00    -0.082 A 
ATOM      4  C2  PXY d   1       1.012  -0.766   0.952  0.00  0.00     0.003 A 
ATOM      5  C3  PXY d   1       1.239  -1.089  -0.361  0.00  0.00     0.003 A 
ATOM      6  C4  PXY d   1       0.616  -0.394  -1.363  0.00  0.00    -0.082 A 
ATOM      7  C5  PXY d   1      -0.192   0.642  -1.052  0.00  0.00     0.003 A 
ATOM      8  C6  PXY d   1      -0.377   0.979   0.286  0.00  0.00     0.003 A 
ENDROOT
TORSDOF 0
ENDMDL
