MODEL 1
REMARK minimizedAffinity -1.10875869
REMARK minimizedRMSD -1
REMARK  0 active torsions:
REMARK  status: ('A' for Active; 'I' for Inactive)
ROOT
ATOM      1  C4' PXY d   1       1.660  -1.556  -2.802  0.00  0.00     0.077 C 
ATOM      2  C1' PXY d   1       0.395   0.699   2.369  0.00  0.00     0.077 C 
ATOM      3  C1  PXY d   1       0.714   0.110   1.009  0.00  0.00    -0.082 A 
ATOM      4  C2  PXY d   1       1.701  -0.764   0.890  0.00  0.00     0.003 A 
ATOM      5  C3  PXY d   1       2.024  -1.282  -0.338  0.00  0.00     0.003 A 
ATOM      6  C4  PXY d   1       1.296  -0.943  -1.447  0.00  0.00    -0.082 A 
ATOM      7  C5  PXY d   1       0.281  -0.060  -1.332  0.00  0.00     0.003 A 
ATOM      8  C6  PXY d   1      -0.005   0.486  -0.084  0.00  0.00     0.003 A 
ENDROOT
TORSDOF 0
ENDMDL
