MODEL 1
REMARK minimizedAffinity 0.0402375907
REMARK minimizedRMSD -1
REMARK  0 active torsions:
REMARK  status: ('A' for Active; 'I' for Inactive)
ROOT
ATOM      1  C4' PXY d   1       0.446  -1.390  -2.837  0.00  0.00     0.077 C 
ATOM      2  C1' PXY d   1       0.661   0.591   2.589  0.00  0.00     0.077 C 
ATOM      3  C1  PXY d   1       0.595   0.080   1.163  0.00  0.00    -0.082 A 
ATOM      4  C2  PXY d   1       1.006  -1.148   0.888  0.00  0.00     0.003 A 
ATOM      5  C3  PXY d   1       0.983  -1.615  -0.401  0.00  0.00     0.003 A 
ATOM      6  C4  PXY d   1       0.485  -0.836  -1.411  0.00  0.00    -0.082 A 
ATOM      7  C5  PXY d   1       0.055   0.414  -1.137  0.00  0.00     0.003 A 
ATOM      8  C6  PXY d   1       0.125   0.884   0.171  0.00  0.00     0.003 A 
ENDROOT
TORSDOF 0
ENDMDL
