MODEL 1
REMARK minimizedAffinity -2.22798944
REMARK minimizedRMSD -1
REMARK  0 active torsions:
REMARK  status: ('A' for Active; 'I' for Inactive)
ROOT
ATOM      1  C4' PXY d   1      -1.281  -2.653  -0.856  0.00  0.00     0.077 C 
ATOM      2  C1' PXY d   1       2.680   0.532  -3.609  0.00  0.00     0.077 C 
ATOM      3  C1  PXY d   1       1.644  -0.297  -2.876  0.00  0.00    -0.082 A 
ATOM      4  C2  PXY d   1       1.323  -1.496  -3.333  0.00  0.00     0.003 A 
ATOM      5  C3  PXY d   1       0.364  -2.246  -2.700  0.00  0.00     0.003 A 
ATOM      6  C4  PXY d   1      -0.233  -1.785  -1.558  0.00  0.00    -0.082 A 
ATOM      7  C5  PXY d   1       0.097  -0.567  -1.080  0.00  0.00     0.003 A 
ATOM      8  C6  PXY d   1       1.042   0.196  -1.760  0.00  0.00     0.003 A 
ENDROOT
TORSDOF 0
ENDMDL
