MODEL 1
REMARK minimizedAffinity 5.99341488
REMARK minimizedRMSD -1
REMARK  0 active torsions:
REMARK  status: ('A' for Active; 'I' for Inactive)
ROOT
ATOM      1  C4' PXY d   1       0.473  -2.705   1.851  0.00  0.00     0.077 C 
ATOM      2  C1' PXY d   1       1.938   2.791   0.821  0.00  0.00     0.077 C 
ATOM      3  C1  PXY d   1       1.556   1.351   1.104  0.00  0.00    -0.082 A 
ATOM      4  C2  PXY d   1       1.675   0.443   0.149  0.00  0.00     0.003 A 
ATOM      5  C3  PXY d   1       1.304  -0.857   0.378  0.00  0.00     0.003 A 
ATOM      6  C4  PXY d   1       0.856  -1.242   1.613  0.00  0.00    -0.082 A 
ATOM      7  C5  PXY d   1       0.741  -0.323   2.595  0.00  0.00     0.003 A 
ATOM      8  C6  PXY d   1       1.085   0.999   2.330  0.00  0.00     0.003 A 
ENDROOT
TORSDOF 0
ENDMDL
