MODEL 1
REMARK minimizedAffinity 0.126266912
REMARK minimizedRMSD -1
REMARK  0 active torsions:
REMARK  status: ('A' for Active; 'I' for Inactive)
ROOT
ATOM      1  C4' PXY d   1      -1.645  -1.093  -1.115  0.00  0.00     0.077 C 
ATOM      2  C1' PXY d   1       3.477  -0.711  -3.769  0.00  0.00     0.077 C 
ATOM      3  C1  PXY d   1       2.129  -0.817  -3.083  0.00  0.00    -0.082 A 
ATOM      4  C2  PXY d   1       1.838  -0.002  -2.082  0.00  0.00     0.003 A 
ATOM      5  C3  PXY d   1       0.636  -0.105  -1.431  0.00  0.00     0.003 A 
ATOM      6  C4  PXY d   1      -0.299  -1.016  -1.843  0.00  0.00    -0.082 A 
ATOM      7  C5  PXY d   1      -0.014  -1.844  -2.870  0.00  0.00     0.003 A 
ATOM      8  C6  PXY d   1       1.228  -1.751  -3.491  0.00  0.00     0.003 A 
ENDROOT
TORSDOF 0
ENDMDL
