MODEL 1
REMARK minimizedAffinity -3.21114898
REMARK minimizedRMSD -1
REMARK  0 active torsions:
REMARK  status: ('A' for Active; 'I' for Inactive)
ROOT
ATOM      1  C4' PXY d   1       0.963  -0.329  -2.798  0.00  0.00     0.077 C 
ATOM      2  C1' PXY d   1      -0.051   0.644   2.809  0.00  0.00     0.077 C 
ATOM      3  C1  PXY d   1       0.202   0.391   1.336  0.00  0.00    -0.082 A 
ATOM      4  C2  PXY d   1       1.229  -0.359   0.968  0.00  0.00     0.003 A 
ATOM      5  C3  PXY d   1       1.491  -0.571  -0.361  0.00  0.00     0.003 A 
ATOM      6  C4  PXY d   1       0.664  -0.055  -1.321  0.00  0.00    -0.082 A 
ATOM      7  C5  PXY d   1      -0.392   0.702  -0.954  0.00  0.00     0.003 A 
ATOM      8  C6  PXY d   1      -0.617   0.940   0.399  0.00  0.00     0.003 A 
ENDROOT
TORSDOF 0
ENDMDL
