MODEL 1
REMARK minimizedAffinity -3.31785488
REMARK minimizedRMSD -1
REMARK  0 active torsions:
REMARK  status: ('A' for Active; 'I' for Inactive)
ROOT
ATOM      1  C4' PXY d   1       0.715  -0.293  -2.575  0.00  0.00     0.077 C 
ATOM      2  C1' PXY d   1      -0.037   0.717   3.066  0.00  0.00     0.077 C 
ATOM      3  C1  PXY d   1       0.147   0.451   1.585  0.00  0.00    -0.082 A 
ATOM      4  C2  PXY d   1       1.284  -0.067   1.150  0.00  0.00     0.003 A 
ATOM      5  C3  PXY d   1       1.480  -0.284  -0.190  0.00  0.00     0.003 A 
ATOM      6  C4  PXY d   1       0.481  -0.017  -1.088  0.00  0.00    -0.082 A 
ATOM      7  C5  PXY d   1      -0.686   0.502  -0.650  0.00  0.00     0.003 A 
ATOM      8  C6  PXY d   1      -0.849   0.753   0.709  0.00  0.00     0.003 A 
ENDROOT
TORSDOF 0
ENDMDL
