MODEL 1
REMARK minimizedAffinity -1.73751247
REMARK minimizedRMSD -1
REMARK  0 active torsions:
REMARK  status: ('A' for Active; 'I' for Inactive)
ROOT
ATOM      1  C4' PXY d   1      -2.593   0.505  -0.475  0.00  0.00     0.077 C 
ATOM      2  C1' PXY d   1       1.772  -2.286  -3.039  0.00  0.00     0.077 C 
ATOM      3  C1  PXY d   1       0.635  -1.550  -2.357  0.00  0.00    -0.082 A 
ATOM      4  C2  PXY d   1      -0.613  -1.933  -2.571  0.00  0.00     0.003 A 
ATOM      5  C3  PXY d   1      -1.655  -1.259  -1.987  0.00  0.00     0.003 A 
ATOM      6  C4  PXY d   1      -1.414  -0.215  -1.135  0.00  0.00    -0.082 A 
ATOM      7  C5  PXY d   1      -0.142   0.175  -0.904  0.00  0.00     0.003 A 
ATOM      8  C6  PXY d   1       0.899  -0.497  -1.538  0.00  0.00     0.003 A 
ENDROOT
TORSDOF 0
ENDMDL
