MODEL 1
REMARK minimizedAffinity 2.29693437
REMARK minimizedRMSD -1
REMARK  0 active torsions:
REMARK  status: ('A' for Active; 'I' for Inactive)
ROOT
ATOM      1  C4' PXY d   1       2.861   0.090   1.349  0.00  0.00     0.077 C 
ATOM      2  C1' PXY d   1      -2.623   0.605  -0.405  0.00  0.00     0.077 C 
ATOM      3  C1  PXY d   1      -1.187   0.477   0.066  0.00  0.00    -0.082 A 
ATOM      4  C2  PXY d   1      -0.231   0.224  -0.813  0.00  0.00     0.003 A 
ATOM      5  C3  PXY d   1       1.068   0.074  -0.400  0.00  0.00     0.003 A 
ATOM      6  C4  PXY d   1       1.399   0.237   0.918  0.00  0.00    -0.082 A 
ATOM      7  C5  PXY d   1       0.431   0.506   1.819  0.00  0.00     0.003 A 
ATOM      8  C6  PXY d   1      -0.888   0.614   1.386  0.00  0.00     0.003 A 
ENDROOT
TORSDOF 0
ENDMDL
