MODEL 1
REMARK minimizedAffinity -1.23940551
REMARK minimizedRMSD -1
REMARK  0 active torsions:
REMARK  status: ('A' for Active; 'I' for Inactive)
ROOT
ATOM      1  C4' PXY d   1      -2.602   1.628   3.333  0.00  0.00     0.077 C 
ATOM      2  C1' PXY d   1       1.115  -1.764   0.489  0.00  0.00     0.077 C 
ATOM      3  C1  PXY d   1       0.131  -0.877   1.226  0.00  0.00    -0.082 A 
ATOM      4  C2  PXY d   1       0.581   0.102   1.993  0.00  0.00     0.003 A 
ATOM      5  C3  PXY d   1      -0.294   0.893   2.692  0.00  0.00     0.003 A 
ATOM      6  C4  PXY d   1      -1.646   0.714   2.563  0.00  0.00    -0.082 A 
ATOM      7  C5  PXY d   1      -2.113  -0.276   1.773  0.00  0.00     0.003 A 
ATOM      8  C6  PXY d   1      -1.207  -1.095   1.105  0.00  0.00     0.003 A 
ENDROOT
TORSDOF 0
ENDMDL
