MODEL 1
REMARK minimizedAffinity -4.40213203
REMARK minimizedRMSD -1
REMARK  0 active torsions:
REMARK  status: ('A' for Active; 'I' for Inactive)
ROOT
ATOM      1  C4' PXY d   1       0.411   0.454  -1.666  0.00  0.00     0.077 C 
ATOM      2  C1' PXY d   1      -1.702   0.185   3.708  0.00  0.00     0.077 C 
ATOM      3  C1  PXY d   1      -1.160   0.252   2.294  0.00  0.00    -0.082 A 
ATOM      4  C2  PXY d   1       0.139   0.105   2.084  0.00  0.00     0.003 A 
ATOM      5  C3  PXY d   1       0.650   0.195   0.815  0.00  0.00     0.003 A 
ATOM      6  C4  PXY d   1      -0.182   0.384  -0.256  0.00  0.00    -0.082 A 
ATOM      7  C5  PXY d   1      -1.509   0.523  -0.051  0.00  0.00     0.003 A 
ATOM      8  C6  PXY d   1      -2.003   0.470   1.250  0.00  0.00     0.003 A 
ENDROOT
TORSDOF 0
ENDMDL
