MODEL 1
REMARK minimizedAffinity -4.61693048
REMARK minimizedRMSD -1
REMARK  0 active torsions:
REMARK  status: ('A' for Active; 'I' for Inactive)
ROOT
ATOM      1  C4' PXY d   1      -2.584  -0.353   3.215  0.00  0.00     0.077 C 
ATOM      2  C1' PXY d   1       1.837   0.670  -0.366  0.00  0.00     0.077 C 
ATOM      3  C1  PXY d   1       0.669   0.401   0.563  0.00  0.00    -0.082 A 
ATOM      4  C2  PXY d   1       0.745   0.768   1.832  0.00  0.00     0.003 A 
ATOM      5  C3  PXY d   1      -0.289   0.504   2.693  0.00  0.00     0.003 A 
ATOM      6  C4  PXY d   1      -1.434  -0.094   2.239  0.00  0.00    -0.082 A 
ATOM      7  C5  PXY d   1      -1.523  -0.461   0.943  0.00  0.00     0.003 A 
ATOM      8  C6  PXY d   1      -0.446  -0.221   0.094  0.00  0.00     0.003 A 
ENDROOT
TORSDOF 0
ENDMDL
