MODEL 1
REMARK minimizedAffinity -3.64743233
REMARK minimizedRMSD -1
REMARK  0 active torsions:
REMARK  status: ('A' for Active; 'I' for Inactive)
ROOT
ATOM      1  C4' PXY d   1       0.646   0.982  -0.939  0.00  0.00     0.077 C 
ATOM      2  C1' PXY d   1      -1.980  -0.982   3.821  0.00  0.00     0.077 C 
ATOM      3  C1  PXY d   1      -1.300  -0.474   2.565  0.00  0.00    -0.082 A 
ATOM      4  C2  PXY d   1      -0.033  -0.095   2.615  0.00  0.00     0.003 A 
ATOM      5  C3  PXY d   1       0.588   0.397   1.496  0.00  0.00     0.003 A 
ATOM      6  C4  PXY d   1      -0.078   0.453   0.302  0.00  0.00    -0.082 A 
ATOM      7  C5  PXY d   1      -1.368   0.059   0.240  0.00  0.00     0.003 A 
ATOM      8  C6  PXY d   1      -1.993  -0.399   1.397  0.00  0.00     0.003 A 
ENDROOT
TORSDOF 0
ENDMDL
