MODEL 1
REMARK minimizedAffinity -3.45274377
REMARK minimizedRMSD -1
REMARK  0 active torsions:
REMARK  status: ('A' for Active; 'I' for Inactive)
ROOT
ATOM      1  C4' PXY d   1      -2.097   0.641   0.906  0.00  0.00     0.077 C 
ATOM      2  C1' PXY d   1       3.052  -1.930   0.360  0.00  0.00     0.077 C 
ATOM      3  C1  PXY d   1       1.707  -1.246   0.510  0.00  0.00    -0.082 A 
ATOM      4  C2  PXY d   1       0.597  -1.960   0.423  0.00  0.00     0.003 A 
ATOM      5  C3  PXY d   1      -0.628  -1.353   0.525  0.00  0.00     0.003 A 
ATOM      6  C4  PXY d   1      -0.717  -0.009   0.770  0.00  0.00    -0.082 A 
ATOM      7  C5  PXY d   1       0.412   0.725   0.871  0.00  0.00     0.003 A 
ATOM      8  C6  PXY d   1       1.645   0.097   0.724  0.00  0.00     0.003 A 
ENDROOT
TORSDOF 0
ENDMDL
