MODEL 1
REMARK minimizedAffinity -5.47197247
REMARK minimizedRMSD -1
REMARK  0 active torsions:
REMARK  status: ('A' for Active; 'I' for Inactive)
ROOT
ATOM      1  C4' PXY d   1      -2.465  -0.425   3.887  0.00  0.00     0.077 C 
ATOM      2  C1' PXY d   1       0.996  -0.200  -0.737  0.00  0.00     0.077 C 
ATOM      3  C1  PXY d   1       0.078  -0.254   0.468  0.00  0.00    -0.082 A 
ATOM      4  C2  PXY d   1       0.593  -0.196   1.686  0.00  0.00     0.003 A 
ATOM      5  C3  PXY d   1      -0.219  -0.277   2.787  0.00  0.00     0.003 A 
ATOM      6  C4  PXY d   1      -1.578  -0.363   2.641  0.00  0.00    -0.082 A 
ATOM      7  C5  PXY d   1      -2.112  -0.412   1.402  0.00  0.00     0.003 A 
ATOM      8  C6  PXY d   1      -1.267  -0.371   0.297  0.00  0.00     0.003 A 
ENDROOT
TORSDOF 0
ENDMDL
