MODEL 1
REMARK minimizedAffinity 2.65732026
REMARK minimizedRMSD -1
REMARK  1 active torsions:
REMARK  status: ('A' for Active; 'I' for Inactive)
REMARK    1  A    between atoms: C1_2  and  C2_3 
ROOT
ATOM      1  C2  UNL d   1       1.466  -1.957   3.063  0.00  0.00    -0.077 A 
ATOM      2  C3  UNL d   1       0.933  -1.234   4.140  0.00  0.00     0.002 A 
ATOM      3  C4  UNL d   1       1.042  -1.723   5.443  0.00  0.00     0.002 A 
ATOM      4  C5  UNL d   1       1.687  -2.935   5.682  0.00  0.00    -0.004 A 
ATOM      5  C6  UNL d   1       2.218  -3.663   4.618  0.00  0.00     0.002 A 
ATOM      6  C7  UNL d   1       2.108  -3.176   3.315  0.00  0.00     0.002 A 
ENDROOT
BRANCH   1   7
ATOM      7  C1  UNL d   1       1.392  -1.408   1.663  0.00  0.00     0.055 C 
ATOM      8  C   UNL d   1       0.275  -0.384   1.528  0.00  0.00     0.019 C 
ENDBRANCH   1   7
TORSDOF 1
ENDMDL
