MODEL 1
REMARK minimizedAffinity 8.95114613
REMARK minimizedRMSD -1
REMARK  1 active torsions:
REMARK  status: ('A' for Active; 'I' for Inactive)
REMARK    1  A    between atoms: C1_2  and  C2_3 
ROOT
ATOM      1  C2  UNL d   1      -0.718  -1.425   1.402  0.00  0.00    -0.077 A 
ATOM      2  C3  UNL d   1      -0.918  -2.739   0.955  0.00  0.00     0.002 A 
ATOM      3  C4  UNL d   1      -1.977  -3.040   0.098  0.00  0.00     0.002 A 
ATOM      4  C5  UNL d   1      -2.842  -2.033  -0.325  0.00  0.00    -0.004 A 
ATOM      5  C6  UNL d   1      -2.653  -0.723   0.115  0.00  0.00     0.002 A 
ATOM      6  C7  UNL d   1      -1.595  -0.420   0.974  0.00  0.00     0.002 A 
ENDROOT
BRANCH   1   7
ATOM      7  C1  UNL d   1       0.454  -1.090   2.287  0.00  0.00     0.055 C 
ATOM      8  C   UNL d   1       1.035   0.274   1.944  0.00  0.00     0.019 C 
ENDBRANCH   1   7
TORSDOF 1
ENDMDL
