MODEL 1
REMARK minimizedAffinity 7.73303461
REMARK minimizedRMSD -1
REMARK  1 active torsions:
REMARK  status: ('A' for Active; 'I' for Inactive)
REMARK    1  A    between atoms: C1_2  and  C2_3 
ROOT
ATOM      1  C2  UNL d   1      -0.839  -0.857   0.662  0.00  0.00    -0.077 A 
ATOM      2  C3  UNL d   1      -0.423  -2.184   0.486  0.00  0.00     0.002 A 
ATOM      3  C4  UNL d   1      -1.299  -3.135  -0.040  0.00  0.00     0.002 A 
ATOM      4  C5  UNL d   1      -2.595  -2.768  -0.398  0.00  0.00    -0.004 A 
ATOM      5  C6  UNL d   1      -3.019  -1.451  -0.224  0.00  0.00     0.002 A 
ATOM      6  C7  UNL d   1      -2.145  -0.500   0.302  0.00  0.00     0.002 A 
ENDROOT
BRANCH   1   7
ATOM      7  C1  UNL d   1       0.121   0.181   1.183  0.00  0.00     0.055 C 
ATOM      8  C   UNL d   1       1.060  -0.407   2.226  0.00  0.00     0.019 C 
ENDBRANCH   1   7
TORSDOF 1
ENDMDL
