MODEL 1
REMARK minimizedAffinity 13.9507713
REMARK minimizedRMSD -1
REMARK  1 active torsions:
REMARK  status: ('A' for Active; 'I' for Inactive)
REMARK    1  A    between atoms: C1_2  and  C2_3 
ROOT
ATOM      1  C2  UNL d   1       1.132  -1.258   4.157  0.00  0.00    -0.077 A 
ATOM      2  C3  UNL d   1       0.710  -0.028   3.632  0.00  0.00     0.002 A 
ATOM      3  C4  UNL d   1       0.890   0.262   2.278  0.00  0.00     0.002 A 
ATOM      4  C5  UNL d   1       1.488  -0.674   1.437  0.00  0.00    -0.004 A 
ATOM      5  C6  UNL d   1       1.914  -1.899   1.950  0.00  0.00     0.002 A 
ATOM      6  C7  UNL d   1       1.736  -2.190   3.303  0.00  0.00     0.002 A 
ENDROOT
BRANCH   1   7
ATOM      7  C1  UNL d   1       0.895  -1.592   5.606  0.00  0.00     0.055 C 
ATOM      8  C   UNL d   1       1.582  -2.893   5.994  0.00  0.00     0.019 C 
ENDBRANCH   1   7
TORSDOF 1
ENDMDL
