MODEL 1
REMARK minimizedAffinity 4.90981054
REMARK minimizedRMSD -1
REMARK  0 active torsions:
REMARK  status: ('A' for Active; 'I' for Inactive)
ROOT
ATOM      1  C   UNL d   1      -0.756   5.052  -0.422  0.00  0.00    -0.002 A 
ATOM      2  C1  UNL d   1       0.526   4.631  -0.097  0.00  0.00     0.010 A 
ATOM      3  C2  UNL d   1       0.722   3.551   0.766  0.00  0.00     0.041 A 
ATOM      4  C3  UNL d   1      -0.403   2.893   1.300  0.00  0.00    -0.075 A 
ATOM      5  S   UNL d   1      -0.406   1.546   2.376  0.00  0.00     0.015 SA
ATOM      6  C4  UNL d   1      -2.108   1.497   2.430  0.00  0.00     0.022 A 
ATOM      7  C5  UNL d   1      -2.677   2.477   1.652  0.00  0.00     0.026 A 
ATOM      8  C6  UNL d   1      -1.704   3.298   0.987  0.00  0.00    -0.082 A 
ATOM      9  C7  UNL d   1      -1.869   4.397   0.111  0.00  0.00     0.045 A 
ENDROOT
TORSDOF 0
ENDMDL
