MODEL 1
REMARK minimizedAffinity 22.6659813
REMARK minimizedRMSD -1
REMARK  0 active torsions:
REMARK  status: ('A' for Active; 'I' for Inactive)
ROOT
ATOM      1  C   UNL d   1      -0.788   5.060  -0.622  0.00  0.00    -0.002 A 
ATOM      2  C1  UNL d   1       0.599   5.009  -0.632  0.00  0.00     0.010 A 
ATOM      3  C2  UNL d   1       1.287   4.213   0.285  0.00  0.00     0.041 A 
ATOM      4  C3  UNL d   1       0.550   3.459   1.220  0.00  0.00    -0.075 A 
ATOM      5  S   UNL d   1       1.179   2.412   2.437  0.00  0.00     0.015 SA
ATOM      6  C4  UNL d   1      -0.379   2.006   2.998  0.00  0.00     0.022 A 
ATOM      7  C5  UNL d   1      -1.366   2.645   2.286  0.00  0.00     0.026 A 
ATOM      8  C6  UNL d   1      -0.847   3.492   1.249  0.00  0.00    -0.082 A 
ATOM      9  C7  UNL d   1      -1.515   4.310   0.306  0.00  0.00     0.045 A 
ENDROOT
TORSDOF 0
ENDMDL
