MODEL 1
REMARK minimizedAffinity 15.4637756
REMARK minimizedRMSD -1
REMARK  0 active torsions:
REMARK  status: ('A' for Active; 'I' for Inactive)
ROOT
ATOM      1  C   UNL d   1       4.570  -4.031  -0.018  0.00  0.00    -0.002 A 
ATOM      2  C1  UNL d   1       4.929  -2.716   0.242  0.00  0.00     0.010 A 
ATOM      3  C2  UNL d   1       5.283  -1.856  -0.800  0.00  0.00     0.041 A 
ATOM      4  C3  UNL d   1       5.268  -2.345  -2.121  0.00  0.00    -0.075 A 
ATOM      5  S   UNL d   1       5.662  -1.475  -3.556  0.00  0.00     0.015 SA
ATOM      6  C4  UNL d   1       5.363  -2.827  -4.548  0.00  0.00     0.022 A 
ATOM      7  C5  UNL d   1       4.971  -3.925  -3.819  0.00  0.00     0.026 A 
ATOM      8  C6  UNL d   1       4.909  -3.665  -2.408  0.00  0.00    -0.082 A 
ATOM      9  C7  UNL d   1       4.557  -4.512  -1.330  0.00  0.00     0.045 A 
ENDROOT
TORSDOF 0
ENDMDL
