MODEL 1
REMARK minimizedAffinity 15.3659296
REMARK minimizedRMSD -1
REMARK  0 active torsions:
REMARK  status: ('A' for Active; 'I' for Inactive)
ROOT
ATOM      1  C   UNL d   1       3.275   4.521   1.505  0.00  0.00    -0.002 A 
ATOM      2  C1  UNL d   1       2.964   5.772   0.993  0.00  0.00     0.010 A 
ATOM      3  C2  UNL d   1       1.738   5.996   0.361  0.00  0.00     0.041 A 
ATOM      4  C3  UNL d   1       0.822   4.931   0.255  0.00  0.00    -0.075 A 
ATOM      5  S   UNL d   1      -0.739   4.972  -0.476  0.00  0.00     0.015 SA
ATOM      6  C4  UNL d   1      -1.029   3.330  -0.124  0.00  0.00     0.022 A 
ATOM      7  C5  UNL d   1       0.029   2.749   0.534  0.00  0.00     0.026 A 
ATOM      8  C6  UNL d   1       1.113   3.662   0.764  0.00  0.00    -0.082 A 
ATOM      9  C7  UNL d   1       2.364   3.467   1.397  0.00  0.00     0.045 A 
ENDROOT
TORSDOF 0
ENDMDL
