MODEL 1
REMARK minimizedAffinity 8.25669193
REMARK minimizedRMSD -1
REMARK  0 active torsions:
REMARK  status: ('A' for Active; 'I' for Inactive)
ROOT
ATOM      1  C   UNL d   1       2.295  -4.567   0.079  0.00  0.00    -0.002 A 
ATOM      2  C1  UNL d   1       2.236  -5.349  -1.067  0.00  0.00     0.010 A 
ATOM      3  C2  UNL d   1       3.016  -5.035  -2.181  0.00  0.00     0.041 A 
ATOM      4  C3  UNL d   1       3.867  -3.914  -2.124  0.00  0.00    -0.075 A 
ATOM      5  S   UNL d   1       4.914  -3.339  -3.368  0.00  0.00     0.015 SA
ATOM      6  C4  UNL d   1       5.466  -2.044  -2.407  0.00  0.00     0.022 A 
ATOM      7  C5  UNL d   1       4.875  -2.034  -1.166  0.00  0.00     0.026 A 
ATOM      8  C6  UNL d   1       3.944  -3.112  -0.982  0.00  0.00    -0.082 A 
ATOM      9  C7  UNL d   1       3.140  -3.455   0.131  0.00  0.00     0.045 A 
ENDROOT
TORSDOF 0
ENDMDL
