MODEL 1
REMARK minimizedAffinity 0.402440757
REMARK minimizedRMSD -1
REMARK  0 active torsions:
REMARK  status: ('A' for Active; 'I' for Inactive)
ROOT
ATOM      1  C   UNL d   1      -0.765   2.067   0.191  0.00  0.00     0.124 A 
ATOM      2  C1  UNL d   1      -0.419   1.813  -1.129  0.00  0.00     0.062 A 
ATOM      3  C2  UNL d   1       0.004   0.542  -1.509  0.00  0.00     0.162 A 
ATOM      4  C3  UNL d   1       0.081  -0.485  -0.569  0.00  0.00    -0.034 A 
ATOM      5  C4  UNL d   1      -0.268  -0.221   0.757  0.00  0.00     0.162 A 
ATOM      6  C5  UNL d   1      -0.690   1.050   1.132  0.00  0.00     0.062 A 
ATOM      7  F   UNL d   1      -1.025   1.294   2.408  0.00  0.00    -0.097 F 
ATOM      8  F1  UNL d   1      -0.205  -1.185   1.687  0.00  0.00    -0.096 F 
ATOM      9  I   UNL d   1       0.713  -2.386  -1.133  0.00  0.00    -0.060 I 
ATOM     10  F2  UNL d   1       0.333   0.325  -2.791  0.00  0.00    -0.096 F 
ATOM     11  F3  UNL d   1      -0.490   2.794  -2.040  0.00  0.00    -0.097 F 
ATOM     12  F4  UNL d   1      -1.171   3.291   0.554  0.00  0.00    -0.092 F 
ENDROOT
TORSDOF 0
ENDMDL
