MODEL 1
REMARK minimizedAffinity -2.65287519
REMARK minimizedRMSD -1
REMARK  0 active torsions:
REMARK  status: ('A' for Active; 'I' for Inactive)
ROOT
ATOM      1  C   UNL d   1      -1.035   2.068   1.870  0.00  0.00     0.124 A 
ATOM      2  C1  UNL d   1      -0.103   1.141   2.317  0.00  0.00     0.062 A 
ATOM      3  C2  UNL d   1       0.281   0.083   1.497  0.00  0.00     0.162 A 
ATOM      4  C3  UNL d   1      -0.267  -0.053   0.222  0.00  0.00    -0.034 A 
ATOM      5  C4  UNL d   1      -1.204   0.882  -0.220  0.00  0.00     0.162 A 
ATOM      6  C5  UNL d   1      -1.584   1.938   0.603  0.00  0.00     0.062 A 
ATOM      7  F   UNL d   1      -2.485   2.832   0.170  0.00  0.00    -0.097 F 
ATOM      8  F1  UNL d   1      -1.750   0.781  -1.441  0.00  0.00    -0.096 F 
ATOM      9  I   UNL d   1       0.305  -1.633  -1.007  0.00  0.00    -0.060 I 
ATOM     10  F2  UNL d   1       1.183  -0.797   1.955  0.00  0.00    -0.096 F 
ATOM     11  F3  UNL d   1       0.429   1.264   3.542  0.00  0.00    -0.097 F 
ATOM     12  F4  UNL d   1      -1.403   3.084   2.661  0.00  0.00    -0.092 F 
ENDROOT
TORSDOF 0
ENDMDL
