MODEL 1
REMARK minimizedAffinity 1.39289248
REMARK minimizedRMSD -1
REMARK  0 active torsions:
REMARK  status: ('A' for Active; 'I' for Inactive)
ROOT
ATOM      1  C   UNL d   1       0.587   0.677  -1.179  0.00  0.00     0.124 A 
ATOM      2  C1  UNL d   1      -0.309   1.737  -1.197  0.00  0.00     0.062 A 
ATOM      3  C2  UNL d   1      -1.435   1.716  -0.379  0.00  0.00     0.162 A 
ATOM      4  C3  UNL d   1      -1.670   0.632   0.467  0.00  0.00    -0.034 A 
ATOM      5  C4  UNL d   1      -0.765  -0.431   0.479  0.00  0.00     0.162 A 
ATOM      6  C5  UNL d   1       0.359  -0.405  -0.342  0.00  0.00     0.062 A 
ATOM      7  F   UNL d   1       1.223  -1.430  -0.323  0.00  0.00    -0.097 F 
ATOM      8  F1  UNL d   1      -0.960  -1.489   1.279  0.00  0.00    -0.096 F 
ATOM      9  I   UNL d   1      -3.352   0.596   1.692  0.00  0.00    -0.060 I 
ATOM     10  F2  UNL d   1      -2.284   2.754  -0.417  0.00  0.00    -0.096 F 
ATOM     11  F3  UNL d   1      -0.092   2.784  -2.007  0.00  0.00    -0.097 F 
ATOM     12  F4  UNL d   1       1.668   0.699  -1.969  0.00  0.00    -0.092 F 
ENDROOT
TORSDOF 0
ENDMDL
