MODEL 1
REMARK minimizedAffinity -5.05626106
REMARK minimizedRMSD -1
REMARK  0 active torsions:
REMARK  status: ('A' for Active; 'I' for Inactive)
ROOT
ATOM      1  C   UNL d   1      -0.515   1.216  -0.144  0.00  0.00     0.124 A 
ATOM      2  C1  UNL d   1       0.409   0.389  -0.767  0.00  0.00     0.062 A 
ATOM      3  C2  UNL d   1       1.386  -0.259  -0.017  0.00  0.00     0.162 A 
ATOM      4  C3  UNL d   1       1.444  -0.083   1.365  0.00  0.00    -0.034 A 
ATOM      5  C4  UNL d   1       0.512   0.752   1.985  0.00  0.00     0.162 A 
ATOM      6  C5  UNL d   1      -0.463   1.397   1.231  0.00  0.00     0.062 A 
ATOM      7  F   UNL d   1      -1.354   2.196   1.834  0.00  0.00    -0.097 F 
ATOM      8  F1  UNL d   1       0.539   0.944   3.312  0.00  0.00    -0.096 F 
ATOM      9  I   UNL d   1       2.904  -1.049   2.491  0.00  0.00    -0.060 I 
ATOM     10  F2  UNL d   1       2.266  -1.052  -0.646  0.00  0.00    -0.096 F 
ATOM     11  F3  UNL d   1       0.361   0.213  -2.096  0.00  0.00    -0.097 F 
ATOM     12  F4  UNL d   1      -1.454   1.839  -0.869  0.00  0.00    -0.092 F 
ENDROOT
TORSDOF 0
ENDMDL
