MODEL 1
REMARK minimizedAffinity -0.484804839
REMARK minimizedRMSD -1
REMARK  0 active torsions:
REMARK  status: ('A' for Active; 'I' for Inactive)
ROOT
ATOM      1  C   UNL d   1      -1.566   2.011  -0.958  0.00  0.00     0.124 A 
ATOM      2  C1  UNL d   1      -0.418   1.436  -1.488  0.00  0.00     0.062 A 
ATOM      3  C2  UNL d   1       0.478   0.769  -0.658  0.00  0.00     0.162 A 
ATOM      4  C3  UNL d   1       0.230   0.672   0.712  0.00  0.00    -0.034 A 
ATOM      5  C4  UNL d   1      -0.925   1.253   1.237  0.00  0.00     0.162 A 
ATOM      6  C5  UNL d   1      -1.818   1.919   0.403  0.00  0.00     0.062 A 
ATOM      7  F   UNL d   1      -2.926   2.473   0.917  0.00  0.00    -0.097 F 
ATOM      8  F1  UNL d   1      -1.194   1.179   2.549  0.00  0.00    -0.096 F 
ATOM      9  I   UNL d   1       1.568  -0.324   1.956  0.00  0.00    -0.060 I 
ATOM     10  F2  UNL d   1       1.578   0.224  -1.197  0.00  0.00    -0.096 F 
ATOM     11  F3  UNL d   1      -0.172   1.524  -2.803  0.00  0.00    -0.097 F 
ATOM     12  F4  UNL d   1      -2.426   2.653  -1.759  0.00  0.00    -0.092 F 
ENDROOT
TORSDOF 0
ENDMDL
