MODEL 1
REMARK minimizedAffinity 1.50388503
REMARK minimizedRMSD -1
REMARK  0 active torsions:
REMARK  status: ('A' for Active; 'I' for Inactive)
ROOT
ATOM      1  C   UNL d   1       0.734  -0.922  -1.562  0.00  0.00     0.124 A 
ATOM      2  C1  UNL d   1       0.896  -1.310  -0.239  0.00  0.00     0.062 A 
ATOM      3  C2  UNL d   1       0.646  -0.408   0.791  0.00  0.00     0.162 A 
ATOM      4  C3  UNL d   1       0.230   0.892   0.502  0.00  0.00    -0.034 A 
ATOM      5  C4  UNL d   1       0.070   1.275  -0.831  0.00  0.00     0.162 A 
ATOM      6  C5  UNL d   1       0.321   0.369  -1.857  0.00  0.00     0.062 A 
ATOM      7  F   UNL d   1       0.164   0.746  -3.134  0.00  0.00    -0.097 F 
ATOM      8  F1  UNL d   1      -0.329   2.516  -1.144  0.00  0.00    -0.096 F 
ATOM      9  I   UNL d   1      -0.146   2.244   2.039  0.00  0.00    -0.060 I 
ATOM     10  F2  UNL d   1       0.811  -0.810   2.060  0.00  0.00    -0.096 F 
ATOM     11  F3  UNL d   1       1.296  -2.557   0.048  0.00  0.00    -0.097 F 
ATOM     12  F4  UNL d   1       0.977  -1.793  -2.551  0.00  0.00    -0.092 F 
ENDROOT
TORSDOF 0
ENDMDL
