MODEL 1
REMARK minimizedAffinity -0.958953381
REMARK minimizedRMSD -1
REMARK  0 active torsions:
REMARK  status: ('A' for Active; 'I' for Inactive)
ROOT
ATOM      1  C   UNL d   1      -0.075   1.929   0.600  0.00  0.00     0.124 A 
ATOM      2  C1  UNL d   1       0.047   1.643  -0.753  0.00  0.00     0.062 A 
ATOM      3  C2  UNL d   1       0.184   0.326  -1.181  0.00  0.00     0.162 A 
ATOM      4  C3  UNL d   1       0.199  -0.717  -0.254  0.00  0.00    -0.034 A 
ATOM      5  C4  UNL d   1       0.076  -0.422   1.105  0.00  0.00     0.162 A 
ATOM      6  C5  UNL d   1      -0.061   0.896   1.527  0.00  0.00     0.062 A 
ATOM      7  F   UNL d   1      -0.179   1.170   2.834  0.00  0.00    -0.097 F 
ATOM      8  F1  UNL d   1       0.086  -1.400   2.022  0.00  0.00    -0.096 F 
ATOM      9  I   UNL d   1       0.404  -2.688  -0.890  0.00  0.00    -0.060 I 
ATOM     10  F2  UNL d   1       0.301   0.079  -2.494  0.00  0.00    -0.096 F 
ATOM     11  F3  UNL d   1       0.034   2.639  -1.651  0.00  0.00    -0.097 F 
ATOM     12  F4  UNL d   1      -0.206   3.197   1.008  0.00  0.00    -0.092 F 
ENDROOT
TORSDOF 0
ENDMDL
