MODEL 1
REMARK minimizedAffinity -5.11668348
REMARK minimizedRMSD -1
REMARK  1 active torsions:
REMARK  status: ('A' for Active; 'I' for Inactive)
REMARK    1  A    between atoms: C3_4  and  O_7 
ROOT
ATOM      1  C   UNL d   1      -0.496   1.284   0.644  0.00  0.00    -0.033 A 
ATOM      2  C1  UNL d   1       0.432   0.269   0.405  0.00  0.00     0.039 A 
ATOM      3  C2  UNL d   1       0.060  -1.068   0.549  0.00  0.00    -0.080 A 
ATOM      4  C3  UNL d   1      -1.242  -1.378   0.932  0.00  0.00     0.150 A 
ATOM      5  C4  UNL d   1      -2.174  -0.372   1.167  0.00  0.00    -0.007 A 
ATOM      6  C5  UNL d   1      -1.800   0.963   1.024  0.00  0.00     0.039 A 
ENDROOT
BRANCH   4   7
ATOM      7  O   UNL d   1      -1.651  -2.669   1.090  0.00  0.00    -0.526 OA
ATOM      8  H5  UNL d   1      -0.894  -3.254   0.921  0.00  0.00     0.418 HD
ENDBRANCH   4   7
TORSDOF 1
ENDMDL
