MODEL 1
REMARK minimizedAffinity -4.07271242
REMARK minimizedRMSD -1
REMARK  1 active torsions:
REMARK  status: ('A' for Active; 'I' for Inactive)
REMARK    1  A    between atoms: C3_4  and  O_7 
ROOT
ATOM      1  C   UNL d   1      -1.546  -2.470   1.033  0.00  0.00    -0.033 A 
ATOM      2  C1  UNL d   1      -0.160  -2.447   0.867  0.00  0.00     0.039 A 
ATOM      3  C2  UNL d   1       0.481  -1.265   0.491  0.00  0.00    -0.080 A 
ATOM      4  C3  UNL d   1      -0.274  -0.114   0.285  0.00  0.00     0.150 A 
ATOM      5  C4  UNL d   1      -1.655  -0.128   0.452  0.00  0.00    -0.007 A 
ATOM      6  C5  UNL d   1      -2.294  -1.310   0.827  0.00  0.00     0.039 A 
ENDROOT
BRANCH   4   7
ATOM      7  O   UNL d   1       0.306   1.062  -0.088  0.00  0.00    -0.526 OA
ATOM      8  H5  UNL d   1       1.261   0.914  -0.193  0.00  0.00     0.418 HD
ENDBRANCH   4   7
TORSDOF 1
ENDMDL
