MODEL 1
REMARK minimizedAffinity -4.57951689
REMARK minimizedRMSD -1
REMARK  1 active torsions:
REMARK  status: ('A' for Active; 'I' for Inactive)
REMARK    1  A    between atoms: C3_4  and  O_7 
ROOT
ATOM      1  C   UNL d   1       0.292   1.353  -0.061  0.00  0.00    -0.033 A 
ATOM      2  C1  UNL d   1       1.258   0.345  -0.070  0.00  0.00     0.039 A 
ATOM      3  C2  UNL d   1       0.907  -0.963   0.268  0.00  0.00    -0.080 A 
ATOM      4  C3  UNL d   1      -0.411  -1.250   0.612  0.00  0.00     0.150 A 
ATOM      5  C4  UNL d   1      -1.379  -0.251   0.620  0.00  0.00    -0.007 A 
ATOM      6  C5  UNL d   1      -1.027   1.055   0.283  0.00  0.00     0.039 A 
ENDROOT
BRANCH   4   7
ATOM      7  O   UNL d   1      -0.800  -2.511   0.954  0.00  0.00    -0.526 OA
ATOM      8  H5  UNL d   1      -0.020  -3.090   0.933  0.00  0.00     0.418 HD
ENDBRANCH   4   7
TORSDOF 1
ENDMDL
