MODEL 1
REMARK minimizedAffinity -4.86302137
REMARK minimizedRMSD -1
REMARK  1 active torsions:
REMARK  status: ('A' for Active; 'I' for Inactive)
REMARK    1  A    between atoms: C3_4  and  O_7 
ROOT
ATOM      1  C   UNL d   1      -3.381  -1.850   1.892  0.00  0.00    -0.033 A 
ATOM      2  C1  UNL d   1      -2.527  -2.675   1.158  0.00  0.00     0.039 A 
ATOM      3  C2  UNL d   1      -1.449  -2.124   0.463  0.00  0.00    -0.080 A 
ATOM      4  C3  UNL d   1      -1.235  -0.749   0.511  0.00  0.00     0.150 A 
ATOM      5  C4  UNL d   1      -2.080   0.078   1.243  0.00  0.00    -0.007 A 
ATOM      6  C5  UNL d   1      -3.157  -0.473   1.936  0.00  0.00     0.039 A 
ENDROOT
BRANCH   4   7
ATOM      7  O   UNL d   1      -0.199  -0.165  -0.156  0.00  0.00    -0.526 OA
ATOM      8  H5  UNL d   1       0.283  -0.856  -0.641  0.00  0.00     0.418 HD
ENDBRANCH   4   7
TORSDOF 1
ENDMDL
