MODEL 1
REMARK minimizedAffinity -1.07860088
REMARK minimizedRMSD -1
REMARK  1 active torsions:
REMARK  status: ('A' for Active; 'I' for Inactive)
REMARK    1  A    between atoms: C3_4  and  O_7 
ROOT
ATOM      1  C   UNL d   1       0.110   1.381  -0.265  0.00  0.00    -0.033 A 
ATOM      2  C1  UNL d   1      -1.176   1.143   0.226  0.00  0.00     0.039 A 
ATOM      3  C2  UNL d   1      -1.482  -0.082   0.821  0.00  0.00    -0.080 A 
ATOM      4  C3  UNL d   1      -0.496  -1.059   0.921  0.00  0.00     0.150 A 
ATOM      5  C4  UNL d   1       0.788  -0.828   0.437  0.00  0.00    -0.007 A 
ATOM      6  C5  UNL d   1       1.092   0.396  -0.158  0.00  0.00     0.039 A 
ENDROOT
BRANCH   4   7
ATOM      7  O   UNL d   1      -0.749  -2.272   1.489  0.00  0.00    -0.526 OA
ATOM      8  H5  UNL d   1      -1.685  -2.300   1.752  0.00  0.00     0.418 HD
ENDBRANCH   4   7
TORSDOF 1
ENDMDL
