MODEL 1
REMARK minimizedAffinity -5.63566446
REMARK minimizedRMSD -1
REMARK  1 active torsions:
REMARK  status: ('A' for Active; 'I' for Inactive)
REMARK    1  A    between atoms: C3_4  and  O_7 
ROOT
ATOM      1  C   UNL d   1      -1.386  -2.397   1.438  0.00  0.00    -0.033 A 
ATOM      2  C1  UNL d   1      -0.111  -2.563   0.892  0.00  0.00     0.039 A 
ATOM      3  C2  UNL d   1       0.491  -1.518   0.189  0.00  0.00    -0.080 A 
ATOM      4  C3  UNL d   1      -0.190  -0.313   0.040  0.00  0.00     0.150 A 
ATOM      5  C4  UNL d   1      -1.458  -0.139   0.585  0.00  0.00    -0.007 A 
ATOM      6  C5  UNL d   1      -2.058  -1.184   1.285  0.00  0.00     0.039 A 
ENDROOT
BRANCH   4   7
ATOM      7  O   UNL d   1       0.356   0.734  -0.641  0.00  0.00    -0.526 OA
ATOM      8  H5  UNL d   1       1.222   0.459  -0.986  0.00  0.00     0.418 HD
ENDBRANCH   4   7
TORSDOF 1
ENDMDL
