MODEL 1
REMARK minimizedAffinity -4.19236326
REMARK minimizedRMSD -1
REMARK  1 active torsions:
REMARK  status: ('A' for Active; 'I' for Inactive)
REMARK    1  A    between atoms: C3_4  and  O_7 
ROOT
ATOM      1  C   UNL d   1       0.444  -0.285  -0.016  0.00  0.00    -0.033 A 
ATOM      2  C1  UNL d   1       0.938  -1.570   0.213  0.00  0.00     0.039 A 
ATOM      3  C2  UNL d   1       0.083  -2.579   0.660  0.00  0.00    -0.080 A 
ATOM      4  C3  UNL d   1      -1.262  -2.291   0.873  0.00  0.00     0.150 A 
ATOM      5  C4  UNL d   1      -1.762  -1.013   0.643  0.00  0.00    -0.007 A 
ATOM      6  C5  UNL d   1      -0.906  -0.007   0.197  0.00  0.00     0.039 A 
ENDROOT
BRANCH   4   7
ATOM      7  O   UNL d   1      -2.134  -3.242   1.314  0.00  0.00    -0.526 OA
ATOM      8  H5  UNL d   1      -1.642  -4.067   1.457  0.00  0.00     0.418 HD
ENDBRANCH   4   7
TORSDOF 1
ENDMDL
