MODEL 1
REMARK minimizedAffinity -2.09920907
REMARK minimizedRMSD -1
REMARK  1 active torsions:
REMARK  status: ('A' for Active; 'I' for Inactive)
REMARK    1  A    between atoms: C3_4  and  O_7 
ROOT
ATOM      1  C   UNL d   1      -0.414   0.178  -0.071  0.00  0.00    -0.033 A 
ATOM      2  C1  UNL d   1      -1.798  -0.007  -0.099  0.00  0.00     0.039 A 
ATOM      3  C2  UNL d   1      -2.350  -1.219   0.319  0.00  0.00    -0.080 A 
ATOM      4  C3  UNL d   1      -1.510  -2.236   0.762  0.00  0.00     0.150 A 
ATOM      5  C4  UNL d   1      -0.131  -2.058   0.796  0.00  0.00    -0.007 A 
ATOM      6  C5  UNL d   1       0.419  -0.847   0.378  0.00  0.00     0.039 A 
ENDROOT
BRANCH   4   7
ATOM      7  O   UNL d   1      -2.003  -3.438   1.176  0.00  0.00    -0.526 OA
ATOM      8  H5  UNL d   1      -2.969  -3.427   1.070  0.00  0.00     0.418 HD
ENDBRANCH   4   7
TORSDOF 1
ENDMDL
