MODEL 1
REMARK minimizedAffinity -5.38559341
REMARK minimizedRMSD -1
REMARK  1 active torsions:
REMARK  status: ('A' for Active; 'I' for Inactive)
REMARK    1  A    between atoms: C3_4  and  O_7 
ROOT
ATOM      1  C   UNL d   1      -0.244  -0.710  -0.858  0.00  0.00    -0.033 A 
ATOM      2  C1  UNL d   1      -0.935  -0.127   0.206  0.00  0.00     0.039 A 
ATOM      3  C2  UNL d   1      -1.537  -0.932   1.175  0.00  0.00    -0.080 A 
ATOM      4  C3  UNL d   1      -1.439  -2.317   1.070  0.00  0.00     0.150 A 
ATOM      5  C4  UNL d   1      -0.748  -2.904   0.015  0.00  0.00    -0.007 A 
ATOM      6  C5  UNL d   1      -0.149  -2.099  -0.953  0.00  0.00     0.039 A 
ENDROOT
BRANCH   4   7
ATOM      7  O   UNL d   1      -2.013  -3.144   1.989  0.00  0.00    -0.526 OA
ATOM      8  H5  UNL d   1      -2.480  -2.599   2.644  0.00  0.00     0.418 HD
ENDBRANCH   4   7
TORSDOF 1
ENDMDL
