MODEL 1
REMARK minimizedAffinity -4.12652683
REMARK minimizedRMSD -1
REMARK  1 active torsions:
REMARK  status: ('A' for Active; 'I' for Inactive)
REMARK    1  A    between atoms: C3_4  and  O_7 
ROOT
ATOM      1  C   UNL d   1      -0.393   0.821  -0.195  0.00  0.00    -0.033 A 
ATOM      2  C1  UNL d   1      -1.450   0.451   0.639  0.00  0.00     0.039 A 
ATOM      3  C2  UNL d   1      -1.558  -0.866   1.090  0.00  0.00    -0.080 A 
ATOM      4  C3  UNL d   1      -0.602  -1.801   0.703  0.00  0.00     0.150 A 
ATOM      5  C4  UNL d   1       0.456  -1.438  -0.124  0.00  0.00    -0.007 A 
ATOM      6  C5  UNL d   1       0.561  -0.123  -0.575  0.00  0.00     0.039 A 
ENDROOT
BRANCH   4   7
ATOM      7  O   UNL d   1      -0.667  -3.099   1.115  0.00  0.00    -0.526 OA
ATOM      8  H5  UNL d   1      -1.466  -3.210   1.657  0.00  0.00     0.418 HD
ENDBRANCH   4   7
TORSDOF 1
ENDMDL
