MODEL 1
REMARK minimizedAffinity -4.8177824
REMARK minimizedRMSD -1
REMARK  1 active torsions:
REMARK  status: ('A' for Active; 'I' for Inactive)
REMARK    1  A    between atoms: C3_4  and  O_7 
ROOT
ATOM      1  C   UNL d   1       0.921  -1.502   0.269  0.00  0.00    -0.033 A 
ATOM      2  C1  UNL d   1      -0.277  -2.025   0.761  0.00  0.00     0.039 A 
ATOM      3  C2  UNL d   1      -1.334  -1.172   1.081  0.00  0.00    -0.080 A 
ATOM      4  C3  UNL d   1      -1.183   0.201   0.902  0.00  0.00     0.150 A 
ATOM      5  C4  UNL d   1       0.006   0.728   0.409  0.00  0.00    -0.007 A 
ATOM      6  C5  UNL d   1       1.061  -0.125   0.091  0.00  0.00     0.039 A 
ENDROOT
BRANCH   4   7
ATOM      7  O   UNL d   1      -2.185   1.074   1.205  0.00  0.00    -0.526 OA
ATOM      8  H5  UNL d   1      -2.935   0.569   1.562  0.00  0.00     0.418 HD
ENDBRANCH   4   7
TORSDOF 1
ENDMDL
