MODEL 1
REMARK minimizedAffinity -4.45154572
REMARK minimizedRMSD -1
REMARK  1 active torsions:
REMARK  status: ('A' for Active; 'I' for Inactive)
REMARK    1  A    between atoms: C3_4  and  O_7 
ROOT
ATOM      1  C   UNL d   1      -0.273   1.073   0.410  0.00  0.00    -0.033 A 
ATOM      2  C1  UNL d   1       0.665   0.062   0.191  0.00  0.00     0.039 A 
ATOM      3  C2  UNL d   1       0.294  -1.277   0.326  0.00  0.00    -0.080 A 
ATOM      4  C3  UNL d   1      -1.015  -1.592   0.678  0.00  0.00     0.150 A 
ATOM      5  C4  UNL d   1      -1.956  -0.590   0.894  0.00  0.00    -0.007 A 
ATOM      6  C5  UNL d   1      -1.584   0.747   0.760  0.00  0.00     0.039 A 
ENDROOT
BRANCH   4   7
ATOM      7  O   UNL d   1      -1.422  -2.884   0.827  0.00  0.00    -0.526 OA
ATOM      8  H5  UNL d   1      -0.659  -3.467   0.675  0.00  0.00     0.418 HD
ENDBRANCH   4   7
TORSDOF 1
ENDMDL
