MODEL 1
REMARK minimizedAffinity -1.72400105
REMARK minimizedRMSD -1
REMARK  1 active torsions:
REMARK  status: ('A' for Active; 'I' for Inactive)
REMARK    1  A    between atoms: C3_4  and  O_7 
ROOT
ATOM      1  C   UNL d   1       0.943  -2.221   0.546  0.00  0.00    -0.033 A 
ATOM      2  C1  UNL d   1       1.460  -1.019   0.060  0.00  0.00     0.039 A 
ATOM      3  C2  UNL d   1       0.739   0.167   0.217  0.00  0.00    -0.080 A 
ATOM      4  C3  UNL d   1      -0.494   0.137   0.862  0.00  0.00     0.150 A 
ATOM      5  C4  UNL d   1      -1.013  -1.057   1.352  0.00  0.00    -0.007 A 
ATOM      6  C5  UNL d   1      -0.293  -2.240   1.194  0.00  0.00     0.039 A 
ENDROOT
BRANCH   4   7
ATOM      7  O   UNL d   1      -1.236   1.267   1.034  0.00  0.00    -0.526 OA
ATOM      8  H5  UNL d   1      -0.766   2.010   0.620  0.00  0.00     0.418 HD
ENDBRANCH   4   7
TORSDOF 1
ENDMDL
