MODEL 1
REMARK minimizedAffinity -4.20962906
REMARK minimizedRMSD -1
REMARK  1 active torsions:
REMARK  status: ('A' for Active; 'I' for Inactive)
REMARK    1  A    between atoms: C1_2  and  C2_3 
ROOT
ATOM      1  C2  UNL d   1       0.334  -0.380  -0.301  0.00  0.00    -0.073 A 
ATOM      2  C3  UNL d   1       0.693  -0.750   1.000  0.00  0.00    -0.002 A 
ATOM      3  C4  UNL d   1       0.399   0.086   2.077  0.00  0.00     0.004 A 
ATOM      4  C5  UNL d   1      -0.262   1.296   1.867  0.00  0.00    -0.004 A 
ATOM      5  C6  UNL d   1      -0.640   1.678   0.576  0.00  0.00    -0.075 A 
ATOM      6  C7  UNL d   1      -1.350   2.978   0.333  0.00  0.00     0.076 C 
ATOM      7  C8  UNL d   1      -0.339   0.834  -0.501  0.00  0.00     0.001 A 
ENDROOT
BRANCH   1   8
ATOM      8  C1  UNL d   1       0.643  -1.282  -1.467  0.00  0.00     0.053 C 
ATOM      9  C   UNL d   1      -0.181  -2.560  -1.434  0.00  0.00     0.018 C 
ENDBRANCH   1   8
TORSDOF 1
ENDMDL
