MODEL 1
REMARK minimizedAffinity -2.04906011
REMARK minimizedRMSD -1
REMARK  1 active torsions:
REMARK  status: ('A' for Active; 'I' for Inactive)
REMARK    1  A    between atoms: C1_2  and  C2_3 
ROOT
ATOM      1  C2  UNL d   1       0.472  -1.134  -0.912  0.00  0.00    -0.073 A 
ATOM      2  C3  UNL d   1       0.341  -0.282  -2.014  0.00  0.00    -0.002 A 
ATOM      3  C4  UNL d   1       0.005   1.060  -1.830  0.00  0.00     0.004 A 
ATOM      4  C5  UNL d   1      -0.196   1.564  -0.545  0.00  0.00    -0.004 A 
ATOM      5  C6  UNL d   1      -0.058   0.731   0.569  0.00  0.00    -0.075 A 
ATOM      6  C7  UNL d   1      -0.274   1.257   1.958  0.00  0.00     0.076 C 
ATOM      7  C8  UNL d   1       0.277  -0.616   0.377  0.00  0.00     0.001 A 
ENDROOT
BRANCH   1   8
ATOM      8  C1  UNL d   1       0.841  -2.583  -1.105  0.00  0.00     0.053 C 
ATOM      9  C   UNL d   1      -0.381  -3.455  -1.346  0.00  0.00     0.018 C 
ENDBRANCH   1   8
TORSDOF 1
ENDMDL
