MODEL 1
REMARK minimizedAffinity -0.779708266
REMARK minimizedRMSD -1
REMARK  1 active torsions:
REMARK  status: ('A' for Active; 'I' for Inactive)
REMARK    1  A    between atoms: C1_2  and  C2_3 
ROOT
ATOM      1  C2  UNL d   1      -0.408  -1.522  -0.743  0.00  0.00    -0.073 A 
ATOM      2  C3  UNL d   1      -1.621  -1.731  -1.409  0.00  0.00    -0.002 A 
ATOM      3  C4  UNL d   1      -2.071  -3.027  -1.665  0.00  0.00     0.004 A 
ATOM      4  C5  UNL d   1      -1.317  -4.125  -1.254  0.00  0.00    -0.004 A 
ATOM      5  C6  UNL d   1      -0.107  -3.937  -0.577  0.00  0.00    -0.075 A 
ATOM      6  C7  UNL d   1       0.717  -5.109  -0.130  0.00  0.00     0.076 C 
ATOM      7  C8  UNL d   1       0.339  -2.633  -0.325  0.00  0.00     0.001 A 
ENDROOT
BRANCH   1   8
ATOM      8  C1  UNL d   1       0.078  -0.124  -0.458  0.00  0.00     0.053 C 
ATOM      9  C   UNL d   1       0.328   0.101   1.024  0.00  0.00     0.018 C 
ENDBRANCH   1   8
TORSDOF 1
ENDMDL
