MODEL 1
REMARK minimizedAffinity -4.82140112
REMARK minimizedRMSD -1
REMARK  1 active torsions:
REMARK  status: ('A' for Active; 'I' for Inactive)
REMARK    1  A    between atoms: C1_2  and  C2_3 
ROOT
ATOM      1  C2  UNL d   1      -0.474   1.149   1.175  0.00  0.00    -0.073 A 
ATOM      2  C3  UNL d   1      -1.159   1.947   2.098  0.00  0.00    -0.002 A 
ATOM      3  C4  UNL d   1      -1.683   3.181   1.712  0.00  0.00     0.004 A 
ATOM      4  C5  UNL d   1      -1.534   3.627   0.399  0.00  0.00    -0.004 A 
ATOM      5  C6  UNL d   1      -0.863   2.839  -0.542  0.00  0.00    -0.075 A 
ATOM      6  C7  UNL d   1      -0.692   3.305  -1.958  0.00  0.00     0.076 C 
ATOM      7  C8  UNL d   1      -0.337   1.602  -0.145  0.00  0.00     0.001 A 
ENDROOT
BRANCH   1   8
ATOM      8  C1  UNL d   1       0.088  -0.187   1.586  0.00  0.00     0.053 C 
ATOM      9  C   UNL d   1       0.859  -0.853   0.457  0.00  0.00     0.018 C 
ENDBRANCH   1   8
TORSDOF 1
ENDMDL
