MODEL 1
REMARK minimizedAffinity -4.93057823
REMARK minimizedRMSD -1
REMARK  1 active torsions:
REMARK  status: ('A' for Active; 'I' for Inactive)
REMARK    1  A    between atoms: C1_2  and  C2_3 
ROOT
ATOM      1  C2  UNL d   1       0.208   0.039  -0.183  0.00  0.00    -0.073 A 
ATOM      2  C3  UNL d   1       0.755  -0.292   1.062  0.00  0.00    -0.002 A 
ATOM      3  C4  UNL d   1       0.555   0.542   2.163  0.00  0.00     0.004 A 
ATOM      4  C5  UNL d   1      -0.197   1.709   2.033  0.00  0.00    -0.004 A 
ATOM      5  C6  UNL d   1      -0.761   2.050   0.800  0.00  0.00    -0.075 A 
ATOM      6  C7  UNL d   1      -1.572   3.304   0.642  0.00  0.00     0.076 C 
ATOM      7  C8  UNL d   1      -0.554   1.210  -0.302  0.00  0.00     0.001 A 
ENDROOT
BRANCH   1   8
ATOM      8  C1  UNL d   1       0.416  -0.862  -1.373  0.00  0.00     0.053 C 
ATOM      9  C   UNL d   1      -0.370  -2.157  -1.252  0.00  0.00     0.018 C 
ENDBRANCH   1   8
TORSDOF 1
ENDMDL
