MODEL 1
REMARK minimizedAffinity 6.29277086
REMARK minimizedRMSD -1
REMARK  0 active torsions:
REMARK  status: ('A' for Active; 'I' for Inactive)
ROOT
ATOM      1  C1  BNZ d   1       2.170  -0.004  -1.462  0.00  0.00     0.000 A 
ATOM      2  C2  BNZ d   1       1.462  -1.166  -1.618  0.00  0.00     0.000 A 
ATOM      3  C3  BNZ d   1       1.782  -2.282  -0.895  0.00  0.00     0.000 A 
ATOM      4  C4  BNZ d   1       2.832  -2.246  -0.050  0.00  0.00     0.000 A 
ATOM      5  C5  BNZ d   1       3.561  -1.084   0.111  0.00  0.00     0.000 A 
ATOM      6  C6  BNZ d   1       3.212   0.048  -0.588  0.00  0.00     0.000 A 
ENDROOT
TORSDOF 0
ENDMDL
