MODEL 1
REMARK minimizedAffinity 4.59725571
REMARK minimizedRMSD -1
REMARK  0 active torsions:
REMARK  status: ('A' for Active; 'I' for Inactive)
ROOT
ATOM      1  C1  BNZ d   1      -2.957  -2.854  -3.967  0.00  0.00     0.000 A 
ATOM      2  C2  BNZ d   1      -1.730  -2.247  -3.948  0.00  0.00     0.000 A 
ATOM      3  C3  BNZ d   1      -0.683  -2.805  -3.269  0.00  0.00     0.000 A 
ATOM      4  C4  BNZ d   1      -0.875  -3.947  -2.577  0.00  0.00     0.000 A 
ATOM      5  C5  BNZ d   1      -2.109  -4.566  -2.579  0.00  0.00     0.000 A 
ATOM      6  C6  BNZ d   1      -3.150  -4.022  -3.296  0.00  0.00     0.000 A 
ENDROOT
TORSDOF 0
ENDMDL
