MODEL 1
REMARK minimizedAffinity 3.73121047
REMARK minimizedRMSD -1
REMARK  0 active torsions:
REMARK  status: ('A' for Active; 'I' for Inactive)
ROOT
ATOM      1  C1  BNZ d   1      -1.489   4.156  -3.747  0.00  0.00     0.000 A 
ATOM      2  C2  BNZ d   1      -2.250   5.218  -4.157  0.00  0.00     0.000 A 
ATOM      3  C3  BNZ d   1      -3.040   5.126  -5.269  0.00  0.00     0.000 A 
ATOM      4  C4  BNZ d   1      -3.036   3.988  -5.992  0.00  0.00     0.000 A 
ATOM      5  C5  BNZ d   1      -2.267   2.911  -5.598  0.00  0.00     0.000 A 
ATOM      6  C6  BNZ d   1      -1.503   2.994  -4.456  0.00  0.00     0.000 A 
ENDROOT
TORSDOF 0
ENDMDL
