MODEL 1
REMARK minimizedAffinity 8.69039345
REMARK minimizedRMSD -1
REMARK  0 active torsions:
REMARK  status: ('A' for Active; 'I' for Inactive)
ROOT
ATOM      1  C1  BNZ d   1      -4.815   2.331   3.752  0.00  0.00     0.000 A 
ATOM      2  C2  BNZ d   1      -5.092   3.057   4.879  0.00  0.00     0.000 A 
ATOM      3  C3  BNZ d   1      -4.314   2.940   5.997  0.00  0.00     0.000 A 
ATOM      4  C4  BNZ d   1      -3.285   2.068   5.999  0.00  0.00     0.000 A 
ATOM      5  C5  BNZ d   1      -2.998   1.322   4.874  0.00  0.00     0.000 A 
ATOM      6  C6  BNZ d   1      -3.760   1.471   3.738  0.00  0.00     0.000 A 
ENDROOT
TORSDOF 0
ENDMDL
