MODEL 1
REMARK minimizedAffinity 10.6917896
REMARK minimizedRMSD -1
REMARK  0 active torsions:
REMARK  status: ('A' for Active; 'I' for Inactive)
ROOT
ATOM      1  C1  BNZ d   1       2.252   1.315   3.999  0.00  0.00     0.000 A 
ATOM      2  C2  BNZ d   1       0.949   1.189   4.400  0.00  0.00     0.000 A 
ATOM      3  C3  BNZ d   1      -0.076   1.344   3.510  0.00  0.00     0.000 A 
ATOM      4  C4  BNZ d   1       0.201   1.663   2.229  0.00  0.00     0.000 A 
ATOM      5  C5  BNZ d   1       1.510   1.802   1.810  0.00  0.00     0.000 A 
ATOM      6  C6  BNZ d   1       2.540   1.608   2.701  0.00  0.00     0.000 A 
ENDROOT
TORSDOF 0
ENDMDL
