MODEL 1
REMARK minimizedAffinity 5.89399576
REMARK minimizedRMSD -1
REMARK  0 active torsions:
REMARK  status: ('A' for Active; 'I' for Inactive)
ROOT
ATOM      1  C1  BNZ d   1       3.288  -3.905   0.593  0.00  0.00     0.000 A 
ATOM      2  C2  BNZ d   1       2.424  -2.880   0.314  0.00  0.00     0.000 A 
ATOM      3  C3  BNZ d   1       2.872  -1.592   0.225  0.00  0.00     0.000 A 
ATOM      4  C4  BNZ d   1       4.174  -1.326   0.455  0.00  0.00     0.000 A 
ATOM      5  C5  BNZ d   1       5.056  -2.347   0.747  0.00  0.00     0.000 A 
ATOM      6  C6  BNZ d   1       4.608  -3.648   0.797  0.00  0.00     0.000 A 
ENDROOT
TORSDOF 0
ENDMDL
