MODEL 1
REMARK minimizedAffinity 1.76678419
REMARK minimizedRMSD -1
REMARK  0 active torsions:
REMARK  status: ('A' for Active; 'I' for Inactive)
ROOT
ATOM      1  C1  BNZ d   1      -1.579   3.304  -4.895  0.00  0.00     0.000 A 
ATOM      2  C2  BNZ d   1      -1.262   4.063  -3.800  0.00  0.00     0.000 A 
ATOM      3  C3  BNZ d   1      -1.501   5.409  -3.788  0.00  0.00     0.000 A 
ATOM      4  C4  BNZ d   1      -2.019   6.000  -4.884  0.00  0.00     0.000 A 
ATOM      5  C5  BNZ d   1      -2.335   5.250  -6.000  0.00  0.00     0.000 A 
ATOM      6  C6  BNZ d   1      -2.129   3.889  -5.994  0.00  0.00     0.000 A 
ENDROOT
TORSDOF 0
ENDMDL
