MODEL 1
REMARK minimizedAffinity 4.130373
REMARK minimizedRMSD -1
REMARK  0 active torsions:
REMARK  status: ('A' for Active; 'I' for Inactive)
ROOT
ATOM      1  C1  BNZ d   1       2.512   1.183   1.073  0.00  0.00     0.000 A 
ATOM      2  C2  BNZ d   1       2.061   1.687   2.263  0.00  0.00     0.000 A 
ATOM      3  C3  BNZ d   1       0.742   1.589   2.610  0.00  0.00     0.000 A 
ATOM      4  C4  BNZ d   1      -0.129   1.023   1.750  0.00  0.00     0.000 A 
ATOM      5  C5  BNZ d   1       0.309   0.518   0.542  0.00  0.00     0.000 A 
ATOM      6  C6  BNZ d   1       1.644   0.584   0.214  0.00  0.00     0.000 A 
ENDROOT
TORSDOF 0
ENDMDL
