MODEL 1
REMARK minimizedAffinity 3.39148235
REMARK minimizedRMSD -1
REMARK  0 active torsions:
REMARK  status: ('A' for Active; 'I' for Inactive)
ROOT
ATOM      1  C1  BNZ d   1       3.172  -1.900  -0.132  0.00  0.00     0.000 A 
ATOM      2  C2  BNZ d   1       2.267  -1.371  -1.013  0.00  0.00     0.000 A 
ATOM      3  C3  BNZ d   1       2.042  -0.023  -1.060  0.00  0.00     0.000 A 
ATOM      4  C4  BNZ d   1       2.691   0.788  -0.201  0.00  0.00     0.000 A 
ATOM      5  C5  BNZ d   1       3.600   0.269   0.700  0.00  0.00     0.000 A 
ATOM      6  C6  BNZ d   1       3.853  -1.084   0.718  0.00  0.00     0.000 A 
ENDROOT
TORSDOF 0
ENDMDL
