MODEL 1
REMARK minimizedAffinity 6.30704308
REMARK minimizedRMSD -1
REMARK  0 active torsions:
REMARK  status: ('A' for Active; 'I' for Inactive)
ROOT
ATOM      1  C1  BNZ d   1      -0.865   1.870   3.017  0.00  0.00     0.000 A 
ATOM      2  C2  BNZ d   1      -2.181   1.560   2.801  0.00  0.00     0.000 A 
ATOM      3  C3  BNZ d   1      -2.547   0.736   1.774  0.00  0.00     0.000 A 
ATOM      4  C4  BNZ d   1      -1.602   0.257   0.940  0.00  0.00     0.000 A 
ATOM      5  C5  BNZ d   1      -0.272   0.568   1.138  0.00  0.00     0.000 A 
ATOM      6  C6  BNZ d   1       0.097   1.365   2.197  0.00  0.00     0.000 A 
ENDROOT
TORSDOF 0
ENDMDL
