MODEL 1
REMARK minimizedAffinity 9.48237991
REMARK minimizedRMSD -1
REMARK  0 active torsions:
REMARK  status: ('A' for Active; 'I' for Inactive)
ROOT
ATOM      1  C1  BNZ d   1       2.034  -2.654  -0.840  0.00  0.00     0.000 A 
ATOM      2  C2  BNZ d   1       1.527  -2.386  -2.084  0.00  0.00     0.000 A 
ATOM      3  C3  BNZ d   1       1.170  -1.114  -2.435  0.00  0.00     0.000 A 
ATOM      4  C4  BNZ d   1       1.282  -0.121  -1.530  0.00  0.00     0.000 A 
ATOM      5  C5  BNZ d   1       1.782  -0.377  -0.269  0.00  0.00     0.000 A 
ATOM      6  C6  BNZ d   1       2.177  -1.651   0.068  0.00  0.00     0.000 A 
ENDROOT
TORSDOF 0
ENDMDL
