MODEL 1
REMARK minimizedAffinity 5.92021322
REMARK minimizedRMSD -1
REMARK  0 active torsions:
REMARK  status: ('A' for Active; 'I' for Inactive)
ROOT
ATOM      1  C1  BNZ d   1      -3.312   0.517   2.274  0.00  0.00     0.000 A 
ATOM      2  C2  BNZ d   1      -2.046   0.528   1.753  0.00  0.00     0.000 A 
ATOM      3  C3  BNZ d   1      -1.064   1.296   2.314  0.00  0.00     0.000 A 
ATOM      4  C4  BNZ d   1      -1.359   2.082   3.369  0.00  0.00     0.000 A 
ATOM      5  C5  BNZ d   1      -2.634   2.090   3.900  0.00  0.00     0.000 A 
ATOM      6  C6  BNZ d   1      -3.609   1.285   3.357  0.00  0.00     0.000 A 
ENDROOT
TORSDOF 0
ENDMDL
