MODEL 1
REMARK minimizedAffinity 11.7441797
REMARK minimizedRMSD -1
REMARK  0 active torsions:
REMARK  status: ('A' for Active; 'I' for Inactive)
ROOT
ATOM      1  C1  BNZ d   1      -1.541   1.916   2.633  0.00  0.00     0.000 A 
ATOM      2  C2  BNZ d   1      -2.402   2.416   3.574  0.00  0.00     0.000 A 
ATOM      3  C3  BNZ d   1      -3.646   1.875   3.743  0.00  0.00     0.000 A 
ATOM      4  C4  BNZ d   1      -4.042   0.862   2.945  0.00  0.00     0.000 A 
ATOM      5  C5  BNZ d   1      -3.190   0.353   1.986  0.00  0.00     0.000 A 
ATOM      6  C6  BNZ d   1      -1.924   0.875   1.845  0.00  0.00     0.000 A 
ENDROOT
TORSDOF 0
ENDMDL
