MODEL 1
REMARK minimizedAffinity 8.43349266
REMARK minimizedRMSD -1
REMARK  0 active torsions:
REMARK  status: ('A' for Active; 'I' for Inactive)
ROOT
ATOM      1  C1  BNZ d   1       3.988  -1.646   0.312  0.00  0.00     0.000 A 
ATOM      2  C2  BNZ d   1       2.876  -1.835  -0.465  0.00  0.00     0.000 A 
ATOM      3  C3  BNZ d   1       2.111  -0.774  -0.862  0.00  0.00     0.000 A 
ATOM      4  C4  BNZ d   1       2.435   0.469  -0.449  0.00  0.00     0.000 A 
ATOM      5  C5  BNZ d   1       3.547   0.674   0.343  0.00  0.00     0.000 A 
ATOM      6  C6  BNZ d   1       4.337  -0.392   0.708  0.00  0.00     0.000 A 
ENDROOT
TORSDOF 0
ENDMDL
