MODEL 1
REMARK minimizedAffinity 9.14230251
REMARK minimizedRMSD -1
REMARK  0 active torsions:
REMARK  status: ('A' for Active; 'I' for Inactive)
ROOT
ATOM      1  C1  BNZ d   1      -1.894   3.373  -3.733  0.00  0.00     0.000 A 
ATOM      2  C2  BNZ d   1      -1.500   2.062  -3.750  0.00  0.00     0.000 A 
ATOM      3  C3  BNZ d   1      -0.965   1.506  -4.878  0.00  0.00     0.000 A 
ATOM      4  C4  BNZ d   1      -0.860   2.249  -5.998  0.00  0.00     0.000 A 
ATOM      5  C5  BNZ d   1      -1.261   3.570  -6.000  0.00  0.00     0.000 A 
ATOM      6  C6  BNZ d   1      -1.764   4.138  -4.851  0.00  0.00     0.000 A 
ENDROOT
TORSDOF 0
ENDMDL
