MODEL 1
REMARK minimizedAffinity 6.69396734
REMARK minimizedRMSD -1
REMARK  0 active torsions:
REMARK  status: ('A' for Active; 'I' for Inactive)
ROOT
ATOM      1  C1  BNZ d   1       2.237  -0.547  -0.763  0.00  0.00     0.000 A 
ATOM      2  C2  BNZ d   1       2.292  -1.914  -0.718  0.00  0.00     0.000 A 
ATOM      3  C3  BNZ d   1       3.246  -2.553   0.025  0.00  0.00     0.000 A 
ATOM      4  C4  BNZ d   1       4.166  -1.824   0.689  0.00  0.00     0.000 A 
ATOM      5  C5  BNZ d   1       4.130  -0.445   0.647  0.00  0.00     0.000 A 
ATOM      6  C6  BNZ d   1       3.145   0.195  -0.071  0.00  0.00     0.000 A 
ENDROOT
TORSDOF 0
ENDMDL
