MODEL 1
REMARK minimizedAffinity 7.4698801
REMARK minimizedRMSD -1
REMARK  0 active torsions:
REMARK  status: ('A' for Active; 'I' for Inactive)
ROOT
ATOM      1  C1  BNZ d   1       3.866   0.009   0.117  0.00  0.00     0.000 A 
ATOM      2  C2  BNZ d   1       2.989  -0.933  -0.352  0.00  0.00     0.000 A 
ATOM      3  C3  BNZ d   1       2.276  -0.715  -1.498  0.00  0.00     0.000 A 
ATOM      4  C4  BNZ d   1       2.410   0.458  -2.150  0.00  0.00     0.000 A 
ATOM      5  C5  BNZ d   1       3.283   1.421  -1.684  0.00  0.00     0.000 A 
ATOM      6  C6  BNZ d   1       4.029   1.182  -0.552  0.00  0.00     0.000 A 
ENDROOT
TORSDOF 0
ENDMDL
