MODEL 1
REMARK minimizedAffinity 7.96024323
REMARK minimizedRMSD -1
REMARK  0 active torsions:
REMARK  status: ('A' for Active; 'I' for Inactive)
ROOT
ATOM      1  C1  BNZ d   1      -2.136   2.639  -5.996  0.00  0.00     0.000 A 
ATOM      2  C2  BNZ d   1      -2.616   3.921  -5.994  0.00  0.00     0.000 A 
ATOM      3  C3  BNZ d   1      -2.460   4.726  -4.900  0.00  0.00     0.000 A 
ATOM      4  C4  BNZ d   1      -1.861   4.234  -3.796  0.00  0.00     0.000 A 
ATOM      5  C5  BNZ d   1      -1.380   2.940  -3.779  0.00  0.00     0.000 A 
ATOM      6  C6  BNZ d   1      -1.504   2.146  -4.896  0.00  0.00     0.000 A 
ENDROOT
TORSDOF 0
ENDMDL
