MODEL 1
REMARK minimizedAffinity 7.69433784
REMARK minimizedRMSD -1
REMARK  0 active torsions:
REMARK  status: ('A' for Active; 'I' for Inactive)
ROOT
ATOM      1  C1  BNZ d   1      -2.427  -2.604  -5.065  0.00  0.00     0.000 A 
ATOM      2  C2  BNZ d   1      -3.344  -2.195  -5.997  0.00  0.00     0.000 A 
ATOM      3  C3  BNZ d   1      -4.621  -2.683  -5.983  0.00  0.00     0.000 A 
ATOM      4  C4  BNZ d   1      -4.968  -3.607  -5.065  0.00  0.00     0.000 A 
ATOM      5  C5  BNZ d   1      -4.052  -4.037  -4.125  0.00  0.00     0.000 A 
ATOM      6  C6  BNZ d   1      -2.779  -3.515  -4.118  0.00  0.00     0.000 A 
ENDROOT
TORSDOF 0
ENDMDL
