MODEL 1
REMARK minimizedAffinity -4.82407713
REMARK minimizedRMSD -1
REMARK  0 active torsions:
REMARK  status: ('A' for Active; 'I' for Inactive)
ROOT
ATOM      1  C   UNL d   1       3.453  -1.423   1.035  0.00  0.00     0.077 C 
ATOM      2  C1  UNL d   1       2.109  -1.272   0.388  0.00  0.00    -0.074 A 
ATOM      3  C2  UNL d   1       1.563  -2.301  -0.385  0.00  0.00    -0.005 A 
ATOM      4  C3  UNL d   1       0.307  -2.149  -0.973  0.00  0.00     0.006 A 
ATOM      5  C4  UNL d   1      -0.415  -0.968  -0.793  0.00  0.00    -0.005 A 
ATOM      6  C5  UNL d   1       0.115   0.072  -0.022  0.00  0.00    -0.074 A 
ATOM      7  C6  UNL d   1      -0.652   1.344   0.189  0.00  0.00     0.077 C 
ATOM      8  C7  UNL d   1       1.374  -0.091   0.571  0.00  0.00    -0.001 A 
ENDROOT
TORSDOF 0
ENDMDL
