MODEL 1
REMARK minimizedAffinity -3.88406086
REMARK minimizedRMSD -1
REMARK  0 active torsions:
REMARK  status: ('A' for Active; 'I' for Inactive)
ROOT
ATOM      1  C   UNL d   1       2.461  -1.876   1.095  0.00  0.00     0.077 C 
ATOM      2  C1  UNL d   1       1.568  -0.809   0.535  0.00  0.00    -0.074 A 
ATOM      3  C2  UNL d   1       0.386  -1.139  -0.136  0.00  0.00    -0.005 A 
ATOM      4  C3  UNL d   1      -0.439  -0.135  -0.643  0.00  0.00     0.006 A 
ATOM      5  C4  UNL d   1      -0.092   1.207  -0.483  0.00  0.00    -0.005 A 
ATOM      6  C5  UNL d   1       1.085   1.556   0.187  0.00  0.00    -0.074 A 
ATOM      7  C6  UNL d   1       1.468   2.994   0.375  0.00  0.00     0.077 C 
ATOM      8  C7  UNL d   1       1.905   0.542   0.699  0.00  0.00    -0.001 A 
ENDROOT
TORSDOF 0
ENDMDL
