MODEL 1
REMARK minimizedAffinity -2.77853251
REMARK minimizedRMSD -1
REMARK  0 active torsions:
REMARK  status: ('A' for Active; 'I' for Inactive)
ROOT
ATOM      1  C   UNL d   1       0.786  -1.755  -0.030  0.00  0.00     0.077 C 
ATOM      2  C1  UNL d   1      -0.078  -0.531   0.050  0.00  0.00    -0.074 A 
ATOM      3  C2  UNL d   1       0.285   0.650  -0.605  0.00  0.00    -0.005 A 
ATOM      4  C3  UNL d   1      -0.533   1.777  -0.529  0.00  0.00     0.006 A 
ATOM      5  C4  UNL d   1      -1.721   1.734   0.202  0.00  0.00    -0.005 A 
ATOM      6  C5  UNL d   1      -2.102   0.562   0.862  0.00  0.00    -0.074 A 
ATOM      7  C6  UNL d   1      -3.380   0.496   1.643  0.00  0.00     0.077 C 
ATOM      8  C7  UNL d   1      -1.277  -0.569   0.775  0.00  0.00    -0.001 A 
ENDROOT
TORSDOF 0
ENDMDL
