MODEL 1
REMARK minimizedAffinity -4.4046011
REMARK minimizedRMSD -1
REMARK  0 active torsions:
REMARK  status: ('A' for Active; 'I' for Inactive)
ROOT
ATOM      1  C   UNL d   1       3.429  -1.150   0.928  0.00  0.00     0.077 C 
ATOM      2  C1  UNL d   1       2.203  -0.555   0.303  0.00  0.00    -0.074 A 
ATOM      3  C2  UNL d   1       1.918   0.808   0.434  0.00  0.00    -0.005 A 
ATOM      4  C3  UNL d   1       0.778   1.348  -0.161  0.00  0.00     0.006 A 
ATOM      5  C4  UNL d   1      -0.086   0.533  -0.893  0.00  0.00    -0.005 A 
ATOM      6  C5  UNL d   1       0.183  -0.832  -1.036  0.00  0.00    -0.074 A 
ATOM      7  C6  UNL d   1      -0.731  -1.720  -1.827  0.00  0.00     0.077 C 
ATOM      8  C7  UNL d   1       1.333  -1.366  -0.440  0.00  0.00    -0.001 A 
ENDROOT
TORSDOF 0
ENDMDL
