MODEL 1
REMARK minimizedAffinity -3.65988874
REMARK minimizedRMSD -1
REMARK  0 active torsions:
REMARK  status: ('A' for Active; 'I' for Inactive)
ROOT
ATOM      1  C   UNL d   1       2.928  -1.317   1.401  0.00  0.00     0.077 C 
ATOM      2  C1  UNL d   1       1.778  -1.130   0.456  0.00  0.00    -0.074 A 
ATOM      3  C2  UNL d   1       1.375  -2.162  -0.398  0.00  0.00    -0.005 A 
ATOM      4  C3  UNL d   1       0.298  -1.976  -1.264  0.00  0.00     0.006 A 
ATOM      5  C4  UNL d   1      -0.386  -0.760  -1.285  0.00  0.00    -0.005 A 
ATOM      6  C5  UNL d   1       0.002   0.282  -0.437  0.00  0.00    -0.074 A 
ATOM      7  C6  UNL d   1      -0.728   1.592  -0.440  0.00  0.00     0.077 C 
ATOM      8  C7  UNL d   1       1.081   0.086   0.435  0.00  0.00    -0.001 A 
ENDROOT
TORSDOF 0
ENDMDL
