MODEL 1
REMARK minimizedAffinity -5.11316442
REMARK minimizedRMSD -1
REMARK  0 active torsions:
REMARK  status: ('A' for Active; 'I' for Inactive)
ROOT
ATOM      1  C   UNL d   1       2.558  -1.843   0.919  0.00  0.00     0.077 C 
ATOM      2  C1  UNL d   1       1.846  -0.585   0.519  0.00  0.00    -0.074 A 
ATOM      3  C2  UNL d   1       2.409   0.670   0.769  0.00  0.00    -0.005 A 
ATOM      4  C3  UNL d   1       1.740   1.831   0.383  0.00  0.00     0.006 A 
ATOM      5  C4  UNL d   1       0.502   1.749  -0.257  0.00  0.00    -0.005 A 
ATOM      6  C5  UNL d   1      -0.076   0.503  -0.516  0.00  0.00    -0.074 A 
ATOM      7  C6  UNL d   1      -1.401   0.396  -1.211  0.00  0.00     0.077 C 
ATOM      8  C7  UNL d   1       0.606  -0.660  -0.131  0.00  0.00    -0.001 A 
ENDROOT
TORSDOF 0
ENDMDL
