MODEL 1
REMARK minimizedAffinity -3.83081746
REMARK minimizedRMSD -1
REMARK  0 active torsions:
REMARK  status: ('A' for Active; 'I' for Inactive)
ROOT
ATOM      1  C   UNL d   1      -1.165   0.815  -0.504  0.00  0.00     0.077 C 
ATOM      2  C1  UNL d   1       0.122   0.046  -0.452  0.00  0.00    -0.074 A 
ATOM      3  C2  UNL d   1       0.123  -1.349  -0.356  0.00  0.00    -0.005 A 
ATOM      4  C3  UNL d   1       1.327  -2.051  -0.319  0.00  0.00     0.006 A 
ATOM      5  C4  UNL d   1       2.542  -1.366  -0.377  0.00  0.00    -0.005 A 
ATOM      6  C5  UNL d   1       2.561   0.028  -0.474  0.00  0.00    -0.074 A 
ATOM      7  C6  UNL d   1       3.857   0.779  -0.547  0.00  0.00     0.077 C 
ATOM      8  C7  UNL d   1       1.346   0.726  -0.518  0.00  0.00    -0.001 A 
ENDROOT
TORSDOF 0
ENDMDL
