MODEL 1
REMARK minimizedAffinity 4.87223434
REMARK minimizedRMSD -1
REMARK  0 active torsions:
REMARK  status: ('A' for Active; 'I' for Inactive)
ROOT
ATOM      1  C   UNL d   1       3.810  -1.231  -0.224  0.00  0.00     0.077 C 
ATOM      2  C1  UNL d   1       2.326  -1.340  -0.414  0.00  0.00    -0.074 A 
ATOM      3  C2  UNL d   1       1.539  -0.198  -0.595  0.00  0.00    -0.005 A 
ATOM      4  C3  UNL d   1       0.161  -0.316  -0.779  0.00  0.00     0.006 A 
ATOM      5  C4  UNL d   1      -0.442  -1.574  -0.784  0.00  0.00    -0.005 A 
ATOM      6  C5  UNL d   1       0.329  -2.727  -0.606  0.00  0.00    -0.074 A 
ATOM      7  C6  UNL d   1      -0.303  -4.087  -0.618  0.00  0.00     0.077 C 
ATOM      8  C7  UNL d   1       1.713  -2.601  -0.428  0.00  0.00    -0.001 A 
ENDROOT
TORSDOF 0
ENDMDL
