MODEL 1
REMARK minimizedAffinity 6.71381474
REMARK minimizedRMSD -1
REMARK  1 active torsions:
REMARK  status: ('A' for Active; 'I' for Inactive)
REMARK    1  A    between atoms: C1_2  and  C2_3 
ROOT
ATOM      1  C2  UNL d   1      -4.017  -0.292   0.123  0.00  0.00    -0.077 A 
ATOM      2  C3  UNL d   1      -3.232  -0.427  -1.030  0.00  0.00     0.002 A 
ATOM      3  C4  UNL d   1      -3.824  -0.735  -2.256  0.00  0.00     0.002 A 
ATOM      4  C5  UNL d   1      -5.204  -0.906  -2.342  0.00  0.00    -0.004 A 
ATOM      5  C6  UNL d   1      -5.994  -0.776  -1.200  0.00  0.00     0.002 A 
ATOM      6  C7  UNL d   1      -5.404  -0.470   0.027  0.00  0.00     0.002 A 
ENDROOT
BRANCH   1   7
ATOM      7  C1  UNL d   1      -3.386   0.088   1.437  0.00  0.00     0.055 C 
ATOM      8  C   UNL d   1      -2.997  -1.144   2.242  0.00  0.00     0.019 C 
ENDBRANCH   1   7
TORSDOF 1
ENDMDL
