MODEL 1
REMARK minimizedAffinity 3.86884046
REMARK minimizedRMSD -1
REMARK  1 active torsions:
REMARK  status: ('A' for Active; 'I' for Inactive)
REMARK    1  A    between atoms: C1_2  and  C2_3 
ROOT
ATOM      1  C2  UNL d   1      -2.745  -0.739   2.859  0.00  0.00    -0.077 A 
ATOM      2  C3  UNL d   1      -2.614  -1.129   4.199  0.00  0.00     0.002 A 
ATOM      3  C4  UNL d   1      -1.733  -0.456   5.047  0.00  0.00     0.002 A 
ATOM      4  C5  UNL d   1      -0.980   0.613   4.566  0.00  0.00    -0.004 A 
ATOM      5  C6  UNL d   1      -1.101   1.007   3.234  0.00  0.00     0.002 A 
ATOM      6  C7  UNL d   1      -1.981   0.334   2.385  0.00  0.00     0.002 A 
ENDROOT
BRANCH   1   7
ATOM      7  C1  UNL d   1      -3.731  -1.433   1.955  0.00  0.00     0.055 C 
ATOM      8  C   UNL d   1      -4.772  -0.460   1.422  0.00  0.00     0.019 C 
ENDBRANCH   1   7
TORSDOF 1
ENDMDL
