MODEL 1
REMARK minimizedAffinity -4.17075443
REMARK minimizedRMSD -1
REMARK  1 active torsions:
REMARK  status: ('A' for Active; 'I' for Inactive)
REMARK    1  A    between atoms: C1_2  and  C2_3 
ROOT
ATOM      1  C2  UNL d   1      -4.499   5.517   3.400  0.00  0.00    -0.077 A 
ATOM      2  C3  UNL d   1      -5.568   4.637   3.618  0.00  0.00     0.002 A 
ATOM      3  C4  UNL d   1      -5.895   4.229   4.913  0.00  0.00     0.002 A 
ATOM      4  C5  UNL d   1      -5.161   4.700   5.999  0.00  0.00    -0.004 A 
ATOM      5  C6  UNL d   1      -4.095   5.575   5.793  0.00  0.00     0.002 A 
ATOM      6  C7  UNL d   1      -3.766   5.982   4.500  0.00  0.00     0.002 A 
ENDROOT
BRANCH   1   7
ATOM      7  C1  UNL d   1      -4.176   5.997   2.009  0.00  0.00     0.055 C 
ATOM      8  C   UNL d   1      -2.675   5.987   1.755  0.00  0.00     0.019 C 
ENDBRANCH   1   7
TORSDOF 1
ENDMDL
