MODEL 1
REMARK minimizedAffinity 8.86010742
REMARK minimizedRMSD -1
REMARK  1 active torsions:
REMARK  status: ('A' for Active; 'I' for Inactive)
REMARK    1  A    between atoms: C1_2  and  C2_3 
ROOT
ATOM      1  C2  UNL d   1       0.508   0.764   0.214  0.00  0.00    -0.077 A 
ATOM      2  C3  UNL d   1      -0.605   0.386  -0.550  0.00  0.00     0.002 A 
ATOM      3  C4  UNL d   1      -0.800  -0.951  -0.901  0.00  0.00     0.002 A 
ATOM      4  C5  UNL d   1       0.111  -1.921  -0.489  0.00  0.00    -0.004 A 
ATOM      5  C6  UNL d   1       1.223  -1.555   0.270  0.00  0.00     0.002 A 
ATOM      6  C7  UNL d   1       1.420  -0.219   0.620  0.00  0.00     0.002 A 
ENDROOT
BRANCH   1   7
ATOM      7  C1  UNL d   1       0.694   2.198   0.635  0.00  0.00     0.055 C 
ATOM      8  C   UNL d   1      -0.063   2.501   1.920  0.00  0.00     0.019 C 
ENDBRANCH   1   7
TORSDOF 1
ENDMDL
