MODEL 1
REMARK minimizedAffinity -4.31823206
REMARK minimizedRMSD -1
REMARK  1 active torsions:
REMARK  status: ('A' for Active; 'I' for Inactive)
REMARK    1  A    between atoms: C1_2  and  C2_3 
ROOT
ATOM      1  C2  UNL d   1      -1.008   0.268  -0.488  0.00  0.00    -0.073 A 
ATOM      2  C3  UNL d   1      -0.679  -1.087  -0.605  0.00  0.00    -0.002 A 
ATOM      3  C4  UNL d   1       0.644  -1.507  -0.461  0.00  0.00     0.004 A 
ATOM      4  C5  UNL d   1       1.650  -0.578  -0.193  0.00  0.00    -0.004 A 
ATOM      5  C6  UNL d   1       1.339   0.779  -0.061  0.00  0.00    -0.075 A 
ATOM      6  C7  UNL d   1       2.410   1.791   0.226  0.00  0.00     0.076 C 
ATOM      7  C8  UNL d   1       0.009   1.193  -0.209  0.00  0.00     0.001 A 
ENDROOT
BRANCH   1   8
ATOM      8  C1  UNL d   1      -2.436   0.725  -0.637  0.00  0.00     0.053 C 
ATOM      9  C   UNL d   1      -3.174   0.730   0.693  0.00  0.00     0.018 C 
ENDBRANCH   1   8
TORSDOF 1
ENDMDL
