MODEL 1
REMARK minimizedAffinity -1.60564351
REMARK minimizedRMSD -1
REMARK  0 active torsions:
REMARK  status: ('A' for Active; 'I' for Inactive)
ROOT
ATOM      1  C   UNL d   1      -5.968   4.121  -5.989  0.00  0.00     0.077 C 
ATOM      2  C1  UNL d   1      -4.773   3.214  -5.996  0.00  0.00    -0.074 A 
ATOM      3  C2  UNL d   1      -3.476   3.736  -5.987  0.00  0.00    -0.005 A 
ATOM      4  C3  UNL d   1      -2.374   2.880  -5.984  0.00  0.00     0.006 A 
ATOM      5  C4  UNL d   1      -2.559   1.497  -5.990  0.00  0.00    -0.005 A 
ATOM      6  C5  UNL d   1      -3.849   0.957  -5.998  0.00  0.00    -0.074 A 
ATOM      7  C6  UNL d   1      -4.065  -0.527  -5.995  0.00  0.00     0.077 C 
ATOM      8  C7  UNL d   1      -4.951   1.824  -5.994  0.00  0.00    -0.001 A 
ENDROOT
TORSDOF 0
ENDMDL
