MODEL 1
REMARK minimizedAffinity 7.28169966
REMARK minimizedRMSD -1
REMARK  0 active torsions:
REMARK  status: ('A' for Active; 'I' for Inactive)
ROOT
ATOM      1  C   UNL d   1      -3.523  -1.820  -3.726  0.00  0.00     0.077 C 
ATOM      2  C1  UNL d   1      -3.824  -3.061  -4.513  0.00  0.00    -0.074 A 
ATOM      3  C2  UNL d   1      -5.132  -3.363  -4.906  0.00  0.00    -0.005 A 
ATOM      4  C3  UNL d   1      -5.396  -4.516  -5.646  0.00  0.00     0.006 A 
ATOM      5  C4  UNL d   1      -4.356  -5.376  -6.000  0.00  0.00    -0.005 A 
ATOM      6  C5  UNL d   1      -3.042  -5.090  -5.617  0.00  0.00    -0.074 A 
ATOM      7  C6  UNL d   1      -1.911  -5.999  -5.998  0.00  0.00     0.077 C 
ATOM      8  C7  UNL d   1      -2.784  -3.926  -4.880  0.00  0.00    -0.001 A 
ENDROOT
TORSDOF 0
ENDMDL
