MODEL 1
REMARK minimizedAffinity -2.38943553
REMARK minimizedRMSD -1
REMARK  0 active torsions:
REMARK  status: ('A' for Active; 'I' for Inactive)
ROOT
ATOM      1  C   UNL d   1      -2.333  -0.327  -5.773  0.00  0.00     0.077 C 
ATOM      2  C1  UNL d   1      -3.525   0.580  -5.859  0.00  0.00    -0.074 A 
ATOM      3  C2  UNL d   1      -4.823   0.061  -5.890  0.00  0.00    -0.005 A 
ATOM      4  C3  UNL d   1      -5.921   0.918  -5.959  0.00  0.00     0.006 A 
ATOM      5  C4  UNL d   1      -5.733   2.300  -5.999  0.00  0.00    -0.005 A 
ATOM      6  C5  UNL d   1      -4.442   2.838  -5.968  0.00  0.00    -0.074 A 
ATOM      7  C6  UNL d   1      -4.223   4.321  -6.000  0.00  0.00     0.077 C 
ATOM      8  C7  UNL d   1      -3.344   1.970  -5.891  0.00  0.00    -0.001 A 
ENDROOT
TORSDOF 0
ENDMDL
