MODEL 1
REMARK minimizedAffinity -2.93641567
REMARK minimizedRMSD -1
REMARK  0 active torsions:
REMARK  status: ('A' for Active; 'I' for Inactive)
ROOT
ATOM      1  C   UNL d   1      -6.000  -1.261  -5.758  0.00  0.00     0.077 C 
ATOM      2  C1  UNL d   1      -5.241   0.032  -5.798  0.00  0.00    -0.074 A 
ATOM      3  C2  UNL d   1      -3.850   0.045  -5.946  0.00  0.00    -0.005 A 
ATOM      4  C3  UNL d   1      -3.159   1.256  -5.991  0.00  0.00     0.006 A 
ATOM      5  C4  UNL d   1      -3.850   2.464  -5.889  0.00  0.00    -0.005 A 
ATOM      6  C5  UNL d   1      -5.241   2.471  -5.741  0.00  0.00    -0.074 A 
ATOM      7  C6  UNL d   1      -6.000   3.760  -5.639  0.00  0.00     0.077 C 
ATOM      8  C7  UNL d   1      -5.929   1.250  -5.704  0.00  0.00    -0.001 A 
ENDROOT
TORSDOF 0
ENDMDL
