MODEL 1
REMARK minimizedAffinity -3.64783144
REMARK minimizedRMSD -1
REMARK  0 active torsions:
REMARK  status: ('A' for Active; 'I' for Inactive)
ROOT
ATOM      1  C   UNL d   1      -2.454  -0.394  -5.999  0.00  0.00     0.077 C 
ATOM      2  C1  UNL d   1      -2.860  -1.838  -5.988  0.00  0.00    -0.074 A 
ATOM      3  C2  UNL d   1      -4.210  -2.205  -5.999  0.00  0.00    -0.005 A 
ATOM      4  C3  UNL d   1      -4.572  -3.552  -5.998  0.00  0.00     0.006 A 
ATOM      5  C4  UNL d   1      -3.591  -4.544  -5.986  0.00  0.00    -0.005 A 
ATOM      6  C5  UNL d   1      -2.236  -4.196  -5.976  0.00  0.00    -0.074 A 
ATOM      7  C6  UNL d   1      -1.168  -5.249  -5.973  0.00  0.00     0.077 C 
ATOM      8  C7  UNL d   1      -1.880  -2.840  -5.984  0.00  0.00    -0.001 A 
ENDROOT
TORSDOF 0
ENDMDL
