MODEL 1
REMARK minimizedAffinity 2.30220103
REMARK minimizedRMSD -1
REMARK  0 active torsions:
REMARK  status: ('A' for Active; 'I' for Inactive)
ROOT
ATOM      1  C   UNL d   1      -2.641   4.097  -5.936  0.00  0.00     0.077 C 
ATOM      2  C1  UNL d   1      -3.681   3.016  -5.951  0.00  0.00    -0.074 A 
ATOM      3  C2  UNL d   1      -5.043   3.330  -5.974  0.00  0.00    -0.005 A 
ATOM      4  C3  UNL d   1      -5.999   2.314  -5.998  0.00  0.00     0.006 A 
ATOM      5  C4  UNL d   1      -5.602   0.976  -5.999  0.00  0.00    -0.005 A 
ATOM      6  C5  UNL d   1      -4.244   0.643  -5.977  0.00  0.00    -0.074 A 
ATOM      7  C6  UNL d   1      -3.800  -0.789  -5.988  0.00  0.00     0.077 C 
ATOM      8  C7  UNL d   1      -3.290   1.670  -5.961  0.00  0.00    -0.001 A 
ENDROOT
TORSDOF 0
ENDMDL
