MODEL 1
REMARK minimizedAffinity -3.87790871
REMARK minimizedRMSD -1
REMARK  0 active torsions:
REMARK  status: ('A' for Active; 'I' for Inactive)
ROOT
ATOM      1  C   UNL d   1      -2.304   2.997  -6.000  0.00  0.00     0.077 C 
ATOM      2  C1  UNL d   1      -3.548   2.159  -5.991  0.00  0.00    -0.074 A 
ATOM      3  C2  UNL d   1      -4.815   2.753  -5.995  0.00  0.00    -0.005 A 
ATOM      4  C3  UNL d   1      -5.963   1.962  -5.996  0.00  0.00     0.006 A 
ATOM      5  C4  UNL d   1      -5.857   0.570  -5.994  0.00  0.00    -0.005 A 
ATOM      6  C5  UNL d   1      -4.599  -0.041  -5.991  0.00  0.00    -0.074 A 
ATOM      7  C6  UNL d   1      -4.468  -1.536  -5.998  0.00  0.00     0.077 C 
ATOM      8  C7  UNL d   1      -3.450   0.761  -5.996  0.00  0.00    -0.001 A 
ENDROOT
TORSDOF 0
ENDMDL
