MODEL 1
REMARK minimizedAffinity -3.65988016
REMARK minimizedRMSD -1
REMARK  0 active torsions:
REMARK  status: ('A' for Active; 'I' for Inactive)
ROOT
ATOM      1  C   UNL d   1      -4.919  -0.823  -5.999  0.00  0.00     0.077 C 
ATOM      2  C1  UNL d   1      -4.385   0.578  -5.976  0.00  0.00    -0.074 A 
ATOM      3  C2  UNL d   1      -3.009   0.823  -5.953  0.00  0.00    -0.005 A 
ATOM      4  C3  UNL d   1      -2.527   2.131  -5.941  0.00  0.00     0.006 A 
ATOM      5  C4  UNL d   1      -3.415   3.207  -5.953  0.00  0.00    -0.005 A 
ATOM      6  C5  UNL d   1      -4.795   2.983  -5.977  0.00  0.00    -0.074 A 
ATOM      7  C6  UNL d   1      -5.763   4.128  -6.000  0.00  0.00     0.077 C 
ATOM      8  C7  UNL d   1      -5.271   1.665  -5.996  0.00  0.00    -0.001 A 
ENDROOT
TORSDOF 0
ENDMDL
