MODEL 1
REMARK minimizedAffinity -2.50517893
REMARK minimizedRMSD -1
REMARK  0 active torsions:
REMARK  status: ('A' for Active; 'I' for Inactive)
ROOT
ATOM      1  C   UNL d   1      -1.278   2.577  -6.000  0.00  0.00     0.077 C 
ATOM      2  C1  UNL d   1      -2.728   2.265  -5.775  0.00  0.00    -0.074 A 
ATOM      3  C2  UNL d   1      -3.625   3.262  -5.381  0.00  0.00    -0.005 A 
ATOM      4  C3  UNL d   1      -4.973   2.958  -5.185  0.00  0.00     0.006 A 
ATOM      5  C4  UNL d   1      -5.435   1.656  -5.381  0.00  0.00    -0.005 A 
ATOM      6  C5  UNL d   1      -4.552   0.646  -5.775  0.00  0.00    -0.074 A 
ATOM      7  C6  UNL d   1      -5.034  -0.756  -5.999  0.00  0.00     0.077 C 
ATOM      8  C7  UNL d   1      -3.201   0.961  -5.977  0.00  0.00    -0.001 A 
ENDROOT
TORSDOF 0
ENDMDL
