MODEL 1
REMARK minimizedAffinity -1.93778896
REMARK minimizedRMSD -1
REMARK  0 active torsions:
REMARK  status: ('A' for Active; 'I' for Inactive)
ROOT
ATOM      1  C   UNL d   1      -2.904   4.033  -5.999  0.00  0.00     0.077 C 
ATOM      2  C1  UNL d   1      -3.773   2.810  -5.987  0.00  0.00    -0.074 A 
ATOM      3  C2  UNL d   1      -5.167   2.919  -5.987  0.00  0.00    -0.005 A 
ATOM      4  C3  UNL d   1      -5.961   1.772  -5.985  0.00  0.00     0.006 A 
ATOM      5  C4  UNL d   1      -5.371   0.508  -5.984  0.00  0.00    -0.005 A 
ATOM      6  C5  UNL d   1      -3.978   0.380  -5.986  0.00  0.00    -0.074 A 
ATOM      7  C6  UNL d   1      -3.327  -0.971  -5.994  0.00  0.00     0.077 C 
ATOM      8  C7  UNL d   1      -3.187   1.537  -5.994  0.00  0.00    -0.001 A 
ENDROOT
TORSDOF 0
ENDMDL
