MODEL 1
REMARK minimizedAffinity -1.89752877
REMARK minimizedRMSD -1
REMARK  0 active torsions:
REMARK  status: ('A' for Active; 'I' for Inactive)
ROOT
ATOM      1  C   UNL d   1      -1.580   1.704  -5.999  0.00  0.00     0.077 C 
ATOM      2  C1  UNL d   1      -3.079   1.749  -5.991  0.00  0.00    -0.074 A 
ATOM      3  C2  UNL d   1      -3.762   2.970  -5.995  0.00  0.00    -0.005 A 
ATOM      4  C3  UNL d   1      -5.156   2.996  -5.997  0.00  0.00     0.006 A 
ATOM      5  C4  UNL d   1      -5.881   1.803  -5.995  0.00  0.00    -0.005 A 
ATOM      6  C5  UNL d   1      -5.216   0.573  -5.992  0.00  0.00    -0.074 A 
ATOM      7  C6  UNL d   1      -5.980  -0.718  -6.000  0.00  0.00     0.077 C 
ATOM      8  C7  UNL d   1      -3.814   0.555  -5.997  0.00  0.00    -0.001 A 
ENDROOT
TORSDOF 0
ENDMDL
