MODEL 1
REMARK minimizedAffinity -1.05714798
REMARK minimizedRMSD -1
REMARK  0 active torsions:
REMARK  status: ('A' for Active; 'I' for Inactive)
ROOT
ATOM      1  C   UNL d   1       1.093  -1.565   4.130  0.00  0.00     0.078 C 
ATOM      2  C1  UNL d   1       0.190  -1.076   3.037  0.00  0.00    -0.077 A 
ATOM      3  C2  UNL d   1       0.676  -0.863   1.741  0.00  0.00    -0.001 A 
ATOM      4  C3  UNL d   1      -0.174  -0.398   0.736  0.00  0.00     0.003 A 
ATOM      5  C4  UNL d   1      -1.514  -0.140   1.017  0.00  0.00    -0.005 A 
ATOM      6  C5  UNL d   1      -2.006  -0.347   2.304  0.00  0.00     0.003 A 
ATOM      7  C6  UNL d   1      -1.158  -0.812   3.310  0.00  0.00    -0.001 A 
ENDROOT
TORSDOF 0
ENDMDL
