MODEL 1
REMARK minimizedAffinity -0.891594887
REMARK minimizedRMSD -1
REMARK  0 active torsions:
REMARK  status: ('A' for Active; 'I' for Inactive)
ROOT
ATOM      1  C   UNL d   1       0.951  -0.923   2.979  0.00  0.00     0.078 C 
ATOM      2  C1  UNL d   1      -0.061  -0.657   1.905  0.00  0.00    -0.077 A 
ATOM      3  C2  UNL d   1      -1.337  -0.174   2.220  0.00  0.00    -0.001 A 
ATOM      4  C3  UNL d   1      -2.272   0.061   1.211  0.00  0.00     0.003 A 
ATOM      5  C4  UNL d   1      -1.942  -0.186  -0.121  0.00  0.00    -0.005 A 
ATOM      6  C5  UNL d   1      -0.675  -0.668  -0.444  0.00  0.00     0.003 A 
ATOM      7  C6  UNL d   1       0.261  -0.903   0.564  0.00  0.00    -0.001 A 
ENDROOT
TORSDOF 0
ENDMDL
