MODEL 1
REMARK minimizedAffinity -2.08602023
REMARK minimizedRMSD -1
REMARK  0 active torsions:
REMARK  status: ('A' for Active; 'I' for Inactive)
ROOT
ATOM      1  C   UNL d   1      -2.183   0.532   2.622  0.00  0.00     0.078 C 
ATOM      2  C1  UNL d   1      -1.665   0.106   1.281  0.00  0.00    -0.077 A 
ATOM      3  C2  UNL d   1      -2.476   0.169   0.141  0.00  0.00    -0.001 A 
ATOM      4  C3  UNL d   1      -1.984  -0.240  -1.099  0.00  0.00     0.003 A 
ATOM      5  C4  UNL d   1      -0.680  -0.717  -1.212  0.00  0.00    -0.005 A 
ATOM      6  C5  UNL d   1       0.134  -0.785  -0.083  0.00  0.00     0.003 A 
ATOM      7  C6  UNL d   1      -0.356  -0.377   1.158  0.00  0.00    -0.001 A 
ENDROOT
TORSDOF 0
ENDMDL
