MODEL 1
REMARK minimizedAffinity -2.29037142
REMARK minimizedRMSD -1
REMARK  0 active torsions:
REMARK  status: ('A' for Active; 'I' for Inactive)
ROOT
ATOM      1  C   UNL d   1       1.547  -0.666   0.276  0.00  0.00     0.078 C 
ATOM      2  C1  UNL d   1       0.121  -0.351   0.617  0.00  0.00    -0.077 A 
ATOM      3  C2  UNL d   1      -0.928  -0.769  -0.212  0.00  0.00    -0.001 A 
ATOM      4  C3  UNL d   1      -2.250  -0.461   0.113  0.00  0.00     0.003 A 
ATOM      5  C4  UNL d   1      -2.536   0.268   1.266  0.00  0.00    -0.005 A 
ATOM      6  C5  UNL d   1      -1.499   0.689   2.096  0.00  0.00     0.003 A 
ATOM      7  C6  UNL d   1      -0.176   0.382   1.773  0.00  0.00    -0.001 A 
ENDROOT
TORSDOF 0
ENDMDL
