MODEL 1
REMARK minimizedAffinity -1.83217609
REMARK minimizedRMSD -1
REMARK  0 active torsions:
REMARK  status: ('A' for Active; 'I' for Inactive)
ROOT
ATOM      1  C   UNL d   1      -1.854   0.001   0.632  0.00  0.00     0.078 C 
ATOM      2  C1  UNL d   1      -0.930  -0.485   1.708  0.00  0.00    -0.077 A 
ATOM      3  C2  UNL d   1       0.439  -0.648   1.463  0.00  0.00    -0.001 A 
ATOM      4  C3  UNL d   1       1.287  -1.111   2.470  0.00  0.00     0.003 A 
ATOM      5  C4  UNL d   1       0.775  -1.417   3.730  0.00  0.00    -0.005 A 
ATOM      6  C5  UNL d   1      -0.587  -1.260   3.982  0.00  0.00     0.003 A 
ATOM      7  C6  UNL d   1      -1.436  -0.797   2.976  0.00  0.00    -0.001 A 
ENDROOT
TORSDOF 0
ENDMDL
