MODEL 1
REMARK minimizedAffinity -0.814570427
REMARK minimizedRMSD -1
REMARK  0 active torsions:
REMARK  status: ('A' for Active; 'I' for Inactive)
ROOT
ATOM      1  C   UNL d   1       1.023  -0.572   1.744  0.00  0.00     0.078 C 
ATOM      2  C1  UNL d   1      -0.337  -0.337   1.159  0.00  0.00    -0.077 A 
ATOM      3  C2  UNL d   1      -1.349   0.274   1.909  0.00  0.00    -0.001 A 
ATOM      4  C3  UNL d   1      -2.614   0.478   1.355  0.00  0.00     0.003 A 
ATOM      5  C4  UNL d   1      -2.879   0.072   0.048  0.00  0.00    -0.005 A 
ATOM      6  C5  UNL d   1      -1.879  -0.539  -0.705  0.00  0.00     0.003 A 
ATOM      7  C6  UNL d   1      -0.614  -0.743  -0.153  0.00  0.00    -0.001 A 
ENDROOT
TORSDOF 0
ENDMDL
