MODEL 1
REMARK minimizedAffinity 4.85816336
REMARK minimizedRMSD -1
REMARK  0 active torsions:
REMARK  status: ('A' for Active; 'I' for Inactive)
ROOT
ATOM      1  C   UNL d   1      -1.798  -0.795  -1.285  0.00  0.00     0.078 C 
ATOM      2  C1  UNL d   1      -2.313  -0.870   0.122  0.00  0.00    -0.077 A 
ATOM      3  C2  UNL d   1      -1.971   0.104   1.068  0.00  0.00    -0.001 A 
ATOM      4  C3  UNL d   1      -2.450   0.016   2.376  0.00  0.00     0.003 A 
ATOM      5  C4  UNL d   1      -3.274  -1.044   2.750  0.00  0.00    -0.005 A 
ATOM      6  C5  UNL d   1      -3.618  -2.019   1.816  0.00  0.00     0.003 A 
ATOM      7  C6  UNL d   1      -3.139  -1.933   0.507  0.00  0.00    -0.001 A 
ENDROOT
TORSDOF 0
ENDMDL
