MODEL 1
REMARK minimizedAffinity 0.560414672
REMARK minimizedRMSD -1
REMARK  0 active torsions:
REMARK  status: ('A' for Active; 'I' for Inactive)
ROOT
ATOM      1  C   UNL d   1       0.087  -1.289   4.062  0.00  0.00     0.078 C 
ATOM      2  C1  UNL d   1      -0.525  -0.852   2.765  0.00  0.00    -0.077 A 
ATOM      3  C2  UNL d   1      -1.875  -0.488   2.690  0.00  0.00    -0.001 A 
ATOM      4  C3  UNL d   1      -2.434  -0.093   1.474  0.00  0.00     0.003 A 
ATOM      5  C4  UNL d   1      -1.650  -0.058   0.322  0.00  0.00    -0.005 A 
ATOM      6  C5  UNL d   1      -0.306  -0.420   0.386  0.00  0.00     0.003 A 
ATOM      7  C6  UNL d   1       0.255  -0.816   1.602  0.00  0.00    -0.001 A 
ENDROOT
TORSDOF 0
ENDMDL
