MODEL 1
REMARK minimizedAffinity -3.24975395
REMARK minimizedRMSD -1
REMARK  1 active torsions:
REMARK  status: ('A' for Active; 'I' for Inactive)
REMARK    1  A    between atoms: C3_4  and  O_7 
ROOT
ATOM      1  C   UNL d   1      -0.544   0.022   0.708  0.00  0.00    -0.033 A 
ATOM      2  C1  UNL d   1      -0.464   1.100  -0.176  0.00  0.00     0.039 A 
ATOM      3  C2  UNL d   1      -0.199   0.877  -1.528  0.00  0.00    -0.080 A 
ATOM      4  C3  UNL d   1      -0.018  -0.426  -1.984  0.00  0.00     0.150 A 
ATOM      5  C4  UNL d   1      -0.100  -1.505  -1.109  0.00  0.00    -0.007 A 
ATOM      6  C5  UNL d   1      -0.363  -1.280   0.241  0.00  0.00     0.039 A 
ENDROOT
BRANCH   4   7
ATOM      7  O   UNL d   1       0.248  -0.692  -3.294  0.00  0.00    -0.526 OA
ATOM      8  H5  UNL d   1       0.303   0.151  -3.774  0.00  0.00     0.418 HD
ENDBRANCH   4   7
TORSDOF 1
ENDMDL
