MODEL 1
REMARK minimizedAffinity -4.97054291
REMARK minimizedRMSD -1
REMARK  1 active torsions:
REMARK  status: ('A' for Active; 'I' for Inactive)
REMARK    1  A    between atoms: C3_4  and  O_7 
ROOT
ATOM      1  C   UNL d   1       0.032  -0.714   0.710  0.00  0.00    -0.033 A 
ATOM      2  C1  UNL d   1       0.733  -1.580  -0.131  0.00  0.00     0.039 A 
ATOM      3  C2  UNL d   1       0.814  -1.315  -1.500  0.00  0.00    -0.080 A 
ATOM      4  C3  UNL d   1       0.191  -0.181  -2.013  0.00  0.00     0.150 A 
ATOM      5  C4  UNL d   1      -0.506   0.689  -1.181  0.00  0.00    -0.007 A 
ATOM      6  C5  UNL d   1      -0.586   0.422   0.185  0.00  0.00     0.039 A 
ENDROOT
BRANCH   4   7
ATOM      7  O   UNL d   1       0.238   0.118  -3.343  0.00  0.00    -0.526 OA
ATOM      8  H5  UNL d   1       0.728  -0.586  -3.799  0.00  0.00     0.418 HD
ENDBRANCH   4   7
TORSDOF 1
ENDMDL
