MODEL 1
REMARK minimizedAffinity -4.9608202
REMARK minimizedRMSD -1
REMARK  1 active torsions:
REMARK  status: ('A' for Active; 'I' for Inactive)
REMARK    1  A    between atoms: C3_4  and  O_7 
ROOT
ATOM      1  C   UNL d   1      -0.845   0.363   0.268  0.00  0.00    -0.033 A 
ATOM      2  C1  UNL d   1      -1.597  -0.366   1.191  0.00  0.00     0.039 A 
ATOM      3  C2  UNL d   1      -1.366  -1.733   1.358  0.00  0.00    -0.080 A 
ATOM      4  C3  UNL d   1      -0.381  -2.357   0.598  0.00  0.00     0.150 A 
ATOM      5  C4  UNL d   1       0.374  -1.636  -0.321  0.00  0.00    -0.007 A 
ATOM      6  C5  UNL d   1       0.142  -0.272  -0.487  0.00  0.00     0.039 A 
ENDROOT
BRANCH   4   7
ATOM      7  O   UNL d   1      -0.123  -3.690   0.722  0.00  0.00    -0.526 OA
ATOM      8  H5  UNL d   1      -0.741  -4.064   1.372  0.00  0.00     0.418 HD
ENDBRANCH   4   7
TORSDOF 1
ENDMDL
