MODEL 1
REMARK minimizedAffinity -5.1279211
REMARK minimizedRMSD -1
REMARK  1 active torsions:
REMARK  status: ('A' for Active; 'I' for Inactive)
REMARK    1  A    between atoms: C3_4  and  O_7 
ROOT
ATOM      1  C   UNL d   1      -0.639  -2.850  -0.900  0.00  0.00    -0.033 A 
ATOM      2  C1  UNL d   1      -0.082  -1.986  -1.845  0.00  0.00     0.039 A 
ATOM      3  C2  UNL d   1      -0.027  -0.614  -1.592  0.00  0.00    -0.080 A 
ATOM      4  C3  UNL d   1      -0.531  -0.119  -0.392  0.00  0.00     0.150 A 
ATOM      5  C4  UNL d   1      -1.083  -0.975   0.555  0.00  0.00    -0.007 A 
ATOM      6  C5  UNL d   1      -1.138  -2.345   0.301  0.00  0.00     0.039 A 
ENDROOT
BRANCH   4   7
ATOM      7  O   UNL d   1      -0.503   1.213  -0.103  0.00  0.00    -0.526 OA
ATOM      8  H5  UNL d   1      -0.120   1.684  -0.861  0.00  0.00     0.418 HD
ENDBRANCH   4   7
TORSDOF 1
ENDMDL
