MODEL 1
REMARK minimizedAffinity -5.07504416
REMARK minimizedRMSD -1
REMARK  1 active torsions:
REMARK  status: ('A' for Active; 'I' for Inactive)
REMARK    1  A    between atoms: C3_4  and  O_7 
ROOT
ATOM      1  C   UNL d   1      -0.981   0.432  -0.407  0.00  0.00    -0.033 A 
ATOM      2  C1  UNL d   1      -0.153  -0.281  -1.277  0.00  0.00     0.039 A 
ATOM      3  C2  UNL d   1       0.217  -1.593  -0.974  0.00  0.00    -0.080 A 
ATOM      4  C3  UNL d   1      -0.248  -2.180   0.199  0.00  0.00     0.150 A 
ATOM      5  C4  UNL d   1      -1.076  -1.477   1.069  0.00  0.00    -0.007 A 
ATOM      6  C5  UNL d   1      -1.444  -0.167   0.765  0.00  0.00     0.039 A 
ENDROOT
BRANCH   4   7
ATOM      7  O   UNL d   1       0.090  -3.456   0.540  0.00  0.00    -0.526 OA
ATOM      8  H5  UNL d   1       0.690  -3.807  -0.139  0.00  0.00     0.418 HD
ENDBRANCH   4   7
TORSDOF 1
ENDMDL
