MODEL 1
REMARK minimizedAffinity -3.04500127
REMARK minimizedRMSD -1
REMARK  1 active torsions:
REMARK  status: ('A' for Active; 'I' for Inactive)
REMARK    1  A    between atoms: C3_4  and  O_7 
ROOT
ATOM      1  C   UNL d   1      -1.250  -2.429   0.488  0.00  0.00    -0.033 A 
ATOM      2  C1  UNL d   1      -0.110  -2.337  -0.314  0.00  0.00     0.039 A 
ATOM      3  C2  UNL d   1       0.437  -1.087  -0.613  0.00  0.00    -0.080 A 
ATOM      4  C3  UNL d   1      -0.164   0.061  -0.104  0.00  0.00     0.150 A 
ATOM      5  C4  UNL d   1      -1.298  -0.024   0.698  0.00  0.00    -0.007 A 
ATOM      6  C5  UNL d   1      -1.843  -1.272   0.995  0.00  0.00     0.039 A 
ENDROOT
BRANCH   4   7
ATOM      7  O   UNL d   1       0.330   1.303  -0.373  0.00  0.00    -0.526 OA
ATOM      8  H5  UNL d   1       1.097   1.208  -0.962  0.00  0.00     0.418 HD
ENDBRANCH   4   7
TORSDOF 1
ENDMDL
