MODEL 1
REMARK minimizedAffinity -4.64749622
REMARK minimizedRMSD -1
REMARK  1 active torsions:
REMARK  status: ('A' for Active; 'I' for Inactive)
REMARK    1  A    between atoms: C3_4  and  O_7 
ROOT
ATOM      1  C   UNL d   1      -0.420   0.216   0.021  0.00  0.00    -0.033 A 
ATOM      2  C1  UNL d   1      -0.637  -0.120   1.359  0.00  0.00     0.039 A 
ATOM      3  C2  UNL d   1      -0.361  -1.412   1.810  0.00  0.00    -0.080 A 
ATOM      4  C3  UNL d   1       0.131  -2.358   0.914  0.00  0.00     0.150 A 
ATOM      5  C4  UNL d   1       0.354  -2.029  -0.419  0.00  0.00    -0.007 A 
ATOM      6  C5  UNL d   1       0.077  -0.738  -0.867  0.00  0.00     0.039 A 
ENDROOT
BRANCH   4   7
ATOM      7  O   UNL d   1       0.411  -3.633   1.307  0.00  0.00    -0.526 OA
ATOM      8  H5  UNL d   1       0.181  -3.723   2.247  0.00  0.00     0.418 HD
ENDBRANCH   4   7
TORSDOF 1
ENDMDL
