MODEL 1
REMARK minimizedAffinity -5.2592926
REMARK minimizedRMSD -1
REMARK  1 active torsions:
REMARK  status: ('A' for Active; 'I' for Inactive)
REMARK    1  A    between atoms: C3_4  and  O_7 
ROOT
ATOM      1  C   UNL d   1      -0.106   0.687   0.023  0.00  0.00    -0.033 A 
ATOM      2  C1  UNL d   1      -0.698   0.289   1.224  0.00  0.00     0.039 A 
ATOM      3  C2  UNL d   1      -0.646  -1.049   1.620  0.00  0.00    -0.080 A 
ATOM      4  C3  UNL d   1       0.001  -1.977   0.809  0.00  0.00     0.150 A 
ATOM      5  C4  UNL d   1       0.596  -1.587  -0.386  0.00  0.00    -0.007 A 
ATOM      6  C5  UNL d   1       0.543  -0.251  -0.781  0.00  0.00     0.039 A 
ENDROOT
BRANCH   4   7
ATOM      7  O   UNL d   1       0.073  -3.295   1.151  0.00  0.00    -0.526 OA
ATOM      8  H5  UNL d   1      -0.406  -3.423   1.987  0.00  0.00     0.418 HD
ENDBRANCH   4   7
TORSDOF 1
ENDMDL
