MODEL 1
REMARK minimizedAffinity -4.09912682
REMARK minimizedRMSD -1
REMARK  1 active torsions:
REMARK  status: ('A' for Active; 'I' for Inactive)
REMARK    1  A    between atoms: C3_4  and  O_7 
ROOT
ATOM      1  C   UNL d   1      -0.509   0.168  -0.361  0.00  0.00    -0.033 A 
ATOM      2  C1  UNL d   1       0.393  -0.569  -1.130  0.00  0.00     0.039 A 
ATOM      3  C2  UNL d   1       0.654  -1.904  -0.815  0.00  0.00    -0.080 A 
ATOM      4  C3  UNL d   1       0.005  -2.489   0.270  0.00  0.00     0.150 A 
ATOM      5  C4  UNL d   1      -0.898  -1.761   1.038  0.00  0.00    -0.007 A 
ATOM      6  C5  UNL d   1      -1.155  -0.428   0.722  0.00  0.00     0.039 A 
ENDROOT
BRANCH   4   7
ATOM      7  O   UNL d   1       0.231  -3.788   0.619  0.00  0.00    -0.526 OA
ATOM      8  H5  UNL d   1       0.899  -4.157   0.017  0.00  0.00     0.418 HD
ENDBRANCH   4   7
TORSDOF 1
ENDMDL
