MODEL 1
REMARK minimizedAffinity -4.86423779
REMARK minimizedRMSD -1
REMARK  1 active torsions:
REMARK  status: ('A' for Active; 'I' for Inactive)
REMARK    1  A    between atoms: C3_4  and  O_7 
ROOT
ATOM      1  C   UNL d   1      -0.246  -2.865   0.524  0.00  0.00    -0.033 A 
ATOM      2  C1  UNL d   1      -1.211  -2.091   1.170  0.00  0.00     0.039 A 
ATOM      3  C2  UNL d   1      -1.218  -0.704   1.011  0.00  0.00    -0.080 A 
ATOM      4  C3  UNL d   1      -0.255  -0.104   0.203  0.00  0.00     0.150 A 
ATOM      5  C4  UNL d   1       0.707  -0.870  -0.447  0.00  0.00    -0.007 A 
ATOM      6  C5  UNL d   1       0.712  -2.255  -0.286  0.00  0.00     0.039 A 
ENDROOT
BRANCH   4   7
ATOM      7  O   UNL d   1      -0.219   1.246   0.021  0.00  0.00    -0.526 OA
ATOM      8  H5  UNL d   1      -0.925   1.648   0.554  0.00  0.00     0.418 HD
ENDBRANCH   4   7
TORSDOF 1
ENDMDL
