MODEL 1
REMARK minimizedAffinity -5.70491552
REMARK minimizedRMSD -1
REMARK  1 active torsions:
REMARK  status: ('A' for Active; 'I' for Inactive)
REMARK    1  A    between atoms: C3_4  and  O_7 
ROOT
ATOM      1  C   UNL d   1      -0.392  -3.134  -0.260  0.00  0.00    -0.033 A 
ATOM      2  C1  UNL d   1      -0.834  -2.331   0.794  0.00  0.00     0.039 A 
ATOM      3  C2  UNL d   1      -0.618  -0.952   0.761  0.00  0.00    -0.080 A 
ATOM      4  C3  UNL d   1       0.039  -0.389  -0.329  0.00  0.00     0.150 A 
ATOM      5  C4  UNL d   1       0.479  -1.182  -1.384  0.00  0.00    -0.007 A 
ATOM      6  C5  UNL d   1       0.263  -2.559  -1.350  0.00  0.00     0.039 A 
ENDROOT
BRANCH   4   7
ATOM      7  O   UNL d   1       0.277   0.951  -0.403  0.00  0.00    -0.526 OA
ATOM      8  H5  UNL d   1      -0.056   1.368   0.408  0.00  0.00     0.418 HD
ENDBRANCH   4   7
TORSDOF 1
ENDMDL
