MODEL 1
REMARK minimizedAffinity -3.45101142
REMARK minimizedRMSD -1
REMARK  1 active torsions:
REMARK  status: ('A' for Active; 'I' for Inactive)
REMARK    1  A    between atoms: C3_4  and  O_7 
ROOT
ATOM      1  C   UNL d   1       1.779  -2.015  -0.662  0.00  0.00    -0.033 A 
ATOM      2  C1  UNL d   1       1.554  -3.133   0.143  0.00  0.00     0.039 A 
ATOM      3  C2  UNL d   1       0.268  -3.413   0.608  0.00  0.00    -0.080 A 
ATOM      4  C3  UNL d   1      -0.783  -2.569   0.261  0.00  0.00     0.150 A 
ATOM      5  C4  UNL d   1      -0.567  -1.455  -0.544  0.00  0.00    -0.007 A 
ATOM      6  C5  UNL d   1       0.718  -1.177  -1.007  0.00  0.00     0.039 A 
ENDROOT
BRANCH   4   7
ATOM      7  O   UNL d   1      -2.055  -2.799   0.695  0.00  0.00    -0.526 OA
ATOM      8  H5  UNL d   1      -2.048  -3.586   1.265  0.00  0.00     0.418 HD
ENDBRANCH   4   7
TORSDOF 1
ENDMDL
