MODEL 1
REMARK minimizedAffinity -4.30690432
REMARK minimizedRMSD -1
REMARK  1 active torsions:
REMARK  status: ('A' for Active; 'I' for Inactive)
REMARK    1  A    between atoms: C3_4  and  O_7 
ROOT
ATOM      1  C   UNL d   1      -0.548  -2.049   0.935  0.00  0.00    -0.033 A 
ATOM      2  C1  UNL d   1      -0.170  -0.799   0.442  0.00  0.00     0.039 A 
ATOM      3  C2  UNL d   1       0.030  -0.618  -0.928  0.00  0.00    -0.080 A 
ATOM      4  C3  UNL d   1      -0.153  -1.694  -1.793  0.00  0.00     0.150 A 
ATOM      5  C4  UNL d   1      -0.533  -2.941  -1.309  0.00  0.00    -0.007 A 
ATOM      6  C5  UNL d   1      -0.731  -3.120   0.060  0.00  0.00     0.039 A 
ENDROOT
BRANCH   4   7
ATOM      7  O   UNL d   1       0.035  -1.567  -3.137  0.00  0.00    -0.526 OA
ATOM      8  H5  UNL d   1       0.323  -0.658  -3.323  0.00  0.00     0.418 HD
ENDBRANCH   4   7
TORSDOF 1
ENDMDL
