MODEL 1
REMARK minimizedAffinity 5.24787951
REMARK minimizedRMSD -1
REMARK  0 active torsions:
REMARK  status: ('A' for Active; 'I' for Inactive)
ROOT
ATOM      1  C   UNL d   1       1.268  -3.516   0.522  0.00  0.00     0.172 C 
ATOM      2  N   UNL d   1       1.622  -2.450  -0.385  0.00  0.00    -0.070 N 
ATOM      3  C1  UNL d   1       2.892  -2.000  -0.632  0.00  0.00    -0.004 A 
ATOM      4  C2  UNL d   1       2.806  -0.978  -1.552  0.00  0.00    -0.047 A 
ATOM      5  C3  UNL d   1       1.438  -0.807  -1.870  0.00  0.00    -0.047 A 
ATOM      6  C4  UNL d   1       0.727  -1.731  -1.133  0.00  0.00    -0.004 A 
ENDROOT
TORSDOF 0
ENDMDL
