MODEL 1
REMARK minimizedAffinity 4.79611111
REMARK minimizedRMSD -1
REMARK  0 active torsions:
REMARK  status: ('A' for Active; 'I' for Inactive)
ROOT
ATOM      1  C   UNL d   1       0.456   0.024  -0.725  0.00  0.00     0.172 C 
ATOM      2  N   UNL d   1       1.070   0.786  -1.787  0.00  0.00    -0.070 N 
ATOM      3  C1  UNL d   1       1.996   0.312  -2.678  0.00  0.00    -0.004 A 
ATOM      4  C2  UNL d   1       2.331   1.344  -3.527  0.00  0.00    -0.047 A 
ATOM      5  C3  UNL d   1       1.582   2.478  -3.133  0.00  0.00    -0.047 A 
ATOM      6  C4  UNL d   1       0.809   2.104  -2.054  0.00  0.00    -0.004 A 
ENDROOT
TORSDOF 0
ENDMDL
