MODEL 1
REMARK minimizedAffinity 4.08629084
REMARK minimizedRMSD -1
REMARK  0 active torsions:
REMARK  status: ('A' for Active; 'I' for Inactive)
ROOT
ATOM      1  C   UNL d   1       5.731  -5.996   4.169  0.00  0.00     0.172 C 
ATOM      2  N   UNL d   1       4.440  -5.996   3.521  0.00  0.00    -0.070 N 
ATOM      3  C1  UNL d   1       4.226  -6.000   2.168  0.00  0.00    -0.004 A 
ATOM      4  C2  UNL d   1       2.864  -6.000   1.957  0.00  0.00    -0.047 A 
ATOM      5  C3  UNL d   1       2.239  -5.996   3.226  0.00  0.00    -0.047 A 
ATOM      6  C4  UNL d   1       3.238  -5.993   4.177  0.00  0.00    -0.004 A 
ENDROOT
TORSDOF 0
ENDMDL
