MODEL 1
REMARK minimizedAffinity 2.82188392
REMARK minimizedRMSD -1
REMARK  0 active torsions:
REMARK  status: ('A' for Active; 'I' for Inactive)
ROOT
ATOM      1  C   UNL d   1       3.679   3.376   0.571  0.00  0.00     0.172 C 
ATOM      2  N   UNL d   1       4.441   4.443  -0.035  0.00  0.00    -0.070 N 
ATOM      3  C1  UNL d   1       5.561   5.025   0.495  0.00  0.00    -0.004 A 
ATOM      4  C2  UNL d   1       5.988   5.997  -0.384  0.00  0.00    -0.047 A 
ATOM      5  C3  UNL d   1       5.093   6.000  -1.479  0.00  0.00    -0.047 A 
ATOM      6  C4  UNL d   1       4.145   5.028  -1.238  0.00  0.00    -0.004 A 
ENDROOT
TORSDOF 0
ENDMDL
