MODEL 1
REMARK minimizedAffinity 2.58129573
REMARK minimizedRMSD -1
REMARK  0 active torsions:
REMARK  status: ('A' for Active; 'I' for Inactive)
ROOT
ATOM      1  C   UNL d   1       1.499  -3.490   0.998  0.00  0.00     0.172 C 
ATOM      2  N   UNL d   1       1.797  -2.480   0.009  0.00  0.00    -0.070 N 
ATOM      3  C1  UNL d   1       0.875  -1.795  -0.735  0.00  0.00    -0.004 A 
ATOM      4  C2  UNL d   1       1.558  -0.925  -1.557  0.00  0.00    -0.047 A 
ATOM      5  C3  UNL d   1       2.939  -1.095  -1.299  0.00  0.00    -0.047 A 
ATOM      6  C4  UNL d   1       3.058  -2.063  -0.325  0.00  0.00    -0.004 A 
ENDROOT
TORSDOF 0
ENDMDL
