MODEL 1
REMARK minimizedAffinity 3.01795125
REMARK minimizedRMSD -1
REMARK  0 active torsions:
REMARK  status: ('A' for Active; 'I' for Inactive)
ROOT
ATOM      1  C   UNL d   1      -0.009   1.793  -0.118  0.00  0.00     0.172 C 
ATOM      2  N   UNL d   1       1.017   1.593  -1.115  0.00  0.00    -0.070 N 
ATOM      3  C1  UNL d   1       1.227   2.382  -2.214  0.00  0.00    -0.004 A 
ATOM      4  C2  UNL d   1       2.295   1.860  -2.911  0.00  0.00    -0.047 A 
ATOM      5  C3  UNL d   1       2.743   0.717  -2.206  0.00  0.00    -0.047 A 
ATOM      6  C4  UNL d   1       1.934   0.575  -1.098  0.00  0.00    -0.004 A 
ENDROOT
TORSDOF 0
ENDMDL
