MODEL 1
REMARK minimizedAffinity 3.33627939
REMARK minimizedRMSD -1
REMARK  0 active torsions:
REMARK  status: ('A' for Active; 'I' for Inactive)
ROOT
ATOM      1  C   UNL d   1       1.886  -1.264  -1.308  0.00  0.00     0.172 C 
ATOM      2  N   UNL d   1       1.573   0.034  -1.857  0.00  0.00    -0.070 N 
ATOM      3  C1  UNL d   1       2.066   0.545  -3.028  0.00  0.00    -0.004 A 
ATOM      4  C2  UNL d   1       1.529   1.803  -3.198  0.00  0.00    -0.047 A 
ATOM      5  C3  UNL d   1       0.686   2.057  -2.091  0.00  0.00    -0.047 A 
ATOM      6  C4  UNL d   1       0.732   0.946  -1.276  0.00  0.00    -0.004 A 
ENDROOT
TORSDOF 0
ENDMDL
