MODEL 1
REMARK minimizedAffinity 0.38054046
REMARK minimizedRMSD -1
REMARK  0 active torsions:
REMARK  status: ('A' for Active; 'I' for Inactive)
ROOT
ATOM      1  C   UNL d   1       1.722   2.115  -2.533  0.00  0.00     0.172 C 
ATOM      2  N   UNL d   1       2.087   0.740  -2.290  0.00  0.00    -0.070 N 
ATOM      3  C1  UNL d   1       2.791   0.279  -1.209  0.00  0.00    -0.004 A 
ATOM      4  C2  UNL d   1       2.932  -1.085  -1.347  0.00  0.00    -0.047 A 
ATOM      5  C3  UNL d   1       2.292  -1.457  -2.553  0.00  0.00    -0.047 A 
ATOM      6  C4  UNL d   1       1.778  -0.308  -3.116  0.00  0.00    -0.004 A 
ENDROOT
TORSDOF 0
ENDMDL
