MODEL 1
REMARK minimizedAffinity 0.277730823
REMARK minimizedRMSD -1
REMARK  0 active torsions:
REMARK  status: ('A' for Active; 'I' for Inactive)
ROOT
ATOM      1  C   UNL d   1       1.853   0.580  -2.345  0.00  0.00     0.172 C 
ATOM      2  N   UNL d   1       1.872  -0.697  -1.670  0.00  0.00    -0.070 N 
ATOM      3  C1  UNL d   1       0.807  -1.547  -1.540  0.00  0.00    -0.004 A 
ATOM      4  C2  UNL d   1       1.233  -2.652  -0.835  0.00  0.00    -0.047 A 
ATOM      5  C3  UNL d   1       2.601  -2.459  -0.530  0.00  0.00    -0.047 A 
ATOM      6  C4  UNL d   1       2.971  -1.240  -1.059  0.00  0.00    -0.004 A 
ENDROOT
TORSDOF 0
ENDMDL
