MODEL 1
REMARK minimizedAffinity -2.3234086
REMARK minimizedRMSD -1
REMARK  0 active torsions:
REMARK  status: ('A' for Active; 'I' for Inactive)
ROOT
ATOM      1  C   UNL d   1       5.963  -3.051   5.991  0.00  0.00     0.172 C 
ATOM      2  N   UNL d   1       5.341  -4.111   5.233  0.00  0.00    -0.070 N 
ATOM      3  C1  UNL d   1       4.022  -4.165   4.870  0.00  0.00    -0.004 A 
ATOM      4  C2  UNL d   1       3.827  -5.330   4.160  0.00  0.00    -0.047 A 
ATOM      5  C3  UNL d   1       5.072  -6.000   4.095  0.00  0.00    -0.047 A 
ATOM      6  C4  UNL d   1       5.992  -5.223   4.767  0.00  0.00    -0.004 A 
ENDROOT
TORSDOF 0
ENDMDL
