MODEL 1
REMARK minimizedAffinity 1.5579958
REMARK minimizedRMSD -1
REMARK  0 active torsions:
REMARK  status: ('A' for Active; 'I' for Inactive)
ROOT
ATOM      1  C   UNL d   1       2.236   1.424  -2.885  0.00  0.00     0.172 C 
ATOM      2  N   UNL d   1       2.159   0.253  -2.043  0.00  0.00    -0.070 N 
ATOM      3  C1  UNL d   1       3.221  -0.374  -1.447  0.00  0.00    -0.004 A 
ATOM      4  C2  UNL d   1       2.732  -1.444  -0.731  0.00  0.00    -0.047 A 
ATOM      5  C3  UNL d   1       1.327  -1.462  -0.902  0.00  0.00    -0.047 A 
ATOM      6  C4  UNL d   1       0.999  -0.401  -1.719  0.00  0.00    -0.004 A 
ENDROOT
TORSDOF 0
ENDMDL
