MODEL 1
REMARK minimizedAffinity 7.28726435
REMARK minimizedRMSD -1
REMARK  0 active torsions:
REMARK  status: ('A' for Active; 'I' for Inactive)
ROOT
ATOM      1  C   UNL d   1       1.669   1.426  -1.873  0.00  0.00     0.172 C 
ATOM      2  N   UNL d   1       1.005   1.847  -0.662  0.00  0.00    -0.070 N 
ATOM      3  C1  UNL d   1       1.603   2.020   0.557  0.00  0.00    -0.004 A 
ATOM      4  C2  UNL d   1       0.634   2.425   1.449  0.00  0.00    -0.047 A 
ATOM      5  C3  UNL d   1      -0.590   2.497   0.741  0.00  0.00    -0.047 A 
ATOM      6  C4  UNL d   1      -0.331   2.134  -0.564  0.00  0.00    -0.004 A 
ENDROOT
TORSDOF 0
ENDMDL
