MODEL 1
REMARK minimizedAffinity 1.57387519
REMARK minimizedRMSD -1
REMARK  0 active torsions:
REMARK  status: ('A' for Active; 'I' for Inactive)
ROOT
ATOM      1  C   UNL d   1       5.459  -5.998   4.209  0.00  0.00     0.172 C 
ATOM      2  N   UNL d   1       4.265  -5.860   3.408  0.00  0.00    -0.070 N 
ATOM      3  C1  UNL d   1       3.013  -5.575   3.884  0.00  0.00    -0.004 A 
ATOM      4  C2  UNL d   1       2.153  -5.528   2.808  0.00  0.00    -0.047 A 
ATOM      5  C3  UNL d   1       2.915  -5.795   1.645  0.00  0.00    -0.047 A 
ATOM      6  C4  UNL d   1       4.219  -5.996   2.046  0.00  0.00    -0.004 A 
ENDROOT
TORSDOF 0
ENDMDL
