MODEL 1
REMARK minimizedAffinity 2.03339291
REMARK minimizedRMSD -1
REMARK  0 active torsions:
REMARK  status: ('A' for Active; 'I' for Inactive)
ROOT
ATOM      1  C   UNL d   1       0.294   1.532  -1.506  0.00  0.00     0.172 C 
ATOM      2  N   UNL d   1       0.483   1.895  -0.121  0.00  0.00    -0.070 N 
ATOM      3  C1  UNL d   1      -0.516   2.112   0.791  0.00  0.00    -0.004 A 
ATOM      4  C2  UNL d   1       0.074   2.434   1.994  0.00  0.00    -0.047 A 
ATOM      5  C3  UNL d   1       1.476   2.411   1.798  0.00  0.00    -0.047 A 
ATOM      6  C4  UNL d   1       1.701   2.074   0.480  0.00  0.00    -0.004 A 
ENDROOT
TORSDOF 0
ENDMDL
