MODEL 1
REMARK minimizedAffinity -0.752338767
REMARK minimizedRMSD -1
REMARK  0 active torsions:
REMARK  status: ('A' for Active; 'I' for Inactive)
ROOT
ATOM      1  C   UNL d   1       1.739  -3.622   0.494  0.00  0.00     0.172 C 
ATOM      2  N   UNL d   1       1.906  -2.404  -0.262  0.00  0.00    -0.070 N 
ATOM      3  C1  UNL d   1       2.940  -1.516  -0.127  0.00  0.00    -0.004 A 
ATOM      4  C2  UNL d   1       2.736  -0.490  -1.024  0.00  0.00    -0.047 A 
ATOM      5  C3  UNL d   1       1.538  -0.770  -1.722  0.00  0.00    -0.047 A 
ATOM      6  C4  UNL d   1       1.045  -1.961  -1.231  0.00  0.00    -0.004 A 
ENDROOT
TORSDOF 0
ENDMDL
