MODEL 1
REMARK minimizedAffinity 7.79548311
REMARK minimizedRMSD -1
REMARK  0 active torsions:
REMARK  status: ('A' for Active; 'I' for Inactive)
ROOT
ATOM      1  C   UNL d   1       2.449  -1.569  -1.533  0.00  0.00     0.172 C 
ATOM      2  N   UNL d   1       1.850  -0.307  -1.899  0.00  0.00    -0.070 N 
ATOM      3  C1  UNL d   1       0.969   0.410  -1.135  0.00  0.00    -0.004 A 
ATOM      4  C2  UNL d   1       0.633   1.549  -1.834  0.00  0.00    -0.047 A 
ATOM      5  C3  UNL d   1       1.335   1.514  -3.062  0.00  0.00    -0.047 A 
ATOM      6  C4  UNL d   1       2.081   0.354  -3.076  0.00  0.00    -0.004 A 
ENDROOT
TORSDOF 0
ENDMDL
