MODEL 1
REMARK minimizedAffinity -3.64605761
REMARK minimizedRMSD -1
REMARK  0 active torsions:
REMARK  status: ('A' for Active; 'I' for Inactive)
ROOT
ATOM      1  C1  BNZ d   1      -0.697  -3.615  -0.236  0.00  0.00     0.000 A 
ATOM      2  C2  BNZ d   1      -0.721  -2.843   0.895  0.00  0.00     0.000 A 
ATOM      3  C3  BNZ d   1      -0.346  -1.530   0.854  0.00  0.00     0.000 A 
ATOM      4  C4  BNZ d   1       0.092  -1.001  -0.307  0.00  0.00     0.000 A 
ATOM      5  C5  BNZ d   1       0.131  -1.769  -1.454  0.00  0.00     0.000 A 
ATOM      6  C6  BNZ d   1      -0.285  -3.080  -1.417  0.00  0.00     0.000 A 
ENDROOT
TORSDOF 0
ENDMDL
