MODEL 1
REMARK minimizedAffinity -2.39610457
REMARK minimizedRMSD -1
REMARK  0 active torsions:
REMARK  status: ('A' for Active; 'I' for Inactive)
ROOT
ATOM      1  C1  BNZ d   1       0.684  -0.980  -0.684  0.00  0.00     0.000 A 
ATOM      2  C2  BNZ d   1       0.069  -1.299   0.497  0.00  0.00     0.000 A 
ATOM      3  C3  BNZ d   1      -0.612  -0.352   1.211  0.00  0.00     0.000 A 
ATOM      4  C4  BNZ d   1      -0.642   0.920   0.763  0.00  0.00     0.000 A 
ATOM      5  C5  BNZ d   1      -0.019   1.259  -0.421  0.00  0.00     0.000 A 
ATOM      6  C6  BNZ d   1       0.632   0.295  -1.156  0.00  0.00     0.000 A 
ENDROOT
TORSDOF 0
ENDMDL
