MODEL 1
REMARK minimizedAffinity -5.09011316
REMARK minimizedRMSD -1
REMARK  0 active torsions:
REMARK  status: ('A' for Active; 'I' for Inactive)
ROOT
ATOM      1  C1  BNZ d   1       0.193  -0.809  -0.335  0.00  0.00     0.000 A 
ATOM      2  C2  BNZ d   1       0.439  -1.695  -1.349  0.00  0.00     0.000 A 
ATOM      3  C3  BNZ d   1       0.335  -3.043  -1.142  0.00  0.00     0.000 A 
ATOM      4  C4  BNZ d   1       0.026  -3.503   0.087  0.00  0.00     0.000 A 
ATOM      5  C5  BNZ d   1      -0.215  -2.622   1.123  0.00  0.00     0.000 A 
ATOM      6  C6  BNZ d   1      -0.148  -1.265   0.901  0.00  0.00     0.000 A 
ENDROOT
TORSDOF 0
ENDMDL
