MODEL 1
REMARK minimizedAffinity -4.1944809
REMARK minimizedRMSD -1
REMARK  0 active torsions:
REMARK  status: ('A' for Active; 'I' for Inactive)
ROOT
ATOM      1  C1  BNZ d   1      -1.016  -0.856   0.763  0.00  0.00     0.000 A 
ATOM      2  C2  BNZ d   1      -1.276  -2.199   0.701  0.00  0.00     0.000 A 
ATOM      3  C3  BNZ d   1      -0.526  -3.021  -0.092  0.00  0.00     0.000 A 
ATOM      4  C4  BNZ d   1       0.456  -2.495  -0.852  0.00  0.00     0.000 A 
ATOM      5  C5  BNZ d   1       0.725  -1.141  -0.807  0.00  0.00     0.000 A 
ATOM      6  C6  BNZ d   1      -0.007  -0.322   0.022  0.00  0.00     0.000 A 
ENDROOT
TORSDOF 0
ENDMDL
