MODEL 1
REMARK minimizedAffinity -3.63947415
REMARK minimizedRMSD -1
REMARK  0 active torsions:
REMARK  status: ('A' for Active; 'I' for Inactive)
ROOT
ATOM      1  C1  BNZ d   1      -0.061  -1.214   0.184  0.00  0.00     0.000 A 
ATOM      2  C2  BNZ d   1      -0.353  -2.541   0.013  0.00  0.00     0.000 A 
ATOM      3  C3  BNZ d   1      -0.159  -3.150  -1.195  0.00  0.00     0.000 A 
ATOM      4  C4  BNZ d   1       0.288  -2.424  -2.240  0.00  0.00     0.000 A 
ATOM      5  C5  BNZ d   1       0.579  -1.083  -2.086  0.00  0.00     0.000 A 
ATOM      6  C6  BNZ d   1       0.419  -0.482  -0.858  0.00  0.00     0.000 A 
ENDROOT
TORSDOF 0
ENDMDL
