MODEL 1
REMARK minimizedAffinity -5.57002163
REMARK minimizedRMSD -1
REMARK  0 active torsions:
REMARK  status: ('A' for Active; 'I' for Inactive)
ROOT
ATOM      1  C1  BNZ d   1       0.039  -3.384  -0.256  0.00  0.00     0.000 A 
ATOM      2  C2  BNZ d   1       0.352  -2.935  -1.512  0.00  0.00     0.000 A 
ATOM      3  C3  BNZ d   1       0.566  -1.606  -1.746  0.00  0.00     0.000 A 
ATOM      4  C4  BNZ d   1       0.428  -0.724  -0.735  0.00  0.00     0.000 A 
ATOM      5  C5  BNZ d   1       0.103  -1.160   0.534  0.00  0.00     0.000 A 
ATOM      6  C6  BNZ d   1      -0.073  -2.503   0.775  0.00  0.00     0.000 A 
ENDROOT
TORSDOF 0
ENDMDL
