MODEL 1
REMARK minimizedAffinity -4.25606585
REMARK minimizedRMSD -1
REMARK  0 active torsions:
REMARK  status: ('A' for Active; 'I' for Inactive)
ROOT
ATOM      1  C1  BNZ d   1      -0.131  -0.808  -0.527  0.00  0.00     0.000 A 
ATOM      2  C2  BNZ d   1       0.087  -1.596  -1.626  0.00  0.00     0.000 A 
ATOM      3  C3  BNZ d   1      -0.096  -2.949  -1.565  0.00  0.00     0.000 A 
ATOM      4  C4  BNZ d   1      -0.458  -3.517  -0.397  0.00  0.00     0.000 A 
ATOM      5  C5  BNZ d   1      -0.674  -2.738   0.722  0.00  0.00     0.000 A 
ATOM      6  C6  BNZ d   1      -0.526  -1.372   0.647  0.00  0.00     0.000 A 
ENDROOT
TORSDOF 0
ENDMDL
