MODEL 1
REMARK minimizedAffinity -5.09993792
REMARK minimizedRMSD -1
REMARK  0 active torsions:
REMARK  status: ('A' for Active; 'I' for Inactive)
ROOT
ATOM      1  C1  BNZ d   1      -0.176  -3.292  -0.173  0.00  0.00     0.000 A 
ATOM      2  C2  BNZ d   1       0.426  -2.942  -1.353  0.00  0.00     0.000 A 
ATOM      3  C3  BNZ d   1       0.746  -1.640  -1.616  0.00  0.00     0.000 A 
ATOM      4  C4  BNZ d   1       0.428  -0.685  -0.718  0.00  0.00     0.000 A 
ATOM      5  C5  BNZ d   1      -0.187  -1.021   0.471  0.00  0.00     0.000 A 
ATOM      6  C6  BNZ d   1      -0.473  -2.338   0.750  0.00  0.00     0.000 A 
ENDROOT
TORSDOF 0
ENDMDL
