MODEL 1
REMARK minimizedAffinity -1.98812795
REMARK minimizedRMSD -1
REMARK  0 active torsions:
REMARK  status: ('A' for Active; 'I' for Inactive)
ROOT
ATOM      1  C1  BNZ d   1      -1.576  -2.163   1.104  0.00  0.00     0.000 A 
ATOM      2  C2  BNZ d   1      -1.652  -0.836   1.434  0.00  0.00     0.000 A 
ATOM      3  C3  BNZ d   1      -0.716   0.052   0.983  0.00  0.00     0.000 A 
ATOM      4  C4  BNZ d   1       0.316  -0.394   0.237  0.00  0.00     0.000 A 
ATOM      5  C5  BNZ d   1       0.411  -1.730  -0.096  0.00  0.00     0.000 A 
ATOM      6  C6  BNZ d   1      -0.554  -2.615   0.327  0.00  0.00     0.000 A 
ENDROOT
TORSDOF 0
ENDMDL
