MODEL 1
REMARK minimizedAffinity -5.21041012
REMARK minimizedRMSD -1
REMARK  0 active torsions:
REMARK  status: ('A' for Active; 'I' for Inactive)
ROOT
ATOM      1  C1  BNZ d   1       0.351  -1.593  -1.259  0.00  0.00     0.000 A 
ATOM      2  C2  BNZ d   1       0.347  -0.880  -0.090  0.00  0.00     0.000 A 
ATOM      3  C3  BNZ d   1       0.189  -1.509   1.114  0.00  0.00     0.000 A 
ATOM      4  C4  BNZ d   1      -0.004  -2.843   1.144  0.00  0.00     0.000 A 
ATOM      5  C5  BNZ d   1      -0.012  -3.575  -0.027  0.00  0.00     0.000 A 
ATOM      6  C6  BNZ d   1       0.186  -2.944  -1.233  0.00  0.00     0.000 A 
ENDROOT
TORSDOF 0
ENDMDL
