MODEL 1
REMARK minimizedAffinity -3.50694323
REMARK minimizedRMSD -1
REMARK  0 active torsions:
REMARK  status: ('A' for Active; 'I' for Inactive)
ROOT
ATOM      1  C1  BNZ d   1      -0.457   1.747  -0.345  0.00  0.00     0.000 A 
ATOM      2  C2  BNZ d   1       0.392   2.806  -0.168  0.00  0.00     0.000 A 
ATOM      3  C3  BNZ d   1       1.566   2.656   0.515  0.00  0.00     0.000 A 
ATOM      4  C4  BNZ d   1       1.870   1.458   1.056  0.00  0.00     0.000 A 
ATOM      5  C5  BNZ d   1       1.019   0.382   0.894  0.00  0.00     0.000 A 
ATOM      6  C6  BNZ d   1      -0.143   0.528   0.172  0.00  0.00     0.000 A 
ENDROOT
TORSDOF 0
ENDMDL
