MODEL 1
REMARK minimizedAffinity -5.08569956
REMARK minimizedRMSD -1
REMARK  0 active torsions:
REMARK  status: ('A' for Active; 'I' for Inactive)
ROOT
ATOM      1  C1  BNZ d   1       0.397  -1.185  -0.160  0.00  0.00     0.000 A 
ATOM      2  C2  BNZ d   1       0.039  -1.859   0.977  0.00  0.00     0.000 A 
ATOM      3  C3  BNZ d   1      -0.386  -3.157   0.917  0.00  0.00     0.000 A 
ATOM      4  C4  BNZ d   1      -0.491  -3.765  -0.282  0.00  0.00     0.000 A 
ATOM      5  C5  BNZ d   1      -0.143  -3.096  -1.439  0.00  0.00     0.000 A 
ATOM      6  C6  BNZ d   1       0.322  -1.802  -1.371  0.00  0.00     0.000 A 
ENDROOT
TORSDOF 0
ENDMDL
