MODEL 1
REMARK minimizedAffinity -3.84672832
REMARK minimizedRMSD -1
REMARK  0 active torsions:
REMARK  status: ('A' for Active; 'I' for Inactive)
ROOT
ATOM      1  C1  BNZ d   1      -0.856  -2.290   1.189  0.00  0.00     0.000 A 
ATOM      2  C2  BNZ d   1      -1.056  -0.938   1.271  0.00  0.00     0.000 A 
ATOM      3  C3  BNZ d   1      -0.393  -0.081   0.437  0.00  0.00     0.000 A 
ATOM      4  C4  BNZ d   1       0.497  -0.573  -0.449  0.00  0.00     0.000 A 
ATOM      5  C5  BNZ d   1       0.715  -1.934  -0.537  0.00  0.00     0.000 A 
ATOM      6  C6  BNZ d   1       0.018  -2.796   0.277  0.00  0.00     0.000 A 
ENDROOT
TORSDOF 0
ENDMDL
