MODEL 1
REMARK minimizedAffinity -5.25974751
REMARK minimizedRMSD -1
REMARK  0 active torsions:
REMARK  status: ('A' for Active; 'I' for Inactive)
ROOT
ATOM      1  C1  BNZ d   1      -0.041  -0.487  -0.591  0.00  0.00     0.000 A 
ATOM      2  C2  BNZ d   1       0.515  -1.346  -1.500  0.00  0.00     0.000 A 
ATOM      3  C3  BNZ d   1       0.425  -2.700  -1.330  0.00  0.00     0.000 A 
ATOM      4  C4  BNZ d   1      -0.185  -3.191  -0.232  0.00  0.00     0.000 A 
ATOM      5  C5  BNZ d   1      -0.743  -2.337   0.698  0.00  0.00     0.000 A 
ATOM      6  C6  BNZ d   1      -0.684  -0.976   0.504  0.00  0.00     0.000 A 
ENDROOT
TORSDOF 0
ENDMDL
