MODEL 1
REMARK minimizedAffinity -4.69965887
REMARK minimizedRMSD -1
REMARK  0 active torsions:
REMARK  status: ('A' for Active; 'I' for Inactive)
ROOT
ATOM      1  C1  BNZ d   1      -1.020  -0.841   1.162  0.00  0.00     0.000 A 
ATOM      2  C2  BNZ d   1      -0.990  -2.210   1.134  0.00  0.00     0.000 A 
ATOM      3  C3  BNZ d   1      -0.369  -2.875   0.113  0.00  0.00     0.000 A 
ATOM      4  C4  BNZ d   1       0.185  -2.172  -0.896  0.00  0.00     0.000 A 
ATOM      5  C5  BNZ d   1       0.154  -0.792  -0.886  0.00  0.00     0.000 A 
ATOM      6  C6  BNZ d   1      -0.438  -0.125   0.162  0.00  0.00     0.000 A 
ENDROOT
TORSDOF 0
ENDMDL
