MODEL 1
REMARK minimizedAffinity -5.05583954
REMARK minimizedRMSD -1
REMARK  0 active torsions:
REMARK  status: ('A' for Active; 'I' for Inactive)
ROOT
ATOM      1  C1  BNZ d   1       0.173  -3.521  -1.806  0.00  0.00     0.000 A 
ATOM      2  C2  BNZ d   1      -0.414  -4.002  -0.666  0.00  0.00     0.000 A 
ATOM      3  C3  BNZ d   1      -0.637  -3.183   0.406  0.00  0.00     0.000 A 
ATOM      4  C4  BNZ d   1      -0.236  -1.897   0.352  0.00  0.00     0.000 A 
ATOM      5  C5  BNZ d   1       0.366  -1.399  -0.787  0.00  0.00     0.000 A 
ATOM      6  C6  BNZ d   1       0.553  -2.216  -1.878  0.00  0.00     0.000 A 
ENDROOT
TORSDOF 0
ENDMDL
