MODEL 1
REMARK minimizedAffinity -4.63955641
REMARK minimizedRMSD -1
REMARK  0 active torsions:
REMARK  status: ('A' for Active; 'I' for Inactive)
ROOT
ATOM      1  C1  BNZ d   1      -0.259   0.205   0.794  0.00  0.00     0.000 A 
ATOM      2  C2  BNZ d   1      -0.434  -0.677   1.827  0.00  0.00     0.000 A 
ATOM      3  C3  BNZ d   1      -0.458  -2.025   1.599  0.00  0.00     0.000 A 
ATOM      4  C4  BNZ d   1      -0.347  -2.486   0.337  0.00  0.00     0.000 A 
ATOM      5  C5  BNZ d   1      -0.179  -1.609  -0.716  0.00  0.00     0.000 A 
ATOM      6  C6  BNZ d   1      -0.117  -0.255  -0.479  0.00  0.00     0.000 A 
ENDROOT
TORSDOF 0
ENDMDL
