MODEL 1
REMARK minimizedAffinity 7.33785629
REMARK minimizedRMSD -1
REMARK  1 active torsions:
REMARK  status: ('A' for Active; 'I' for Inactive)
REMARK    1  A    between atoms: C1_2  and  C2_3 
ROOT
ATOM      1  C2  UNL d   1       0.314  -1.630   0.596  0.00  0.00    -0.076 A 
ATOM      2  C3  UNL d   1      -0.934  -2.273   0.669  0.00  0.00     0.004 A 
ATOM      3  C4  UNL d   1      -1.737  -2.409  -0.462  0.00  0.00    -0.003 A 
ATOM      4  C5  UNL d   1      -1.305  -1.904  -1.684  0.00  0.00     0.000 A 
ATOM      5  C6  UNL d   1      -0.063  -1.279  -1.778  0.00  0.00     0.000 A 
ATOM      6  C7  UNL d   1       0.767  -1.148  -0.651  0.00  0.00    -0.073 A 
ATOM      7  C8  UNL d   1       2.095  -0.459  -0.808  0.00  0.00     0.078 C 
ENDROOT
BRANCH   1   8
ATOM      8  C1  UNL d   1       1.130  -1.488   1.861  0.00  0.00     0.053 C 
ATOM      9  C   UNL d   1       0.268  -1.498   3.115  0.00  0.00     0.018 C 
ENDBRANCH   1   8
TORSDOF 1
ENDMDL
