MODEL 1
REMARK minimizedAffinity 5.77569437
REMARK minimizedRMSD -1
REMARK  1 active torsions:
REMARK  status: ('A' for Active; 'I' for Inactive)
REMARK    1  A    between atoms: C1_2  and  C2_3 
ROOT
ATOM      1  C2  UNL d   1       3.722   1.009  -1.040  0.00  0.00    -0.076 A 
ATOM      2  C3  UNL d   1       4.548   0.366  -1.978  0.00  0.00     0.004 A 
ATOM      3  C4  UNL d   1       4.248  -0.913  -2.442  0.00  0.00    -0.003 A 
ATOM      4  C5  UNL d   1       3.115  -1.571  -1.975  0.00  0.00     0.000 A 
ATOM      5  C6  UNL d   1       2.274  -0.942  -1.058  0.00  0.00     0.000 A 
ATOM      6  C7  UNL d   1       2.554   0.355  -0.593  0.00  0.00    -0.073 A 
ATOM      7  C8  UNL d   1       1.616   0.983   0.401  0.00  0.00     0.078 C 
ENDROOT
BRANCH   1   8
ATOM      8  C1  UNL d   1       4.113   2.386  -0.553  0.00  0.00     0.053 C 
ATOM      9  C   UNL d   1       5.546   2.746  -0.913  0.00  0.00     0.018 C 
ENDBRANCH   1   8
TORSDOF 1
ENDMDL
