MODEL 1
REMARK minimizedAffinity 0.750648201
REMARK minimizedRMSD -1
REMARK  1 active torsions:
REMARK  status: ('A' for Active; 'I' for Inactive)
REMARK    1  A    between atoms: C1_2  and  C2_3 
ROOT
ATOM      1  C2  UNL d   1       3.047  -0.342  -1.374  0.00  0.00    -0.076 A 
ATOM      2  C3  UNL d   1       4.227  -0.045  -2.077  0.00  0.00     0.004 A 
ATOM      3  C4  UNL d   1       4.816   1.215  -1.991  0.00  0.00    -0.003 A 
ATOM      4  C5  UNL d   1       4.235   2.199  -1.199  0.00  0.00     0.000 A 
ATOM      5  C6  UNL d   1       3.073   1.917  -0.480  0.00  0.00     0.000 A 
ATOM      6  C7  UNL d   1       2.476   0.646  -0.544  0.00  0.00    -0.073 A 
ATOM      7  C8  UNL d   1       1.221   0.398   0.247  0.00  0.00     0.078 C 
ENDROOT
BRANCH   1   8
ATOM      8  C1  UNL d   1       2.439  -1.718  -1.528  0.00  0.00     0.053 C 
ATOM      9  C   UNL d   1       2.997  -2.471  -2.726  0.00  0.00     0.018 C 
ENDBRANCH   1   8
TORSDOF 1
ENDMDL
