MODEL 1
REMARK minimizedAffinity 9.31247044
REMARK minimizedRMSD -1
REMARK  0 active torsions:
REMARK  status: ('A' for Active; 'I' for Inactive)
ROOT
ATOM      1  C2' OXE d   1      -2.216   2.522   1.767  0.00  0.00     0.078 C 
ATOM      2  C1' OXE d   1       0.571   2.181   1.742  0.00  0.00     0.078 C 
ATOM      3  C1  OXE d   1      -0.108   2.524   0.439  0.00  0.00    -0.078 A 
ATOM      4  C2  OXE d   1      -1.477   2.643   0.452  0.00  0.00    -0.078 A 
ATOM      5  C3  OXE d   1      -2.148   3.012  -0.711  0.00  0.00     0.003 A 
ATOM      6  C4  OXE d   1      -1.459   3.112  -1.925  0.00  0.00    -0.002 A 
ATOM      7  C5  OXE d   1      -0.069   2.956  -1.968  0.00  0.00    -0.002 A 
ATOM      8  C6  OXE d   1       0.625   2.704  -0.790  0.00  0.00     0.003 A 
ENDROOT
TORSDOF 0
ENDMDL
