MODEL 1
REMARK minimizedAffinity 6.00546503
REMARK minimizedRMSD -1
REMARK  0 active torsions:
REMARK  status: ('A' for Active; 'I' for Inactive)
ROOT
ATOM      1  C2' OXE d   1      -5.908  -5.928  -3.085  0.00  0.00     0.078 C 
ATOM      2  C1' OXE d   1      -5.999  -5.996  -5.890  0.00  0.00     0.078 C 
ATOM      3  C1  OXE d   1      -4.681  -5.662  -5.237  0.00  0.00    -0.078 A 
ATOM      4  C2  OXE d   1      -4.657  -5.585  -3.865  0.00  0.00    -0.078 A 
ATOM      5  C3  OXE d   1      -3.455  -5.334  -3.209  0.00  0.00     0.003 A 
ATOM      6  C4  OXE d   1      -2.305  -5.008  -3.938  0.00  0.00    -0.002 A 
ATOM      7  C5  OXE d   1      -2.317  -5.041  -5.336  0.00  0.00    -0.002 A 
ATOM      8  C6  OXE d   1      -3.484  -5.407  -5.999  0.00  0.00     0.003 A 
ENDROOT
TORSDOF 0
ENDMDL
