MODEL 1
REMARK minimizedAffinity 3.40898967
REMARK minimizedRMSD -1
REMARK  0 active torsions:
REMARK  status: ('A' for Active; 'I' for Inactive)
ROOT
ATOM      1  C2' OXE d   1       1.801   3.481   3.442  0.00  0.00     0.078 C 
ATOM      2  C1' OXE d   1      -0.208   1.528   3.267  0.00  0.00     0.078 C 
ATOM      3  C1  OXE d   1       0.020   2.413   2.067  0.00  0.00    -0.078 A 
ATOM      4  C2  OXE d   1       0.973   3.396   2.178  0.00  0.00    -0.078 A 
ATOM      5  C3  OXE d   1       1.261   4.205   1.082  0.00  0.00     0.003 A 
ATOM      6  C4  OXE d   1       0.484   4.127  -0.080  0.00  0.00    -0.002 A 
ATOM      7  C5  OXE d   1      -0.519   3.159  -0.199  0.00  0.00    -0.002 A 
ATOM      8  C6  OXE d   1      -0.735   2.268   0.847  0.00  0.00     0.003 A 
ENDROOT
TORSDOF 0
ENDMDL
