MODEL 1
REMARK minimizedAffinity 6.39508867
REMARK minimizedRMSD -1
REMARK  0 active torsions:
REMARK  status: ('A' for Active; 'I' for Inactive)
ROOT
ATOM      1  C2' OXE d   1      -0.796   2.437  -0.883  0.00  0.00     0.078 C 
ATOM      2  C1' OXE d   1      -3.204   1.070  -1.345  0.00  0.00     0.078 C 
ATOM      3  C1  OXE d   1      -1.933   0.259  -1.298  0.00  0.00    -0.078 A 
ATOM      4  C2  OXE d   1      -0.754   0.943  -1.118  0.00  0.00    -0.078 A 
ATOM      5  C3  OXE d   1       0.442   0.238  -1.012  0.00  0.00     0.003 A 
ATOM      6  C4  OXE d   1       0.473  -1.143  -1.241  0.00  0.00    -0.002 A 
ATOM      7  C5  OXE d   1      -0.711  -1.853  -1.465  0.00  0.00    -0.002 A 
ATOM      8  C6  OXE d   1      -1.925  -1.174  -1.454  0.00  0.00     0.003 A 
ENDROOT
TORSDOF 0
ENDMDL
