MODEL 1
REMARK minimizedAffinity 3.6649363
REMARK minimizedRMSD -1
REMARK  0 active torsions:
REMARK  status: ('A' for Active; 'I' for Inactive)
ROOT
ATOM      1  C2' OXE d   1      -3.192   1.042  -1.171  0.00  0.00     0.078 C 
ATOM      2  C1' OXE d   1      -0.695   2.245  -0.729  0.00  0.00     0.078 C 
ATOM      3  C1  OXE d   1      -0.715   0.787  -1.115  0.00  0.00    -0.078 A 
ATOM      4  C2  OXE d   1      -1.944   0.195  -1.283  0.00  0.00    -0.078 A 
ATOM      5  C3  OXE d   1      -2.018  -1.134  -1.692  0.00  0.00     0.003 A 
ATOM      6  C4  OXE d   1      -0.859  -1.913  -1.784  0.00  0.00    -0.002 A 
ATOM      7  C5  OXE d   1       0.400  -1.340  -1.578  0.00  0.00    -0.002 A 
ATOM      8  C6  OXE d   1       0.492   0.016  -1.285  0.00  0.00     0.003 A 
ENDROOT
TORSDOF 0
ENDMDL
