MODEL 1
REMARK minimizedAffinity 12.4222956
REMARK minimizedRMSD -1
REMARK  0 active torsions:
REMARK  status: ('A' for Active; 'I' for Inactive)
ROOT
ATOM      1  C2' OXE d   1      -1.135   2.250  -0.596  0.00  0.00     0.078 C 
ATOM      2  C1' OXE d   1       0.390   4.552  -0.088  0.00  0.00     0.078 C 
ATOM      3  C1  OXE d   1       0.298   3.514   1.003  0.00  0.00    -0.078 A 
ATOM      4  C2  OXE d   1      -0.489   2.413   0.763  0.00  0.00    -0.078 A 
ATOM      5  C3  OXE d   1      -0.565   1.400   1.715  0.00  0.00     0.003 A 
ATOM      6  C4  OXE d   1       0.028   1.563   2.973  0.00  0.00    -0.002 A 
ATOM      7  C5  OXE d   1       0.801   2.695   3.252  0.00  0.00    -0.002 A 
ATOM      8  C6  OXE d   1       0.980   3.658   2.265  0.00  0.00     0.003 A 
ENDROOT
TORSDOF 0
ENDMDL
