MODEL 1
REMARK minimizedAffinity 6.19348717
REMARK minimizedRMSD -1
REMARK  0 active torsions:
REMARK  status: ('A' for Active; 'I' for Inactive)
ROOT
ATOM      1  C2' OXE d   1       1.484   3.377   3.619  0.00  0.00     0.078 C 
ATOM      2  C1' OXE d   1       0.283   0.894   3.097  0.00  0.00     0.078 C 
ATOM      3  C1  OXE d   1       0.259   1.931   2.002  0.00  0.00    -0.078 A 
ATOM      4  C2  OXE d   1       0.808   3.159   2.282  0.00  0.00    -0.078 A 
ATOM      5  C3  OXE d   1       0.862   4.134   1.290  0.00  0.00     0.003 A 
ATOM      6  C4  OXE d   1       0.226   3.928   0.059  0.00  0.00    -0.002 A 
ATOM      7  C5  OXE d   1      -0.374   2.698  -0.233  0.00  0.00    -0.002 A 
ATOM      8  C6  OXE d   1      -0.328   1.677   0.710  0.00  0.00     0.003 A 
ENDROOT
TORSDOF 0
ENDMDL
