MODEL 1
REMARK minimizedAffinity 5.55034876
REMARK minimizedRMSD -1
REMARK  0 active torsions:
REMARK  status: ('A' for Active; 'I' for Inactive)
ROOT
ATOM      1  C2' OXE d   1       1.992   3.147   3.560  0.00  0.00     0.078 C 
ATOM      2  C1' OXE d   1      -0.003   1.180   3.380  0.00  0.00     0.078 C 
ATOM      3  C1  OXE d   1       0.122   2.161   2.241  0.00  0.00    -0.078 A 
ATOM      4  C2  OXE d   1       1.070   3.149   2.359  0.00  0.00    -0.078 A 
ATOM      5  C3  OXE d   1       1.265   4.046   1.312  0.00  0.00     0.003 A 
ATOM      6  C4  OXE d   1       0.402   4.047   0.210  0.00  0.00    -0.002 A 
ATOM      7  C5  OXE d   1      -0.596   3.074   0.088  0.00  0.00    -0.002 A 
ATOM      8  C6  OXE d   1      -0.721   2.100   1.073  0.00  0.00     0.003 A 
ENDROOT
TORSDOF 0
ENDMDL
