MODEL 1
REMARK minimizedAffinity 8.71767807
REMARK minimizedRMSD -1
REMARK  0 active torsions:
REMARK  status: ('A' for Active; 'I' for Inactive)
ROOT
ATOM      1  C2' OXE d   1      -2.288  -5.535  -3.074  0.00  0.00     0.078 C 
ATOM      2  C1' OXE d   1      -2.101  -4.228  -5.552  0.00  0.00     0.078 C 
ATOM      3  C1  OXE d   1      -3.437  -4.809  -5.162  0.00  0.00    -0.078 A 
ATOM      4  C2  OXE d   1      -3.508  -5.487  -3.969  0.00  0.00    -0.078 A 
ATOM      5  C3  OXE d   1      -4.729  -5.995  -3.536  0.00  0.00     0.003 A 
ATOM      6  C4  OXE d   1      -5.851  -5.955  -4.373  0.00  0.00    -0.002 A 
ATOM      7  C5  OXE d   1      -5.790  -5.304  -5.610  0.00  0.00    -0.002 A 
ATOM      8  C6  OXE d   1      -4.605  -4.689  -5.999  0.00  0.00     0.003 A 
ENDROOT
TORSDOF 0
ENDMDL
