MODEL 1
REMARK minimizedAffinity 7.32340527
REMARK minimizedRMSD -1
REMARK  0 active torsions:
REMARK  status: ('A' for Active; 'I' for Inactive)
ROOT
ATOM      1  C2' OXE d   1       0.380  -4.877  -0.757  0.00  0.00     0.078 C 
ATOM      2  C1' OXE d   1       1.772  -2.570   0.030  0.00  0.00     0.078 C 
ATOM      3  C1  OXE d   1       2.580  -3.750  -0.450  0.00  0.00    -0.078 A 
ATOM      4  C2  OXE d   1       1.893  -4.891  -0.788  0.00  0.00    -0.078 A 
ATOM      5  C3  OXE d   1       2.586  -5.990  -1.289  0.00  0.00     0.003 A 
ATOM      6  C4  OXE d   1       3.986  -5.997  -1.305  0.00  0.00    -0.002 A 
ATOM      7  C5  OXE d   1       4.707  -4.860  -0.926  0.00  0.00    -0.002 A 
ATOM      8  C6  OXE d   1       4.019  -3.716  -0.538  0.00  0.00     0.003 A 
ENDROOT
TORSDOF 0
ENDMDL
