MODEL 1
REMARK minimizedAffinity 10.0233727
REMARK minimizedRMSD -1
REMARK  0 active torsions:
REMARK  status: ('A' for Active; 'I' for Inactive)
ROOT
ATOM      1  C2' OXE d   1       4.545  -2.726  -4.702  0.00  0.00     0.078 C 
ATOM      2  C1' OXE d   1       4.222  -5.512  -4.590  0.00  0.00     0.078 C 
ATOM      3  C1  OXE d   1       4.534  -4.788  -3.305  0.00  0.00    -0.078 A 
ATOM      4  C2  OXE d   1       4.737  -3.431  -3.377  0.00  0.00    -0.078 A 
ATOM      5  C3  OXE d   1       4.974  -2.707  -2.212  0.00  0.00     0.003 A 
ATOM      6  C4  OXE d   1       5.159  -3.367  -0.992  0.00  0.00    -0.002 A 
ATOM      7  C5  OXE d   1       4.997  -4.754  -0.903  0.00  0.00    -0.002 A 
ATOM      8  C6  OXE d   1       4.643  -5.472  -2.040  0.00  0.00     0.003 A 
ENDROOT
TORSDOF 0
ENDMDL
