MODEL 1
REMARK minimizedAffinity -1.3792361
REMARK minimizedRMSD -1
REMARK  0 active torsions:
REMARK  status: ('A' for Active; 'I' for Inactive)
ROOT
ATOM      1  C1  BNZ d   1      -0.363  -0.649   1.157  0.00  0.00     0.000 A 
ATOM      2  C2  BNZ d   1       0.931  -0.983   1.456  0.00  0.00     0.000 A 
ATOM      3  C3  BNZ d   1       1.867  -1.107   0.467  0.00  0.00     0.000 A 
ATOM      4  C4  BNZ d   1       1.500  -0.938  -0.819  0.00  0.00     0.000 A 
ATOM      5  C5  BNZ d   1       0.197  -0.610  -1.137  0.00  0.00     0.000 A 
ATOM      6  C6  BNZ d   1      -0.734  -0.447  -0.136  0.00  0.00     0.000 A 
ENDROOT
TORSDOF 0
ENDMDL
