MODEL 1
REMARK minimizedAffinity 0.673359632
REMARK minimizedRMSD -1
REMARK  0 active torsions:
REMARK  status: ('A' for Active; 'I' for Inactive)
ROOT
ATOM      1  C1  BNZ d   1       1.147  -3.058   1.376  0.00  0.00     0.000 A 
ATOM      2  C2  BNZ d   1       0.950  -1.714   1.200  0.00  0.00     0.000 A 
ATOM      3  C3  BNZ d   1       0.020  -1.041   1.941  0.00  0.00     0.000 A 
ATOM      4  C4  BNZ d   1      -0.739  -1.717   2.828  0.00  0.00     0.000 A 
ATOM      5  C5  BNZ d   1      -0.558  -3.074   3.010  0.00  0.00     0.000 A 
ATOM      6  C6  BNZ d   1       0.406  -3.742   2.290  0.00  0.00     0.000 A 
ENDROOT
TORSDOF 0
ENDMDL
