MODEL 1
REMARK minimizedAffinity 1.68732083
REMARK minimizedRMSD -1
REMARK  0 active torsions:
REMARK  status: ('A' for Active; 'I' for Inactive)
ROOT
ATOM      1  C1  BNZ d   1       5.536  -2.597   4.873  0.00  0.00     0.000 A 
ATOM      2  C2  BNZ d   1       5.405  -3.334   3.727  0.00  0.00     0.000 A 
ATOM      3  C3  BNZ d   1       4.597  -4.436   3.692  0.00  0.00     0.000 A 
ATOM      4  C4  BNZ d   1       3.953  -4.822   4.813  0.00  0.00     0.000 A 
ATOM      5  C5  BNZ d   1       4.083  -4.094   5.979  0.00  0.00     0.000 A 
ATOM      6  C6  BNZ d   1       4.866  -2.963   6.000  0.00  0.00     0.000 A 
ENDROOT
TORSDOF 0
ENDMDL
