MODEL 1
REMARK minimizedAffinity 2.45517492
REMARK minimizedRMSD -1
REMARK  0 active torsions:
REMARK  status: ('A' for Active; 'I' for Inactive)
ROOT
ATOM      1  C1  BNZ d   1       3.795  -3.946   5.987  0.00  0.00     0.000 A 
ATOM      2  C2  BNZ d   1       3.537  -3.264   4.827  0.00  0.00     0.000 A 
ATOM      3  C3  BNZ d   1       3.244  -3.933   3.672  0.00  0.00     0.000 A 
ATOM      4  C4  BNZ d   1       3.247  -5.282   3.668  0.00  0.00     0.000 A 
ATOM      5  C5  BNZ d   1       3.514  -5.984   4.826  0.00  0.00     0.000 A 
ATOM      6  C6  BNZ d   1       3.771  -5.307   5.996  0.00  0.00     0.000 A 
ENDROOT
TORSDOF 0
ENDMDL
