MODEL 1
REMARK minimizedAffinity -2.5053277
REMARK minimizedRMSD -1
REMARK  0 active torsions:
REMARK  status: ('A' for Active; 'I' for Inactive)
ROOT
ATOM      1  C1  BNZ d   1       0.324  -1.158   0.856  0.00  0.00     0.000 A 
ATOM      2  C2  BNZ d   1       1.207  -2.201   0.945  0.00  0.00     0.000 A 
ATOM      3  C3  BNZ d   1       1.319  -2.927   2.097  0.00  0.00     0.000 A 
ATOM      4  C4  BNZ d   1       0.579  -2.584   3.172  0.00  0.00     0.000 A 
ATOM      5  C5  BNZ d   1      -0.308  -1.529   3.101  0.00  0.00     0.000 A 
ATOM      6  C6  BNZ d   1      -0.447  -0.825   1.927  0.00  0.00     0.000 A 
ENDROOT
TORSDOF 0
ENDMDL
