MODEL 1
REMARK minimizedAffinity -2.38792014
REMARK minimizedRMSD -1
REMARK  0 active torsions:
REMARK  status: ('A' for Active; 'I' for Inactive)
ROOT
ATOM      1  C1  BNZ d   1       4.304   5.997   2.849  0.00  0.00     0.000 A 
ATOM      2  C2  BNZ d   1       3.087   5.999   3.476  0.00  0.00     0.000 A 
ATOM      3  C3  BNZ d   1       2.441   4.827   3.754  0.00  0.00     0.000 A 
ATOM      4  C4  BNZ d   1       2.993   3.658   3.369  0.00  0.00     0.000 A 
ATOM      5  C5  BNZ d   1       4.216   3.640   2.728  0.00  0.00     0.000 A 
ATOM      6  C6  BNZ d   1       4.881   4.820   2.485  0.00  0.00     0.000 A 
ENDROOT
TORSDOF 0
ENDMDL
