MODEL 1
REMARK minimizedAffinity -0.0977867767
REMARK minimizedRMSD -1
REMARK  0 active torsions:
REMARK  status: ('A' for Active; 'I' for Inactive)
ROOT
ATOM      1  C1  BNZ d   1       3.209   5.967   4.916  0.00  0.00     0.000 A 
ATOM      2  C2  BNZ d   1       2.385   5.999   3.823  0.00  0.00     0.000 A 
ATOM      3  C3  BNZ d   1       1.216   5.291   3.807  0.00  0.00     0.000 A 
ATOM      4  C4  BNZ d   1       0.893   4.521   4.865  0.00  0.00     0.000 A 
ATOM      5  C5  BNZ d   1       1.718   4.470   5.971  0.00  0.00     0.000 A 
ATOM      6  C6  BNZ d   1       2.875   5.215   6.000  0.00  0.00     0.000 A 
ENDROOT
TORSDOF 0
ENDMDL
