MODEL 1
REMARK minimizedAffinity -3.33900833
REMARK minimizedRMSD -1
REMARK  0 active torsions:
REMARK  status: ('A' for Active; 'I' for Inactive)
ROOT
ATOM      1  C1  BNZ d   1       0.154  -1.902   2.643  0.00  0.00     0.000 A 
ATOM      2  C2  BNZ d   1      -0.915  -1.071   2.846  0.00  0.00     0.000 A 
ATOM      3  C3  BNZ d   1      -1.542  -0.468   1.792  0.00  0.00     0.000 A 
ATOM      4  C4  BNZ d   1      -1.076  -0.665   0.542  0.00  0.00     0.000 A 
ATOM      5  C5  BNZ d   1       0.006  -1.493   0.322  0.00  0.00     0.000 A 
ATOM      6  C6  BNZ d   1       0.611  -2.129   1.381  0.00  0.00     0.000 A 
ENDROOT
TORSDOF 0
ENDMDL
