MODEL 1
REMARK minimizedAffinity 6.37380266
REMARK minimizedRMSD -1
REMARK  1 active torsions:
REMARK  status: ('A' for Active; 'I' for Inactive)
REMARK    1  A    between atoms: C1_2  and  C2_3 
ROOT
ATOM      1  C2  UNL d   1      -5.588   4.336   3.928  0.00  0.00    -0.073 A 
ATOM      2  C3  UNL d   1      -5.682   5.493   3.147  0.00  0.00    -0.002 A 
ATOM      3  C4  UNL d   1      -5.310   5.468   1.802  0.00  0.00     0.004 A 
ATOM      4  C5  UNL d   1      -4.846   4.287   1.224  0.00  0.00    -0.004 A 
ATOM      5  C6  UNL d   1      -4.756   3.117   1.985  0.00  0.00    -0.075 A 
ATOM      6  C7  UNL d   1      -4.257   1.838   1.378  0.00  0.00     0.076 C 
ATOM      7  C8  UNL d   1      -5.129   3.151   3.335  0.00  0.00     0.001 A 
ENDROOT
BRANCH   1   8
ATOM      8  C1  UNL d   1      -5.995   4.356   5.379  0.00  0.00     0.053 C 
ATOM      9  C   UNL d   1      -5.992   5.764   5.952  0.00  0.00     0.018 C 
ENDBRANCH   1   8
TORSDOF 1
ENDMDL
