MODEL 1
REMARK minimizedAffinity -3.30221248
REMARK minimizedRMSD -1
REMARK  1 active torsions:
REMARK  status: ('A' for Active; 'I' for Inactive)
REMARK    1  A    between atoms: C1_2  and  C2_3 
ROOT
ATOM      1  C2  UNL d   1      -5.363   4.440   2.327  0.00  0.00    -0.073 A 
ATOM      2  C3  UNL d   1      -4.517   5.410   2.877  0.00  0.00    -0.002 A 
ATOM      3  C4  UNL d   1      -3.927   5.205   4.124  0.00  0.00     0.004 A 
ATOM      4  C5  UNL d   1      -4.170   4.027   4.831  0.00  0.00    -0.004 A 
ATOM      5  C6  UNL d   1      -5.003   3.041   4.293  0.00  0.00    -0.075 A 
ATOM      6  C7  UNL d   1      -5.276   1.770   5.042  0.00  0.00     0.076 C 
ATOM      7  C8  UNL d   1      -5.594   3.255   3.041  0.00  0.00     0.001 A 
ENDROOT
BRANCH   1   8
ATOM      8  C1  UNL d   1      -5.998   4.654   0.977  0.00  0.00     0.053 C 
ATOM      9  C   UNL d   1      -5.620   5.999   0.377  0.00  0.00     0.018 C 
ENDBRANCH   1   8
TORSDOF 1
ENDMDL
