MODEL 1
REMARK minimizedAffinity -2.18963766
REMARK minimizedRMSD -1
REMARK  1 active torsions:
REMARK  status: ('A' for Active; 'I' for Inactive)
REMARK    1  A    between atoms: C1_2  and  C2_3 
ROOT
ATOM      1  C2  UNL d   1      -5.616   4.281   3.234  0.00  0.00    -0.073 A 
ATOM      2  C3  UNL d   1      -5.888   5.342   4.104  0.00  0.00    -0.002 A 
ATOM      3  C4  UNL d   1      -5.989   5.119   5.478  0.00  0.00     0.004 A 
ATOM      4  C5  UNL d   1      -5.812   3.835   5.995  0.00  0.00    -0.004 A 
ATOM      5  C6  UNL d   1      -5.528   2.764   5.143  0.00  0.00    -0.075 A 
ATOM      6  C7  UNL d   1      -5.338   1.377   5.683  0.00  0.00     0.076 C 
ATOM      7  C8  UNL d   1      -5.431   2.996   3.764  0.00  0.00     0.001 A 
ENDROOT
BRANCH   1   8
ATOM      8  C1  UNL d   1      -5.499   4.519   1.750  0.00  0.00     0.053 C 
ATOM      9  C   UNL d   1      -5.084   5.946   1.432  0.00  0.00     0.018 C 
ENDBRANCH   1   8
TORSDOF 1
ENDMDL
