MODEL 1
REMARK minimizedAffinity -1.14657831
REMARK minimizedRMSD -1
REMARK  1 active torsions:
REMARK  status: ('A' for Active; 'I' for Inactive)
REMARK    1  A    between atoms: C1_2  and  C2_3 
ROOT
ATOM      1  C2  UNL d   1      -5.156   4.159   2.785  0.00  0.00    -0.073 A 
ATOM      2  C3  UNL d   1      -4.423   5.068   3.556  0.00  0.00    -0.002 A 
ATOM      3  C4  UNL d   1      -4.056   4.747   4.864  0.00  0.00     0.004 A 
ATOM      4  C5  UNL d   1      -4.412   3.514   5.410  0.00  0.00    -0.004 A 
ATOM      5  C6  UNL d   1      -5.135   2.588   4.651  0.00  0.00    -0.075 A 
ATOM      6  C7  UNL d   1      -5.527   1.258   5.225  0.00  0.00     0.076 C 
ATOM      7  C8  UNL d   1      -5.502   2.919   3.340  0.00  0.00     0.001 A 
ENDROOT
BRANCH   1   8
ATOM      8  C1  UNL d   1      -5.549   4.498   1.370  0.00  0.00     0.053 C 
ATOM      9  C   UNL d   1      -5.650   6.000   1.151  0.00  0.00     0.018 C 
ENDBRANCH   1   8
TORSDOF 1
ENDMDL
