MODEL 1
REMARK minimizedAffinity -3.06383324
REMARK minimizedRMSD -1
REMARK  1 active torsions:
REMARK  status: ('A' for Active; 'I' for Inactive)
REMARK    1  A    between atoms: C1_2  and  C2_3 
ROOT
ATOM      1  C2  UNL d   1      -4.927   5.110   2.740  0.00  0.00    -0.073 A 
ATOM      2  C3  UNL d   1      -3.600   5.444   3.033  0.00  0.00    -0.002 A 
ATOM      3  C4  UNL d   1      -3.056   5.142   4.282  0.00  0.00     0.004 A 
ATOM      4  C5  UNL d   1      -3.829   4.498   5.247  0.00  0.00    -0.004 A 
ATOM      5  C6  UNL d   1      -5.154   4.145   4.970  0.00  0.00    -0.075 A 
ATOM      6  C7  UNL d   1      -6.000   3.454   5.998  0.00  0.00     0.076 C 
ATOM      7  C8  UNL d   1      -5.694   4.454   3.714  0.00  0.00     0.001 A 
ENDROOT
BRANCH   1   8
ATOM      8  C1  UNL d   1      -5.517   5.428   1.391  0.00  0.00     0.053 C 
ATOM      9  C   UNL d   1      -4.506   5.245   0.269  0.00  0.00     0.018 C 
ENDBRANCH   1   8
TORSDOF 1
ENDMDL
