MODEL 1
REMARK minimizedAffinity -3.47050214
REMARK minimizedRMSD -1
REMARK  1 active torsions:
REMARK  status: ('A' for Active; 'I' for Inactive)
REMARK    1  A    between atoms: C1_2  and  C2_3 
ROOT
ATOM      1  C2  UNL d   1      -5.451   5.072   3.478  0.00  0.00    -0.073 A 
ATOM      2  C3  UNL d   1      -4.447   5.812   4.113  0.00  0.00    -0.002 A 
ATOM      3  C4  UNL d   1      -3.955   5.412   5.356  0.00  0.00     0.004 A 
ATOM      4  C5  UNL d   1      -4.455   4.265   5.973  0.00  0.00    -0.004 A 
ATOM      5  C6  UNL d   1      -5.449   3.505   5.349  0.00  0.00    -0.075 A 
ATOM      6  C7  UNL d   1      -5.999   2.270   6.000  0.00  0.00     0.076 C 
ATOM      7  C8  UNL d   1      -5.941   3.915   4.102  0.00  0.00     0.001 A 
ENDROOT
BRANCH   1   8
ATOM      8  C1  UNL d   1      -5.981   5.497   2.133  0.00  0.00     0.053 C 
ATOM      9  C   UNL d   1      -4.875   5.998   1.217  0.00  0.00     0.018 C 
ENDBRANCH   1   8
TORSDOF 1
ENDMDL
