MODEL 1
REMARK minimizedAffinity -3.35574389
REMARK minimizedRMSD -1
REMARK  1 active torsions:
REMARK  status: ('A' for Active; 'I' for Inactive)
REMARK    1  A    between atoms: C1_2  and  C2_3 
ROOT
ATOM      1  C2  UNL d   1      -4.970   4.844   3.020  0.00  0.00    -0.073 A 
ATOM      2  C3  UNL d   1      -5.437   5.996   3.662  0.00  0.00    -0.002 A 
ATOM      3  C4  UNL d   1      -5.669   5.991   5.038  0.00  0.00     0.004 A 
ATOM      4  C5  UNL d   1      -5.430   4.838   5.786  0.00  0.00    -0.004 A 
ATOM      5  C6  UNL d   1      -4.952   3.680   5.164  0.00  0.00    -0.075 A 
ATOM      6  C7  UNL d   1      -4.693   2.431   5.954  0.00  0.00     0.076 C 
ATOM      7  C8  UNL d   1      -4.724   3.692   3.782  0.00  0.00     0.001 A 
ENDROOT
BRANCH   1   8
ATOM      8  C1  UNL d   1      -4.711   4.846   1.535  0.00  0.00     0.053 C 
ATOM      9  C   UNL d   1      -5.590   5.850   0.806  0.00  0.00     0.018 C 
ENDBRANCH   1   8
TORSDOF 1
ENDMDL
