MODEL 1
REMARK minimizedAffinity -2.59504724
REMARK minimizedRMSD -1
REMARK  1 active torsions:
REMARK  status: ('A' for Active; 'I' for Inactive)
REMARK    1  A    between atoms: C1_2  and  C2_3 
ROOT
ATOM      1  C2  UNL d   1      -5.022   5.347   2.560  0.00  0.00    -0.073 A 
ATOM      2  C3  UNL d   1      -5.778   6.000   3.541  0.00  0.00    -0.002 A 
ATOM      3  C4  UNL d   1      -6.000   5.394   4.779  0.00  0.00     0.004 A 
ATOM      4  C5  UNL d   1      -5.464   4.136   5.051  0.00  0.00    -0.004 A 
ATOM      5  C6  UNL d   1      -4.696   3.473   4.088  0.00  0.00    -0.075 A 
ATOM      6  C7  UNL d   1      -4.114   2.118   4.364  0.00  0.00     0.076 C 
ATOM      7  C8  UNL d   1      -4.480   4.086   2.847  0.00  0.00     0.001 A 
ENDROOT
BRANCH   1   8
ATOM      8  C1  UNL d   1      -4.775   5.999   1.225  0.00  0.00     0.053 C 
ATOM      9  C   UNL d   1      -5.997   5.932   0.322  0.00  0.00     0.018 C 
ENDBRANCH   1   8
TORSDOF 1
ENDMDL
