MODEL 1
REMARK minimizedAffinity -3.79760647
REMARK minimizedRMSD -1
REMARK  1 active torsions:
REMARK  status: ('A' for Active; 'I' for Inactive)
REMARK    1  A    between atoms: C1_2  and  C2_3 
ROOT
ATOM      1  C2  UNL d   1      -4.514   5.357   3.009  0.00  0.00    -0.073 A 
ATOM      2  C3  UNL d   1      -3.741   5.999   3.983  0.00  0.00    -0.002 A 
ATOM      3  C4  UNL d   1      -3.707   5.512   5.290  0.00  0.00     0.004 A 
ATOM      4  C5  UNL d   1      -4.437   4.375   5.635  0.00  0.00    -0.004 A 
ATOM      5  C6  UNL d   1      -5.206   3.711   4.673  0.00  0.00    -0.075 A 
ATOM      6  C7  UNL d   1      -5.999   2.488   5.028  0.00  0.00     0.076 C 
ATOM      7  C8  UNL d   1      -5.237   4.209   3.363  0.00  0.00     0.001 A 
ENDROOT
BRANCH   1   8
ATOM      8  C1  UNL d   1      -4.549   5.876   1.595  0.00  0.00     0.053 C 
ATOM      9  C   UNL d   1      -5.969   5.975   1.059  0.00  0.00     0.018 C 
ENDBRANCH   1   8
TORSDOF 1
ENDMDL
