MODEL 1
REMARK minimizedAffinity -3.22622132
REMARK minimizedRMSD -1
REMARK  1 active torsions:
REMARK  status: ('A' for Active; 'I' for Inactive)
REMARK    1  A    between atoms: C1_2  and  C2_3 
ROOT
ATOM      1  C2  UNL d   1      -5.837   3.350   4.779  0.00  0.00    -0.073 A 
ATOM      2  C3  UNL d   1      -5.933   4.410   5.687  0.00  0.00    -0.002 A 
ATOM      3  C4  UNL d   1      -5.789   5.728   5.251  0.00  0.00     0.004 A 
ATOM      4  C5  UNL d   1      -5.554   5.999   3.903  0.00  0.00    -0.004 A 
ATOM      5  C6  UNL d   1      -5.467   4.954   2.978  0.00  0.00    -0.075 A 
ATOM      6  C7  UNL d   1      -5.212   5.229   1.525  0.00  0.00     0.076 C 
ATOM      7  C8  UNL d   1      -5.610   3.634   3.424  0.00  0.00     0.001 A 
ENDROOT
BRANCH   1   8
ATOM      8  C1  UNL d   1      -5.999   1.926   5.244  0.00  0.00     0.053 C 
ATOM      9  C   UNL d   1      -4.776   1.431   5.999  0.00  0.00     0.018 C 
ENDBRANCH   1   8
TORSDOF 1
ENDMDL
