MODEL 1
REMARK minimizedAffinity -3.73285031
REMARK minimizedRMSD -1
REMARK  1 active torsions:
REMARK  status: ('A' for Active; 'I' for Inactive)
REMARK    1  A    between atoms: C1_2  and  C2_3 
ROOT
ATOM      1  C2  UNL d   1      -4.900   4.929   3.307  0.00  0.00    -0.073 A 
ATOM      2  C3  UNL d   1      -5.267   5.984   4.151  0.00  0.00    -0.002 A 
ATOM      3  C4  UNL d   1      -5.615   5.735   5.479  0.00  0.00     0.004 A 
ATOM      4  C5  UNL d   1      -5.594   4.433   5.978  0.00  0.00    -0.004 A 
ATOM      5  C6  UNL d   1      -5.219   3.368   5.154  0.00  0.00    -0.075 A 
ATOM      6  C7  UNL d   1      -5.193   1.961   5.675  0.00  0.00     0.076 C 
ATOM      7  C8  UNL d   1      -4.873   3.625   3.821  0.00  0.00     0.001 A 
ENDROOT
BRANCH   1   8
ATOM      8  C1  UNL d   1      -4.517   5.194   1.874  0.00  0.00     0.053 C 
ATOM      9  C   UNL d   1      -5.715   5.597   1.029  0.00  0.00     0.018 C 
ENDBRANCH   1   8
TORSDOF 1
ENDMDL
