MODEL 1
REMARK minimizedAffinity -3.37276983
REMARK minimizedRMSD -1
REMARK  1 active torsions:
REMARK  status: ('A' for Active; 'I' for Inactive)
REMARK    1  A    between atoms: C1_2  and  C2_3 
ROOT
ATOM      1  C2  UNL d   1      -4.948   4.407   3.198  0.00  0.00    -0.073 A 
ATOM      2  C3  UNL d   1      -4.502   5.441   4.029  0.00  0.00    -0.002 A 
ATOM      3  C4  UNL d   1      -4.548   5.300   5.417  0.00  0.00     0.004 A 
ATOM      4  C5  UNL d   1      -5.034   4.123   5.987  0.00  0.00    -0.004 A 
ATOM      5  C6  UNL d   1      -5.473   3.074   5.173  0.00  0.00    -0.075 A 
ATOM      6  C7  UNL d   1      -6.000   1.802   5.770  0.00  0.00     0.076 C 
ATOM      7  C8  UNL d   1      -5.425   3.224   3.780  0.00  0.00     0.001 A 
ENDROOT
BRANCH   1   8
ATOM      8  C1  UNL d   1      -4.893   4.552   1.699  0.00  0.00     0.053 C 
ATOM      9  C   UNL d   1      -5.050   6.000   1.261  0.00  0.00     0.018 C 
ENDBRANCH   1   8
TORSDOF 1
ENDMDL
