MODEL 1
REMARK minimizedAffinity -2.96474075
REMARK minimizedRMSD -1
REMARK  1 active torsions:
REMARK  status: ('A' for Active; 'I' for Inactive)
REMARK    1  A    between atoms: C1_2  and  C2_3 
ROOT
ATOM      1  C2  UNL d   1      -5.367   3.433   4.039  0.00  0.00    -0.073 A 
ATOM      2  C3  UNL d   1      -4.775   4.295   4.969  0.00  0.00    -0.002 A 
ATOM      3  C4  UNL d   1      -4.199   5.495   4.551  0.00  0.00     0.004 A 
ATOM      4  C5  UNL d   1      -4.216   5.849   3.202  0.00  0.00    -0.004 A 
ATOM      5  C6  UNL d   1      -4.813   5.006   2.259  0.00  0.00    -0.075 A 
ATOM      6  C7  UNL d   1      -4.837   5.371   0.804  0.00  0.00     0.076 C 
ATOM      7  C8  UNL d   1      -5.387   3.801   2.686  0.00  0.00     0.001 A 
ENDROOT
BRANCH   1   8
ATOM      8  C1  UNL d   1      -5.996   2.139   4.487  0.00  0.00     0.053 C 
ATOM      9  C   UNL d   1      -5.974   1.988   6.000  0.00  0.00     0.018 C 
ENDBRANCH   1   8
TORSDOF 1
ENDMDL
