MODEL 1
REMARK minimizedAffinity 6.75103045
REMARK minimizedRMSD -1
REMARK  0 active torsions:
REMARK  status: ('A' for Active; 'I' for Inactive)
ROOT
ATOM      1  C   UNL d   1      -5.507   5.670   0.673  0.00  0.00     0.077 C 
ATOM      2  C1  UNL d   1      -5.047   5.765   2.098  0.00  0.00    -0.074 A 
ATOM      3  C2  UNL d   1      -5.968   5.779   3.150  0.00  0.00    -0.005 A 
ATOM      4  C3  UNL d   1      -5.526   5.858   4.471  0.00  0.00     0.006 A 
ATOM      5  C4  UNL d   1      -4.161   5.926   4.751  0.00  0.00    -0.005 A 
ATOM      6  C5  UNL d   1      -3.225   5.913   3.712  0.00  0.00    -0.074 A 
ATOM      7  C6  UNL d   1      -1.754   5.975   3.997  0.00  0.00     0.077 C 
ATOM      8  C7  UNL d   1      -3.677   5.826   2.388  0.00  0.00    -0.001 A 
ENDROOT
TORSDOF 0
ENDMDL
