MODEL 1
REMARK minimizedAffinity 6.12380362
REMARK minimizedRMSD -1
REMARK  0 active torsions:
REMARK  status: ('A' for Active; 'I' for Inactive)
ROOT
ATOM      1  C   UNL d   1       2.579   3.576   2.727  0.00  0.00     0.077 C 
ATOM      2  C1  UNL d   1       3.038   2.521   1.765  0.00  0.00    -0.074 A 
ATOM      3  C2  UNL d   1       2.425   2.370   0.517  0.00  0.00    -0.005 A 
ATOM      4  C3  UNL d   1       2.869   1.391  -0.371  0.00  0.00     0.006 A 
ATOM      5  C4  UNL d   1       3.929   0.553  -0.021  0.00  0.00    -0.005 A 
ATOM      6  C5  UNL d   1       4.555   0.690   1.223  0.00  0.00    -0.074 A 
ATOM      7  C6  UNL d   1       5.702  -0.195   1.611  0.00  0.00     0.077 C 
ATOM      8  C7  UNL d   1       4.107   1.681   2.107  0.00  0.00    -0.001 A 
ENDROOT
TORSDOF 0
ENDMDL
