MODEL 1
REMARK minimizedAffinity -1.67725301
REMARK minimizedRMSD -1
REMARK  0 active torsions:
REMARK  status: ('A' for Active; 'I' for Inactive)
ROOT
ATOM      1  C   UNL d   1      -5.995   5.942   5.959  0.00  0.00     0.077 C 
ATOM      2  C1  UNL d   1      -5.137   5.838   4.733  0.00  0.00    -0.074 A 
ATOM      3  C2  UNL d   1      -3.762   5.603   4.836  0.00  0.00    -0.005 A 
ATOM      4  C3  UNL d   1      -2.978   5.498   3.687  0.00  0.00     0.006 A 
ATOM      5  C4  UNL d   1      -3.560   5.627   2.425  0.00  0.00    -0.005 A 
ATOM      6  C5  UNL d   1      -4.934   5.862   2.303  0.00  0.00    -0.074 A 
ATOM      7  C6  UNL d   1      -5.577   5.993   0.954  0.00  0.00     0.077 C 
ATOM      8  C7  UNL d   1      -5.716   5.958   3.462  0.00  0.00    -0.001 A 
ENDROOT
TORSDOF 0
ENDMDL
