MODEL 1
REMARK minimizedAffinity -0.560075343
REMARK minimizedRMSD -1
REMARK  0 active torsions:
REMARK  status: ('A' for Active; 'I' for Inactive)
ROOT
ATOM      1  C   UNL d   1       0.005  -1.060   4.283  0.00  0.00     0.077 C 
ATOM      2  C1  UNL d   1       0.246  -2.418   4.873  0.00  0.00    -0.074 A 
ATOM      3  C2  UNL d   1       1.541  -2.855   5.168  0.00  0.00    -0.005 A 
ATOM      4  C3  UNL d   1       1.748  -4.116   5.726  0.00  0.00     0.006 A 
ATOM      5  C4  UNL d   1       0.664  -4.952   5.995  0.00  0.00    -0.005 A 
ATOM      6  C5  UNL d   1      -0.639  -4.532   5.708  0.00  0.00    -0.074 A 
ATOM      7  C6  UNL d   1      -1.816  -5.414   6.000  0.00  0.00     0.077 C 
ATOM      8  C7  UNL d   1      -0.839  -3.260   5.154  0.00  0.00    -0.001 A 
ENDROOT
TORSDOF 0
ENDMDL
