MODEL 1
REMARK minimizedAffinity 2.26853418
REMARK minimizedRMSD -1
REMARK  0 active torsions:
REMARK  status: ('A' for Active; 'I' for Inactive)
ROOT
ATOM      1  C   UNL d   1      -5.992   5.146   5.849  0.00  0.00     0.077 C 
ATOM      2  C1  UNL d   1      -5.138   5.440   4.652  0.00  0.00    -0.074 A 
ATOM      3  C2  UNL d   1      -3.778   5.738   4.794  0.00  0.00    -0.005 A 
ATOM      4  C3  UNL d   1      -2.995   5.999   3.670  0.00  0.00     0.006 A 
ATOM      5  C4  UNL d   1      -3.561   5.966   2.395  0.00  0.00    -0.005 A 
ATOM      6  C5  UNL d   1      -4.918   5.669   2.234  0.00  0.00    -0.074 A 
ATOM      7  C6  UNL d   1      -5.541   5.620   0.870  0.00  0.00     0.077 C 
ATOM      8  C7  UNL d   1      -5.698   5.401   3.367  0.00  0.00    -0.001 A 
ENDROOT
TORSDOF 0
ENDMDL
