MODEL 1
REMARK minimizedAffinity -0.637372911
REMARK minimizedRMSD -1
REMARK  0 active torsions:
REMARK  status: ('A' for Active; 'I' for Inactive)
ROOT
ATOM      1  C   UNL d   1      -5.718   5.949   0.257  0.00  0.00     0.077 C 
ATOM      2  C1  UNL d   1      -5.005   5.947   1.577  0.00  0.00    -0.074 A 
ATOM      3  C2  UNL d   1      -3.608   5.992   1.639  0.00  0.00    -0.005 A 
ATOM      4  C3  UNL d   1      -2.959   5.999   2.873  0.00  0.00     0.006 A 
ATOM      5  C4  UNL d   1      -3.699   5.962   4.056  0.00  0.00    -0.005 A 
ATOM      6  C5  UNL d   1      -5.096   5.918   4.014  0.00  0.00    -0.074 A 
ATOM      7  C6  UNL d   1      -5.906   5.888   5.276  0.00  0.00     0.077 C 
ATOM      8  C7  UNL d   1      -5.741   5.918   2.770  0.00  0.00    -0.001 A 
ENDROOT
TORSDOF 0
ENDMDL
