MODEL 1
REMARK minimizedAffinity -1.29823887
REMARK minimizedRMSD -1
REMARK  0 active torsions:
REMARK  status: ('A' for Active; 'I' for Inactive)
ROOT
ATOM      1  C   UNL d   1      -5.985   5.999   5.360  0.00  0.00     0.077 C 
ATOM      2  C1  UNL d   1      -5.228   5.634   4.118  0.00  0.00    -0.074 A 
ATOM      3  C2  UNL d   1      -5.862   4.981   3.055  0.00  0.00    -0.005 A 
ATOM      4  C3  UNL d   1      -5.147   4.657   1.902  0.00  0.00     0.006 A 
ATOM      5  C4  UNL d   1      -3.794   4.981   1.800  0.00  0.00    -0.005 A 
ATOM      6  C5  UNL d   1      -3.143   5.634   2.851  0.00  0.00    -0.074 A 
ATOM      7  C6  UNL d   1      -1.692   5.998   2.753  0.00  0.00     0.077 C 
ATOM      8  C7  UNL d   1      -3.870   5.963   4.004  0.00  0.00    -0.001 A 
ENDROOT
TORSDOF 0
ENDMDL
