MODEL 1
REMARK minimizedAffinity 0.748966873
REMARK minimizedRMSD -1
REMARK  0 active torsions:
REMARK  status: ('A' for Active; 'I' for Inactive)
ROOT
ATOM      1  C   UNL d   1      -4.942   5.968   0.675  0.00  0.00     0.077 C 
ATOM      2  C1  UNL d   1      -4.687   5.984   2.153  0.00  0.00    -0.074 A 
ATOM      3  C2  UNL d   1      -5.746   5.980   3.066  0.00  0.00    -0.005 A 
ATOM      4  C3  UNL d   1      -5.492   5.986   4.437  0.00  0.00     0.006 A 
ATOM      5  C4  UNL d   1      -4.179   5.996   4.909  0.00  0.00    -0.005 A 
ATOM      6  C5  UNL d   1      -3.107   5.999   4.011  0.00  0.00    -0.074 A 
ATOM      7  C6  UNL d   1      -1.690   6.000   4.501  0.00  0.00     0.077 C 
ATOM      8  C7  UNL d   1      -3.370   5.986   2.634  0.00  0.00    -0.001 A 
ENDROOT
TORSDOF 0
ENDMDL
