MODEL 1
REMARK minimizedAffinity -1.35462642
REMARK minimizedRMSD -1
REMARK  0 active torsions:
REMARK  status: ('A' for Active; 'I' for Inactive)
ROOT
ATOM      1  C   UNL d   1      -5.977   5.978   5.636  0.00  0.00     0.077 C 
ATOM      2  C1  UNL d   1      -5.212   5.989   4.346  0.00  0.00    -0.074 A 
ATOM      3  C2  UNL d   1      -3.814   5.991   4.340  0.00  0.00    -0.005 A 
ATOM      4  C3  UNL d   1      -3.115   5.991   3.133  0.00  0.00     0.006 A 
ATOM      5  C4  UNL d   1      -3.808   5.990   1.921  0.00  0.00    -0.005 A 
ATOM      6  C5  UNL d   1      -5.206   5.988   1.907  0.00  0.00    -0.074 A 
ATOM      7  C6  UNL d   1      -5.965   5.977   0.614  0.00  0.00     0.077 C 
ATOM      8  C7  UNL d   1      -5.900   5.980   3.125  0.00  0.00    -0.001 A 
ENDROOT
TORSDOF 0
ENDMDL
