MODEL 1
REMARK minimizedAffinity 1.47130823
REMARK minimizedRMSD -1
REMARK  0 active torsions:
REMARK  status: ('A' for Active; 'I' for Inactive)
ROOT
ATOM      1  C   UNL d   1      -5.901   5.969   5.852  0.00  0.00     0.077 C 
ATOM      2  C1  UNL d   1      -5.233   5.972   4.509  0.00  0.00    -0.074 A 
ATOM      3  C2  UNL d   1      -5.987   5.984   3.331  0.00  0.00    -0.005 A 
ATOM      4  C3  UNL d   1      -5.352   5.996   2.089  0.00  0.00     0.006 A 
ATOM      5  C4  UNL d   1      -3.959   5.996   2.013  0.00  0.00    -0.005 A 
ATOM      6  C5  UNL d   1      -3.188   5.985   3.180  0.00  0.00    -0.074 A 
ATOM      7  C6  UNL d   1      -1.690   5.996   3.116  0.00  0.00     0.077 C 
ATOM      8  C7  UNL d   1      -3.834   5.980   4.424  0.00  0.00    -0.001 A 
ENDROOT
TORSDOF 0
ENDMDL
