MODEL 1
REMARK minimizedAffinity 3.11185193
REMARK minimizedRMSD -1
REMARK  0 active torsions:
REMARK  status: ('A' for Active; 'I' for Inactive)
ROOT
ATOM      1  C   UNL d   1       0.840  -2.563   4.152  0.00  0.00     0.077 C 
ATOM      2  C1  UNL d   1      -0.004  -3.764   4.456  0.00  0.00    -0.074 A 
ATOM      3  C2  UNL d   1       0.006  -4.346   5.728  0.00  0.00    -0.005 A 
ATOM      4  C3  UNL d   1      -0.792  -5.458   5.999  0.00  0.00     0.006 A 
ATOM      5  C4  UNL d   1      -1.606  -5.998   5.003  0.00  0.00    -0.005 A 
ATOM      6  C5  UNL d   1      -1.630  -5.429   3.726  0.00  0.00    -0.074 A 
ATOM      7  C6  UNL d   1      -2.507  -5.991   2.647  0.00  0.00     0.077 C 
ATOM      8  C7  UNL d   1      -0.831  -4.308   3.463  0.00  0.00    -0.001 A 
ENDROOT
TORSDOF 0
ENDMDL
