MODEL 1
REMARK minimizedAffinity -2.08518887
REMARK minimizedRMSD -1
REMARK  0 active torsions:
REMARK  status: ('A' for Active; 'I' for Inactive)
ROOT
ATOM      1  C   UNL d   1      -5.386   5.823   0.746  0.00  0.00     0.077 C 
ATOM      2  C1  UNL d   1      -4.686   5.878   2.072  0.00  0.00    -0.074 A 
ATOM      3  C2  UNL d   1      -3.290   5.929   2.145  0.00  0.00    -0.005 A 
ATOM      4  C3  UNL d   1      -2.653   5.990   3.385  0.00  0.00     0.006 A 
ATOM      5  C4  UNL d   1      -3.404   6.000   4.561  0.00  0.00    -0.005 A 
ATOM      6  C5  UNL d   1      -4.801   5.951   4.507  0.00  0.00    -0.074 A 
ATOM      7  C6  UNL d   1      -5.623   5.971   5.761  0.00  0.00     0.077 C 
ATOM      8  C7  UNL d   1      -5.434   5.897   3.257  0.00  0.00    -0.001 A 
ENDROOT
TORSDOF 0
ENDMDL
