MODEL 1
REMARK minimizedAffinity 6.97957659
REMARK minimizedRMSD -1
REMARK  1 active torsions:
REMARK  status: ('A' for Active; 'I' for Inactive)
REMARK    1  A    between atoms: C3_4  and  O_7 
ROOT
ATOM      1  C   UNL d   1       1.475   0.232   0.440  0.00  0.00    -0.033 A 
ATOM      2  C1  UNL d   1       2.442  -0.605  -0.120  0.00  0.00     0.039 A 
ATOM      3  C2  UNL d   1       3.638  -0.069  -0.601  0.00  0.00    -0.080 A 
ATOM      4  C3  UNL d   1       3.855   1.303  -0.515  0.00  0.00     0.150 A 
ATOM      5  C4  UNL d   1       2.898   2.142   0.046  0.00  0.00    -0.007 A 
ATOM      6  C5  UNL d   1       1.704   1.605   0.524  0.00  0.00     0.039 A 
ENDROOT
BRANCH   4   7
ATOM      7  O   UNL d   1       5.005   1.873  -0.975  0.00  0.00    -0.526 OA
ATOM      8  H5  UNL d   1       5.561   1.176  -1.361  0.00  0.00     0.418 HD
ENDBRANCH   4   7
TORSDOF 1
ENDMDL
