MODEL 1
REMARK minimizedAffinity 4.0549655
REMARK minimizedRMSD -1
REMARK  1 active torsions:
REMARK  status: ('A' for Active; 'I' for Inactive)
REMARK    1  A    between atoms: C3_4  and  O_7 
ROOT
ATOM      1  C   UNL d   1      -0.611  -5.611   5.999  0.00  0.00    -0.033 A 
ATOM      2  C1  UNL d   1      -1.233  -4.593   5.272  0.00  0.00     0.039 A 
ATOM      3  C2  UNL d   1      -0.464  -3.680   4.548  0.00  0.00    -0.080 A 
ATOM      4  C3  UNL d   1       0.923  -3.796   4.557  0.00  0.00     0.150 A 
ATOM      5  C4  UNL d   1       1.549  -4.809   5.276  0.00  0.00    -0.007 A 
ATOM      6  C5  UNL d   1       0.780  -5.720   6.000  0.00  0.00     0.039 A 
ENDROOT
BRANCH   4   7
ATOM      7  O   UNL d   1       1.716  -2.926   3.870  0.00  0.00    -0.526 OA
ATOM      8  H5  UNL d   1       1.147  -2.262   3.444  0.00  0.00     0.418 HD
ENDBRANCH   4   7
TORSDOF 1
ENDMDL
