MODEL 1
REMARK minimizedAffinity 0.828505814
REMARK minimizedRMSD -1
REMARK  1 active torsions:
REMARK  status: ('A' for Active; 'I' for Inactive)
REMARK    1  A    between atoms: C3_4  and  O_7 
ROOT
ATOM      1  C   UNL d   1      -4.604   5.998   4.134  0.00  0.00    -0.033 A 
ATOM      2  C1  UNL d   1      -5.801   5.995   3.416  0.00  0.00     0.039 A 
ATOM      3  C2  UNL d   1      -5.779   5.994   2.020  0.00  0.00    -0.080 A 
ATOM      4  C3  UNL d   1      -4.556   5.995   1.355  0.00  0.00     0.150 A 
ATOM      5  C4  UNL d   1      -3.360   5.995   2.064  0.00  0.00    -0.007 A 
ATOM      6  C5  UNL d   1      -3.383   5.997   3.458  0.00  0.00     0.039 A 
ENDROOT
BRANCH   4   7
ATOM      7  O   UNL d   1      -4.485   5.999  -0.006  0.00  0.00    -0.526 OA
ATOM      8  H5  UNL d   1      -5.389   6.028  -0.362  0.00  0.00     0.418 HD
ENDBRANCH   4   7
TORSDOF 1
ENDMDL
