MODEL 1
REMARK minimizedAffinity -0.018957248
REMARK minimizedRMSD -1
REMARK  1 active torsions:
REMARK  status: ('A' for Active; 'I' for Inactive)
REMARK    1  A    between atoms: C3_4  and  O_7 
ROOT
ATOM      1  C   UNL d   1      -3.696   5.973   1.726  0.00  0.00    -0.033 A 
ATOM      2  C1  UNL d   1      -5.091   5.979   1.675  0.00  0.00     0.039 A 
ATOM      3  C2  UNL d   1      -5.834   5.976   2.858  0.00  0.00    -0.080 A 
ATOM      4  C3  UNL d   1      -5.171   5.969   4.082  0.00  0.00     0.150 A 
ATOM      5  C4  UNL d   1      -3.781   5.967   4.139  0.00  0.00    -0.007 A 
ATOM      6  C5  UNL d   1      -3.041   5.969   2.958  0.00  0.00     0.039 A 
ENDROOT
BRANCH   4   7
ATOM      7  O   UNL d   1      -5.853   5.961   5.262  0.00  0.00    -0.526 OA
ATOM      8  H5  UNL d   1      -6.805   5.934   5.067  0.00  0.00     0.418 HD
ENDBRANCH   4   7
TORSDOF 1
ENDMDL
