MODEL 1
REMARK minimizedAffinity -2.39777851
REMARK minimizedRMSD -1
REMARK  1 active torsions:
REMARK  status: ('A' for Active; 'I' for Inactive)
REMARK    1  A    between atoms: C3_4  and  O_7 
ROOT
ATOM      1  C   UNL d   1      -3.724   5.999   1.783  0.00  0.00    -0.033 A 
ATOM      2  C1  UNL d   1      -5.118   6.000   1.698  0.00  0.00     0.039 A 
ATOM      3  C2  UNL d   1      -5.890   5.997   2.861  0.00  0.00    -0.080 A 
ATOM      4  C3  UNL d   1      -5.258   5.995   4.101  0.00  0.00     0.150 A 
ATOM      5  C4  UNL d   1      -3.870   5.998   4.194  0.00  0.00    -0.007 A 
ATOM      6  C5  UNL d   1      -3.100   6.000   3.031  0.00  0.00     0.039 A 
ENDROOT
BRANCH   4   7
ATOM      7  O   UNL d   1      -5.969   5.988   5.264  0.00  0.00    -0.526 OA
ATOM      8  H5  UNL d   1      -6.916   5.957   5.045  0.00  0.00     0.418 HD
ENDBRANCH   4   7
TORSDOF 1
ENDMDL
