MODEL 1
REMARK minimizedAffinity -3.75030231
REMARK minimizedRMSD -1
REMARK  1 active torsions:
REMARK  status: ('A' for Active; 'I' for Inactive)
REMARK    1  A    between atoms: C3_4  and  O_7 
ROOT
ATOM      1  C   UNL d   1      -4.900   5.977   1.992  0.00  0.00    -0.033 A 
ATOM      2  C1  UNL d   1      -5.966   5.715   2.855  0.00  0.00     0.039 A 
ATOM      3  C2  UNL d   1      -5.727   5.472   4.209  0.00  0.00    -0.080 A 
ATOM      4  C3  UNL d   1      -4.419   5.494   4.687  0.00  0.00     0.150 A 
ATOM      5  C4  UNL d   1      -3.353   5.757   3.833  0.00  0.00    -0.007 A 
ATOM      6  C5  UNL d   1      -3.593   5.999   2.482  0.00  0.00     0.039 A 
ENDROOT
BRANCH   4   7
ATOM      7  O   UNL d   1      -4.136   5.257   5.999  0.00  0.00    -0.526 OA
ATOM      8  H5  UNL d   1      -4.967   5.062   6.463  0.00  0.00     0.418 HD
ENDBRANCH   4   7
TORSDOF 1
ENDMDL
