MODEL 1
REMARK minimizedAffinity 2.43421173
REMARK minimizedRMSD -1
REMARK  1 active torsions:
REMARK  status: ('A' for Active; 'I' for Inactive)
REMARK    1  A    between atoms: C3_4  and  O_7 
ROOT
ATOM      1  C   UNL d   1      -5.660   5.986   1.093  0.00  0.00    -0.033 A 
ATOM      2  C1  UNL d   1      -6.000   5.988   2.448  0.00  0.00     0.039 A 
ATOM      3  C2  UNL d   1      -4.999   5.992   3.421  0.00  0.00    -0.080 A 
ATOM      4  C3  UNL d   1      -3.663   5.993   3.027  0.00  0.00     0.150 A 
ATOM      5  C4  UNL d   1      -3.317   5.994   1.680  0.00  0.00    -0.007 A 
ATOM      6  C5  UNL d   1      -4.318   5.990   0.710  0.00  0.00     0.039 A 
ENDROOT
BRANCH   4   7
ATOM      7  O   UNL d   1      -2.651   5.991   3.941  0.00  0.00    -0.526 OA
ATOM      8  H5  UNL d   1      -3.040   5.961   4.831  0.00  0.00     0.418 HD
ENDBRANCH   4   7
TORSDOF 1
ENDMDL
