MODEL 1
REMARK minimizedAffinity -1.26319635
REMARK minimizedRMSD -1
REMARK  1 active torsions:
REMARK  status: ('A' for Active; 'I' for Inactive)
REMARK    1  A    between atoms: C3_4  and  O_7 
ROOT
ATOM      1  C   UNL d   1      -5.991   5.846   3.752  0.00  0.00    -0.033 A 
ATOM      2  C1  UNL d   1      -5.006   5.932   4.738  0.00  0.00     0.039 A 
ATOM      3  C2  UNL d   1      -3.658   5.982   4.378  0.00  0.00    -0.080 A 
ATOM      4  C3  UNL d   1      -3.309   5.944   3.031  0.00  0.00     0.150 A 
ATOM      5  C4  UNL d   1      -4.285   5.862   2.044  0.00  0.00    -0.007 A 
ATOM      6  C5  UNL d   1      -5.631   5.812   2.405  0.00  0.00     0.039 A 
ENDROOT
BRANCH   4   7
ATOM      7  O   UNL d   1      -2.006   5.985   2.631  0.00  0.00    -0.526 OA
ATOM      8  H5  UNL d   1      -1.442   6.012   3.422  0.00  0.00     0.418 HD
ENDBRANCH   4   7
TORSDOF 1
ENDMDL
