MODEL 1
REMARK minimizedAffinity 10.7747231
REMARK minimizedRMSD -1
REMARK  3 active torsions:
REMARK  status: ('A' for Active; 'I' for Inactive)
REMARK    1  A    between atoms: C3'_2  and  C2'_3 
REMARK    2  A    between atoms: C2'_3  and  C1'_4 
REMARK    3  A    between atoms: C1'_4  and  C1_5 
ROOT
ATOM      1  C1  N4B d   1       2.363   2.694   1.223  0.00  0.00    -0.075 A 
ATOM      2  C2  N4B d   1       2.394   1.372   0.729  0.00  0.00     0.002 A 
ATOM      3  C3  N4B d   1       1.233   0.769   0.308  0.00  0.00     0.002 A 
ATOM      4  C4  N4B d   1       0.034   1.460   0.389  0.00  0.00    -0.004 A 
ATOM      5  C5  N4B d   1       0.017   2.746   0.843  0.00  0.00     0.002 A 
ATOM      6  C6  N4B d   1       1.176   3.366   1.266  0.00  0.00     0.002 A 
ENDROOT
BRANCH   1   7
ATOM      7  C1' N4B d   1       3.592   3.364   1.774  0.00  0.00     0.057 C 
BRANCH   7   8
ATOM      8  C2' N4B d   1       3.711   3.046   3.262  0.00  0.00     0.009 C 
BRANCH   8   9
ATOM      9  C3' N4B d   1       5.079   3.411   3.813  0.00  0.00     0.004 C 
ATOM     10  C4' N4B d   1       5.043   4.620   4.700  0.00  0.00     0.003 C 
ENDBRANCH   8   9
ENDBRANCH   7   8
ENDBRANCH   1   7
TORSDOF 3
ENDMDL
