MODEL 1
REMARK minimizedAffinity 2.89729762
REMARK minimizedRMSD -1
REMARK  3 active torsions:
REMARK  status: ('A' for Active; 'I' for Inactive)
REMARK    1  A    between atoms: C3'_2  and  C2'_3 
REMARK    2  A    between atoms: C2'_3  and  C1'_4 
REMARK    3  A    between atoms: C1'_4  and  C1_5 
ROOT
ATOM      1  C1  N4B d   1       1.028   1.194   0.721  0.00  0.00    -0.075 A 
ATOM      2  C2  N4B d   1       0.506   2.227  -0.087  0.00  0.00     0.002 A 
ATOM      3  C3  N4B d   1      -0.525   3.007   0.377  0.00  0.00     0.002 A 
ATOM      4  C4  N4B d   1      -1.060   2.761   1.632  0.00  0.00    -0.004 A 
ATOM      5  C5  N4B d   1      -0.533   1.777   2.417  0.00  0.00     0.002 A 
ATOM      6  C6  N4B d   1       0.506   0.988   1.965  0.00  0.00     0.002 A 
ENDROOT
BRANCH   1   7
ATOM      7  C1' N4B d   1       2.097   0.260   0.223  0.00  0.00     0.057 C 
BRANCH   7   8
ATOM      8  C2' N4B d   1       1.826  -1.143   0.759  0.00  0.00     0.009 C 
BRANCH   8   9
ATOM      9  C3' N4B d   1       2.718  -2.184   0.104  0.00  0.00     0.004 C 
ATOM     10  C4' N4B d   1       2.986  -1.891  -1.342  0.00  0.00     0.003 C 
ENDBRANCH   8   9
ENDBRANCH   7   8
ENDBRANCH   1   7
TORSDOF 3
ENDMDL
