MODEL 1
REMARK minimizedAffinity 5.24488068
REMARK minimizedRMSD -1
REMARK  3 active torsions:
REMARK  status: ('A' for Active; 'I' for Inactive)
REMARK    1  A    between atoms: C3'_2  and  C2'_3 
REMARK    2  A    between atoms: C2'_3  and  C1'_4 
REMARK    3  A    between atoms: C1'_4  and  C1_5 
ROOT
ATOM      1  C1  N4B d   1       2.215  -2.752   0.245  0.00  0.00    -0.075 A 
ATOM      2  C2  N4B d   1       2.321  -1.696  -0.687  0.00  0.00     0.002 A 
ATOM      3  C3  N4B d   1       3.175  -0.648  -0.443  0.00  0.00     0.002 A 
ATOM      4  C4  N4B d   1       3.916  -0.626   0.728  0.00  0.00    -0.004 A 
ATOM      5  C5  N4B d   1       3.828  -1.663   1.611  0.00  0.00     0.002 A 
ATOM      6  C6  N4B d   1       2.976  -2.724   1.377  0.00  0.00     0.002 A 
ENDROOT
BRANCH   1   7
ATOM      7  C1' N4B d   1       1.232  -3.876   0.063  0.00  0.00     0.057 C 
BRANCH   7   8
ATOM      8  C2' N4B d   1       0.127  -3.425  -0.888  0.00  0.00     0.009 C 
BRANCH   8   9
ATOM      9  C3' N4B d   1      -0.918  -4.507  -1.098  0.00  0.00     0.004 C 
ATOM     10  C4' N4B d   1      -2.023  -4.078  -2.016  0.00  0.00     0.003 C 
ENDBRANCH   8   9
ENDBRANCH   7   8
ENDBRANCH   1   7
TORSDOF 3
ENDMDL
