MODEL 1
REMARK minimizedAffinity 5.69562817
REMARK minimizedRMSD -1
REMARK  3 active torsions:
REMARK  status: ('A' for Active; 'I' for Inactive)
REMARK    1  A    between atoms: C3'_2  and  C2'_3 
REMARK    2  A    between atoms: C2'_3  and  C1'_4 
REMARK    3  A    between atoms: C1'_4  and  C1_5 
ROOT
ATOM      1  C1  N4B d   1       2.386   0.221  -0.041  0.00  0.00    -0.075 A 
ATOM      2  C2  N4B d   1       2.608  -0.202   1.288  0.00  0.00     0.002 A 
ATOM      3  C3  N4B d   1       2.660  -1.542   1.582  0.00  0.00     0.002 A 
ATOM      4  C4  N4B d   1       2.476  -2.474   0.571  0.00  0.00    -0.004 A 
ATOM      5  C5  N4B d   1       2.288  -2.057  -0.714  0.00  0.00     0.002 A 
ATOM      6  C6  N4B d   1       2.237  -0.713  -1.024  0.00  0.00     0.002 A 
ENDROOT
BRANCH   1   7
ATOM      7  C1' N4B d   1       2.236   1.675  -0.396  0.00  0.00     0.057 C 
BRANCH   7   8
ATOM      8  C2' N4B d   1       1.573   2.409   0.766  0.00  0.00     0.009 C 
BRANCH   8   9
ATOM      9  C3' N4B d   1       0.331   3.165   0.326  0.00  0.00     0.004 C 
ATOM     10  C4' N4B d   1       0.534   4.651   0.302  0.00  0.00     0.003 C 
ENDBRANCH   8   9
ENDBRANCH   7   8
ENDBRANCH   1   7
TORSDOF 3
ENDMDL
