MODEL 1
REMARK minimizedAffinity 2.93128204
REMARK minimizedRMSD -1
REMARK  3 active torsions:
REMARK  status: ('A' for Active; 'I' for Inactive)
REMARK    1  A    between atoms: C3'_2  and  C2'_3 
REMARK    2  A    between atoms: C2'_3  and  C1'_4 
REMARK    3  A    between atoms: C1'_4  and  C1_5 
ROOT
ATOM      1  C1  N4B d   1      -1.223   2.127   1.536  0.00  0.00    -0.075 A 
ATOM      2  C2  N4B d   1      -0.595   2.317   0.285  0.00  0.00     0.002 A 
ATOM      3  C3  N4B d   1       0.711   1.931   0.107  0.00  0.00     0.002 A 
ATOM      4  C4  N4B d   1       1.412   1.374   1.166  0.00  0.00    -0.004 A 
ATOM      5  C5  N4B d   1       0.791   1.171   2.364  0.00  0.00     0.002 A 
ATOM      6  C6  N4B d   1      -0.523   1.550   2.556  0.00  0.00     0.002 A 
ENDROOT
BRANCH   1   7
ATOM      7  C1' N4B d   1      -2.622   2.611   1.803  0.00  0.00     0.057 C 
BRANCH   7   8
ATOM      8  C2' N4B d   1      -3.612   1.517   1.418  0.00  0.00     0.009 C 
BRANCH   8   9
ATOM      9  C3' N4B d   1      -5.025   2.056   1.268  0.00  0.00     0.004 C 
ATOM     10  C4' N4B d   1      -5.784   1.393   0.157  0.00  0.00     0.003 C 
ENDBRANCH   8   9
ENDBRANCH   7   8
ENDBRANCH   1   7
TORSDOF 3
ENDMDL
