MODEL 1
REMARK minimizedAffinity 2.71079755
REMARK minimizedRMSD -1
REMARK  3 active torsions:
REMARK  status: ('A' for Active; 'I' for Inactive)
REMARK    1  A    between atoms: C3'_2  and  C2'_3 
REMARK    2  A    between atoms: C2'_3  and  C1'_4 
REMARK    3  A    between atoms: C1'_4  and  C1_5 
ROOT
ATOM      1  C1  N4B d   1       0.839   0.737   0.047  0.00  0.00    -0.075 A 
ATOM      2  C2  N4B d   1       1.465  -0.528   0.070  0.00  0.00     0.002 A 
ATOM      3  C3  N4B d   1       0.903  -1.585  -0.603  0.00  0.00     0.002 A 
ATOM      4  C4  N4B d   1      -0.290  -1.406  -1.287  0.00  0.00    -0.004 A 
ATOM      5  C5  N4B d   1      -0.875  -0.175  -1.326  0.00  0.00     0.002 A 
ATOM      6  C6  N4B d   1      -0.319   0.898  -0.658  0.00  0.00     0.002 A 
ENDROOT
BRANCH   1   7
ATOM      7  C1' N4B d   1       1.370   1.901   0.838  0.00  0.00     0.057 C 
BRANCH   7   8
ATOM      8  C2' N4B d   1       1.210   1.610   2.327  0.00  0.00     0.009 C 
BRANCH   8   9
ATOM      9  C3' N4B d   1       0.064   2.396   2.940  0.00  0.00     0.004 C 
ATOM     10  C4' N4B d   1       0.074   3.842   2.543  0.00  0.00     0.003 C 
ENDBRANCH   8   9
ENDBRANCH   7   8
ENDBRANCH   1   7
TORSDOF 3
ENDMDL
