MODEL 1
REMARK minimizedAffinity 20.1786346
REMARK minimizedRMSD -1
REMARK  1 active torsions:
REMARK  status: ('A' for Active; 'I' for Inactive)
REMARK    1  A    between atoms: N_2  and  C1_3 
ROOT
ATOM      1  C1  UNL d   1       5.330  -1.064   4.721  0.00  0.00     0.143 A 
ATOM      2  C2  UNL d   1       5.999  -0.048   4.030  0.00  0.00    -0.057 A 
ATOM      3  C3  UNL d   1       5.527   0.426   2.800  0.00  0.00     0.033 A 
ATOM      4  C4  UNL d   1       4.390  -0.130   2.223  0.00  0.00    -0.042 A 
ATOM      5  C5  UNL d   1       3.724  -1.158   2.880  0.00  0.00     0.033 A 
ATOM      6  C6  UNL d   1       4.196  -1.622   4.111  0.00  0.00    -0.057 A 
ENDROOT
BRANCH   1   7
ATOM      7  N   UNL d   1       5.804  -1.645   5.900  0.00  0.00    -0.732 N 
ATOM      8  C   UNL d   1       5.996  -3.077   5.989  0.00  0.00     0.284 C 
ATOM      9  H3  UNL d   1       6.544  -1.098   6.332  0.00  0.00     0.395 HD
ENDBRANCH   1   7
TORSDOF 1
ENDMDL
