MODEL 1
REMARK minimizedAffinity 10.0536022
REMARK minimizedRMSD -1
REMARK  1 active torsions:
REMARK  status: ('A' for Active; 'I' for Inactive)
REMARK    1  A    between atoms: N_2  and  C1_3 
ROOT
ATOM      1  C1  UNL d   1       0.916   4.881  -0.724  0.00  0.00     0.143 A 
ATOM      2  C2  UNL d   1       0.364   5.940   0.005  0.00  0.00    -0.057 A 
ATOM      3  C3  UNL d   1      -1.009   5.998   0.274  0.00  0.00     0.033 A 
ATOM      4  C4  UNL d   1      -1.861   5.010  -0.209  0.00  0.00    -0.042 A 
ATOM      5  C5  UNL d   1      -1.337   3.962  -0.957  0.00  0.00     0.033 A 
ATOM      6  C6  UNL d   1       0.036   3.905  -1.216  0.00  0.00    -0.057 A 
ENDROOT
BRANCH   1   7
ATOM      7  N   UNL d   1       2.258   4.818  -1.108  0.00  0.00    -0.732 N 
ATOM      8  C   UNL d   1       2.757   5.647  -2.184  0.00  0.00     0.284 C 
ATOM      9  H3  UNL d   1       2.887   4.747  -0.311  0.00  0.00     0.395 HD
ENDBRANCH   1   7
TORSDOF 1
ENDMDL
