MODEL 1
REMARK minimizedAffinity 15.1721249
REMARK minimizedRMSD -1
REMARK  1 active torsions:
REMARK  status: ('A' for Active; 'I' for Inactive)
REMARK    1  A    between atoms: N_2  and  C1_3 
ROOT
ATOM      1  C1  UNL d   1       3.541   1.020  -2.661  0.00  0.00     0.143 A 
ATOM      2  C2  UNL d   1       2.360   1.705  -2.969  0.00  0.00    -0.057 A 
ATOM      3  C3  UNL d   1       1.133   1.321  -2.415  0.00  0.00     0.033 A 
ATOM      4  C4  UNL d   1       1.060   0.224  -1.563  0.00  0.00    -0.042 A 
ATOM      5  C5  UNL d   1       2.217  -0.487  -1.262  0.00  0.00     0.033 A 
ATOM      6  C6  UNL d   1       3.440  -0.095  -1.814  0.00  0.00    -0.057 A 
ENDROOT
BRANCH   1   7
ATOM      7  N   UNL d   1       4.775   1.291  -3.256  0.00  0.00    -0.732 N 
ATOM      8  C   UNL d   1       5.990   0.704  -2.734  0.00  0.00     0.284 C 
ATOM      9  H3  UNL d   1       4.722   1.302  -4.272  0.00  0.00     0.395 HD
ENDBRANCH   1   7
TORSDOF 1
ENDMDL
