MODEL 1
REMARK minimizedAffinity 6.65919256
REMARK minimizedRMSD -1
REMARK  1 active torsions:
REMARK  status: ('A' for Active; 'I' for Inactive)
REMARK    1  A    between atoms: N_2  and  C1_3 
ROOT
ATOM      1  C1  UNL d   1       3.475   5.026   0.540  0.00  0.00     0.143 A 
ATOM      2  C2  UNL d   1       3.293   4.016   1.492  0.00  0.00    -0.057 A 
ATOM      3  C3  UNL d   1       4.024   4.004   2.686  0.00  0.00     0.033 A 
ATOM      4  C4  UNL d   1       4.974   4.988   2.937  0.00  0.00    -0.042 A 
ATOM      5  C5  UNL d   1       5.189   5.987   1.995  0.00  0.00     0.033 A 
ATOM      6  C6  UNL d   1       4.452   5.998   0.807  0.00  0.00    -0.057 A 
ENDROOT
BRANCH   1   7
ATOM      7  N   UNL d   1       2.850   5.039  -0.709  0.00  0.00    -0.732 N 
ATOM      8  C   UNL d   1       3.258   5.982  -1.728  0.00  0.00     0.284 C 
ATOM      9  H3  UNL d   1       2.665   4.102  -1.061  0.00  0.00     0.395 HD
ENDBRANCH   1   7
TORSDOF 1
ENDMDL
