MODEL 1
REMARK minimizedAffinity 10.2429399
REMARK minimizedRMSD -1
REMARK  1 active torsions:
REMARK  status: ('A' for Active; 'I' for Inactive)
REMARK    1  A    between atoms: N_2  and  C1_3 
ROOT
ATOM      1  C1  UNL d   1      -4.872   0.709   3.211  0.00  0.00     0.143 A 
ATOM      2  C2  UNL d   1      -3.778   0.781   4.080  0.00  0.00    -0.057 A 
ATOM      3  C3  UNL d   1      -3.779   0.106   5.307  0.00  0.00     0.033 A 
ATOM      4  C4  UNL d   1      -4.891  -0.631   5.701  0.00  0.00    -0.042 A 
ATOM      5  C5  UNL d   1      -5.999  -0.697   4.864  0.00  0.00     0.033 A 
ATOM      6  C6  UNL d   1      -5.989  -0.026   3.638  0.00  0.00    -0.057 A 
ENDROOT
BRANCH   1   7
ATOM      7  N   UNL d   1      -4.971   1.437   2.023  0.00  0.00    -0.732 N 
ATOM      8  C   UNL d   1      -5.998   2.443   1.858  0.00  0.00     0.284 C 
ATOM      9  H3  UNL d   1      -4.061   1.707   1.656  0.00  0.00     0.395 HD
ENDBRANCH   1   7
TORSDOF 1
ENDMDL
