MODEL 1
REMARK minimizedAffinity -2.90109754
REMARK minimizedRMSD -1
REMARK  1 active torsions:
REMARK  status: ('A' for Active; 'I' for Inactive)
REMARK    1  A    between atoms: N_2  and  C1_3 
ROOT
ATOM      1  C1  UNL d   1       4.342   5.426   0.806  0.00  0.00     0.143 A 
ATOM      2  C2  UNL d   1       5.270   5.789  -0.177  0.00  0.00    -0.057 A 
ATOM      3  C3  UNL d   1       4.878   5.994  -1.505  0.00  0.00     0.033 A 
ATOM      4  C4  UNL d   1       3.552   5.810  -1.882  0.00  0.00    -0.042 A 
ATOM      5  C5  UNL d   1       2.617   5.425  -0.927  0.00  0.00     0.033 A 
ATOM      6  C6  UNL d   1       3.013   5.229   0.399  0.00  0.00    -0.057 A 
ENDROOT
BRANCH   1   7
ATOM      7  N   UNL d   1       4.686   5.112   2.123  0.00  0.00    -0.732 N 
ATOM      8  C   UNL d   1       5.532   5.998   2.895  0.00  0.00     0.284 C 
ATOM      9  H3  UNL d   1       3.906   4.722   2.646  0.00  0.00     0.395 HD
ENDBRANCH   1   7
TORSDOF 1
ENDMDL
