MODEL 1
REMARK minimizedAffinity 18.4773922
REMARK minimizedRMSD -1
REMARK  1 active torsions:
REMARK  status: ('A' for Active; 'I' for Inactive)
REMARK    1  A    between atoms: N_2  and  C1_3 
ROOT
ATOM      1  C1  UNL d   1      -3.989   0.770   4.441  0.00  0.00     0.143 A 
ATOM      2  C2  UNL d   1      -4.126   0.221   5.721  0.00  0.00    -0.057 A 
ATOM      3  C3  UNL d   1      -5.112  -0.734   6.000  0.00  0.00     0.033 A 
ATOM      4  C4  UNL d   1      -6.000  -1.136   5.008  0.00  0.00    -0.042 A 
ATOM      5  C5  UNL d   1      -5.898  -0.586   3.735  0.00  0.00     0.033 A 
ATOM      6  C6  UNL d   1      -4.907   0.362   3.461  0.00  0.00    -0.057 A 
ENDROOT
BRANCH   1   7
ATOM      7  N   UNL d   1      -3.094   1.794   4.126  0.00  0.00    -0.732 N 
ATOM      8  C   UNL d   1      -3.261   3.118   4.687  0.00  0.00     0.284 C 
ATOM      9  H3  UNL d   1      -2.129   1.472   4.100  0.00  0.00     0.395 HD
ENDBRANCH   1   7
TORSDOF 1
ENDMDL
