MODEL 1
REMARK minimizedAffinity 20.2746048
REMARK minimizedRMSD -1
REMARK  1 active torsions:
REMARK  status: ('A' for Active; 'I' for Inactive)
REMARK    1  A    between atoms: N_2  and  C1_3 
ROOT
ATOM      1  C1  UNL d   1       0.669  -1.322  -2.237  0.00  0.00     0.143 A 
ATOM      2  C2  UNL d   1       1.847  -1.552  -1.519  0.00  0.00    -0.057 A 
ATOM      3  C3  UNL d   1       2.646  -0.491  -1.075  0.00  0.00     0.033 A 
ATOM      4  C4  UNL d   1       2.293   0.822  -1.367  0.00  0.00    -0.042 A 
ATOM      5  C5  UNL d   1       1.139   1.074  -2.101  0.00  0.00     0.033 A 
ATOM      6  C6  UNL d   1       0.342   0.010  -2.536  0.00  0.00    -0.057 A 
ENDROOT
BRANCH   1   7
ATOM      7  N   UNL d   1      -0.116  -2.337  -2.790  0.00  0.00    -0.732 N 
ATOM      8  C   UNL d   1      -1.101  -3.028  -1.987  0.00  0.00     0.284 C 
ATOM      9  H3  UNL d   1      -0.428  -2.116  -3.733  0.00  0.00     0.395 HD
ENDBRANCH   1   7
TORSDOF 1
ENDMDL
