MODEL 1
REMARK minimizedAffinity 9.96394348
REMARK minimizedRMSD -1
REMARK  1 active torsions:
REMARK  status: ('A' for Active; 'I' for Inactive)
REMARK    1  A    between atoms: N_2  and  C1_3 
ROOT
ATOM      1  C1  UNL d   1       4.960  -2.766   5.113  0.00  0.00     0.143 A 
ATOM      2  C2  UNL d   1       4.122  -2.233   4.127  0.00  0.00    -0.057 A 
ATOM      3  C3  UNL d   1       4.237  -0.898   3.722  0.00  0.00     0.033 A 
ATOM      4  C4  UNL d   1       5.174  -0.061   4.318  0.00  0.00    -0.042 A 
ATOM      5  C5  UNL d   1       6.000  -0.563   5.318  0.00  0.00     0.033 A 
ATOM      6  C6  UNL d   1       5.886  -1.899   5.714  0.00  0.00    -0.057 A 
ENDROOT
BRANCH   1   7
ATOM      7  N   UNL d   1       4.830  -4.058   5.629  0.00  0.00    -0.732 N 
ATOM      8  C   UNL d   1       6.000  -4.825   6.000  0.00  0.00     0.284 C 
ATOM      9  H3  UNL d   1       4.055  -4.139   6.283  0.00  0.00     0.395 HD
ENDBRANCH   1   7
TORSDOF 1
ENDMDL
