MODEL 1
REMARK minimizedAffinity 3.84202027
REMARK minimizedRMSD -1
REMARK  1 active torsions:
REMARK  status: ('A' for Active; 'I' for Inactive)
REMARK    1  A    between atoms: N_2  and  C1_3 
ROOT
ATOM      1  C1  UNL d   1      -4.460   5.860   3.575  0.00  0.00     0.143 A 
ATOM      2  C2  UNL d   1      -5.051   5.667   4.829  0.00  0.00    -0.057 A 
ATOM      3  C3  UNL d   1      -4.283   5.662   6.000  0.00  0.00     0.033 A 
ATOM      4  C4  UNL d   1      -2.903   5.821   5.934  0.00  0.00    -0.042 A 
ATOM      5  C5  UNL d   1      -2.291   5.989   4.697  0.00  0.00     0.033 A 
ATOM      6  C6  UNL d   1      -3.064   6.000   3.532  0.00  0.00    -0.057 A 
ENDROOT
BRANCH   1   7
ATOM      7  N   UNL d   1      -5.156   5.777   2.367  0.00  0.00    -0.732 N 
ATOM      8  C   UNL d   1      -5.092   4.578   1.560  0.00  0.00     0.284 C 
ATOM      9  H3  UNL d   1      -6.084   6.191   2.424  0.00  0.00     0.395 HD
ENDBRANCH   1   7
TORSDOF 1
ENDMDL
