MODEL 1
REMARK minimizedAffinity 2.56073475
REMARK minimizedRMSD -1
REMARK  1 active torsions:
REMARK  status: ('A' for Active; 'I' for Inactive)
REMARK    1  A    between atoms: N_2  and  C1_3 
ROOT
ATOM      1  C1  UNL d   1      -3.730   5.991   3.200  0.00  0.00     0.143 A 
ATOM      2  C2  UNL d   1      -5.073   5.986   3.591  0.00  0.00    -0.057 A 
ATOM      3  C3  UNL d   1      -5.435   5.996   4.944  0.00  0.00     0.033 A 
ATOM      4  C4  UNL d   1      -4.457   5.981   5.932  0.00  0.00    -0.042 A 
ATOM      5  C5  UNL d   1      -3.115   5.960   5.566  0.00  0.00     0.033 A 
ATOM      6  C6  UNL d   1      -2.760   5.957   4.214  0.00  0.00    -0.057 A 
ENDROOT
BRANCH   1   7
ATOM      7  N   UNL d   1      -3.306   5.882   1.873  0.00  0.00    -0.732 N 
ATOM      8  C   UNL d   1      -1.902   5.984   1.537  0.00  0.00     0.284 C 
ATOM      9  H3  UNL d   1      -3.803   5.154   1.365  0.00  0.00     0.395 HD
ENDBRANCH   1   7
TORSDOF 1
ENDMDL
