MODEL 1
REMARK minimizedAffinity -0.898309052
REMARK minimizedRMSD -1
REMARK  0 active torsions:
REMARK  status: ('A' for Active; 'I' for Inactive)
ROOT
ATOM      1  C   UNL d   1       0.995   5.976   6.000  0.00  0.00     0.078 C 
ATOM      2  C1  UNL d   1       2.206   5.972   5.115  0.00  0.00    -0.077 A 
ATOM      3  C2  UNL d   1       2.079   5.928   3.721  0.00  0.00    -0.001 A 
ATOM      4  C3  UNL d   1       3.215   5.915   2.909  0.00  0.00     0.003 A 
ATOM      5  C4  UNL d   1       4.485   5.944   3.482  0.00  0.00    -0.005 A 
ATOM      6  C5  UNL d   1       4.620   5.986   4.868  0.00  0.00     0.003 A 
ATOM      7  C6  UNL d   1       3.486   5.999   5.681  0.00  0.00    -0.001 A 
ENDROOT
TORSDOF 0
ENDMDL
