MODEL 1
REMARK minimizedAffinity -0.630010664
REMARK minimizedRMSD -1
REMARK  0 active torsions:
REMARK  status: ('A' for Active; 'I' for Inactive)
ROOT
ATOM      1  C   UNL d   1       1.248  -1.520   0.234  0.00  0.00     0.078 C 
ATOM      2  C1  UNL d   1       0.016  -1.052   0.951  0.00  0.00    -0.077 A 
ATOM      3  C2  UNL d   1      -1.060  -0.497   0.248  0.00  0.00    -0.001 A 
ATOM      4  C3  UNL d   1      -2.196  -0.056   0.929  0.00  0.00     0.003 A 
ATOM      5  C4  UNL d   1      -2.266  -0.165   2.316  0.00  0.00    -0.005 A 
ATOM      6  C5  UNL d   1      -1.199  -0.714   3.025  0.00  0.00     0.003 A 
ATOM      7  C6  UNL d   1      -0.062  -1.155   2.345  0.00  0.00    -0.001 A 
ENDROOT
TORSDOF 0
ENDMDL
