MODEL 1
REMARK minimizedAffinity -2.4735713
REMARK minimizedRMSD -1
REMARK  0 active torsions:
REMARK  status: ('A' for Active; 'I' for Inactive)
ROOT
ATOM      1  C   UNL d   1       1.656  -4.096   1.872  0.00  0.00     0.078 C 
ATOM      2  C1  UNL d   1       0.760  -2.894   1.881  0.00  0.00    -0.077 A 
ATOM      3  C2  UNL d   1      -0.128  -2.665   2.938  0.00  0.00    -0.001 A 
ATOM      4  C3  UNL d   1      -0.964  -1.547   2.929  0.00  0.00     0.003 A 
ATOM      5  C4  UNL d   1      -0.920  -0.650   1.863  0.00  0.00    -0.005 A 
ATOM      6  C5  UNL d   1      -0.042  -0.872   0.804  0.00  0.00     0.003 A 
ATOM      7  C6  UNL d   1       0.795  -1.989   0.812  0.00  0.00    -0.001 A 
ENDROOT
TORSDOF 0
ENDMDL
