MODEL 1
REMARK minimizedAffinity 2.62378263
REMARK minimizedRMSD -1
REMARK  0 active torsions:
REMARK  status: ('A' for Active; 'I' for Inactive)
ROOT
ATOM      1  C   UNL d   1       1.847  -3.968   1.476  0.00  0.00     0.078 C 
ATOM      2  C1  UNL d   1       0.947  -2.772   1.570  0.00  0.00    -0.077 A 
ATOM      3  C2  UNL d   1       0.144  -2.559   2.697  0.00  0.00    -0.001 A 
ATOM      4  C3  UNL d   1      -0.695  -1.447   2.766  0.00  0.00     0.003 A 
ATOM      5  C4  UNL d   1      -0.741  -0.538   1.711  0.00  0.00    -0.005 A 
ATOM      6  C5  UNL d   1       0.053  -0.742   0.584  0.00  0.00     0.003 A 
ATOM      7  C6  UNL d   1       0.893  -1.854   0.513  0.00  0.00    -0.001 A 
ENDROOT
TORSDOF 0
ENDMDL
