MODEL 1
REMARK minimizedAffinity -2.5914433
REMARK minimizedRMSD -1
REMARK  0 active torsions:
REMARK  status: ('A' for Active; 'I' for Inactive)
ROOT
ATOM      1  C   UNL d   1       1.644  -3.707   1.463  0.00  0.00     0.078 C 
ATOM      2  C1  UNL d   1       0.709  -2.536   1.411  0.00  0.00    -0.077 A 
ATOM      3  C2  UNL d   1       0.561  -1.783   0.240  0.00  0.00    -0.001 A 
ATOM      4  C3  UNL d   1      -0.306  -0.689   0.209  0.00  0.00     0.003 A 
ATOM      5  C4  UNL d   1      -1.030  -0.338   1.346  0.00  0.00    -0.005 A 
ATOM      6  C5  UNL d   1      -0.887  -1.080   2.517  0.00  0.00     0.003 A 
ATOM      7  C6  UNL d   1      -0.021  -2.174   2.550  0.00  0.00    -0.001 A 
ENDROOT
TORSDOF 0
ENDMDL
