MODEL 1
REMARK minimizedAffinity -6.41088772
REMARK minimizedRMSD -1
REMARK  0 active torsions:
REMARK  status: ('A' for Active; 'I' for Inactive)
ROOT
ATOM      1  N1  IND d   1       0.425   0.533  -0.750  0.00  0.00    -0.196 N 
ATOM      2  C2  IND d   1       0.631  -0.392   0.235  0.00  0.00     0.054 A 
ATOM      3  C3  IND d   1       0.220   0.092   1.428  0.00  0.00    -0.031 A 
ATOM      4  C4  IND d   1      -0.912   2.338   1.980  0.00  0.00     0.051 A 
ATOM      5  C5  IND d   1      -1.276   3.528   1.415  0.00  0.00    -0.031 A 
ATOM      6  C6  IND d   1      -1.091   3.784   0.072  0.00  0.00     0.015 A 
ATOM      7  C7  IND d   1      -0.542   2.852  -0.762  0.00  0.00    -0.016 A 
ATOM      8  C8  IND d   1      -0.164   1.645  -0.191  0.00  0.00    -0.047 A 
ATOM      9  C9  IND d   1      -0.311   1.395   1.180  0.00  0.00    -0.096 A 
ATOM     10  HN1 IND d   1       0.630   0.436  -1.580  0.00  0.00     0.298 HD
ENDROOT
TORSDOF 0
ENDMDL
