MODEL 1
REMARK minimizedAffinity -3.43507886
REMARK minimizedRMSD -1
REMARK  0 active torsions:
REMARK  status: ('A' for Active; 'I' for Inactive)
ROOT
ATOM      1  N1  IND d   1       1.488   0.192   1.406  0.00  0.00    -0.196 N 
ATOM      2  C2  IND d   1       1.453  -0.682   0.356  0.00  0.00     0.054 A 
ATOM      3  C3  IND d   1       0.284  -0.566  -0.314  0.00  0.00    -0.031 A 
ATOM      4  C4  IND d   1      -1.669   1.065   0.076  0.00  0.00     0.051 A 
ATOM      5  C5  IND d   1      -2.112   2.028   0.937  0.00  0.00    -0.031 A 
ATOM      6  C6  IND d   1      -1.361   2.440   2.019  0.00  0.00     0.015 A 
ATOM      7  C7  IND d   1      -0.129   1.908   2.275  0.00  0.00    -0.016 A 
ATOM      8  C8  IND d   1       0.321   0.924   1.406  0.00  0.00    -0.047 A 
ATOM      9  C9  IND d   1      -0.455   0.472   0.331  0.00  0.00    -0.096 A 
ATOM     10  HN1 IND d   1       2.131   0.272   1.971  0.00  0.00     0.298 HD
ENDROOT
TORSDOF 0
ENDMDL
