MODEL 1
REMARK minimizedAffinity -3.88232112
REMARK minimizedRMSD -1
REMARK  0 active torsions:
REMARK  status: ('A' for Active; 'I' for Inactive)
ROOT
ATOM      1  N1  IND d   1       0.856   0.004   0.965  0.00  0.00    -0.196 N 
ATOM      2  C2  IND d   1       0.745  -0.658  -0.226  0.00  0.00     0.054 A 
ATOM      3  C3  IND d   1      -0.245  -0.119  -0.973  0.00  0.00    -0.031 A 
ATOM      4  C4  IND d   1      -1.741   1.918  -0.481  0.00  0.00     0.051 A 
ATOM      5  C5  IND d   1      -2.036   2.827   0.495  0.00  0.00    -0.031 A 
ATOM      6  C6  IND d   1      -1.367   2.843   1.702  0.00  0.00     0.015 A 
ATOM      7  C7  IND d   1      -0.365   1.955   1.974  0.00  0.00    -0.016 A 
ATOM      8  C8  IND d   1      -0.068   1.025   0.987  0.00  0.00    -0.047 A 
ATOM      9  C9  IND d   1      -0.772   0.977  -0.223  0.00  0.00    -0.096 A 
ATOM     10  HN1 IND d   1       1.410  -0.186   1.595  0.00  0.00     0.298 HD
ENDROOT
TORSDOF 0
ENDMDL
