MODEL 1
REMARK minimizedAffinity -3.32871222
REMARK minimizedRMSD -1
REMARK  0 active torsions:
REMARK  status: ('A' for Active; 'I' for Inactive)
ROOT
ATOM      1  N1  IND d   1       0.470   0.544  -1.163  0.00  0.00    -0.196 N 
ATOM      2  C2  IND d   1      -0.187   1.178  -2.180  0.00  0.00     0.054 A 
ATOM      3  C3  IND d   1      -1.201   1.927  -1.691  0.00  0.00    -0.031 A 
ATOM      4  C4  IND d   1      -1.897   2.339   0.753  0.00  0.00     0.051 A 
ATOM      5  C5  IND d   1      -1.620   1.948   2.033  0.00  0.00    -0.031 A 
ATOM      6  C6  IND d   1      -0.609   1.053   2.319  0.00  0.00     0.015 A 
ATOM      7  C7  IND d   1       0.173   0.522   1.332  0.00  0.00    -0.016 A 
ATOM      8  C8  IND d   1      -0.111   0.911   0.031  0.00  0.00    -0.047 A 
ATOM      9  C9  IND d   1      -1.163   1.786  -0.269  0.00  0.00    -0.096 A 
ATOM     10  HN1 IND d   1       1.135   0.006  -1.254  0.00  0.00     0.298 HD
ENDROOT
TORSDOF 0
ENDMDL
