MODEL 1
REMARK minimizedAffinity 0.720957994
REMARK minimizedRMSD -1
REMARK  0 active torsions:
REMARK  status: ('A' for Active; 'I' for Inactive)
ROOT
ATOM      1  N1  IND d   1       2.311  -1.023  -0.076  0.00  0.00    -0.196 N 
ATOM      2  C2  IND d   1       3.299  -1.016   0.868  0.00  0.00     0.054 A 
ATOM      3  C3  IND d   1       3.001  -0.142   1.855  0.00  0.00    -0.031 A 
ATOM      4  C4  IND d   1       0.897   1.307   2.177  0.00  0.00     0.051 A 
ATOM      5  C5  IND d   1      -0.267   1.668   1.558  0.00  0.00    -0.031 A 
ATOM      6  C6  IND d   1      -0.640   1.138   0.340  0.00  0.00     0.015 A 
ATOM      7  C7  IND d   1       0.135   0.214  -0.302  0.00  0.00    -0.016 A 
ATOM      8  C8  IND d   1       1.321  -0.150   0.319  0.00  0.00    -0.047 A 
ATOM      9  C9  IND d   1       1.726   0.417   1.535  0.00  0.00    -0.096 A 
ATOM     10  HN1 IND d   1       2.307  -1.494  -0.795  0.00  0.00     0.298 HD
ENDROOT
TORSDOF 0
ENDMDL
