MODEL 1
REMARK minimizedAffinity -2.26054931
REMARK minimizedRMSD -1
REMARK  0 active torsions:
REMARK  status: ('A' for Active; 'I' for Inactive)
ROOT
ATOM      1  N1  IND d   1       0.554  -0.496  -0.249  0.00  0.00    -0.196 N 
ATOM      2  C2  IND d   1       0.798  -0.805   1.060  0.00  0.00     0.054 A 
ATOM      3  C3  IND d   1       0.182   0.082   1.875  0.00  0.00    -0.031 A 
ATOM      4  C4  IND d   1      -1.358   2.056   1.278  0.00  0.00     0.051 A 
ATOM      5  C5  IND d   1      -1.848   2.756   0.211  0.00  0.00    -0.031 A 
ATOM      6  C6  IND d   1      -1.558   2.399  -1.090  0.00  0.00     0.015 A 
ATOM      7  C7  IND d   1      -0.774   1.317  -1.374  0.00  0.00    -0.016 A 
ATOM      8  C8  IND d   1      -0.269   0.608  -0.293  0.00  0.00    -0.047 A 
ATOM      9  C9  IND d   1      -0.525   0.991   1.030  0.00  0.00    -0.096 A 
ATOM     10  HN1 IND d   1       0.863  -0.919  -0.930  0.00  0.00     0.298 HD
ENDROOT
TORSDOF 0
ENDMDL
