MODEL 1
REMARK minimizedAffinity -3.64463043
REMARK minimizedRMSD -1
REMARK  0 active torsions:
REMARK  status: ('A' for Active; 'I' for Inactive)
ROOT
ATOM      1  N1  IND d   1       1.004   0.960  -1.142  0.00  0.00    -0.196 N 
ATOM      2  C2  IND d   1       0.358   1.577  -2.176  0.00  0.00     0.054 A 
ATOM      3  C3  IND d   1      -0.628   2.374  -1.707  0.00  0.00    -0.031 A 
ATOM      4  C4  IND d   1      -1.291   2.895   0.725  0.00  0.00     0.051 A 
ATOM      5  C5  IND d   1      -1.015   2.543   2.016  0.00  0.00    -0.031 A 
ATOM      6  C6  IND d   1      -0.029   1.628   2.327  0.00  0.00     0.015 A 
ATOM      7  C7  IND d   1       0.727   1.038   1.355  0.00  0.00    -0.016 A 
ATOM      8  C8  IND d   1       0.444   1.388   0.042  0.00  0.00    -0.047 A 
ATOM      9  C9  IND d   1      -0.583   2.284  -0.282  0.00  0.00    -0.096 A 
ATOM     10  HN1 IND d   1       1.651   0.399  -1.218  0.00  0.00     0.298 HD
ENDROOT
TORSDOF 0
ENDMDL
