MODEL 1
REMARK minimizedAffinity -3.44697881
REMARK minimizedRMSD -1
REMARK  0 active torsions:
REMARK  status: ('A' for Active; 'I' for Inactive)
ROOT
ATOM      1  N1  IND d   1       0.746   0.026  -0.404  0.00  0.00    -0.196 N 
ATOM      2  C2  IND d   1       0.224   0.667  -1.493  0.00  0.00     0.054 A 
ATOM      3  C3  IND d   1      -0.718   1.556  -1.108  0.00  0.00    -0.031 A 
ATOM      4  C4  IND d   1      -1.491   2.197   1.262  0.00  0.00     0.051 A 
ATOM      5  C5  IND d   1      -1.331   1.858   2.576  0.00  0.00    -0.031 A 
ATOM      6  C6  IND d   1      -0.450   0.873   2.972  0.00  0.00     0.015 A 
ATOM      7  C7  IND d   1       0.315   0.195   2.066  0.00  0.00    -0.016 A 
ATOM      8  C8  IND d   1       0.150   0.532   0.730  0.00  0.00    -0.047 A 
ATOM      9  C9  IND d   1      -0.774   1.501   0.318  0.00  0.00    -0.096 A 
ATOM     10  HN1 IND d   1       1.347  -0.589  -0.424  0.00  0.00     0.298 HD
ENDROOT
TORSDOF 0
ENDMDL
