MODEL 1
REMARK minimizedAffinity -0.924773037
REMARK minimizedRMSD -1
REMARK  0 active torsions:
REMARK  status: ('A' for Active; 'I' for Inactive)
ROOT
ATOM      1  N1  IND d   1       0.248   0.919   2.144  0.00  0.00    -0.196 N 
ATOM      2  C2  IND d   1      -0.268   2.079   2.651  0.00  0.00     0.054 A 
ATOM      3  C3  IND d   1      -0.731   2.864   1.652  0.00  0.00    -0.031 A 
ATOM      4  C4  IND d   1      -0.836   2.400  -0.878  0.00  0.00     0.051 A 
ATOM      5  C5  IND d   1      -0.453   1.490  -1.823  0.00  0.00    -0.031 A 
ATOM      6  C6  IND d   1       0.194   0.318  -1.487  0.00  0.00     0.015 A 
ATOM      7  C7  IND d   1       0.473   0.006  -0.186  0.00  0.00    -0.016 A 
ATOM      8  C8  IND d   1       0.092   0.931   0.775  0.00  0.00    -0.047 A 
ATOM      9  C9  IND d   1      -0.527   2.141   0.437  0.00  0.00    -0.096 A 
ATOM     10  HN1 IND d   1       0.609   0.288   2.603  0.00  0.00     0.298 HD
ENDROOT
TORSDOF 0
ENDMDL
