MODEL 1
REMARK minimizedAffinity 1.85875988
REMARK minimizedRMSD -1
REMARK  3 active torsions:
REMARK  status: ('A' for Active; 'I' for Inactive)
REMARK    1  A    between atoms: C3'_2  and  C2'_3 
REMARK    2  A    between atoms: C2'_3  and  C1'_4 
REMARK    3  A    between atoms: C1'_4  and  C1_5 
ROOT
ATOM      1  C1  N4B d   1      -0.573  -0.749   2.975  0.00  0.00    -0.075 A 
ATOM      2  C2  N4B d   1       0.184  -0.518   1.805  0.00  0.00     0.002 A 
ATOM      3  C3  N4B d   1      -0.401   0.079   0.715  0.00  0.00     0.002 A 
ATOM      4  C4  N4B d   1      -1.740   0.435   0.765  0.00  0.00    -0.004 A 
ATOM      5  C5  N4B d   1      -2.458   0.232   1.908  0.00  0.00     0.002 A 
ATOM      6  C6  N4B d   1      -1.882  -0.364   3.012  0.00  0.00     0.002 A 
ENDROOT
BRANCH   1   7
ATOM      7  C1' N4B d   1      -0.000  -1.476   4.161  0.00  0.00     0.057 C 
BRANCH   7   8
ATOM      8  C2' N4B d   1       1.522  -1.388   4.115  0.00  0.00     0.009 C 
BRANCH   8   9
ATOM      9  C3' N4B d   1       2.165  -2.013   5.342  0.00  0.00     0.004 C 
ATOM     10  C4' N4B d   1       3.319  -1.211   5.865  0.00  0.00     0.003 C 
ENDBRANCH   8   9
ENDBRANCH   7   8
ENDBRANCH   1   7
TORSDOF 3
ENDMDL
