MODEL 1
REMARK minimizedAffinity 1.41860378
REMARK minimizedRMSD -1
REMARK  3 active torsions:
REMARK  status: ('A' for Active; 'I' for Inactive)
REMARK    1  A    between atoms: C3'_2  and  C2'_3 
REMARK    2  A    between atoms: C2'_3  and  C1'_4 
REMARK    3  A    between atoms: C1'_4  and  C1_5 
ROOT
ATOM      1  C1  N4B d   1      -1.110   0.363   1.580  0.00  0.00    -0.075 A 
ATOM      2  C2  N4B d   1       0.196  -0.017   1.201  0.00  0.00     0.002 A 
ATOM      3  C3  N4B d   1       0.487  -0.247  -0.121  0.00  0.00     0.002 A 
ATOM      4  C4  N4B d   1      -0.511  -0.122  -1.075  0.00  0.00    -0.004 A 
ATOM      5  C5  N4B d   1      -1.764   0.271  -0.704  0.00  0.00     0.002 A 
ATOM      6  C6  N4B d   1      -2.070   0.509   0.621  0.00  0.00     0.002 A 
ENDROOT
BRANCH   1   7
ATOM      7  C1' N4B d   1      -1.498   0.542   3.023  0.00  0.00     0.057 C 
BRANCH   7   8
ATOM      8  C2' N4B d   1      -0.971  -0.638   3.833  0.00  0.00     0.009 C 
BRANCH   8   9
ATOM      9  C3' N4B d   1      -1.784  -1.900   3.594  0.00  0.00     0.004 C 
ATOM     10  C4' N4B d   1      -3.227  -1.614   3.306  0.00  0.00     0.003 C 
ENDBRANCH   8   9
ENDBRANCH   7   8
ENDBRANCH   1   7
TORSDOF 3
ENDMDL
