MODEL 1
REMARK minimizedAffinity 3.13662386
REMARK minimizedRMSD -1
REMARK  3 active torsions:
REMARK  status: ('A' for Active; 'I' for Inactive)
REMARK    1  A    between atoms: C3'_2  and  C2'_3 
REMARK    2  A    between atoms: C2'_3  and  C1'_4 
REMARK    3  A    between atoms: C1'_4  and  C1_5 
ROOT
ATOM      1  C1  N4B d   1       0.020  -0.314   1.664  0.00  0.00    -0.075 A 
ATOM      2  C2  N4B d   1      -1.229   0.063   2.204  0.00  0.00     0.002 A 
ATOM      3  C3  N4B d   1      -2.268   0.388   1.368  0.00  0.00     0.002 A 
ATOM      4  C4  N4B d   1      -2.078   0.362  -0.006  0.00  0.00    -0.004 A 
ATOM      5  C5  N4B d   1      -0.876  -0.028  -0.520  0.00  0.00     0.002 A 
ATOM      6  C6  N4B d   1       0.177  -0.362   0.309  0.00  0.00     0.002 A 
ENDROOT
BRANCH   1   7
ATOM      7  C1' N4B d   1       1.211  -0.596   2.539  0.00  0.00     0.057 C 
BRANCH   7   8
ATOM      8  C2' N4B d   1       0.761  -1.401   3.754  0.00  0.00     0.009 C 
BRANCH   8   9
ATOM      9  C3' N4B d   1       1.714  -1.242   4.926  0.00  0.00     0.004 C 
ATOM     10  C4' N4B d   1       1.173  -0.342   5.998  0.00  0.00     0.003 C 
ENDBRANCH   8   9
ENDBRANCH   7   8
ENDBRANCH   1   7
TORSDOF 3
ENDMDL
