MODEL 1
REMARK minimizedAffinity 1.02934992
REMARK minimizedRMSD -1
REMARK  3 active torsions:
REMARK  status: ('A' for Active; 'I' for Inactive)
REMARK    1  A    between atoms: C3'_2  and  C2'_3 
REMARK    2  A    between atoms: C2'_3  and  C1'_4 
REMARK    3  A    between atoms: C1'_4  and  C1_5 
ROOT
ATOM      1  C1  N4B d   1      -1.277  -0.123   2.152  0.00  0.00    -0.075 A 
ATOM      2  C2  N4B d   1      -0.389  -0.265   1.062  0.00  0.00     0.002 A 
ATOM      3  C3  N4B d   1      -0.863  -0.184  -0.224  0.00  0.00     0.002 A 
ATOM      4  C4  N4B d   1      -2.217   0.020  -0.445  0.00  0.00    -0.004 A 
ATOM      5  C5  N4B d   1      -3.063   0.182   0.613  0.00  0.00     0.002 A 
ATOM      6  C6  N4B d   1      -2.600   0.106   1.911  0.00  0.00     0.002 A 
ENDROOT
BRANCH   1   7
ATOM      7  C1' N4B d   1      -0.819  -0.290   3.575  0.00  0.00     0.057 C 
BRANCH   7   8
ATOM      8  C2' N4B d   1       0.577  -0.904   3.583  0.00  0.00     0.009 C 
BRANCH   8   9
ATOM      9  C3' N4B d   1       0.891  -1.585   4.905  0.00  0.00     0.004 C 
ATOM     10  C4' N4B d   1       2.276  -1.289   5.397  0.00  0.00     0.003 C 
ENDBRANCH   8   9
ENDBRANCH   7   8
ENDBRANCH   1   7
TORSDOF 3
ENDMDL
