MODEL 1
REMARK minimizedAffinity -1.91346633
REMARK minimizedRMSD -1
REMARK  3 active torsions:
REMARK  status: ('A' for Active; 'I' for Inactive)
REMARK    1  A    between atoms: C3'_2  and  C2'_3 
REMARK    2  A    between atoms: C2'_3  and  C1'_4 
REMARK    3  A    between atoms: C1'_4  and  C1_5 
ROOT
ATOM      1  C1  N4B d   1      -1.088  -0.313   2.090  0.00  0.00    -0.075 A 
ATOM      2  C2  N4B d   1      -0.217  -0.781   1.082  0.00  0.00     0.002 A 
ATOM      3  C3  N4B d   1      -0.619  -0.772  -0.232  0.00  0.00     0.002 A 
ATOM      4  C4  N4B d   1      -1.890  -0.320  -0.557  0.00  0.00    -0.004 A 
ATOM      5  C5  N4B d   1      -2.715   0.154   0.420  0.00  0.00     0.002 A 
ATOM      6  C6  N4B d   1      -2.323   0.155   1.744  0.00  0.00     0.002 A 
ENDROOT
BRANCH   1   7
ATOM      7  C1' N4B d   1      -0.726  -0.383   3.548  0.00  0.00     0.057 C 
BRANCH   7   8
ATOM      8  C2' N4B d   1       0.572  -1.171   3.704  0.00  0.00     0.009 C 
BRANCH   8   9
ATOM      9  C3' N4B d   1       0.623  -1.928   5.020  0.00  0.00     0.004 C 
ATOM     10  C4' N4B d   1       1.760  -1.495   5.896  0.00  0.00     0.003 C 
ENDBRANCH   8   9
ENDBRANCH   7   8
ENDBRANCH   1   7
TORSDOF 3
ENDMDL
