MODEL 1
REMARK minimizedAffinity 3.97846699
REMARK minimizedRMSD -1
REMARK  2 active torsions:
REMARK  status: ('A' for Active; 'I' for Inactive)
REMARK    1  A    between atoms: C2'_3  and  C1'_4 
REMARK    2  A    between atoms: C1'_4  and  C1_5 
ROOT
ATOM      1  C1  I4B d   1       2.947   1.154   0.280  0.00  0.00    -0.075 A 
ATOM      2  C2  I4B d   1       1.603   1.146   0.001  0.00  0.00     0.003 A 
ATOM      3  C3  I4B d   1       0.701   1.865   0.822  0.00  0.00     0.002 A 
ATOM      4  C4  I4B d   1       1.176   2.531   1.933  0.00  0.00    -0.004 A 
ATOM      5  C5  I4B d   1       2.541   2.557   2.202  0.00  0.00     0.002 A 
ATOM      6  C6  I4B d   1       3.434   1.874   1.363  0.00  0.00     0.003 A 
ENDROOT
BRANCH   1   7
ATOM      7  C1' I4B d   1       3.868   0.357  -0.588  0.00  0.00     0.060 C 
BRANCH   7   8
ATOM      8  C2' I4B d   1       5.291   0.740  -0.235  0.00  0.00    -0.013 C 
ATOM      9  C4' I4B d   1       5.999  -0.385   0.472  0.00  0.00     0.013 C 
ATOM     10  C3' I4B d   1       5.998   1.112  -1.504  0.00  0.00     0.013 C 
ENDBRANCH   7   8
ENDBRANCH   1   7
TORSDOF 2
ENDMDL
