MODEL 1
REMARK minimizedAffinity 22.2770042
REMARK minimizedRMSD -1
REMARK  2 active torsions:
REMARK  status: ('A' for Active; 'I' for Inactive)
REMARK    1  A    between atoms: C2'_3  and  C1'_4 
REMARK    2  A    between atoms: C1'_4  and  C1_5 
ROOT
ATOM      1  C1  I4B d   1       0.121   3.510   2.146  0.00  0.00    -0.075 A 
ATOM      2  C2  I4B d   1      -0.966   3.114   1.407  0.00  0.00     0.003 A 
ATOM      3  C3  I4B d   1      -1.256   1.737   1.247  0.00  0.00     0.002 A 
ATOM      4  C4  I4B d   1      -0.410   0.796   1.797  0.00  0.00    -0.004 A 
ATOM      5  C5  I4B d   1       0.679   1.200   2.565  0.00  0.00     0.002 A 
ATOM      6  C6  I4B d   1       0.939   2.565   2.751  0.00  0.00     0.003 A 
ENDROOT
BRANCH   1   7
ATOM      7  C1' I4B d   1       0.416   4.971   2.267  0.00  0.00     0.060 C 
BRANCH   7   8
ATOM      8  C2' I4B d   1       1.297   5.170   3.483  0.00  0.00    -0.013 C 
ATOM      9  C4' I4B d   1       2.599   5.831   3.111  0.00  0.00     0.013 C 
ATOM     10  C3' I4B d   1       0.536   5.996   4.476  0.00  0.00     0.013 C 
ENDBRANCH   7   8
ENDBRANCH   1   7
TORSDOF 2
ENDMDL
