MODEL 1
REMARK minimizedAffinity 11.4491529
REMARK minimizedRMSD -1
REMARK  2 active torsions:
REMARK  status: ('A' for Active; 'I' for Inactive)
REMARK    1  A    between atoms: C2'_3  and  C1'_4 
REMARK    2  A    between atoms: C1'_4  and  C1_5 
ROOT
ATOM      1  C1  I4B d   1       2.003  -3.190   0.705  0.00  0.00    -0.075 A 
ATOM      2  C2  I4B d   1       2.734  -2.288  -0.027  0.00  0.00     0.003 A 
ATOM      3  C3  I4B d   1       2.704  -2.328  -1.442  0.00  0.00     0.002 A 
ATOM      4  C4  I4B d   1       1.974  -3.310  -2.079  0.00  0.00    -0.004 A 
ATOM      5  C5  I4B d   1       1.215  -4.209  -1.336  0.00  0.00     0.002 A 
ATOM      6  C6  I4B d   1       1.219  -4.141   0.065  0.00  0.00     0.003 A 
ENDROOT
BRANCH   1   7
ATOM      7  C1' I4B d   1       2.084  -3.141   2.198  0.00  0.00     0.060 C 
BRANCH   7   8
ATOM      8  C2' I4B d   1       0.702  -2.817   2.730  0.00  0.00    -0.013 C 
ATOM      9  C4' I4B d   1       0.412  -3.582   3.994  0.00  0.00     0.013 C 
ATOM     10  C3' I4B d   1       0.632  -1.337   2.965  0.00  0.00     0.013 C 
ENDBRANCH   7   8
ENDBRANCH   1   7
TORSDOF 2
ENDMDL
