MODEL 1
REMARK minimizedAffinity 7.33621359
REMARK minimizedRMSD -1
REMARK  2 active torsions:
REMARK  status: ('A' for Active; 'I' for Inactive)
REMARK    1  A    between atoms: C2'_3  and  C1'_4 
REMARK    2  A    between atoms: C1'_4  and  C1_5 
ROOT
ATOM      1  C1  I4B d   1       1.892   0.072   0.043  0.00  0.00    -0.075 A 
ATOM      2  C2  I4B d   1       0.997   0.676  -0.805  0.00  0.00     0.003 A 
ATOM      3  C3  I4B d   1      -0.083   1.428  -0.283  0.00  0.00     0.002 A 
ATOM      4  C4  I4B d   1      -0.260   1.507   1.083  0.00  0.00    -0.004 A 
ATOM      5  C5  I4B d   1       0.661   0.912   1.941  0.00  0.00     0.002 A 
ATOM      6  C6  I4B d   1       1.751   0.201   1.418  0.00  0.00     0.003 A 
ENDROOT
BRANCH   1   7
ATOM      7  C1' I4B d   1       3.003  -0.741  -0.542  0.00  0.00     0.060 C 
BRANCH   7   8
ATOM      8  C2' I4B d   1       4.312  -0.063  -0.193  0.00  0.00    -0.013 C 
ATOM      9  C4' I4B d   1       5.307  -1.049   0.359  0.00  0.00     0.013 C 
ATOM     10  C3' I4B d   1       4.836   0.598  -1.434  0.00  0.00     0.013 C 
ENDBRANCH   7   8
ENDBRANCH   1   7
TORSDOF 2
ENDMDL
