MODEL 1
REMARK minimizedAffinity 10.5749454
REMARK minimizedRMSD -1
REMARK  2 active torsions:
REMARK  status: ('A' for Active; 'I' for Inactive)
REMARK    1  A    between atoms: C2'_3  and  C1'_4 
REMARK    2  A    between atoms: C1'_4  and  C1_5 
ROOT
ATOM      1  C1  I4B d   1       3.709  -0.376  -0.744  0.00  0.00    -0.075 A 
ATOM      2  C2  I4B d   1       4.842  -0.746  -0.064  0.00  0.00     0.003 A 
ATOM      3  C3  I4B d   1       6.000   0.068  -0.112  0.00  0.00     0.002 A 
ATOM      4  C4  I4B d   1       5.997   1.209  -0.887  0.00  0.00    -0.004 A 
ATOM      5  C5  I4B d   1       4.839   1.595  -1.558  0.00  0.00     0.002 A 
ATOM      6  C6  I4B d   1       3.684   0.804  -1.476  0.00  0.00     0.003 A 
ENDROOT
BRANCH   1   7
ATOM      7  C1' I4B d   1       2.515  -1.276  -0.698  0.00  0.00     0.060 C 
BRANCH   7   8
ATOM      8  C2' I4B d   1       3.009  -2.700  -0.550  0.00  0.00    -0.013 C 
ATOM      9  C4' I4B d   1       2.717  -3.238   0.826  0.00  0.00     0.013 C 
ATOM     10  C3' I4B d   1       2.349  -3.533  -1.608  0.00  0.00     0.013 C 
ENDBRANCH   7   8
ENDBRANCH   1   7
TORSDOF 2
ENDMDL
