MODEL 1
REMARK minimizedAffinity 9.19056511
REMARK minimizedRMSD -1
REMARK  2 active torsions:
REMARK  status: ('A' for Active; 'I' for Inactive)
REMARK    1  A    between atoms: C2'_3  and  C1'_4 
REMARK    2  A    between atoms: C1'_4  and  C1_5 
ROOT
ATOM      1  C1  I4B d   1       1.955   0.344  -0.303  0.00  0.00    -0.075 A 
ATOM      2  C2  I4B d   1       1.063   0.726  -1.274  0.00  0.00     0.003 A 
ATOM      3  C3  I4B d   1      -0.223   1.197  -0.915  0.00  0.00     0.002 A 
ATOM      4  C4  I4B d   1      -0.591   1.221   0.414  0.00  0.00    -0.004 A 
ATOM      5  C5  I4B d   1       0.322   0.855   1.399  0.00  0.00     0.002 A 
ATOM      6  C6  I4B d   1       1.608   0.426   1.039  0.00  0.00     0.003 A 
ENDROOT
BRANCH   1   7
ATOM      7  C1' I4B d   1       3.293  -0.180  -0.719  0.00  0.00     0.060 C 
BRANCH   7   8
ATOM      8  C2' I4B d   1       4.267   0.981  -0.724  0.00  0.00    -0.013 C 
ATOM      9  C4' I4B d   1       5.177   0.934   0.476  0.00  0.00     0.013 C 
ATOM     10  C3' I4B d   1       5.052   0.922  -2.001  0.00  0.00     0.013 C 
ENDBRANCH   7   8
ENDBRANCH   1   7
TORSDOF 2
ENDMDL
