MODEL 1
REMARK minimizedAffinity 2.10643435
REMARK minimizedRMSD -1
REMARK  2 active torsions:
REMARK  status: ('A' for Active; 'I' for Inactive)
REMARK    1  A    between atoms: C2'_3  and  C1'_4 
REMARK    2  A    between atoms: C1'_4  and  C1_5 
ROOT
ATOM      1  C1  I4B d   1      -0.488  -2.369  -1.703  0.00  0.00    -0.075 A 
ATOM      2  C2  I4B d   1       0.638  -2.689  -0.985  0.00  0.00     0.003 A 
ATOM      3  C3  I4B d   1       1.245  -1.724  -0.146  0.00  0.00     0.002 A 
ATOM      4  C4  I4B d   1       0.728  -0.446  -0.094  0.00  0.00    -0.004 A 
ATOM      5  C5  I4B d   1      -0.426  -0.130  -0.805  0.00  0.00     0.002 A 
ATOM      6  C6  I4B d   1      -1.045  -1.101  -1.605  0.00  0.00     0.003 A 
ENDROOT
BRANCH   1   7
ATOM      7  C1' I4B d   1      -1.084  -3.402  -2.605  0.00  0.00     0.060 C 
BRANCH   7   8
ATOM      8  C2' I4B d   1      -1.557  -2.705  -3.865  0.00  0.00    -0.013 C 
ATOM      9  C4' I4B d   1      -0.394  -2.197  -4.676  0.00  0.00     0.013 C 
ATOM     10  C3' I4B d   1      -2.381  -3.680  -4.652  0.00  0.00     0.013 C 
ENDBRANCH   7   8
ENDBRANCH   1   7
TORSDOF 2
ENDMDL
