MODEL 1
REMARK minimizedAffinity 1.79645097
REMARK minimizedRMSD -1
REMARK  0 active torsions:
REMARK  status: ('A' for Active; 'I' for Inactive)
ROOT
ATOM      1  C2' OXE d   1      -2.529  -5.947  -2.606  0.00  0.00     0.078 C 
ATOM      2  C1' OXE d   1       0.114  -5.974  -1.661  0.00  0.00     0.078 C 
ATOM      3  C1  OXE d   1      -0.099  -5.964  -3.154  0.00  0.00    -0.078 A 
ATOM      4  C2  OXE d   1      -1.396  -5.998  -3.608  0.00  0.00    -0.078 A 
ATOM      5  C3  OXE d   1      -1.649  -5.935  -4.975  0.00  0.00     0.003 A 
ATOM      6  C4  OXE d   1      -0.595  -5.992  -5.895  0.00  0.00    -0.002 A 
ATOM      7  C5  OXE d   1       0.732  -5.998  -5.454  0.00  0.00    -0.002 A 
ATOM      8  C6  OXE d   1       0.998  -5.941  -4.090  0.00  0.00     0.003 A 
ENDROOT
TORSDOF 0
ENDMDL
