MODEL 1
REMARK minimizedAffinity -0.680173278
REMARK minimizedRMSD -1
REMARK  0 active torsions:
REMARK  status: ('A' for Active; 'I' for Inactive)
ROOT
ATOM      1  C2' OXE d   1       0.212  -5.984  -5.929  0.00  0.00     0.078 C 
ATOM      2  C1' OXE d   1       1.285  -5.964  -3.335  0.00  0.00     0.078 C 
ATOM      3  C1  OXE d   1      -0.217  -5.972  -3.475  0.00  0.00    -0.078 A 
ATOM      4  C2  OXE d   1      -0.734  -5.934  -4.748  0.00  0.00    -0.078 A 
ATOM      5  C3  OXE d   1      -2.112  -5.995  -4.935  0.00  0.00     0.003 A 
ATOM      6  C4  OXE d   1      -2.979  -5.939  -3.837  0.00  0.00    -0.002 A 
ATOM      7  C5  OXE d   1      -2.474  -5.937  -2.532  0.00  0.00    -0.002 A 
ATOM      8  C6  OXE d   1      -1.099  -5.996  -2.334  0.00  0.00     0.003 A 
ENDROOT
TORSDOF 0
ENDMDL
