MODEL 1
REMARK minimizedAffinity -0.255982399
REMARK minimizedRMSD -1
REMARK  0 active torsions:
REMARK  status: ('A' for Active; 'I' for Inactive)
ROOT
ATOM      1  C2' OXE d   1       1.037  -5.934  -2.497  0.00  0.00     0.078 C 
ATOM      2  C1' OXE d   1       1.937  -5.929  -5.156  0.00  0.00     0.078 C 
ATOM      3  C1  OXE d   1       0.447  -5.937  -4.917  0.00  0.00    -0.078 A 
ATOM      4  C2  OXE d   1       0.016  -5.986  -3.613  0.00  0.00    -0.078 A 
ATOM      5  C3  OXE d   1      -1.347  -5.940  -3.336  0.00  0.00     0.003 A 
ATOM      6  C4  OXE d   1      -2.284  -5.998  -4.374  0.00  0.00    -0.002 A 
ATOM      7  C5  OXE d   1      -1.866  -5.989  -5.709  0.00  0.00    -0.002 A 
ATOM      8  C6  OXE d   1      -0.508  -5.915  -5.997  0.00  0.00     0.003 A 
ENDROOT
TORSDOF 0
ENDMDL
