MODEL 1
REMARK minimizedAffinity 7.88213587
REMARK minimizedRMSD -1
REMARK  0 active torsions:
REMARK  status: ('A' for Active; 'I' for Inactive)
ROOT
ATOM      1  C2' OXE d   1       0.366  -5.951  -1.651  0.00  0.00     0.078 C 
ATOM      2  C1' OXE d   1      -2.191  -5.951  -2.811  0.00  0.00     0.078 C 
ATOM      3  C1  OXE d   1      -0.999  -5.958  -3.735  0.00  0.00    -0.078 A 
ATOM      4  C2  OXE d   1       0.248  -5.911  -3.160  0.00  0.00    -0.078 A 
ATOM      5  C3  OXE d   1       1.382  -5.971  -3.965  0.00  0.00     0.003 A 
ATOM      6  C4  OXE d   1       1.264  -5.923  -5.359  0.00  0.00    -0.002 A 
ATOM      7  C5  OXE d   1       0.004  -5.931  -5.966  0.00  0.00    -0.002 A 
ATOM      8  C6  OXE d   1      -1.135  -5.991  -5.170  0.00  0.00     0.003 A 
ENDROOT
TORSDOF 0
ENDMDL
