MODEL 1
REMARK minimizedAffinity 2.97215676
REMARK minimizedRMSD -1
REMARK  0 active torsions:
REMARK  status: ('A' for Active; 'I' for Inactive)
ROOT
ATOM      1  C2' OXE d   1      -0.759   0.343   0.938  0.00  0.00     0.078 C 
ATOM      2  C1' OXE d   1       0.959  -1.809   1.482  0.00  0.00     0.078 C 
ATOM      3  C1  OXE d   1       1.526  -0.629   0.734  0.00  0.00    -0.078 A 
ATOM      4  C2  OXE d   1       0.666   0.400   0.431  0.00  0.00    -0.078 A 
ATOM      5  C3  OXE d   1       1.151   1.536  -0.210  0.00  0.00     0.003 A 
ATOM      6  C4  OXE d   1       2.467   1.576  -0.685  0.00  0.00    -0.002 A 
ATOM      7  C5  OXE d   1       3.349   0.522  -0.422  0.00  0.00    -0.002 A 
ATOM      8  C6  OXE d   1       2.907  -0.567   0.321  0.00  0.00     0.003 A 
ENDROOT
TORSDOF 0
ENDMDL
