MODEL 1
REMARK minimizedAffinity 2.32306409
REMARK minimizedRMSD -1
REMARK  0 active torsions:
REMARK  status: ('A' for Active; 'I' for Inactive)
ROOT
ATOM      1  C2' OXE d   1      -0.572  -5.996  -1.632  0.00  0.00     0.078 C 
ATOM      2  C1' OXE d   1      -3.069  -5.967  -2.914  0.00  0.00     0.078 C 
ATOM      3  C1  OXE d   1      -1.834  -5.972  -3.779  0.00  0.00    -0.078 A 
ATOM      4  C2  OXE d   1      -0.616  -5.939  -3.144  0.00  0.00    -0.078 A 
ATOM      5  C3  OXE d   1       0.555  -5.998  -3.894  0.00  0.00     0.003 A 
ATOM      6  C4  OXE d   1       0.505  -5.935  -5.291  0.00  0.00    -0.002 A 
ATOM      7  C5  OXE d   1      -0.724  -5.928  -5.959  0.00  0.00    -0.002 A 
ATOM      8  C6  OXE d   1      -1.901  -5.989  -5.220  0.00  0.00     0.003 A 
ENDROOT
TORSDOF 0
ENDMDL
