MODEL 1
REMARK minimizedAffinity 6.94789886
REMARK minimizedRMSD -1
REMARK  0 active torsions:
REMARK  status: ('A' for Active; 'I' for Inactive)
ROOT
ATOM      1  C2' OXE d   1       1.006   0.954   0.184  0.00  0.00     0.078 C 
ATOM      2  C1' OXE d   1       3.453  -0.419   0.270  0.00  0.00     0.078 C 
ATOM      3  C1  OXE d   1       2.191  -1.215   0.491  0.00  0.00    -0.078 A 
ATOM      4  C2  OXE d   1       1.001  -0.527   0.493  0.00  0.00    -0.078 A 
ATOM      5  C3  OXE d   1      -0.196  -1.222   0.637  0.00  0.00     0.003 A 
ATOM      6  C4  OXE d   1      -0.191  -2.590   0.932  0.00  0.00    -0.002 A 
ATOM      7  C5  OXE d   1       1.012  -3.303   0.974  0.00  0.00    -0.002 A 
ATOM      8  C6  OXE d   1       2.206  -2.640   0.714  0.00  0.00     0.003 A 
ENDROOT
TORSDOF 0
ENDMDL
