MODEL 1
REMARK minimizedAffinity -0.00310932449
REMARK minimizedRMSD -1
REMARK  0 active torsions:
REMARK  status: ('A' for Active; 'I' for Inactive)
ROOT
ATOM      1  C2' OXE d   1      -1.302  -1.964   0.706  0.00  0.00     0.078 C 
ATOM      2  C1' OXE d   1       1.205  -3.223   0.608  0.00  0.00     0.078 C 
ATOM      3  C1  OXE d   1       1.162  -1.726   0.427  0.00  0.00    -0.078 A 
ATOM      4  C2  OXE d   1      -0.074  -1.124   0.430  0.00  0.00    -0.078 A 
ATOM      5  C3  OXE d   1      -0.166   0.260   0.323  0.00  0.00     0.003 A 
ATOM      6  C4  OXE d   1       0.974   1.029   0.058  0.00  0.00    -0.002 A 
ATOM      7  C5  OXE d   1       2.238   0.431   0.012  0.00  0.00    -0.002 A 
ATOM      8  C6  OXE d   1       2.354  -0.936   0.236  0.00  0.00     0.003 A 
ENDROOT
TORSDOF 0
ENDMDL
