MODEL 1
REMARK minimizedAffinity 1.69683897
REMARK minimizedRMSD -1
REMARK  0 active torsions:
REMARK  status: ('A' for Active; 'I' for Inactive)
ROOT
ATOM      1  C2' OXE d   1      -2.919  -5.999  -3.755  0.00  0.00     0.078 C 
ATOM      2  C1' OXE d   1      -1.601  -5.979  -1.276  0.00  0.00     0.078 C 
ATOM      3  C1  OXE d   1      -3.109  -5.981  -1.271  0.00  0.00    -0.078 A 
ATOM      4  C2  OXE d   1      -3.745  -5.944  -2.488  0.00  0.00    -0.078 A 
ATOM      5  C3  OXE d   1      -5.135  -5.999  -2.541  0.00  0.00     0.003 A 
ATOM      6  C4  OXE d   1      -5.893  -5.938  -1.365  0.00  0.00    -0.002 A 
ATOM      7  C5  OXE d   1      -5.264  -5.936  -0.115  0.00  0.00    -0.002 A 
ATOM      8  C6  OXE d   1      -3.877  -6.000  -0.050  0.00  0.00     0.003 A 
ENDROOT
TORSDOF 0
ENDMDL
