MODEL 1
REMARK minimizedAffinity 1.42117894
REMARK minimizedRMSD -1
REMARK  0 active torsions:
REMARK  status: ('A' for Active; 'I' for Inactive)
ROOT
ATOM      1  C2' OXE d   1       1.513  -5.961  -6.000  0.00  0.00     0.078 C 
ATOM      2  C1' OXE d   1       1.595  -5.999  -3.194  0.00  0.00     0.078 C 
ATOM      3  C1  OXE d   1       0.241  -5.971  -3.858  0.00  0.00    -0.078 A 
ATOM      4  C2  OXE d   1       0.211  -5.905  -5.230  0.00  0.00    -0.078 A 
ATOM      5  C3  OXE d   1      -1.011  -5.932  -5.895  0.00  0.00     0.003 A 
ATOM      6  C4  OXE d   1      -2.211  -5.870  -5.176  0.00  0.00    -0.002 A 
ATOM      7  C5  OXE d   1      -2.202  -5.896  -3.777  0.00  0.00    -0.002 A 
ATOM      8  C6  OXE d   1      -0.988  -5.989  -3.105  0.00  0.00     0.003 A 
ENDROOT
TORSDOF 0
ENDMDL
