MODEL 1
REMARK minimizedAffinity 4.61745024
REMARK minimizedRMSD -1
REMARK  0 active torsions:
REMARK  status: ('A' for Active; 'I' for Inactive)
ROOT
ATOM      1  C2' OXE d   1      -1.124  -1.901   0.758  0.00  0.00     0.078 C 
ATOM      2  C1' OXE d   1       1.193  -3.360   1.375  0.00  0.00     0.078 C 
ATOM      3  C1  OXE d   1       1.365  -1.968   0.822  0.00  0.00    -0.078 A 
ATOM      4  C2  OXE d   1       0.227  -1.279   0.479  0.00  0.00    -0.078 A 
ATOM      5  C3  OXE d   1       0.327   0.030   0.015  0.00  0.00     0.003 A 
ATOM      6  C4  OXE d   1       1.580   0.594  -0.250  0.00  0.00    -0.002 A 
ATOM      7  C5  OXE d   1       2.753  -0.105   0.055  0.00  0.00    -0.002 A 
ATOM      8  C6  OXE d   1       2.663  -1.368   0.630  0.00  0.00     0.003 A 
ENDROOT
TORSDOF 0
ENDMDL
