MODEL 1
REMARK minimizedAffinity 0.8353706
REMARK minimizedRMSD -1
REMARK  0 active torsions:
REMARK  status: ('A' for Active; 'I' for Inactive)
ROOT
ATOM      1  C2' OXE d   1       0.736   0.450   0.054  0.00  0.00     0.078 C 
ATOM      2  C1' OXE d   1       2.396  -1.146   1.658  0.00  0.00     0.078 C 
ATOM      3  C1  OXE d   1       1.121  -1.760   1.136  0.00  0.00    -0.078 A 
ATOM      4  C2  OXE d   1       0.292  -0.957   0.391  0.00  0.00    -0.078 A 
ATOM      5  C3  OXE d   1      -0.870  -1.489  -0.161  0.00  0.00     0.003 A 
ATOM      6  C4  OXE d   1      -1.279  -2.788   0.164  0.00  0.00    -0.002 A 
ATOM      7  C5  OXE d   1      -0.468  -3.610   0.955  0.00  0.00    -0.002 A 
ATOM      8  C6  OXE d   1       0.752  -3.126   1.412  0.00  0.00     0.003 A 
ENDROOT
TORSDOF 0
ENDMDL
