MODEL 1
REMARK minimizedAffinity -1.32281113
REMARK minimizedRMSD -1
REMARK  0 active torsions:
REMARK  status: ('A' for Active; 'I' for Inactive)
ROOT
ATOM      1  C2' OXE d   1       1.231   0.887   0.255  0.00  0.00     0.078 C 
ATOM      2  C1' OXE d   1       3.394  -0.590   1.264  0.00  0.00     0.078 C 
ATOM      3  C1  OXE d   1       2.073  -1.298   1.103  0.00  0.00    -0.078 A 
ATOM      4  C2  OXE d   1       1.008  -0.556   0.652  0.00  0.00    -0.078 A 
ATOM      5  C3  OXE d   1      -0.220  -1.174   0.434  0.00  0.00     0.003 A 
ATOM      6  C4  OXE d   1      -0.421  -2.507   0.813  0.00  0.00    -0.002 A 
ATOM      7  C5  OXE d   1       0.641  -3.270   1.312  0.00  0.00    -0.002 A 
ATOM      8  C6  OXE d   1       1.901  -2.694   1.422  0.00  0.00     0.003 A 
ENDROOT
TORSDOF 0
ENDMDL
