MODEL 1
REMARK minimizedAffinity 2.41887426
REMARK minimizedRMSD -1
REMARK  0 active torsions:
REMARK  status: ('A' for Active; 'I' for Inactive)
ROOT
ATOM      1  C2' OXE d   1       2.351  -5.226  -4.144  0.00  0.00     0.078 C 
ATOM      2  C1' OXE d   1       0.522  -5.242  -2.015  0.00  0.00     0.078 C 
ATOM      3  C1  OXE d   1      -0.008  -5.520  -3.399  0.00  0.00    -0.078 A 
ATOM      4  C2  OXE d   1       0.886  -5.465  -4.441  0.00  0.00    -0.078 A 
ATOM      5  C3  OXE d   1       0.461  -5.768  -5.731  0.00  0.00     0.003 A 
ATOM      6  C4  OXE d   1      -0.897  -5.977  -5.999  0.00  0.00    -0.002 A 
ATOM      7  C5  OXE d   1      -1.831  -5.999  -4.957  0.00  0.00    -0.002 A 
ATOM      8  C6  OXE d   1      -1.397  -5.815  -3.649  0.00  0.00     0.003 A 
ENDROOT
TORSDOF 0
ENDMDL
