MODEL 1
REMARK minimizedAffinity -0.0871440992
REMARK minimizedRMSD -1
REMARK  0 active torsions:
REMARK  status: ('A' for Active; 'I' for Inactive)
ROOT
ATOM      1  C2' OXE d   1      -1.343  -5.998  -5.964  0.00  0.00     0.078 C 
ATOM      2  C1' OXE d   1       1.461  -5.866  -6.000  0.00  0.00     0.078 C 
ATOM      3  C1  OXE d   1       0.775  -5.898  -4.657  0.00  0.00    -0.078 A 
ATOM      4  C2  OXE d   1      -0.599  -5.915  -4.649  0.00  0.00    -0.078 A 
ATOM      5  C3  OXE d   1      -1.280  -6.000  -3.438  0.00  0.00     0.003 A 
ATOM      6  C4  OXE d   1      -0.585  -5.912  -2.226  0.00  0.00    -0.002 A 
ATOM      7  C5  OXE d   1       0.812  -5.854  -2.211  0.00  0.00    -0.002 A 
ATOM      8  C6  OXE d   1       1.508  -5.889  -3.415  0.00  0.00     0.003 A 
ENDROOT
TORSDOF 0
ENDMDL
