MODEL 1
REMARK minimizedAffinity -1.38803256
REMARK minimizedRMSD -1
REMARK  0 active torsions:
REMARK  status: ('A' for Active; 'I' for Inactive)
ROOT
ATOM      1  C2' OXE d   1       0.134  -5.997  -5.582  0.00  0.00     0.078 C 
ATOM      2  C1' OXE d   1      -2.079  -6.000  -3.854  0.00  0.00     0.078 C 
ATOM      3  C1  OXE d   1      -0.721  -5.732  -3.257  0.00  0.00    -0.078 A 
ATOM      4  C2  OXE d   1       0.362  -5.779  -4.102  0.00  0.00    -0.078 A 
ATOM      5  C3  OXE d   1       1.632  -5.485  -3.612  0.00  0.00     0.003 A 
ATOM      6  C4  OXE d   1       1.836  -5.294  -2.240  0.00  0.00    -0.002 A 
ATOM      7  C5  OXE d   1       0.752  -5.282  -1.356  0.00  0.00    -0.002 A 
ATOM      8  C6  OXE d   1      -0.535  -5.457  -1.853  0.00  0.00     0.003 A 
ENDROOT
TORSDOF 0
ENDMDL
