MODEL 1
REMARK minimizedAffinity 5.2713542
REMARK minimizedRMSD -1
REMARK  0 active torsions:
REMARK  status: ('A' for Active; 'I' for Inactive)
ROOT
ATOM      1  C2' OXE d   1       0.763  -5.995  -1.620  0.00  0.00     0.078 C 
ATOM      2  C1' OXE d   1      -1.902  -5.973  -2.501  0.00  0.00     0.078 C 
ATOM      3  C1  OXE d   1      -0.816  -5.978  -3.547  0.00  0.00    -0.078 A 
ATOM      4  C2  OXE d   1       0.485  -5.941  -3.107  0.00  0.00    -0.078 A 
ATOM      5  C3  OXE d   1       1.527  -5.999  -4.029  0.00  0.00     0.003 A 
ATOM      6  C4  OXE d   1       1.262  -5.938  -5.403  0.00  0.00    -0.002 A 
ATOM      7  C5  OXE d   1      -0.056  -5.935  -5.872  0.00  0.00    -0.002 A 
ATOM      8  C6  OXE d   1      -1.104  -5.997  -4.960  0.00  0.00     0.003 A 
ENDROOT
TORSDOF 0
ENDMDL
