MODEL 1
REMARK minimizedAffinity 2.24296975
REMARK minimizedRMSD -1
REMARK  0 active torsions:
REMARK  status: ('A' for Active; 'I' for Inactive)
ROOT
ATOM      1  C2' OXE d   1       3.128  -5.497  -3.783  0.00  0.00     0.078 C 
ATOM      2  C1' OXE d   1       1.100  -5.623  -1.847  0.00  0.00     0.078 C 
ATOM      3  C1  OXE d   1       0.698  -5.750  -3.296  0.00  0.00    -0.078 A 
ATOM      4  C2  OXE d   1       1.692  -5.640  -4.239  0.00  0.00    -0.078 A 
ATOM      5  C3  OXE d   1       1.384  -5.804  -5.586  0.00  0.00     0.003 A 
ATOM      6  C4  OXE d   1       0.052  -5.926  -5.999  0.00  0.00    -0.002 A 
ATOM      7  C5  OXE d   1      -0.980  -6.000  -5.057  0.00  0.00    -0.002 A 
ATOM      8  C6  OXE d   1      -0.670  -5.956  -3.703  0.00  0.00     0.003 A 
ENDROOT
TORSDOF 0
ENDMDL
