MODEL 1
REMARK minimizedAffinity -2.13647938
REMARK minimizedRMSD -1
REMARK  0 active torsions:
REMARK  status: ('A' for Active; 'I' for Inactive)
ROOT
ATOM      1  C   UNL d   1      -1.546   0.437  -1.843  0.00  0.00     0.077 C 
ATOM      2  C1  UNL d   1      -0.775  -0.180  -0.713  0.00  0.00    -0.074 A 
ATOM      3  C2  UNL d   1      -1.432  -0.857   0.319  0.00  0.00    -0.005 A 
ATOM      4  C3  UNL d   1      -0.701  -1.434   1.358  0.00  0.00     0.006 A 
ATOM      5  C4  UNL d   1       0.691  -1.339   1.375  0.00  0.00    -0.005 A 
ATOM      6  C5  UNL d   1       1.365  -0.666   0.351  0.00  0.00    -0.074 A 
ATOM      7  C6  UNL d   1       2.861  -0.564   0.349  0.00  0.00     0.077 C 
ATOM      8  C7  UNL d   1       0.624  -0.095  -0.693  0.00  0.00    -0.001 A 
ENDROOT
TORSDOF 0
ENDMDL
