MODEL 1
REMARK minimizedAffinity 3.15055442
REMARK minimizedRMSD -1
REMARK  0 active torsions:
REMARK  status: ('A' for Active; 'I' for Inactive)
ROOT
ATOM      1  C   UNL d   1      -0.508   1.381   0.709  0.00  0.00     0.077 C 
ATOM      2  C1  UNL d   1      -0.827   0.423  -0.400  0.00  0.00    -0.074 A 
ATOM      3  C2  UNL d   1      -0.376  -0.900  -0.359  0.00  0.00    -0.005 A 
ATOM      4  C3  UNL d   1      -0.688  -1.783  -1.393  0.00  0.00     0.006 A 
ATOM      5  C4  UNL d   1      -1.454  -1.352  -2.477  0.00  0.00    -0.005 A 
ATOM      6  C5  UNL d   1      -1.915  -0.033  -2.535  0.00  0.00    -0.074 A 
ATOM      7  C6  UNL d   1      -2.748   0.444  -3.688  0.00  0.00     0.077 C 
ATOM      8  C7  UNL d   1      -1.602   0.846  -1.489  0.00  0.00    -0.001 A 
ENDROOT
TORSDOF 0
ENDMDL
