MODEL 1
REMARK minimizedAffinity -5.99324322
REMARK minimizedRMSD -1
REMARK  0 active torsions:
REMARK  status: ('A' for Active; 'I' for Inactive)
ROOT
ATOM      1  C   UNL d   1       1.523  -2.923   1.975  0.00  0.00     0.077 C 
ATOM      2  C1  UNL d   1       1.557  -1.578   1.312  0.00  0.00    -0.074 A 
ATOM      3  C2  UNL d   1       2.727  -0.812   1.302  0.00  0.00    -0.005 A 
ATOM      4  C3  UNL d   1       2.747   0.433   0.674  0.00  0.00     0.006 A 
ATOM      5  C4  UNL d   1       1.599   0.924   0.050  0.00  0.00    -0.005 A 
ATOM      6  C5  UNL d   1       0.420   0.171   0.050  0.00  0.00    -0.074 A 
ATOM      7  C6  UNL d   1      -0.820   0.679  -0.624  0.00  0.00     0.077 C 
ATOM      8  C7  UNL d   1       0.410  -1.082   0.677  0.00  0.00    -0.001 A 
ENDROOT
TORSDOF 0
ENDMDL
