MODEL 1
REMARK minimizedAffinity -5.33683681
REMARK minimizedRMSD -1
REMARK  0 active torsions:
REMARK  status: ('A' for Active; 'I' for Inactive)
ROOT
ATOM      1  C   UNL d   1       3.498  -1.122   1.537  0.00  0.00     0.077 C 
ATOM      2  C1  UNL d   1       2.014  -1.274   1.378  0.00  0.00    -0.074 A 
ATOM      3  C2  UNL d   1       1.347  -2.390   1.892  0.00  0.00    -0.005 A 
ATOM      4  C3  UNL d   1      -0.035  -2.513   1.745  0.00  0.00     0.006 A 
ATOM      5  C4  UNL d   1      -0.762  -1.522   1.084  0.00  0.00    -0.005 A 
ATOM      6  C5  UNL d   1      -0.111  -0.398   0.565  0.00  0.00    -0.074 A 
ATOM      7  C6  UNL d   1      -0.879   0.681  -0.140  0.00  0.00     0.077 C 
ATOM      8  C7  UNL d   1       1.276  -0.279   0.723  0.00  0.00    -0.001 A 
ENDROOT
TORSDOF 0
ENDMDL
