MODEL 1
REMARK minimizedAffinity -4.39763069
REMARK minimizedRMSD -1
REMARK  0 active torsions:
REMARK  status: ('A' for Active; 'I' for Inactive)
ROOT
ATOM      1  C   UNL d   1      -4.188   2.433  -3.267  0.00  0.00     0.077 C 
ATOM      2  C1  UNL d   1      -3.531   1.136  -2.896  0.00  0.00    -0.074 A 
ATOM      3  C2  UNL d   1      -3.762  -0.025  -3.640  0.00  0.00    -0.005 A 
ATOM      4  C3  UNL d   1      -3.137  -1.221  -3.289  0.00  0.00     0.006 A 
ATOM      5  C4  UNL d   1      -2.276  -1.268  -2.192  0.00  0.00    -0.005 A 
ATOM      6  C5  UNL d   1      -2.032  -0.117  -1.436  0.00  0.00    -0.074 A 
ATOM      7  C6  UNL d   1      -1.103  -0.148  -0.260  0.00  0.00     0.077 C 
ATOM      8  C7  UNL d   1      -2.659   1.083  -1.800  0.00  0.00    -0.001 A 
ENDROOT
TORSDOF 0
ENDMDL
