MODEL 1
REMARK minimizedAffinity -5.11340904
REMARK minimizedRMSD -1
REMARK  0 active torsions:
REMARK  status: ('A' for Active; 'I' for Inactive)
ROOT
ATOM      1  C   UNL d   1       3.244  -0.952   1.105  0.00  0.00     0.077 C 
ATOM      2  C1  UNL d   1       2.028  -0.108   0.862  0.00  0.00    -0.074 A 
ATOM      3  C2  UNL d   1       2.087   1.285   0.971  0.00  0.00    -0.005 A 
ATOM      4  C3  UNL d   1       0.950   2.058   0.733  0.00  0.00     0.006 A 
ATOM      5  C4  UNL d   1      -0.254   1.447   0.383  0.00  0.00    -0.005 A 
ATOM      6  C5  UNL d   1      -0.332   0.055   0.268  0.00  0.00    -0.074 A 
ATOM      7  C6  UNL d   1      -1.617  -0.617  -0.116  0.00  0.00     0.077 C 
ATOM      8  C7  UNL d   1       0.816  -0.714   0.503  0.00  0.00    -0.001 A 
ENDROOT
TORSDOF 0
ENDMDL
