MODEL 1
REMARK minimizedAffinity 8.40667152
REMARK minimizedRMSD -1
REMARK  3 active torsions:
REMARK  status: ('A' for Active; 'I' for Inactive)
REMARK    1  A    between atoms: C3'_2  and  C2'_3 
REMARK    2  A    between atoms: C2'_3  and  C1'_4 
REMARK    3  A    between atoms: C1'_4  and  C1_5 
ROOT
ATOM      1  C1  N4B d   1      -3.230  -0.125   1.467  0.00  0.00    -0.075 A 
ATOM      2  C2  N4B d   1      -4.147  -0.949   0.779  0.00  0.00     0.002 A 
ATOM      3  C3  N4B d   1      -5.479  -0.920   1.109  0.00  0.00     0.002 A 
ATOM      4  C4  N4B d   1      -5.914  -0.092   2.133  0.00  0.00    -0.004 A 
ATOM      5  C5  N4B d   1      -5.026   0.720   2.777  0.00  0.00     0.002 A 
ATOM      6  C6  N4B d   1      -3.684   0.704   2.452  0.00  0.00     0.002 A 
ENDROOT
BRANCH   1   7
ATOM      7  C1' N4B d   1      -1.751  -0.186   1.200  0.00  0.00     0.057 C 
BRANCH   7   8
ATOM      8  C2' N4B d   1      -0.999  -0.109   2.525  0.00  0.00     0.009 C 
BRANCH   8   9
ATOM      9  C3' N4B d   1      -0.822  -1.479   3.158  0.00  0.00     0.004 C 
ATOM     10  C4' N4B d   1      -0.253  -2.489   2.206  0.00  0.00     0.003 C 
ENDBRANCH   8   9
ENDBRANCH   7   8
ENDBRANCH   1   7
TORSDOF 3
ENDMDL
