MODEL 1
REMARK minimizedAffinity -0.296970367
REMARK minimizedRMSD -1
REMARK  3 active torsions:
REMARK  status: ('A' for Active; 'I' for Inactive)
REMARK    1  A    between atoms: C3'_2  and  C2'_3 
REMARK    2  A    between atoms: C2'_3  and  C1'_4 
REMARK    3  A    between atoms: C1'_4  and  C1_5 
ROOT
ATOM      1  C1  N4B d   1       1.167  -2.150   1.320  0.00  0.00    -0.075 A 
ATOM      2  C2  N4B d   1       0.470  -1.061   1.887  0.00  0.00     0.002 A 
ATOM      3  C3  N4B d   1      -0.457  -1.279   2.877  0.00  0.00     0.002 A 
ATOM      4  C4  N4B d   1      -0.716  -2.574   3.301  0.00  0.00    -0.004 A 
ATOM      5  C5  N4B d   1      -0.019  -3.618   2.766  0.00  0.00     0.002 A 
ATOM      6  C6  N4B d   1       0.918  -3.413   1.773  0.00  0.00     0.002 A 
ENDROOT
BRANCH   1   7
ATOM      7  C1' N4B d   1       2.127  -1.969   0.176  0.00  0.00     0.057 C 
BRANCH   7   8
ATOM      8  C2' N4B d   1       1.667  -0.795  -0.682  0.00  0.00     0.009 C 
BRANCH   8   9
ATOM      9  C3' N4B d   1       2.731   0.285  -0.785  0.00  0.00     0.004 C 
ATOM     10  C4' N4B d   1       2.561   1.155  -1.994  0.00  0.00     0.003 C 
ENDBRANCH   8   9
ENDBRANCH   7   8
ENDBRANCH   1   7
TORSDOF 3
ENDMDL
