MODEL 1
REMARK minimizedAffinity -2.11585307
REMARK minimizedRMSD -1
REMARK  0 active torsions:
REMARK  status: ('A' for Active; 'I' for Inactive)
ROOT
ATOM      1  C   UNL d   1      -4.537   4.916   5.999  0.00  0.00     0.023 A 
ATOM      2  C1  UNL d   1      -3.413   5.689   5.708  0.00  0.00     0.003 A 
ATOM      3  C2  UNL d   1      -3.097   5.994   4.383  0.00  0.00     0.048 A 
ATOM      4  C3  UNL d   1      -3.909   5.522   3.352  0.00  0.00     0.023 A 
ATOM      5  C4  UNL d   1      -5.035   4.748   3.638  0.00  0.00     0.048 A 
ATOM      6  C5  UNL d   1      -5.347   4.445   4.965  0.00  0.00     0.003 A 
ATOM      7  I   UNL d   1      -3.440   5.974   1.379  0.00  0.00    -0.146 I 
ENDROOT
TORSDOF 0
ENDMDL
