MODEL 1
REMARK minimizedAffinity -0.825409412
REMARK minimizedRMSD -1
REMARK  0 active torsions:
REMARK  status: ('A' for Active; 'I' for Inactive)
ROOT
ATOM      1  C   UNL d   1      -4.976   5.688   1.418  0.00  0.00     0.023 A 
ATOM      2  C1  UNL d   1      -5.869   5.551   2.481  0.00  0.00     0.003 A 
ATOM      3  C2  UNL d   1      -5.409   5.637   3.796  0.00  0.00     0.048 A 
ATOM      4  C3  UNL d   1      -4.055   5.861   4.042  0.00  0.00     0.023 A 
ATOM      5  C4  UNL d   1      -3.158   6.000   2.981  0.00  0.00     0.048 A 
ATOM      6  C5  UNL d   1      -3.622   5.912   1.668  0.00  0.00     0.003 A 
ATOM      7  I   UNL d   1      -3.367   5.990   5.999  0.00  0.00    -0.146 I 
ENDROOT
TORSDOF 0
ENDMDL
