MODEL 1
REMARK minimizedAffinity 0.944315851
REMARK minimizedRMSD -1
REMARK  0 active torsions:
REMARK  status: ('A' for Active; 'I' for Inactive)
ROOT
ATOM      1  C   UNL d   1      -4.554   5.945   1.282  0.00  0.00     0.023 A 
ATOM      2  C1  UNL d   1      -5.556   5.968   2.253  0.00  0.00     0.003 A 
ATOM      3  C2  UNL d   1      -5.217   5.983   3.607  0.00  0.00     0.048 A 
ATOM      4  C3  UNL d   1      -3.874   5.976   3.984  0.00  0.00     0.023 A 
ATOM      5  C4  UNL d   1      -2.869   5.954   3.016  0.00  0.00     0.048 A 
ATOM      6  C5  UNL d   1      -3.212   5.938   1.663  0.00  0.00     0.003 A 
ATOM      7  I   UNL d   1      -3.367   5.999   6.000  0.00  0.00    -0.146 I 
ENDROOT
TORSDOF 0
ENDMDL
