MODEL 1
REMARK minimizedAffinity 1.7459743
REMARK minimizedRMSD -1
REMARK  0 active torsions:
REMARK  status: ('A' for Active; 'I' for Inactive)
ROOT
ATOM      1  C   UNL d   1      -2.592   5.991   5.820  0.00  0.00     0.023 A 
ATOM      2  C1  UNL d   1      -1.932   5.997   4.590  0.00  0.00     0.003 A 
ATOM      3  C2  UNL d   1      -2.666   5.997   3.403  0.00  0.00     0.048 A 
ATOM      4  C3  UNL d   1      -4.060   5.991   3.451  0.00  0.00     0.023 A 
ATOM      5  C4  UNL d   1      -4.724   5.986   4.679  0.00  0.00     0.048 A 
ATOM      6  C5  UNL d   1      -3.986   5.986   5.864  0.00  0.00     0.003 A 
ATOM      7  I   UNL d   1      -5.155   5.991   1.685  0.00  0.00    -0.146 I 
ENDROOT
TORSDOF 0
ENDMDL
