MODEL 1
REMARK minimizedAffinity 0.111480266
REMARK minimizedRMSD -1
REMARK  0 active torsions:
REMARK  status: ('A' for Active; 'I' for Inactive)
ROOT
ATOM      1  C   UNL d   1      -4.413   5.994   1.317  0.00  0.00     0.023 A 
ATOM      2  C1  UNL d   1      -5.357   5.992   2.345  0.00  0.00     0.003 A 
ATOM      3  C2  UNL d   1      -4.939   5.994   3.677  0.00  0.00     0.048 A 
ATOM      4  C3  UNL d   1      -3.577   5.997   3.975  0.00  0.00     0.023 A 
ATOM      5  C4  UNL d   1      -2.630   6.000   2.950  0.00  0.00     0.048 A 
ATOM      6  C5  UNL d   1      -3.051   5.997   1.620  0.00  0.00     0.003 A 
ATOM      7  I   UNL d   1      -2.954   6.000   5.958  0.00  0.00    -0.146 I 
ENDROOT
TORSDOF 0
ENDMDL
