MODEL 1
REMARK minimizedAffinity -1.23506653
REMARK minimizedRMSD -1
REMARK  0 active torsions:
REMARK  status: ('A' for Active; 'I' for Inactive)
ROOT
ATOM      1  C   UNL d   1      -3.367   4.057   5.954  0.00  0.00     0.023 A 
ATOM      2  C1  UNL d   1      -3.597   5.428   5.832  0.00  0.00     0.003 A 
ATOM      3  C2  UNL d   1      -3.844   5.987   4.577  0.00  0.00     0.048 A 
ATOM      4  C3  UNL d   1      -3.859   5.169   3.447  0.00  0.00     0.023 A 
ATOM      5  C4  UNL d   1      -3.630   3.797   3.564  0.00  0.00     0.048 A 
ATOM      6  C5  UNL d   1      -3.383   3.243   4.822  0.00  0.00     0.003 A 
ATOM      7  I   UNL d   1      -4.226   5.999   1.577  0.00  0.00    -0.146 I 
ENDROOT
TORSDOF 0
ENDMDL
