MODEL 1
REMARK minimizedAffinity -2.74581337
REMARK minimizedRMSD -1
REMARK  0 active torsions:
REMARK  status: ('A' for Active; 'I' for Inactive)
ROOT
ATOM      1  C   UNL d   1      -4.687   5.519   1.250  0.00  0.00     0.023 A 
ATOM      2  C1  UNL d   1      -5.628   5.319   2.260  0.00  0.00     0.003 A 
ATOM      3  C2  UNL d   1      -5.257   5.456   3.599  0.00  0.00     0.048 A 
ATOM      4  C3  UNL d   1      -3.943   5.794   3.922  0.00  0.00     0.023 A 
ATOM      5  C4  UNL d   1      -2.998   5.997   2.915  0.00  0.00     0.048 A 
ATOM      6  C5  UNL d   1      -3.374   5.858   1.577  0.00  0.00     0.003 A 
ATOM      7  I   UNL d   1      -3.389   5.999   5.914  0.00  0.00    -0.146 I 
ENDROOT
TORSDOF 0
ENDMDL
