MODEL 1
REMARK minimizedAffinity -1.06637013
REMARK minimizedRMSD -1
REMARK  0 active torsions:
REMARK  status: ('A' for Active; 'I' for Inactive)
ROOT
ATOM      1  C   UNL d   1      -3.959   6.000   3.850  0.00  0.00     0.023 A 
ATOM      2  C1  UNL d   1      -3.546   5.228   4.936  0.00  0.00     0.003 A 
ATOM      3  C2  UNL d   1      -3.211   3.884   4.752  0.00  0.00     0.048 A 
ATOM      4  C3  UNL d   1      -3.292   3.320   3.479  0.00  0.00     0.023 A 
ATOM      5  C4  UNL d   1      -3.704   4.088   2.390  0.00  0.00     0.048 A 
ATOM      6  C5  UNL d   1      -4.038   5.431   2.579  0.00  0.00     0.003 A 
ATOM      7  I   UNL d   1      -2.794   1.321   3.203  0.00  0.00    -0.146 I 
ENDROOT
TORSDOF 0
ENDMDL
