MODEL 1
REMARK minimizedAffinity 0.926162601
REMARK minimizedRMSD -1
REMARK  0 active torsions:
REMARK  status: ('A' for Active; 'I' for Inactive)
ROOT
ATOM      1  C   UNL d   1      -4.349   5.997   1.271  0.00  0.00     0.023 A 
ATOM      2  C1  UNL d   1      -3.010   5.995   1.662  0.00  0.00     0.003 A 
ATOM      3  C2  UNL d   1      -2.677   5.996   3.018  0.00  0.00     0.048 A 
ATOM      4  C3  UNL d   1      -3.688   5.998   3.978  0.00  0.00     0.023 A 
ATOM      5  C4  UNL d   1      -5.029   5.999   3.592  0.00  0.00     0.048 A 
ATOM      6  C5  UNL d   1      -5.357   5.999   2.235  0.00  0.00     0.003 A 
ATOM      7  I   UNL d   1      -3.195   5.999   5.997  0.00  0.00    -0.146 I 
ENDROOT
TORSDOF 0
ENDMDL
