MODEL 1
REMARK minimizedAffinity -1.39116037
REMARK minimizedRMSD -1
REMARK  0 active torsions:
REMARK  status: ('A' for Active; 'I' for Inactive)
ROOT
ATOM      1  C   UNL d   1      -2.819   5.987   5.973  0.00  0.00     0.023 A 
ATOM      2  C1  UNL d   1      -2.092   5.997   4.783  0.00  0.00     0.003 A 
ATOM      3  C2  UNL d   1      -2.758   5.987   3.556  0.00  0.00     0.048 A 
ATOM      4  C3  UNL d   1      -4.152   5.968   3.526  0.00  0.00     0.023 A 
ATOM      5  C4  UNL d   1      -4.884   5.960   4.715  0.00  0.00     0.048 A 
ATOM      6  C5  UNL d   1      -4.214   5.969   5.939  0.00  0.00     0.003 A 
ATOM      7  I   UNL d   1      -5.146   5.954   1.701  0.00  0.00    -0.146 I 
ENDROOT
TORSDOF 0
ENDMDL
