MODEL 1
REMARK minimizedAffinity 2.70494175
REMARK minimizedRMSD -1
REMARK  0 active torsions:
REMARK  status: ('A' for Active; 'I' for Inactive)
ROOT
ATOM      1  C   UNL d   1      -3.976   5.040   1.196  0.00  0.00     0.023 A 
ATOM      2  C1  UNL d   1      -2.910   5.834   1.619  0.00  0.00     0.003 A 
ATOM      3  C2  UNL d   1      -2.660   6.000   2.983  0.00  0.00     0.048 A 
ATOM      4  C3  UNL d   1      -3.479   5.369   3.918  0.00  0.00     0.023 A 
ATOM      5  C4  UNL d   1      -4.547   4.573   3.499  0.00  0.00     0.048 A 
ATOM      6  C5  UNL d   1      -4.794   4.411   2.134  0.00  0.00     0.003 A 
ATOM      7  I   UNL d   1      -3.109   5.614   5.948  0.00  0.00    -0.146 I 
ENDROOT
TORSDOF 0
ENDMDL
