MODEL 1
REMARK minimizedAffinity 2.08679175
REMARK minimizedRMSD -1
REMARK  0 active torsions:
REMARK  status: ('A' for Active; 'I' for Inactive)
ROOT
ATOM      1  C   UNL d   1      -3.141   5.892   2.744  0.00  0.00     0.023 A 
ATOM      2  C1  UNL d   1      -2.686   5.183   3.856  0.00  0.00     0.003 A 
ATOM      3  C2  UNL d   1      -2.558   3.794   3.795  0.00  0.00     0.048 A 
ATOM      4  C3  UNL d   1      -2.886   3.120   2.619  0.00  0.00     0.023 A 
ATOM      5  C4  UNL d   1      -3.341   3.826   1.504  0.00  0.00     0.048 A 
ATOM      6  C5  UNL d   1      -3.468   5.215   1.570  0.00  0.00     0.003 A 
ATOM      7  I   UNL d   1      -2.696   1.053   2.526  0.00  0.00    -0.146 I 
ENDROOT
TORSDOF 0
ENDMDL
