MODEL 1
REMARK minimizedAffinity 0.904944241
REMARK minimizedRMSD -1
REMARK  0 active torsions:
REMARK  status: ('A' for Active; 'I' for Inactive)
ROOT
ATOM      1  C   UNL d   1       2.178   5.249  -5.525  0.00  0.00     0.023 A 
ATOM      2  C1  UNL d   1       1.196   4.343  -5.924  0.00  0.00     0.003 A 
ATOM      3  C2  UNL d   1       1.023   3.146  -5.226  0.00  0.00     0.048 A 
ATOM      4  C3  UNL d   1       1.836   2.862  -4.129  0.00  0.00     0.023 A 
ATOM      5  C4  UNL d   1       2.820   3.766  -3.726  0.00  0.00     0.048 A 
ATOM      6  C5  UNL d   1       2.990   4.961  -4.427  0.00  0.00     0.003 A 
ATOM      7  I   UNL d   1       1.582   1.081  -3.088  0.00  0.00    -0.146 I 
ENDROOT
TORSDOF 0
ENDMDL
