MODEL 1
REMARK minimizedAffinity 10.1193085
REMARK minimizedRMSD -1
REMARK  0 active torsions:
REMARK  status: ('A' for Active; 'I' for Inactive)
ROOT
ATOM      1  C   UNL d   1       2.103   4.016  -4.187  0.00  0.00     0.023 A 
ATOM      2  C1  UNL d   1       1.943   2.631  -4.128  0.00  0.00     0.003 A 
ATOM      3  C2  UNL d   1       3.061   1.802  -4.009  0.00  0.00     0.048 A 
ATOM      4  C3  UNL d   1       4.335   2.365  -3.949  0.00  0.00     0.023 A 
ATOM      5  C4  UNL d   1       4.500   3.750  -4.006  0.00  0.00     0.048 A 
ATOM      6  C5  UNL d   1       3.380   4.574  -4.126  0.00  0.00     0.003 A 
ATOM      7  I   UNL d   1       6.000   1.133  -3.772  0.00  0.00    -0.146 I 
ENDROOT
TORSDOF 0
ENDMDL
