MODEL 1
REMARK minimizedAffinity 0.467621505
REMARK minimizedRMSD -1
REMARK  0 active torsions:
REMARK  status: ('A' for Active; 'I' for Inactive)
ROOT
ATOM      1  N1  IND d   1       2.887   2.025   1.712  0.00  0.00    -0.196 N 
ATOM      2  C2  IND d   1       2.280   2.062   0.488  0.00  0.00     0.054 A 
ATOM      3  C3  IND d   1       1.575   0.927   0.278  0.00  0.00    -0.031 A 
ATOM      4  C4  IND d   1       1.198  -1.078   1.847  0.00  0.00     0.051 A 
ATOM      5  C5  IND d   1       1.579  -1.585   3.058  0.00  0.00    -0.031 A 
ATOM      6  C6  IND d   1       2.430  -0.900   3.901  0.00  0.00     0.015 A 
ATOM      7  C7  IND d   1       2.925   0.329   3.567  0.00  0.00    -0.016 A 
ATOM      8  C8  IND d   1       2.546   0.844   2.335  0.00  0.00    -0.047 A 
ATOM      9  C9  IND d   1       1.717   0.134   1.458  0.00  0.00    -0.096 A 
ATOM     10  HN1 IND d   1       3.396   2.636   2.039  0.00  0.00     0.298 HD
ENDROOT
TORSDOF 0
ENDMDL
