MODEL 1
REMARK minimizedAffinity -4.61614084
REMARK minimizedRMSD -1
REMARK  0 active torsions:
REMARK  status: ('A' for Active; 'I' for Inactive)
ROOT
ATOM      1  N1  IND d   1      -0.569   0.393   0.120  0.00  0.00    -0.196 N 
ATOM      2  C2  IND d   1      -0.218   1.661  -0.250  0.00  0.00     0.054 A 
ATOM      3  C3  IND d   1       1.066   1.912   0.089  0.00  0.00    -0.031 A 
ATOM      4  C4  IND d   1       2.808   0.351   1.165  0.00  0.00     0.051 A 
ATOM      5  C5  IND d   1       2.947  -0.892   1.715  0.00  0.00    -0.031 A 
ATOM      6  C6  IND d   1       1.900  -1.790   1.760  0.00  0.00     0.015 A 
ATOM      7  C7  IND d   1       0.673  -1.480   1.244  0.00  0.00    -0.016 A 
ATOM      8  C8  IND d   1       0.527  -0.216   0.691  0.00  0.00    -0.047 A 
ATOM      9  C9  IND d   1       1.574   0.715   0.680  0.00  0.00    -0.096 A 
ATOM     10  HN1 IND d   1      -1.344   0.035   0.013  0.00  0.00     0.298 HD
ENDROOT
TORSDOF 0
ENDMDL
