MODEL 1
REMARK minimizedAffinity -2.08512712
REMARK minimizedRMSD -1
REMARK  0 active torsions:
REMARK  status: ('A' for Active; 'I' for Inactive)
ROOT
ATOM      1  N1  IND d   1      -0.441   1.198   0.679  0.00  0.00    -0.196 N 
ATOM      2  C2  IND d   1      -1.195   0.529  -0.245  0.00  0.00     0.054 A 
ATOM      3  C3  IND d   1      -0.625  -0.659  -0.546  0.00  0.00    -0.031 A 
ATOM      4  C4  IND d   1       1.490  -1.753   0.433  0.00  0.00     0.051 A 
ATOM      5  C5  IND d   1       2.535  -1.510   1.279  0.00  0.00    -0.031 A 
ATOM      6  C6  IND d   1       2.642  -0.330   1.986  0.00  0.00     0.015 A 
ATOM      7  C7  IND d   1       1.698   0.652   1.880  0.00  0.00    -0.016 A 
ATOM      8  C8  IND d   1       0.639   0.412   1.015  0.00  0.00    -0.047 A 
ATOM      9  C9  IND d   1       0.547  -0.767   0.264  0.00  0.00    -0.096 A 
ATOM     10  HN1 IND d   1      -0.613   1.978   0.997  0.00  0.00     0.298 HD
ENDROOT
TORSDOF 0
ENDMDL
