MODEL 1
REMARK minimizedAffinity 0.0372482352
REMARK minimizedRMSD -1
REMARK  0 active torsions:
REMARK  status: ('A' for Active; 'I' for Inactive)
ROOT
ATOM      1  N1  IND d   1       1.127  -2.016   2.772  0.00  0.00    -0.196 N 
ATOM      2  C2  IND d   1       2.077  -2.086   3.752  0.00  0.00     0.054 A 
ATOM      3  C3  IND d   1       2.924  -1.036   3.661  0.00  0.00    -0.031 A 
ATOM      4  C4  IND d   1       2.877   0.969   2.046  0.00  0.00     0.051 A 
ATOM      5  C5  IND d   1       2.218   1.455   0.952  0.00  0.00    -0.031 A 
ATOM      6  C6  IND d   1       1.139   0.797   0.398  0.00  0.00     0.015 A 
ATOM      7  C7  IND d   1       0.669  -0.371   0.928  0.00  0.00    -0.016 A 
ATOM      8  C8  IND d   1       1.339  -0.871   2.035  0.00  0.00    -0.047 A 
ATOM      9  C9  IND d   1       2.461  -0.230   2.576  0.00  0.00    -0.096 A 
ATOM     10  HN1 IND d   1       0.501  -2.591   2.637  0.00  0.00     0.298 HD
ENDROOT
TORSDOF 0
ENDMDL
