MODEL 1
REMARK minimizedAffinity 9.91148853
REMARK minimizedRMSD -1
REMARK  0 active torsions:
REMARK  status: ('A' for Active; 'I' for Inactive)
ROOT
ATOM      1  N1  IND d   1       1.184  -0.473   0.914  0.00  0.00    -0.196 N 
ATOM      2  C2  IND d   1       0.595   0.318  -0.033  0.00  0.00     0.054 A 
ATOM      3  C3  IND d   1       0.774   1.624   0.268  0.00  0.00    -0.031 A 
ATOM      4  C4  IND d   1       2.086   2.690   2.210  0.00  0.00     0.051 A 
ATOM      5  C5  IND d   1       2.766   2.373   3.352  0.00  0.00    -0.031 A 
ATOM      6  C6  IND d   1       2.960   1.065   3.747  0.00  0.00     0.015 A 
ATOM      7  C7  IND d   1       2.488   0.020   3.004  0.00  0.00    -0.016 A 
ATOM      8  C8  IND d   1       1.791   0.338   1.847  0.00  0.00    -0.047 A 
ATOM      9  C9  IND d   1       1.554   1.664   1.464  0.00  0.00    -0.096 A 
ATOM     10  HN1 IND d   1       1.176  -1.333   0.924  0.00  0.00     0.298 HD
ENDROOT
TORSDOF 0
ENDMDL
