MODEL 1
REMARK minimizedAffinity 7.67296171
REMARK minimizedRMSD -1
REMARK  0 active torsions:
REMARK  status: ('A' for Active; 'I' for Inactive)
ROOT
ATOM      1  N1  IND d   1       1.375   2.839   0.594  0.00  0.00    -0.196 N 
ATOM      2  C2  IND d   1       1.114   1.853  -0.315  0.00  0.00     0.054 A 
ATOM      3  C3  IND d   1       1.521   0.654   0.162  0.00  0.00    -0.031 A 
ATOM      4  C4  IND d   1       2.546   0.067   2.448  0.00  0.00     0.051 A 
ATOM      5  C5  IND d   1       3.009   0.638   3.601  0.00  0.00    -0.031 A 
ATOM      6  C6  IND d   1       2.946   2.000   3.815  0.00  0.00     0.015 A 
ATOM      7  C7  IND d   1       2.406   2.843   2.886  0.00  0.00    -0.016 A 
ATOM      8  C8  IND d   1       1.942   2.267   1.712  0.00  0.00    -0.047 A 
ATOM      9  C9  IND d   1       2.042   0.891   1.470  0.00  0.00    -0.096 A 
ATOM     10  HN1 IND d   1       1.212   3.677   0.486  0.00  0.00     0.298 HD
ENDROOT
TORSDOF 0
ENDMDL
