MODEL 1
REMARK minimizedAffinity 7.04584789
REMARK minimizedRMSD -1
REMARK  0 active torsions:
REMARK  status: ('A' for Active; 'I' for Inactive)
ROOT
ATOM      1  N1  IND d   1       1.515  -0.895   2.880  0.00  0.00    -0.196 N 
ATOM      2  C2  IND d   1       2.569  -0.396   3.592  0.00  0.00     0.054 A 
ATOM      3  C3  IND d   1       3.024   0.743   3.024  0.00  0.00    -0.031 A 
ATOM      4  C4  IND d   1       2.124   2.023   0.979  0.00  0.00     0.051 A 
ATOM      5  C5  IND d   1       1.198   1.939  -0.022  0.00  0.00    -0.031 A 
ATOM      6  C6  IND d   1       0.310   0.886  -0.108  0.00  0.00     0.015 A 
ATOM      7  C7  IND d   1       0.308  -0.121   0.816  0.00  0.00    -0.016 A 
ATOM      8  C8  IND d   1       1.252  -0.043   1.830  0.00  0.00    -0.047 A 
ATOM      9  C9  IND d   1       2.184   1.001   1.898  0.00  0.00    -0.096 A 
ATOM     10  HN1 IND d   1       1.087  -1.620   3.057  0.00  0.00     0.298 HD
ENDROOT
TORSDOF 0
ENDMDL
