MODEL 1
REMARK minimizedAffinity 9.7080307
REMARK minimizedRMSD -1
REMARK  0 active torsions:
REMARK  status: ('A' for Active; 'I' for Inactive)
ROOT
ATOM      1  N1  IND d   1       5.120  -3.637   4.942  0.00  0.00    -0.196 N 
ATOM      2  C2  IND d   1       6.000  -3.334   3.940  0.00  0.00     0.054 A 
ATOM      3  C3  IND d   1       5.359  -2.715   2.923  0.00  0.00    -0.031 A 
ATOM      4  C4  IND d   1       2.892  -2.007   2.735  0.00  0.00     0.051 A 
ATOM      5  C5  IND d   1       1.692  -2.100   3.382  0.00  0.00    -0.031 A 
ATOM      6  C6  IND d   1       1.572  -2.720   4.609  0.00  0.00     0.015 A 
ATOM      7  C7  IND d   1       2.654  -3.263   5.242  0.00  0.00    -0.016 A 
ATOM      8  C8  IND d   1       3.873  -3.177   4.584  0.00  0.00    -0.047 A 
ATOM      9  C9  IND d   1       3.993  -2.586   3.319  0.00  0.00    -0.096 A 
ATOM     10  HN1 IND d   1       5.314  -4.047   5.673  0.00  0.00     0.298 HD
ENDROOT
TORSDOF 0
ENDMDL
