MODEL 1
REMARK minimizedAffinity 12.170577
REMARK minimizedRMSD -1
REMARK  0 active torsions:
REMARK  status: ('A' for Active; 'I' for Inactive)
ROOT
ATOM      1  N1  IND d   1       2.772   0.233  -3.251  0.00  0.00    -0.196 N 
ATOM      2  C2  IND d   1       2.991  -0.827  -2.416  0.00  0.00     0.054 A 
ATOM      3  C3  IND d   1       4.111  -1.491  -2.781  0.00  0.00    -0.031 A 
ATOM      4  C4  IND d   1       5.791  -0.954  -4.656  0.00  0.00     0.051 A 
ATOM      5  C5  IND d   1       5.998  -0.106  -5.707  0.00  0.00    -0.031 A 
ATOM      6  C6  IND d   1       5.123   0.921  -5.998  0.00  0.00     0.015 A 
ATOM      7  C7  IND d   1       4.010   1.146  -5.238  0.00  0.00    -0.016 A 
ATOM      8  C8  IND d   1       3.794   0.282  -4.174  0.00  0.00    -0.047 A 
ATOM      9  C9  IND d   1       4.656  -0.788  -3.899  0.00  0.00    -0.096 A 
ATOM     10  HN1 IND d   1       2.107   0.777  -3.208  0.00  0.00     0.298 HD
ENDROOT
TORSDOF 0
ENDMDL
