MODEL 1
REMARK minimizedAffinity 13.5854063
REMARK minimizedRMSD -1
REMARK  0 active torsions:
REMARK  status: ('A' for Active; 'I' for Inactive)
ROOT
ATOM      1  N1  IND d   1      -0.228  -3.338  -2.558  0.00  0.00    -0.196 N 
ATOM      2  C2  IND d   1       1.047  -3.830  -2.519  0.00  0.00     0.054 A 
ATOM      3  C3  IND d   1       1.657  -3.464  -1.369  0.00  0.00    -0.031 A 
ATOM      4  C4  IND d   1       0.718  -2.145   0.633  0.00  0.00     0.051 A 
ATOM      5  C5  IND d   1      -0.387  -1.455   1.045  0.00  0.00    -0.031 A 
ATOM      6  C6  IND d   1      -1.520  -1.358   0.263  0.00  0.00     0.015 A 
ATOM      7  C7  IND d   1      -1.594  -1.959  -0.962  0.00  0.00    -0.016 A 
ATOM      8  C8  IND d   1      -0.471  -2.655  -1.387  0.00  0.00    -0.047 A 
ATOM      9  C9  IND d   1       0.697  -2.722  -0.616  0.00  0.00    -0.096 A 
ATOM     10  HN1 IND d   1      -0.785  -3.439  -3.206  0.00  0.00     0.298 HD
ENDROOT
TORSDOF 0
ENDMDL
