MODEL 1
REMARK minimizedAffinity -4.38019562
REMARK minimizedRMSD -1
REMARK  0 active torsions:
REMARK  status: ('A' for Active; 'I' for Inactive)
ROOT
ATOM      1  N1  IND d   1       1.853  -2.232   3.383  0.00  0.00    -0.196 N 
ATOM      2  C2  IND d   1       2.939  -1.795   4.090  0.00  0.00     0.054 A 
ATOM      3  C3  IND d   1       3.464  -0.693   3.511  0.00  0.00    -0.031 A 
ATOM      4  C4  IND d   1       2.644   0.624   1.456  0.00  0.00     0.051 A 
ATOM      5  C5  IND d   1       1.713   0.591   0.456  0.00  0.00    -0.031 A 
ATOM      6  C6  IND d   1       0.760  -0.404   0.381  0.00  0.00     0.015 A 
ATOM      7  C7  IND d   1       0.695  -1.401   1.313  0.00  0.00    -0.016 A 
ATOM      8  C8  IND d   1       1.644  -1.374   2.326  0.00  0.00    -0.047 A 
ATOM      9  C9  IND d   1       2.640  -0.391   2.384  0.00  0.00    -0.096 A 
ATOM     10  HN1 IND d   1       1.381  -2.927   3.567  0.00  0.00     0.298 HD
ENDROOT
TORSDOF 0
ENDMDL
