MODEL 1
REMARK minimizedAffinity 1.06195974
REMARK minimizedRMSD -1
REMARK  0 active torsions:
REMARK  status: ('A' for Active; 'I' for Inactive)
ROOT
ATOM      1  N1  IND d   1       1.298  -1.584   3.060  0.00  0.00    -0.196 N 
ATOM      2  C2  IND d   1       2.412  -1.105   3.691  0.00  0.00     0.054 A 
ATOM      3  C3  IND d   1       2.860   0.011   3.072  0.00  0.00    -0.031 A 
ATOM      4  C4  IND d   1       1.860   1.284   1.070  0.00  0.00     0.051 A 
ATOM      5  C5  IND d   1       0.866   1.211   0.135  0.00  0.00    -0.031 A 
ATOM      6  C6  IND d   1      -0.056   0.184   0.129  0.00  0.00     0.015 A 
ATOM      7  C7  IND d   1      -0.024  -0.807   1.069  0.00  0.00    -0.016 A 
ATOM      8  C8  IND d   1       0.989  -0.741   2.015  0.00  0.00    -0.047 A 
ATOM      9  C9  IND d   1       1.952   0.276   2.001  0.00  0.00    -0.096 A 
ATOM     10  HN1 IND d   1       0.863  -2.293   3.279  0.00  0.00     0.298 HD
ENDROOT
TORSDOF 0
ENDMDL
