MODEL 1
REMARK minimizedAffinity 11.8350086
REMARK minimizedRMSD -1
REMARK  0 active torsions:
REMARK  status: ('A' for Active; 'I' for Inactive)
ROOT
ATOM      1  N1  IND d   1      -0.741  -4.025  -2.636  0.00  0.00    -0.196 N 
ATOM      2  C2  IND d   1      -1.954  -3.483  -2.957  0.00  0.00     0.054 A 
ATOM      3  C3  IND d   1      -2.368  -2.646  -1.980  0.00  0.00    -0.031 A 
ATOM      4  C4  IND d   1      -1.168  -1.938   0.185  0.00  0.00     0.051 A 
ATOM      5  C5  IND d   1      -0.052  -2.194   0.931  0.00  0.00    -0.031 A 
ATOM      6  C6  IND d   1       0.912  -3.090   0.516  0.00  0.00     0.015 A 
ATOM      7  C7  IND d   1       0.801  -3.757  -0.671  0.00  0.00    -0.016 A 
ATOM      8  C8  IND d   1      -0.334  -3.505  -1.427  0.00  0.00    -0.047 A 
ATOM      9  C9  IND d   1      -1.337  -2.629  -0.992  0.00  0.00    -0.096 A 
ATOM     10  HN1 IND d   1      -0.305  -4.595  -3.110  0.00  0.00     0.298 HD
ENDROOT
TORSDOF 0
ENDMDL
