MODEL 1
REMARK minimizedAffinity 3.21149969
REMARK minimizedRMSD -1
REMARK  0 active torsions:
REMARK  status: ('A' for Active; 'I' for Inactive)
ROOT
ATOM      1  C2' OXE d   1      -1.616  -1.462  -1.613  0.00  0.00     0.078 C 
ATOM      2  C1' OXE d   1      -1.751  -3.400   0.414  0.00  0.00     0.078 C 
ATOM      3  C1  OXE d   1      -2.658  -2.200   0.526  0.00  0.00    -0.078 A 
ATOM      4  C2  OXE d   1      -2.552  -1.234  -0.445  0.00  0.00    -0.078 A 
ATOM      5  C3  OXE d   1      -3.404  -0.133  -0.419  0.00  0.00     0.003 A 
ATOM      6  C4  OXE d   1      -4.260   0.075   0.669  0.00  0.00    -0.002 A 
ATOM      7  C5  OXE d   1      -4.355  -0.877   1.690  0.00  0.00    -0.002 A 
ATOM      8  C6  OXE d   1      -3.594  -2.038   1.612  0.00  0.00     0.003 A 
ENDROOT
TORSDOF 0
ENDMDL
