MODEL 1
REMARK minimizedAffinity 9.63756943
REMARK minimizedRMSD -1
REMARK  0 active torsions:
REMARK  status: ('A' for Active; 'I' for Inactive)
ROOT
ATOM      1  C2' OXE d   1      -5.009  -0.433  -2.125  0.00  0.00     0.078 C 
ATOM      2  C1' OXE d   1      -2.289  -1.126  -2.094  0.00  0.00     0.078 C 
ATOM      3  C1  OXE d   1      -2.943  -0.786  -0.779  0.00  0.00    -0.078 A 
ATOM      4  C2  OXE d   1      -4.262  -0.402  -0.809  0.00  0.00    -0.078 A 
ATOM      5  C3  OXE d   1      -4.929  -0.130   0.382  0.00  0.00     0.003 A 
ATOM      6  C4  OXE d   1      -4.229  -0.094   1.594  0.00  0.00    -0.002 A 
ATOM      7  C5  OXE d   1      -2.875  -0.443   1.642  0.00  0.00    -0.002 A 
ATOM      8  C6  OXE d   1      -2.229  -0.832   0.474  0.00  0.00     0.003 A 
ENDROOT
TORSDOF 0
ENDMDL
