MODEL 1
REMARK minimizedAffinity 13.7102871
REMARK minimizedRMSD -1
REMARK  0 active torsions:
REMARK  status: ('A' for Active; 'I' for Inactive)
ROOT
ATOM      1  C2' OXE d   1      -2.253  -2.511   0.435  0.00  0.00     0.078 C 
ATOM      2  C1' OXE d   1      -1.220  -2.515  -2.175  0.00  0.00     0.078 C 
ATOM      3  C1  OXE d   1      -1.012  -3.750  -1.335  0.00  0.00    -0.078 A 
ATOM      4  C2  OXE d   1      -1.480  -3.721  -0.043  0.00  0.00    -0.078 A 
ATOM      5  C3  OXE d   1      -1.362  -4.854   0.758  0.00  0.00     0.003 A 
ATOM      6  C4  OXE d   1      -0.637  -5.965   0.311  0.00  0.00    -0.002 A 
ATOM      7  C5  OXE d   1      -0.118  -6.000  -0.987  0.00  0.00    -0.002 A 
ATOM      8  C6  OXE d   1      -0.333  -4.919  -1.836  0.00  0.00     0.003 A 
ENDROOT
TORSDOF 0
ENDMDL
