MODEL 1
REMARK minimizedAffinity 4.13844347
REMARK minimizedRMSD -1
REMARK  0 active torsions:
REMARK  status: ('A' for Active; 'I' for Inactive)
ROOT
ATOM      1  C2' OXE d   1      -1.816  -1.654   0.816  0.00  0.00     0.078 C 
ATOM      2  C1' OXE d   1      -1.496  -1.406  -1.962  0.00  0.00     0.078 C 
ATOM      3  C1  OXE d   1      -1.416  -2.788  -1.365  0.00  0.00    -0.078 A 
ATOM      4  C2  OXE d   1      -1.527  -2.895   0.000  0.00  0.00    -0.078 A 
ATOM      5  C3  OXE d   1      -1.514  -4.153   0.596  0.00  0.00     0.003 A 
ATOM      6  C4  OXE d   1      -1.236  -5.295  -0.164  0.00  0.00    -0.002 A 
ATOM      7  C5  OXE d   1      -1.081  -5.204  -1.551  0.00  0.00    -0.002 A 
ATOM      8  C6  OXE d   1      -1.210  -3.966  -2.172  0.00  0.00     0.003 A 
ENDROOT
TORSDOF 0
ENDMDL
