MODEL 1
REMARK minimizedAffinity 2.05572343
REMARK minimizedRMSD -1
REMARK  0 active torsions:
REMARK  status: ('A' for Active; 'I' for Inactive)
ROOT
ATOM      1  C2' OXE d   1      -2.009  -0.585   2.657  0.00  0.00     0.078 C 
ATOM      2  C1' OXE d   1      -1.349  -1.937   0.287  0.00  0.00     0.078 C 
ATOM      3  C1  OXE d   1      -2.643  -1.162   0.319  0.00  0.00    -0.078 A 
ATOM      4  C2  OXE d   1      -2.980  -0.542   1.498  0.00  0.00    -0.078 A 
ATOM      5  C3  OXE d   1      -4.136   0.230   1.564  0.00  0.00     0.003 A 
ATOM      6  C4  OXE d   1      -5.034   0.256   0.490  0.00  0.00    -0.002 A 
ATOM      7  C5  OXE d   1      -4.729  -0.401  -0.706  0.00  0.00    -0.002 A 
ATOM      8  C6  OXE d   1      -3.520  -1.078  -0.823  0.00  0.00     0.003 A 
ENDROOT
TORSDOF 0
ENDMDL
