MODEL 1
REMARK minimizedAffinity -2.10113907
REMARK minimizedRMSD -1
REMARK  0 active torsions:
REMARK  status: ('A' for Active; 'I' for Inactive)
ROOT
ATOM      1  C2' OXE d   1       0.786  -3.209   5.951  0.00  0.00     0.078 C 
ATOM      2  C1' OXE d   1       0.760  -6.000   5.649  0.00  0.00     0.078 C 
ATOM      3  C1  OXE d   1      -0.568  -5.290   5.752  0.00  0.00    -0.078 A 
ATOM      4  C2  OXE d   1      -0.544  -3.930   5.947  0.00  0.00    -0.078 A 
ATOM      5  C3  OXE d   1      -1.740  -3.220   5.994  0.00  0.00     0.003 A 
ATOM      6  C4  OXE d   1      -2.966  -3.896   5.999  0.00  0.00    -0.002 A 
ATOM      7  C5  OXE d   1      -3.012  -5.285   5.842  0.00  0.00    -0.002 A 
ATOM      8  C6  OXE d   1      -1.825  -5.991   5.674  0.00  0.00     0.003 A 
ENDROOT
TORSDOF 0
ENDMDL
