MODEL 1
REMARK minimizedAffinity 6.58577585
REMARK minimizedRMSD -1
REMARK  0 active torsions:
REMARK  status: ('A' for Active; 'I' for Inactive)
ROOT
ATOM      1  C2' OXE d   1      -1.451  -0.541   5.523  0.00  0.00     0.078 C 
ATOM      2  C1' OXE d   1      -0.404   1.331   3.711  0.00  0.00     0.078 C 
ATOM      3  C1  OXE d   1      -1.551   0.468   3.247  0.00  0.00    -0.078 A 
ATOM      4  C2  OXE d   1      -2.026  -0.478   4.124  0.00  0.00    -0.078 A 
ATOM      5  C3  OXE d   1      -3.118  -1.263   3.766  0.00  0.00     0.003 A 
ATOM      6  C4  OXE d   1      -3.638  -1.205   2.468  0.00  0.00    -0.002 A 
ATOM      7  C5  OXE d   1      -3.142  -0.277   1.546  0.00  0.00    -0.002 A 
ATOM      8  C6  OXE d   1      -2.130   0.594   1.932  0.00  0.00     0.003 A 
ENDROOT
TORSDOF 0
ENDMDL
