MODEL 1
REMARK minimizedAffinity 5.88581896
REMARK minimizedRMSD -1
REMARK  0 active torsions:
REMARK  status: ('A' for Active; 'I' for Inactive)
ROOT
ATOM      1  C2' OXE d   1       0.890  -6.000   5.941  0.00  0.00     0.078 C 
ATOM      2  C1' OXE d   1      -1.916  -5.997   6.000  0.00  0.00     0.078 C 
ATOM      3  C1  OXE d   1      -1.212  -4.663   5.976  0.00  0.00    -0.078 A 
ATOM      4  C2  OXE d   1       0.162  -4.674   5.994  0.00  0.00    -0.078 A 
ATOM      5  C3  OXE d   1       0.862  -3.473   5.917  0.00  0.00     0.003 A 
ATOM      6  C4  OXE d   1       0.181  -2.251   5.977  0.00  0.00    -0.002 A 
ATOM      7  C5  OXE d   1      -1.217  -2.218   5.999  0.00  0.00    -0.002 A 
ATOM      8  C6  OXE d   1      -1.928  -3.412   5.955  0.00  0.00     0.003 A 
ENDROOT
TORSDOF 0
ENDMDL
