MODEL 1
REMARK minimizedAffinity 8.41365337
REMARK minimizedRMSD -1
REMARK  0 active torsions:
REMARK  status: ('A' for Active; 'I' for Inactive)
ROOT
ATOM      1  C2' OXE d   1       2.403  -2.661  -1.269  0.00  0.00     0.078 C 
ATOM      2  C1' OXE d   1      -0.329  -2.221  -0.796  0.00  0.00     0.078 C 
ATOM      3  C1  OXE d   1       0.630  -1.100  -0.478  0.00  0.00    -0.078 A 
ATOM      4  C2  OXE d   1       1.969  -1.341  -0.669  0.00  0.00    -0.078 A 
ATOM      5  C3  OXE d   1       2.892  -0.323  -0.442  0.00  0.00     0.003 A 
ATOM      6  C4  OXE d   1       2.483   0.891   0.123  0.00  0.00    -0.002 A 
ATOM      7  C5  OXE d   1       1.128   1.142   0.362  0.00  0.00    -0.002 A 
ATOM      8  C6  OXE d   1       0.186   0.175   0.028  0.00  0.00     0.003 A 
ENDROOT
TORSDOF 0
ENDMDL
