MODEL 1
REMARK minimizedAffinity -4.47968388
REMARK minimizedRMSD -1
REMARK  2 active torsions:
REMARK  status: ('A' for Active; 'I' for Inactive)
REMARK    1  A    between atoms: C1_2  and  C2_3 
REMARK    2  A    between atoms: C2_3  and  C3_4 
ROOT
ATOM      1  C3  UNL d   1      -0.163  -1.181   0.128  0.00  0.00    -0.075 A 
ATOM      2  C4  UNL d   1       0.094  -1.352  -1.240  0.00  0.00     0.002 A 
ATOM      3  C5  UNL d   1      -0.087  -2.596  -1.845  0.00  0.00     0.002 A 
ATOM      4  C6  UNL d   1      -0.517  -3.685  -1.090  0.00  0.00    -0.004 A 
ATOM      5  C7  UNL d   1      -0.759  -3.531   0.273  0.00  0.00     0.002 A 
ATOM      6  C8  UNL d   1      -0.583  -2.286   0.880  0.00  0.00     0.002 A 
ENDROOT
BRANCH   1   7
ATOM      7  C2  UNL d   1       0.003   0.170   0.783  0.00  0.00     0.056 C 
BRANCH   7   8
ATOM      8  C1  UNL d   1      -0.038   1.347  -0.197  0.00  0.00     0.007 C 
ATOM      9  C   UNL d   1       0.888   2.489   0.197  0.00  0.00     0.009 C 
ENDBRANCH   7   8
ENDBRANCH   1   7
TORSDOF 2
ENDMDL
