MODEL 1
REMARK minimizedAffinity -6.47236538
REMARK minimizedRMSD -1
REMARK  2 active torsions:
REMARK  status: ('A' for Active; 'I' for Inactive)
REMARK    1  A    between atoms: C1_2  and  C2_3 
REMARK    2  A    between atoms: C2_3  and  C3_4 
ROOT
ATOM      1  C3  UNL d   1       0.131  -0.879  -0.625  0.00  0.00    -0.075 A 
ATOM      2  C4  UNL d   1      -0.188  -1.478   0.602  0.00  0.00     0.002 A 
ATOM      3  C5  UNL d   1      -0.412  -2.853   0.681  0.00  0.00     0.002 A 
ATOM      4  C6  UNL d   1      -0.332  -3.642  -0.464  0.00  0.00    -0.004 A 
ATOM      5  C7  UNL d   1      -0.033  -3.055  -1.691  0.00  0.00     0.002 A 
ATOM      6  C8  UNL d   1       0.197  -1.680  -1.773  0.00  0.00     0.002 A 
ENDROOT
BRANCH   1   7
ATOM      7  C2  UNL d   1       0.404   0.604  -0.713  0.00  0.00     0.056 C 
BRANCH   7   8
ATOM      8  C1  UNL d   1       0.070   1.376   0.568  0.00  0.00     0.007 C 
ATOM      9  C   UNL d   1       0.939   2.610   0.768  0.00  0.00     0.009 C 
ENDBRANCH   7   8
ENDBRANCH   1   7
TORSDOF 2
ENDMDL
