MODEL 1
REMARK minimizedAffinity -5.12617302
REMARK minimizedRMSD -1
REMARK  2 active torsions:
REMARK  status: ('A' for Active; 'I' for Inactive)
REMARK    1  A    between atoms: C1_2  and  C2_3 
REMARK    2  A    between atoms: C2_3  and  C3_4 
ROOT
ATOM      1  C3  UNL d   1       0.300  -0.343  -0.794  0.00  0.00    -0.075 A 
ATOM      2  C4  UNL d   1      -0.145  -1.205   0.219  0.00  0.00     0.002 A 
ATOM      3  C5  UNL d   1      -0.312  -2.567  -0.034  0.00  0.00     0.002 A 
ATOM      4  C6  UNL d   1      -0.048  -3.081  -1.301  0.00  0.00    -0.004 A 
ATOM      5  C7  UNL d   1       0.379  -2.231  -2.319  0.00  0.00     0.002 A 
ATOM      6  C8  UNL d   1       0.551  -0.869  -2.068  0.00  0.00     0.002 A 
ENDROOT
BRANCH   1   7
ATOM      7  C2  UNL d   1       0.511   1.127  -0.520  0.00  0.00     0.056 C 
BRANCH   7   8
ATOM      8  C1  UNL d   1       1.824   1.444   0.204  0.00  0.00     0.007 C 
ATOM      9  C   UNL d   1       2.250   2.900   0.064  0.00  0.00     0.009 C 
ENDBRANCH   7   8
ENDBRANCH   1   7
TORSDOF 2
ENDMDL
