MODEL 1
REMARK minimizedAffinity -4.65554428
REMARK minimizedRMSD -1
REMARK  2 active torsions:
REMARK  status: ('A' for Active; 'I' for Inactive)
REMARK    1  A    between atoms: C1_2  and  C2_3 
REMARK    2  A    between atoms: C2_3  and  C3_4 
ROOT
ATOM      1  C3  UNL d   1      -0.134  -0.841  -0.744  0.00  0.00    -0.075 A 
ATOM      2  C4  UNL d   1      -0.497  -1.299   0.531  0.00  0.00     0.002 A 
ATOM      3  C5  UNL d   1      -0.660  -2.663   0.774  0.00  0.00     0.002 A 
ATOM      4  C6  UNL d   1      -0.472  -3.584  -0.253  0.00  0.00    -0.004 A 
ATOM      5  C7  UNL d   1      -0.127  -3.140  -1.528  0.00  0.00     0.002 A 
ATOM      6  C8  UNL d   1       0.040  -1.776  -1.774  0.00  0.00     0.002 A 
ENDROOT
BRANCH   1   7
ATOM      7  C2  UNL d   1       0.072   0.631  -1.007  0.00  0.00     0.056 C 
BRANCH   7   8
ATOM      8  C1  UNL d   1       0.010   1.504   0.251  0.00  0.00     0.007 C 
ATOM      9  C   UNL d   1       1.094   2.573   0.294  0.00  0.00     0.009 C 
ENDBRANCH   7   8
ENDBRANCH   1   7
TORSDOF 2
ENDMDL
