MODEL 1
REMARK minimizedAffinity -6.36449862
REMARK minimizedRMSD -1
REMARK  2 active torsions:
REMARK  status: ('A' for Active; 'I' for Inactive)
REMARK    1  A    between atoms: C1_2  and  C2_3 
REMARK    2  A    between atoms: C2_3  and  C3_4 
ROOT
ATOM      1  C3  UNL d   1       0.008  -0.159  -0.199  0.00  0.00    -0.075 A 
ATOM      2  C4  UNL d   1       0.644  -0.947  -1.169  0.00  0.00     0.002 A 
ATOM      3  C5  UNL d   1       0.658  -2.337  -1.056  0.00  0.00     0.002 A 
ATOM      4  C6  UNL d   1       0.047  -2.956   0.032  0.00  0.00    -0.004 A 
ATOM      5  C7  UNL d   1      -0.574  -2.183   1.011  0.00  0.00     0.002 A 
ATOM      6  C8  UNL d   1      -0.593  -0.792   0.898  0.00  0.00     0.002 A 
ENDROOT
BRANCH   1   7
ATOM      7  C2  UNL d   1      -0.035   1.344  -0.331  0.00  0.00     0.056 C 
BRANCH   7   8
ATOM      8  C1  UNL d   1       1.165   2.061   0.296  0.00  0.00     0.007 C 
ATOM      9  C   UNL d   1       0.853   3.486   0.734  0.00  0.00     0.009 C 
ENDBRANCH   7   8
ENDBRANCH   1   7
TORSDOF 2
ENDMDL
