MODEL 1
REMARK minimizedAffinity -2.79131436
REMARK minimizedRMSD -1
REMARK  2 active torsions:
REMARK  status: ('A' for Active; 'I' for Inactive)
REMARK    1  A    between atoms: C1_2  and  C2_3 
REMARK    2  A    between atoms: C2_3  and  C3_4 
ROOT
ATOM      1  C3  UNL d   1      -0.007   0.285  -0.025  0.00  0.00    -0.075 A 
ATOM      2  C4  UNL d   1       0.312  -0.931  -0.647  0.00  0.00     0.002 A 
ATOM      3  C5  UNL d   1      -0.045  -2.144  -0.056  0.00  0.00     0.002 A 
ATOM      4  C6  UNL d   1      -0.715  -2.156   1.165  0.00  0.00    -0.004 A 
ATOM      5  C7  UNL d   1      -1.022  -0.955   1.800  0.00  0.00     0.002 A 
ATOM      6  C8  UNL d   1      -0.669   0.260   1.209  0.00  0.00     0.002 A 
ENDROOT
BRANCH   1   7
ATOM      7  C2  UNL d   1       0.351   1.601  -0.674  0.00  0.00     0.056 C 
BRANCH   7   8
ATOM      8  C1  UNL d   1       1.017   2.603   0.275  0.00  0.00     0.007 C 
ATOM      9  C   UNL d   1       2.339   3.143  -0.253  0.00  0.00     0.009 C 
ENDBRANCH   7   8
ENDBRANCH   1   7
TORSDOF 2
ENDMDL
