MODEL 1
REMARK minimizedAffinity -6.31584978
REMARK minimizedRMSD -1
REMARK  2 active torsions:
REMARK  status: ('A' for Active; 'I' for Inactive)
REMARK    1  A    between atoms: C1_2  and  C2_3 
REMARK    2  A    between atoms: C2_3  and  C3_4 
ROOT
ATOM      1  C3  UNL d   1       0.344  -1.241  -0.032  0.00  0.00    -0.075 A 
ATOM      2  C4  UNL d   1       0.301  -1.773  -1.329  0.00  0.00     0.002 A 
ATOM      3  C5  UNL d   1      -0.146  -3.077  -1.544  0.00  0.00     0.002 A 
ATOM      4  C6  UNL d   1      -0.545  -3.867  -0.468  0.00  0.00    -0.004 A 
ATOM      5  C7  UNL d   1      -0.490  -3.354   0.826  0.00  0.00     0.002 A 
ATOM      6  C8  UNL d   1      -0.047  -2.048   1.044  0.00  0.00     0.002 A 
ENDROOT
BRANCH   1   7
ATOM      7  C2  UNL d   1       0.799   0.179   0.205  0.00  0.00     0.056 C 
BRANCH   7   8
ATOM      8  C1  UNL d   1      -0.099   1.238  -0.443  0.00  0.00     0.007 C 
ATOM      9  C   UNL d   1       0.429   2.657  -0.277  0.00  0.00     0.009 C 
ENDBRANCH   7   8
ENDBRANCH   1   7
TORSDOF 2
ENDMDL
