MODEL 1
REMARK minimizedAffinity -5.03949881
REMARK minimizedRMSD -1
REMARK  2 active torsions:
REMARK  status: ('A' for Active; 'I' for Inactive)
REMARK    1  A    between atoms: C1_2  and  C2_3 
REMARK    2  A    between atoms: C2_3  and  C3_4 
ROOT
ATOM      1  C3  UNL d   1       0.001   0.331   0.505  0.00  0.00    -0.075 A 
ATOM      2  C4  UNL d   1      -0.707  -0.090   1.640  0.00  0.00     0.002 A 
ATOM      3  C5  UNL d   1      -0.929  -1.448   1.873  0.00  0.00     0.002 A 
ATOM      4  C6  UNL d   1      -0.457  -2.399   0.971  0.00  0.00    -0.004 A 
ATOM      5  C7  UNL d   1       0.234  -1.991  -0.168  0.00  0.00     0.002 A 
ATOM      6  C8  UNL d   1       0.461  -0.634  -0.402  0.00  0.00     0.002 A 
ENDROOT
BRANCH   1   7
ATOM      7  C2  UNL d   1       0.270   1.797   0.262  0.00  0.00     0.056 C 
BRANCH   7   8
ATOM      8  C1  UNL d   1       1.748   2.186   0.374  0.00  0.00     0.007 C 
ATOM      9  C   UNL d   1       2.033   3.138   1.528  0.00  0.00     0.009 C 
ENDBRANCH   7   8
ENDBRANCH   1   7
TORSDOF 2
ENDMDL
