MODEL 1
REMARK minimizedAffinity -5.22754335
REMARK minimizedRMSD -1
REMARK  2 active torsions:
REMARK  status: ('A' for Active; 'I' for Inactive)
REMARK    1  A    between atoms: C1_2  and  C2_3 
REMARK    2  A    between atoms: C2_3  and  C3_4 
ROOT
ATOM      1  C3  UNL d   1       0.094   0.049  -0.196  0.00  0.00    -0.075 A 
ATOM      2  C4  UNL d   1       0.776  -1.079  -0.676  0.00  0.00     0.002 A 
ATOM      3  C5  UNL d   1       0.518  -2.342  -0.144  0.00  0.00     0.002 A 
ATOM      4  C6  UNL d   1      -0.415  -2.493   0.880  0.00  0.00    -0.004 A 
ATOM      5  C7  UNL d   1      -1.087  -1.378   1.375  0.00  0.00     0.002 A 
ATOM      6  C8  UNL d   1      -0.834  -0.113   0.841  0.00  0.00     0.002 A 
ENDROOT
BRANCH   1   7
ATOM      7  C2  UNL d   1       0.347   1.415  -0.788  0.00  0.00     0.056 C 
BRANCH   7   8
ATOM      8  C1  UNL d   1       0.674   2.493   0.250  0.00  0.00     0.007 C 
ATOM      9  C   UNL d   1       2.105   3.005   0.154  0.00  0.00     0.009 C 
ENDBRANCH   7   8
ENDBRANCH   1   7
TORSDOF 2
ENDMDL
