MODEL 1
REMARK minimizedAffinity -6.52665949
REMARK minimizedRMSD -1
REMARK  2 active torsions:
REMARK  status: ('A' for Active; 'I' for Inactive)
REMARK    1  A    between atoms: C1_2  and  C2_3 
REMARK    2  A    between atoms: C2_3  and  C3_4 
ROOT
ATOM      1  C3  UNL d   1      -0.045  -0.681  -0.385  0.00  0.00    -0.075 A 
ATOM      2  C4  UNL d   1      -0.431  -1.691   0.507  0.00  0.00     0.002 A 
ATOM      3  C5  UNL d   1      -0.315  -3.035   0.150  0.00  0.00     0.002 A 
ATOM      4  C6  UNL d   1       0.179  -3.385  -1.104  0.00  0.00    -0.004 A 
ATOM      5  C7  UNL d   1       0.551  -2.389  -2.005  0.00  0.00     0.002 A 
ATOM      6  C8  UNL d   1       0.440  -1.044  -1.649  0.00  0.00     0.002 A 
ENDROOT
BRANCH   1   7
ATOM      7  C2  UNL d   1      -0.141   0.774   0.006  0.00  0.00     0.056 C 
BRANCH   7   8
ATOM      8  C1  UNL d   1       1.116   1.590  -0.313  0.00  0.00     0.007 C 
ATOM      9  C   UNL d   1       1.202   2.893   0.472  0.00  0.00     0.009 C 
ENDBRANCH   7   8
ENDBRANCH   1   7
TORSDOF 2
ENDMDL
