MODEL 1
REMARK minimizedAffinity -5.49477339
REMARK minimizedRMSD -1
REMARK  2 active torsions:
REMARK  status: ('A' for Active; 'I' for Inactive)
REMARK    1  A    between atoms: C1_2  and  C2_3 
REMARK    2  A    between atoms: C2_3  and  C3_4 
ROOT
ATOM      1  C3  UNL d   1      -0.026  -1.577  -0.160  0.00  0.00    -0.075 A 
ATOM      2  C4  UNL d   1       0.450  -1.581  -1.480  0.00  0.00     0.002 A 
ATOM      3  C5  UNL d   1       0.488  -2.766  -2.215  0.00  0.00     0.002 A 
ATOM      4  C6  UNL d   1       0.063  -3.961  -1.639  0.00  0.00    -0.004 A 
ATOM      5  C7  UNL d   1      -0.396  -3.971  -0.323  0.00  0.00     0.002 A 
ATOM      6  C8  UNL d   1      -0.440  -2.786   0.413  0.00  0.00     0.002 A 
ENDROOT
BRANCH   1   7
ATOM      7  C2  UNL d   1      -0.098  -0.292   0.631  0.00  0.00     0.056 C 
BRANCH   7   8
ATOM      8  C1  UNL d   1       0.007   0.974  -0.225  0.00  0.00     0.007 C 
ATOM      9  C   UNL d   1       0.972   2.006   0.344  0.00  0.00     0.009 C 
ENDBRANCH   7   8
ENDBRANCH   1   7
TORSDOF 2
ENDMDL
