MODEL 1
REMARK minimizedAffinity -5.89902496
REMARK minimizedRMSD -1
REMARK  2 active torsions:
REMARK  status: ('A' for Active; 'I' for Inactive)
REMARK    1  A    between atoms: C1_2  and  C2_3 
REMARK    2  A    between atoms: C2_3  and  C3_4 
ROOT
ATOM      1  C3  UNL d   1       0.078   0.291   0.283  0.00  0.00    -0.075 A 
ATOM      2  C4  UNL d   1      -0.221  -0.241   1.545  0.00  0.00     0.002 A 
ATOM      3  C5  UNL d   1      -0.535  -1.593   1.687  0.00  0.00     0.002 A 
ATOM      4  C6  UNL d   1      -0.563  -2.426   0.571  0.00  0.00    -0.004 A 
ATOM      5  C7  UNL d   1      -0.284  -1.904  -0.690  0.00  0.00     0.002 A 
ATOM      6  C8  UNL d   1       0.035  -0.553  -0.835  0.00  0.00     0.002 A 
ENDROOT
BRANCH   1   7
ATOM      7  C2  UNL d   1       0.447   1.747   0.126  0.00  0.00     0.056 C 
BRANCH   7   8
ATOM      8  C1  UNL d   1       1.949   2.026   0.239  0.00  0.00     0.007 C 
ATOM      9  C   UNL d   1       2.292   3.047   1.315  0.00  0.00     0.009 C 
ENDBRANCH   7   8
ENDBRANCH   1   7
TORSDOF 2
ENDMDL
