MODEL 1
REMARK minimizedAffinity 5.51536989
REMARK minimizedRMSD -1
REMARK  0 active torsions:
REMARK  status: ('A' for Active; 'I' for Inactive)
ROOT
ATOM      1  C   UNL d   1      -5.875   4.027   1.891  0.00  0.00     0.023 A 
ATOM      2  C1  UNL d   1      -5.264   3.219   2.849  0.00  0.00     0.003 A 
ATOM      3  C2  UNL d   1      -4.771   3.782   4.028  0.00  0.00     0.048 A 
ATOM      4  C3  UNL d   1      -4.893   5.154   4.242  0.00  0.00     0.023 A 
ATOM      5  C4  UNL d   1      -5.505   5.967   3.287  0.00  0.00     0.048 A 
ATOM      6  C5  UNL d   1      -5.996   5.400   2.109  0.00  0.00     0.003 A 
ATOM      7  I   UNL d   1      -4.160   5.994   5.996  0.00  0.00    -0.146 I 
ENDROOT
TORSDOF 0
ENDMDL
