MODEL 1
REMARK minimizedAffinity 4.84951305
REMARK minimizedRMSD -1
REMARK  0 active torsions:
REMARK  status: ('A' for Active; 'I' for Inactive)
ROOT
ATOM      1  C   UNL d   1      -5.071   3.514   1.727  0.00  0.00     0.023 A 
ATOM      2  C1  UNL d   1      -4.625   3.012   2.950  0.00  0.00     0.003 A 
ATOM      3  C2  UNL d   1      -4.864   3.724   4.127  0.00  0.00     0.048 A 
ATOM      4  C3  UNL d   1      -5.550   4.937   4.074  0.00  0.00     0.023 A 
ATOM      5  C4  UNL d   1      -5.999   5.443   2.853  0.00  0.00     0.048 A 
ATOM      6  C5  UNL d   1      -5.757   4.728   1.679  0.00  0.00     0.003 A 
ATOM      7  I   UNL d   1      -5.907   5.999   5.825  0.00  0.00    -0.146 I 
ENDROOT
TORSDOF 0
ENDMDL
