MODEL 1
REMARK minimizedAffinity 11.169322
REMARK minimizedRMSD -1
REMARK  0 active torsions:
REMARK  status: ('A' for Active; 'I' for Inactive)
ROOT
ATOM      1  C   UNL d   1       3.239   1.390  -0.662  0.00  0.00     0.023 A 
ATOM      2  C1  UNL d   1       2.200   0.524  -1.003  0.00  0.00     0.003 A 
ATOM      3  C2  UNL d   1       1.779  -0.453  -0.100  0.00  0.00     0.048 A 
ATOM      4  C3  UNL d   1       2.400  -0.559   1.144  0.00  0.00     0.023 A 
ATOM      5  C4  UNL d   1       3.439   0.305   1.491  0.00  0.00     0.048 A 
ATOM      6  C5  UNL d   1       3.858   1.280   0.584  0.00  0.00     0.003 A 
ATOM      7  I   UNL d   1       1.774  -2.014   2.490  0.00  0.00    -0.146 I 
ENDROOT
TORSDOF 0
ENDMDL
