MODEL 1
REMARK minimizedAffinity 6.77763414
REMARK minimizedRMSD -1
REMARK  0 active torsions:
REMARK  status: ('A' for Active; 'I' for Inactive)
ROOT
ATOM      1  C   UNL d   1       3.521   0.436   0.812  0.00  0.00     0.023 A 
ATOM      2  C1  UNL d   1       3.048   1.234  -0.229  0.00  0.00     0.003 A 
ATOM      3  C2  UNL d   1       2.115   0.724  -1.134  0.00  0.00     0.048 A 
ATOM      4  C3  UNL d   1       1.657  -0.585  -0.990  0.00  0.00     0.023 A 
ATOM      5  C4  UNL d   1       2.126  -1.387   0.051  0.00  0.00     0.048 A 
ATOM      6  C5  UNL d   1       3.060  -0.873   0.953  0.00  0.00     0.003 A 
ATOM      7  I   UNL d   1       0.267  -1.347  -2.335  0.00  0.00    -0.146 I 
ENDROOT
TORSDOF 0
ENDMDL
