MODEL 1
REMARK minimizedAffinity 2.94444752
REMARK minimizedRMSD -1
REMARK  0 active torsions:
REMARK  status: ('A' for Active; 'I' for Inactive)
ROOT
ATOM      1  C   UNL d   1      -4.881   5.960   5.973  0.00  0.00     0.023 A 
ATOM      2  C1  UNL d   1      -3.756   5.990   5.149  0.00  0.00     0.003 A 
ATOM      3  C2  UNL d   1      -3.743   5.264   3.956  0.00  0.00     0.048 A 
ATOM      4  C3  UNL d   1      -4.858   4.510   3.593  0.00  0.00     0.023 A 
ATOM      5  C4  UNL d   1      -5.987   4.478   4.414  0.00  0.00     0.048 A 
ATOM      6  C5  UNL d   1      -5.995   5.204   5.606  0.00  0.00     0.003 A 
ATOM      7  I   UNL d   1      -4.841   3.429   1.818  0.00  0.00    -0.146 I 
ENDROOT
TORSDOF 0
ENDMDL
