MODEL 1
REMARK minimizedAffinity 2.40902948
REMARK minimizedRMSD -1
REMARK  0 active torsions:
REMARK  status: ('A' for Active; 'I' for Inactive)
ROOT
ATOM      1  C   UNL d   1      -6.000   5.471   4.500  0.00  0.00     0.023 A 
ATOM      2  C1  UNL d   1      -5.507   5.783   5.767  0.00  0.00     0.003 A 
ATOM      3  C2  UNL d   1      -4.133   5.934   5.965  0.00  0.00     0.048 A 
ATOM      4  C3  UNL d   1      -3.258   5.774   4.892  0.00  0.00     0.023 A 
ATOM      5  C4  UNL d   1      -3.747   5.463   3.622  0.00  0.00     0.048 A 
ATOM      6  C5  UNL d   1      -5.121   5.311   3.429  0.00  0.00     0.003 A 
ATOM      7  I   UNL d   1      -1.212   6.000   5.184  0.00  0.00    -0.146 I 
ENDROOT
TORSDOF 0
ENDMDL
