MODEL 1
REMARK minimizedAffinity 8.60292816
REMARK minimizedRMSD -1
REMARK  2 active torsions:
REMARK  status: ('A' for Active; 'I' for Inactive)
REMARK    1  A    between atoms: C1_2  and  C2_3 
REMARK    2  A    between atoms: C2_3  and  C3_4 
ROOT
ATOM      1  C3  UNL d   1      -3.176  -0.068   3.479  0.00  0.00    -0.075 A 
ATOM      2  C4  UNL d   1      -4.135  -0.862   4.126  0.00  0.00     0.002 A 
ATOM      3  C5  UNL d   1      -4.633  -0.493   5.376  0.00  0.00     0.002 A 
ATOM      4  C6  UNL d   1      -4.173   0.666   5.998  0.00  0.00    -0.004 A 
ATOM      5  C7  UNL d   1      -3.209   1.453   5.372  0.00  0.00     0.002 A 
ATOM      6  C8  UNL d   1      -2.712   1.089   4.119  0.00  0.00     0.002 A 
ENDROOT
BRANCH   1   7
ATOM      7  C2  UNL d   1      -2.655  -0.446   2.113  0.00  0.00     0.056 C 
BRANCH   7   8
ATOM      8  C1  UNL d   1      -1.302  -1.166   2.139  0.00  0.00     0.007 C 
ATOM      9  C   UNL d   1      -0.285  -0.566   1.178  0.00  0.00     0.009 C 
ENDBRANCH   7   8
ENDBRANCH   1   7
TORSDOF 2
ENDMDL
