MODEL 1
REMARK minimizedAffinity 8.58690643
REMARK minimizedRMSD -1
REMARK  2 active torsions:
REMARK  status: ('A' for Active; 'I' for Inactive)
REMARK    1  A    between atoms: C1_2  and  C2_3 
REMARK    2  A    between atoms: C2_3  and  C3_4 
ROOT
ATOM      1  C3  UNL d   1      -0.404  -0.328   2.118  0.00  0.00    -0.075 A 
ATOM      2  C4  UNL d   1      -1.083   0.397   3.108  0.00  0.00     0.002 A 
ATOM      3  C5  UNL d   1      -2.419   0.118   3.399  0.00  0.00     0.002 A 
ATOM      4  C6  UNL d   1      -3.093  -0.881   2.700  0.00  0.00    -0.004 A 
ATOM      5  C7  UNL d   1      -2.433  -1.596   1.704  0.00  0.00     0.002 A 
ATOM      6  C8  UNL d   1      -1.096  -1.322   1.413  0.00  0.00     0.002 A 
ENDROOT
BRANCH   1   7
ATOM      7  C2  UNL d   1       1.050  -0.051   1.818  0.00  0.00     0.056 C 
BRANCH   7   8
ATOM      8  C1  UNL d   1       1.273   1.071   0.798  0.00  0.00     0.007 C 
ATOM      9  C   UNL d   1       2.744   1.401   0.580  0.00  0.00     0.009 C 
ENDBRANCH   7   8
ENDBRANCH   1   7
TORSDOF 2
ENDMDL
