MODEL 1
REMARK minimizedAffinity -0.764939904
REMARK minimizedRMSD -1
REMARK  2 active torsions:
REMARK  status: ('A' for Active; 'I' for Inactive)
REMARK    1  A    between atoms: C1_2  and  C2_3 
REMARK    2  A    between atoms: C2_3  and  C3_4 
ROOT
ATOM      1  C3  UNL d   1      -3.535   0.263   3.700  0.00  0.00    -0.075 A 
ATOM      2  C4  UNL d   1      -4.693   1.050   3.612  0.00  0.00     0.002 A 
ATOM      3  C5  UNL d   1      -5.899   0.491   3.188  0.00  0.00     0.002 A 
ATOM      4  C6  UNL d   1      -5.961  -0.856   2.839  0.00  0.00    -0.004 A 
ATOM      5  C7  UNL d   1      -4.814  -1.643   2.906  0.00  0.00     0.002 A 
ATOM      6  C8  UNL d   1      -3.606  -1.087   3.334  0.00  0.00     0.002 A 
ENDROOT
BRANCH   1   7
ATOM      7  C2  UNL d   1      -2.234   0.855   4.186  0.00  0.00     0.056 C 
BRANCH   7   8
ATOM      8  C1  UNL d   1      -0.998   0.339   3.441  0.00  0.00     0.007 C 
ATOM      9  C   UNL d   1       0.010  -0.347   4.354  0.00  0.00     0.009 C 
ENDBRANCH   7   8
ENDBRANCH   1   7
TORSDOF 2
ENDMDL
