MODEL 1
REMARK minimizedAffinity 0.629930973
REMARK minimizedRMSD -1
REMARK  2 active torsions:
REMARK  status: ('A' for Active; 'I' for Inactive)
REMARK    1  A    between atoms: C1_2  and  C2_3 
REMARK    2  A    between atoms: C2_3  and  C3_4 
ROOT
ATOM      1  C3  UNL d   1      -3.526   0.191   4.947  0.00  0.00    -0.075 A 
ATOM      2  C4  UNL d   1      -4.523  -0.428   5.715  0.00  0.00     0.002 A 
ATOM      3  C5  UNL d   1      -5.354  -1.395   5.149  0.00  0.00     0.002 A 
ATOM      4  C6  UNL d   1      -5.207  -1.748   3.809  0.00  0.00    -0.004 A 
ATOM      5  C7  UNL d   1      -4.231  -1.127   3.033  0.00  0.00     0.002 A 
ATOM      6  C8  UNL d   1      -3.395  -0.162   3.597  0.00  0.00     0.002 A 
ENDROOT
BRANCH   1   7
ATOM      7  C2  UNL d   1      -2.604   1.218   5.561  0.00  0.00     0.056 C 
BRANCH   7   8
ATOM      8  C1  UNL d   1      -1.248   0.655   5.999  0.00  0.00     0.007 C 
ATOM      9  C   UNL d   1      -0.343   0.291   4.830  0.00  0.00     0.009 C 
ENDBRANCH   7   8
ENDBRANCH   1   7
TORSDOF 2
ENDMDL
