MODEL 1
REMARK minimizedAffinity 0.74050802
REMARK minimizedRMSD -1
REMARK  2 active torsions:
REMARK  status: ('A' for Active; 'I' for Inactive)
REMARK    1  A    between atoms: C1_2  and  C2_3 
REMARK    2  A    between atoms: C2_3  and  C3_4 
ROOT
ATOM      1  C3  UNL d   1      -1.810   5.002  -4.843  0.00  0.00    -0.075 A 
ATOM      2  C4  UNL d   1      -2.597   4.904  -3.686  0.00  0.00     0.002 A 
ATOM      3  C5  UNL d   1      -3.923   5.338  -3.692  0.00  0.00     0.002 A 
ATOM      4  C6  UNL d   1      -4.475   5.882  -4.850  0.00  0.00    -0.004 A 
ATOM      5  C7  UNL d   1      -3.698   6.000  -6.000  0.00  0.00     0.002 A 
ATOM      6  C8  UNL d   1      -2.372   5.563  -5.997  0.00  0.00     0.002 A 
ENDROOT
BRANCH   1   7
ATOM      7  C2  UNL d   1      -0.383   4.508  -4.851  0.00  0.00     0.056 C 
BRANCH   7   8
ATOM      8  C1  UNL d   1       0.217   4.311  -3.455  0.00  0.00     0.007 C 
ATOM      9  C   UNL d   1       1.180   3.134  -3.376  0.00  0.00     0.009 C 
ENDBRANCH   7   8
ENDBRANCH   1   7
TORSDOF 2
ENDMDL
