MODEL 1
REMARK minimizedAffinity 6.41430569
REMARK minimizedRMSD -1
REMARK  2 active torsions:
REMARK  status: ('A' for Active; 'I' for Inactive)
REMARK    1  A    between atoms: C1_2  and  C2_3 
REMARK    2  A    between atoms: C2_3  and  C3_4 
ROOT
ATOM      1  C3  UNL d   1       3.960   2.284   0.807  0.00  0.00    -0.075 A 
ATOM      2  C4  UNL d   1       3.738   3.369   1.668  0.00  0.00     0.002 A 
ATOM      3  C5  UNL d   1       4.632   4.440   1.702  0.00  0.00     0.002 A 
ATOM      4  C6  UNL d   1       5.761   4.436   0.886  0.00  0.00    -0.004 A 
ATOM      5  C7  UNL d   1       6.000   3.355   0.040  0.00  0.00     0.002 A 
ATOM      6  C8  UNL d   1       5.105   2.284   0.000  0.00  0.00     0.002 A 
ENDROOT
BRANCH   1   7
ATOM      7  C2  UNL d   1       2.982   1.136   0.744  0.00  0.00     0.056 C 
BRANCH   7   8
ATOM      8  C1  UNL d   1       1.666   1.475   0.036  0.00  0.00     0.007 C 
ATOM      9  C   UNL d   1       1.822   1.648  -1.469  0.00  0.00     0.009 C 
ENDBRANCH   7   8
ENDBRANCH   1   7
TORSDOF 2
ENDMDL
