MODEL 1
REMARK minimizedAffinity 8.45609379
REMARK minimizedRMSD -1
REMARK  2 active torsions:
REMARK  status: ('A' for Active; 'I' for Inactive)
REMARK    1  A    between atoms: C1_2  and  C2_3 
REMARK    2  A    between atoms: C2_3  and  C3_4 
ROOT
ATOM      1  C3  UNL d   1      -1.297  -0.334   3.369  0.00  0.00    -0.075 A 
ATOM      2  C4  UNL d   1      -0.799  -1.427   2.646  0.00  0.00     0.002 A 
ATOM      3  C5  UNL d   1      -0.157  -2.478   3.302  0.00  0.00     0.002 A 
ATOM      4  C6  UNL d   1       0.004  -2.443   4.686  0.00  0.00    -0.004 A 
ATOM      5  C7  UNL d   1      -0.472  -1.354   5.412  0.00  0.00     0.002 A 
ATOM      6  C8  UNL d   1      -1.119  -0.304   4.758  0.00  0.00     0.002 A 
ENDROOT
BRANCH   1   7
ATOM      7  C2  UNL d   1      -2.020   0.791   2.668  0.00  0.00     0.056 C 
BRANCH   7   8
ATOM      8  C1  UNL d   1      -3.024   0.324   1.608  0.00  0.00     0.007 C 
ATOM      9  C   UNL d   1      -4.451   0.771   1.896  0.00  0.00     0.009 C 
ENDBRANCH   7   8
ENDBRANCH   1   7
TORSDOF 2
ENDMDL
