MODEL 1
REMARK minimizedAffinity 4.39345455
REMARK minimizedRMSD -1
REMARK  2 active torsions:
REMARK  status: ('A' for Active; 'I' for Inactive)
REMARK    1  A    between atoms: C1_2  and  C2_3 
REMARK    2  A    between atoms: C2_3  and  C3_4 
ROOT
ATOM      1  C3  UNL d   1      -2.615   2.904   0.134  0.00  0.00    -0.075 A 
ATOM      2  C4  UNL d   1      -2.379   4.175  -0.409  0.00  0.00     0.002 A 
ATOM      3  C5  UNL d   1      -1.226   4.885  -0.075  0.00  0.00     0.002 A 
ATOM      4  C6  UNL d   1      -0.300   4.340   0.812  0.00  0.00    -0.004 A 
ATOM      5  C7  UNL d   1      -0.532   3.084   1.371  0.00  0.00     0.002 A 
ATOM      6  C8  UNL d   1      -1.683   2.370   1.034  0.00  0.00     0.002 A 
ENDROOT
BRANCH   1   7
ATOM      7  C2  UNL d   1      -3.846   2.118  -0.247  0.00  0.00     0.056 C 
BRANCH   7   8
ATOM      8  C1  UNL d   1      -3.620   1.115  -1.383  0.00  0.00     0.007 C 
ATOM      9  C   UNL d   1      -4.773   0.135  -1.558  0.00  0.00     0.009 C 
ENDBRANCH   7   8
ENDBRANCH   1   7
TORSDOF 2
ENDMDL
