MODEL 1
REMARK minimizedAffinity 10.2554483
REMARK minimizedRMSD -1
REMARK  2 active torsions:
REMARK  status: ('A' for Active; 'I' for Inactive)
REMARK    1  A    between atoms: C1_2  and  C2_3 
REMARK    2  A    between atoms: C2_3  and  C3_4 
ROOT
ATOM      1  C3  UNL d   1       2.746   0.458  -3.064  0.00  0.00    -0.075 A 
ATOM      2  C4  UNL d   1       3.807   0.468  -2.147  0.00  0.00     0.002 A 
ATOM      3  C5  UNL d   1       4.188   1.653  -1.518  0.00  0.00     0.002 A 
ATOM      4  C6  UNL d   1       3.522   2.843  -1.804  0.00  0.00    -0.004 A 
ATOM      5  C7  UNL d   1       2.477   2.847  -2.726  0.00  0.00     0.002 A 
ATOM      6  C8  UNL d   1       2.091   1.662  -3.353  0.00  0.00     0.002 A 
ENDROOT
BRANCH   1   7
ATOM      7  C2  UNL d   1       2.309  -0.828  -3.726  0.00  0.00     0.056 C 
BRANCH   7   8
ATOM      8  C1  UNL d   1       0.904  -1.290  -3.324  0.00  0.00     0.007 C 
ATOM      9  C   UNL d   1       0.741  -2.804  -3.350  0.00  0.00     0.009 C 
ENDBRANCH   7   8
ENDBRANCH   1   7
TORSDOF 2
ENDMDL
