MODEL 1
REMARK minimizedAffinity 2.95929956
REMARK minimizedRMSD -1
REMARK  2 active torsions:
REMARK  status: ('A' for Active; 'I' for Inactive)
REMARK    1  A    between atoms: C1_2  and  C2_3 
REMARK    2  A    between atoms: C2_3  and  C3_4 
ROOT
ATOM      1  C3  UNL d   1       4.021  -4.298  -0.041  0.00  0.00    -0.075 A 
ATOM      2  C4  UNL d   1       4.879  -3.189  -0.062  0.00  0.00     0.002 A 
ATOM      3  C5  UNL d   1       4.421  -1.931   0.330  0.00  0.00     0.002 A 
ATOM      4  C6  UNL d   1       3.099  -1.763   0.736  0.00  0.00    -0.004 A 
ATOM      5  C7  UNL d   1       2.233  -2.854   0.745  0.00  0.00     0.002 A 
ATOM      6  C8  UNL d   1       2.690  -4.115   0.358  0.00  0.00     0.002 A 
ENDROOT
BRANCH   1   7
ATOM      7  C2  UNL d   1       4.519  -5.668  -0.435  0.00  0.00     0.056 C 
BRANCH   7   8
ATOM      8  C1  UNL d   1       5.918  -5.999   0.095  0.00  0.00     0.007 C 
ATOM      9  C   UNL d   1       6.000  -5.997   1.616  0.00  0.00     0.009 C 
ENDBRANCH   7   8
ENDBRANCH   1   7
TORSDOF 2
ENDMDL
