MODEL 1
REMARK minimizedAffinity 1.92099249
REMARK minimizedRMSD -1
REMARK  2 active torsions:
REMARK  status: ('A' for Active; 'I' for Inactive)
REMARK    1  A    between atoms: C1_2  and  C2_3 
REMARK    2  A    between atoms: C2_3  and  C3_4 
ROOT
ATOM      1  C3  UNL d   1      -3.308   1.629   1.147  0.00  0.00    -0.075 A 
ATOM      2  C4  UNL d   1      -2.988   0.381   1.700  0.00  0.00     0.002 A 
ATOM      3  C5  UNL d   1      -2.152   0.292   2.813  0.00  0.00     0.002 A 
ATOM      4  C6  UNL d   1      -1.618   1.447   3.381  0.00  0.00    -0.004 A 
ATOM      5  C7  UNL d   1      -1.916   2.691   2.830  0.00  0.00     0.002 A 
ATOM      6  C8  UNL d   1      -2.756   2.783   1.719  0.00  0.00     0.002 A 
ENDROOT
BRANCH   1   7
ATOM      7  C2  UNL d   1      -4.236   1.734  -0.040  0.00  0.00     0.056 C 
BRANCH   7   8
ATOM      8  C1  UNL d   1      -4.526   0.395  -0.725  0.00  0.00     0.007 C 
ATOM      9  C   UNL d   1      -5.829   0.393  -1.513  0.00  0.00     0.009 C 
ENDBRANCH   7   8
ENDBRANCH   1   7
TORSDOF 2
ENDMDL
