MODEL 1
REMARK minimizedAffinity 6.98052406
REMARK minimizedRMSD -1
REMARK  2 active torsions:
REMARK  status: ('A' for Active; 'I' for Inactive)
REMARK    1  A    between atoms: C1_2  and  C2_3 
REMARK    2  A    between atoms: C2_3  and  C3_4 
ROOT
ATOM      1  C3  UNL d   1       2.311  -2.937  -0.605  0.00  0.00    -0.075 A 
ATOM      2  C4  UNL d   1       2.535  -1.692   0.001  0.00  0.00     0.002 A 
ATOM      3  C5  UNL d   1       3.802  -1.356   0.479  0.00  0.00     0.002 A 
ATOM      4  C6  UNL d   1       4.855  -2.261   0.368  0.00  0.00    -0.004 A 
ATOM      5  C7  UNL d   1       4.640  -3.506  -0.217  0.00  0.00     0.002 A 
ATOM      6  C8  UNL d   1       3.375  -3.844  -0.701  0.00  0.00     0.002 A 
ENDROOT
BRANCH   1   7
ATOM      7  C2  UNL d   1       0.950  -3.296  -1.152  0.00  0.00     0.056 C 
BRANCH   7   8
ATOM      8  C1  UNL d   1       0.884  -3.340  -2.682  0.00  0.00     0.007 C 
ATOM      9  C   UNL d   1       0.043  -2.219  -3.279  0.00  0.00     0.009 C 
ENDBRANCH   7   8
ENDBRANCH   1   7
TORSDOF 2
ENDMDL
