MODEL 1
REMARK minimizedAffinity 3.30463719
REMARK minimizedRMSD -1
REMARK  2 active torsions:
REMARK  status: ('A' for Active; 'I' for Inactive)
REMARK    1  A    between atoms: C1_2  and  C2_3 
REMARK    2  A    between atoms: C2_3  and  C3_4 
ROOT
ATOM      1  C3  UNL d   1       3.260  -3.889   0.030  0.00  0.00    -0.075 A 
ATOM      2  C4  UNL d   1       3.248  -2.496   0.191  0.00  0.00     0.002 A 
ATOM      3  C5  UNL d   1       2.112  -1.849   0.679  0.00  0.00     0.002 A 
ATOM      4  C6  UNL d   1       0.974  -2.584   1.002  0.00  0.00    -0.004 A 
ATOM      5  C7  UNL d   1       0.969  -3.966   0.831  0.00  0.00     0.002 A 
ATOM      6  C8  UNL d   1       2.105  -4.616   0.347  0.00  0.00     0.002 A 
ENDROOT
BRANCH   1   7
ATOM      7  C2  UNL d   1       4.496  -4.598  -0.469  0.00  0.00     0.056 C 
BRANCH   7   8
ATOM      8  C1  UNL d   1       4.692  -6.000   0.119  0.00  0.00     0.007 C 
ATOM      9  C   UNL d   1       5.484  -6.000   1.419  0.00  0.00     0.009 C 
ENDBRANCH   7   8
ENDBRANCH   1   7
TORSDOF 2
ENDMDL
