MODEL 1
REMARK minimizedAffinity 5.18533421
REMARK minimizedRMSD -1
REMARK  2 active torsions:
REMARK  status: ('A' for Active; 'I' for Inactive)
REMARK    1  A    between atoms: C1_2  and  C2_3 
REMARK    2  A    between atoms: C2_3  and  C3_4 
ROOT
ATOM      1  C3  UNL d   1       4.334  -4.202  -0.144  0.00  0.00    -0.075 A 
ATOM      2  C4  UNL d   1       2.998  -4.435   0.214  0.00  0.00     0.002 A 
ATOM      3  C5  UNL d   1       2.163  -3.374   0.565  0.00  0.00     0.002 A 
ATOM      4  C6  UNL d   1       2.655  -2.071   0.574  0.00  0.00    -0.004 A 
ATOM      5  C7  UNL d   1       3.985  -1.829   0.236  0.00  0.00     0.002 A 
ATOM      6  C8  UNL d   1       4.821  -2.888  -0.120  0.00  0.00     0.002 A 
ENDROOT
BRANCH   1   7
ATOM      7  C2  UNL d   1       5.235  -5.343  -0.554  0.00  0.00     0.056 C 
BRANCH   7   8
ATOM      8  C1  UNL d   1       5.990  -5.991   0.612  0.00  0.00     0.007 C 
ATOM      9  C   UNL d   1       5.247  -5.892   1.937  0.00  0.00     0.009 C 
ENDBRANCH   7   8
ENDBRANCH   1   7
TORSDOF 2
ENDMDL
