MODEL 1
REMARK minimizedAffinity 2.65779138
REMARK minimizedRMSD -1
REMARK  2 active torsions:
REMARK  status: ('A' for Active; 'I' for Inactive)
REMARK    1  A    between atoms: C1_2  and  C2_3 
REMARK    2  A    between atoms: C2_3  and  C3_4 
ROOT
ATOM      1  C3  UNL d   1       2.559   0.471   0.256  0.00  0.00    -0.075 A 
ATOM      2  C4  UNL d   1       3.061   0.238  -1.033  0.00  0.00     0.002 A 
ATOM      3  C5  UNL d   1       3.358   1.305  -1.881  0.00  0.00     0.002 A 
ATOM      4  C6  UNL d   1       3.149   2.615  -1.457  0.00  0.00    -0.004 A 
ATOM      5  C7  UNL d   1       2.636   2.858  -0.184  0.00  0.00     0.002 A 
ATOM      6  C8  UNL d   1       2.342   1.792   0.668  0.00  0.00     0.002 A 
ENDROOT
BRANCH   1   7
ATOM      7  C2  UNL d   1       2.263  -0.679   1.189  0.00  0.00     0.056 C 
BRANCH   7   8
ATOM      8  C1  UNL d   1       2.624  -2.054   0.618  0.00  0.00     0.007 C 
ATOM      9  C   UNL d   1       1.495  -3.069   0.738  0.00  0.00     0.009 C 
ENDBRANCH   7   8
ENDBRANCH   1   7
TORSDOF 2
ENDMDL
