MODEL 1
REMARK minimizedAffinity 12.0917158
REMARK minimizedRMSD -1
REMARK  2 active torsions:
REMARK  status: ('A' for Active; 'I' for Inactive)
REMARK    1  A    between atoms: C1_2  and  C2_3 
REMARK    2  A    between atoms: C2_3  and  C3_4 
ROOT
ATOM      1  C3  UNL d   1      -5.475  -4.964   2.354  0.00  0.00    -0.075 A 
ATOM      2  C4  UNL d   1      -4.889  -3.714   2.597  0.00  0.00     0.002 A 
ATOM      3  C5  UNL d   1      -4.829  -2.751   1.588  0.00  0.00     0.002 A 
ATOM      4  C6  UNL d   1      -5.345  -3.030   0.324  0.00  0.00    -0.004 A 
ATOM      5  C7  UNL d   1      -5.914  -4.275   0.067  0.00  0.00     0.002 A 
ATOM      6  C8  UNL d   1      -5.979  -5.238   1.076  0.00  0.00     0.002 A 
ENDROOT
BRANCH   1   7
ATOM      7  C2  UNL d   1      -5.569  -5.999   3.449  0.00  0.00     0.056 C 
BRANCH   7   8
ATOM      8  C1  UNL d   1      -4.383  -5.989   4.421  0.00  0.00     0.007 C 
ATOM      9  C   UNL d   1      -4.803  -5.859   5.879  0.00  0.00     0.009 C 
ENDBRANCH   7   8
ENDBRANCH   1   7
TORSDOF 2
ENDMDL
