MODEL 1
REMARK minimizedAffinity -5.81423855
REMARK minimizedRMSD -1
REMARK  2 active torsions:
REMARK  status: ('A' for Active; 'I' for Inactive)
REMARK    1  A    between atoms: C1_2  and  C2_3 
REMARK    2  A    between atoms: C2_3  and  C3_4 
ROOT
ATOM      1  C3  UNL d   1       0.068  -0.002   0.072  0.00  0.00    -0.075 A 
ATOM      2  C4  UNL d   1       1.222   0.605  -0.445  0.00  0.00     0.002 A 
ATOM      3  C5  UNL d   1       1.758   1.740   0.164  0.00  0.00     0.002 A 
ATOM      4  C6  UNL d   1       1.144   2.287   1.288  0.00  0.00    -0.004 A 
ATOM      5  C7  UNL d   1      -0.012   1.702   1.800  0.00  0.00     0.002 A 
ATOM      6  C8  UNL d   1      -0.548   0.564   1.196  0.00  0.00     0.002 A 
ENDROOT
BRANCH   1   7
ATOM      7  C2  UNL d   1      -0.500  -1.248  -0.564  0.00  0.00     0.056 C 
BRANCH   7   8
ATOM      8  C1  UNL d   1      -1.115  -1.016  -1.949  0.00  0.00     0.007 C 
ATOM      9  C   UNL d   1      -2.394  -1.811  -2.178  0.00  0.00     0.009 C 
ENDBRANCH   7   8
ENDBRANCH   1   7
TORSDOF 2
ENDMDL
