MODEL 1
REMARK minimizedAffinity 0.883410335
REMARK minimizedRMSD -1
REMARK  2 active torsions:
REMARK  status: ('A' for Active; 'I' for Inactive)
REMARK    1  A    between atoms: C1_2  and  C2_3 
REMARK    2  A    between atoms: C2_3  and  C3_4 
ROOT
ATOM      1  C3  UNL d   1      -3.346   5.944  -3.853  0.00  0.00    -0.075 A 
ATOM      2  C4  UNL d   1      -3.349   5.953  -5.255  0.00  0.00     0.002 A 
ATOM      3  C5  UNL d   1      -4.552   5.933  -5.961  0.00  0.00     0.002 A 
ATOM      4  C6  UNL d   1      -5.764   5.893  -5.276  0.00  0.00    -0.004 A 
ATOM      5  C7  UNL d   1      -5.773   5.867  -3.883  0.00  0.00     0.002 A 
ATOM      6  C8  UNL d   1      -4.571   5.891  -3.174  0.00  0.00     0.002 A 
ENDROOT
BRANCH   1   7
ATOM      7  C2  UNL d   1      -2.048   5.995  -3.082  0.00  0.00     0.056 C 
BRANCH   7   8
ATOM      8  C1  UNL d   1      -0.820   5.583  -3.901  0.00  0.00     0.007 C 
ATOM      9  C   UNL d   1      -0.348   4.166  -3.601  0.00  0.00     0.009 C 
ENDBRANCH   7   8
ENDBRANCH   1   7
TORSDOF 2
ENDMDL
