MODEL 1
REMARK minimizedAffinity -3.89139056
REMARK minimizedRMSD -1
REMARK  2 active torsions:
REMARK  status: ('A' for Active; 'I' for Inactive)
REMARK    1  A    between atoms: C1_2  and  C2_3 
REMARK    2  A    between atoms: C2_3  and  C3_4 
ROOT
ATOM      1  C3  UNL d   1       0.381   1.010   1.073  0.00  0.00    -0.075 A 
ATOM      2  C4  UNL d   1      -0.733   0.177   1.249  0.00  0.00     0.002 A 
ATOM      3  C5  UNL d   1      -0.919  -0.939   0.433  0.00  0.00     0.002 A 
ATOM      4  C6  UNL d   1      -0.001  -1.230  -0.574  0.00  0.00    -0.004 A 
ATOM      5  C7  UNL d   1       1.101  -0.399  -0.769  0.00  0.00     0.002 A 
ATOM      6  C8  UNL d   1       1.291   0.715   0.050  0.00  0.00     0.002 A 
ENDROOT
BRANCH   1   7
ATOM      7  C2  UNL d   1       0.604   2.203   1.973  0.00  0.00     0.056 C 
BRANCH   7   8
ATOM      8  C1  UNL d   1       1.760   2.030   2.963  0.00  0.00     0.007 C 
ATOM      9  C   UNL d   1       1.412   1.132   4.143  0.00  0.00     0.009 C 
ENDBRANCH   7   8
ENDBRANCH   1   7
TORSDOF 2
ENDMDL
