MODEL 1
REMARK minimizedAffinity -4.2237978
REMARK minimizedRMSD -1
REMARK  2 active torsions:
REMARK  status: ('A' for Active; 'I' for Inactive)
REMARK    1  A    between atoms: C1_2  and  C2_3 
REMARK    2  A    between atoms: C2_3  and  C3_4 
ROOT
ATOM      1  C3  UNL d   1       0.797   0.574   0.696  0.00  0.00    -0.075 A 
ATOM      2  C4  UNL d   1       1.726   0.847  -0.319  0.00  0.00     0.002 A 
ATOM      3  C5  UNL d   1       2.794   1.715  -0.087  0.00  0.00     0.002 A 
ATOM      4  C6  UNL d   1       2.940   2.327   1.156  0.00  0.00    -0.004 A 
ATOM      5  C7  UNL d   1       2.014   2.076   2.166  0.00  0.00     0.002 A 
ATOM      6  C8  UNL d   1       0.947   1.205   1.938  0.00  0.00     0.002 A 
ENDROOT
BRANCH   1   7
ATOM      7  C2  UNL d   1      -0.344  -0.387   0.461  0.00  0.00     0.056 C 
BRANCH   7   8
ATOM      8  C1  UNL d   1      -0.276  -1.119  -0.884  0.00  0.00     0.007 C 
ATOM      9  C   UNL d   1      -1.647  -1.444  -1.461  0.00  0.00     0.009 C 
ENDBRANCH   7   8
ENDBRANCH   1   7
TORSDOF 2
ENDMDL
