MODEL 1
REMARK minimizedAffinity -4.29531336
REMARK minimizedRMSD -1
REMARK  2 active torsions:
REMARK  status: ('A' for Active; 'I' for Inactive)
REMARK    1  A    between atoms: C1_2  and  C2_3 
REMARK    2  A    between atoms: C2_3  and  C3_4 
ROOT
ATOM      1  C3  UNL d   1      -0.128  -0.045  -0.029  0.00  0.00    -0.075 A 
ATOM      2  C4  UNL d   1      -1.126   0.243   0.914  0.00  0.00     0.002 A 
ATOM      3  C5  UNL d   1      -0.948   1.269   1.842  0.00  0.00     0.002 A 
ATOM      4  C6  UNL d   1       0.230   2.012   1.847  0.00  0.00    -0.004 A 
ATOM      5  C7  UNL d   1       1.235   1.723   0.926  0.00  0.00     0.002 A 
ATOM      6  C8  UNL d   1       1.058   0.700  -0.007  0.00  0.00     0.002 A 
ENDROOT
BRANCH   1   7
ATOM      7  C2  UNL d   1      -0.326  -1.135  -1.055  0.00  0.00     0.056 C 
BRANCH   7   8
ATOM      8  C1  UNL d   1      -1.769  -1.266  -1.554  0.00  0.00     0.007 C 
ATOM      9  C   UNL d   1      -1.875  -1.333  -3.072  0.00  0.00     0.009 C 
ENDBRANCH   7   8
ENDBRANCH   1   7
TORSDOF 2
ENDMDL
