MODEL 1
REMARK minimizedAffinity -5.86948347
REMARK minimizedRMSD -1
REMARK  2 active torsions:
REMARK  status: ('A' for Active; 'I' for Inactive)
REMARK    1  A    between atoms: C1_2  and  C2_3 
REMARK    2  A    between atoms: C2_3  and  C3_4 
ROOT
ATOM      1  C3  UNL d   1       0.608   0.273   0.064  0.00  0.00    -0.075 A 
ATOM      2  C4  UNL d   1      -0.146   0.899   1.067  0.00  0.00     0.002 A 
ATOM      3  C5  UNL d   1       0.347   2.026   1.725  0.00  0.00     0.002 A 
ATOM      4  C6  UNL d   1       1.602   2.534   1.397  0.00  0.00    -0.004 A 
ATOM      5  C7  UNL d   1       2.367   1.910   0.414  0.00  0.00     0.002 A 
ATOM      6  C8  UNL d   1       1.874   0.785  -0.249  0.00  0.00     0.002 A 
ENDROOT
BRANCH   1   7
ATOM      7  C2  UNL d   1       0.067  -0.929  -0.672  0.00  0.00     0.056 C 
BRANCH   7   8
ATOM      8  C1  UNL d   1      -1.349  -1.336  -0.248  0.00  0.00     0.007 C 
ATOM      9  C   UNL d   1      -2.224  -1.770  -1.416  0.00  0.00     0.009 C 
ENDBRANCH   7   8
ENDBRANCH   1   7
TORSDOF 2
ENDMDL
