MODEL 1
REMARK minimizedAffinity -5.26532269
REMARK minimizedRMSD -1
REMARK  2 active torsions:
REMARK  status: ('A' for Active; 'I' for Inactive)
REMARK    1  A    between atoms: C1_2  and  C2_3 
REMARK    2  A    between atoms: C2_3  and  C3_4 
ROOT
ATOM      1  C3  UNL d   1      -1.056  -1.339  -1.006  0.00  0.00    -0.075 A 
ATOM      2  C4  UNL d   1      -0.790  -0.793  -2.270  0.00  0.00     0.002 A 
ATOM      3  C5  UNL d   1      -1.586  -1.124  -3.367  0.00  0.00     0.002 A 
ATOM      4  C6  UNL d   1      -2.649  -2.012  -3.217  0.00  0.00    -0.004 A 
ATOM      5  C7  UNL d   1      -2.912  -2.574  -1.969  0.00  0.00     0.002 A 
ATOM      6  C8  UNL d   1      -2.120  -2.240  -0.869  0.00  0.00     0.002 A 
ENDROOT
BRANCH   1   7
ATOM      7  C2  UNL d   1      -0.217  -0.962   0.191  0.00  0.00     0.056 C 
BRANCH   7   8
ATOM      8  C1  UNL d   1       0.269   0.492   0.179  0.00  0.00     0.007 C 
ATOM      9  C   UNL d   1      -0.251   1.309   1.354  0.00  0.00     0.009 C 
ENDBRANCH   7   8
ENDBRANCH   1   7
TORSDOF 2
ENDMDL
