MODEL 1
REMARK minimizedAffinity -4.13000154
REMARK minimizedRMSD -1
REMARK  2 active torsions:
REMARK  status: ('A' for Active; 'I' for Inactive)
REMARK    1  A    between atoms: C1_2  and  C2_3 
REMARK    2  A    between atoms: C2_3  and  C3_4 
ROOT
ATOM      1  C3  UNL d   1      -0.275  -0.095  -0.055  0.00  0.00    -0.075 A 
ATOM      2  C4  UNL d   1       0.824   0.651  -0.506  0.00  0.00     0.002 A 
ATOM      3  C5  UNL d   1       1.225   1.801   0.175  0.00  0.00     0.002 A 
ATOM      4  C6  UNL d   1       0.530   2.224   1.305  0.00  0.00    -0.004 A 
ATOM      5  C7  UNL d   1      -0.573   1.500   1.751  0.00  0.00     0.002 A 
ATOM      6  C8  UNL d   1      -0.975   0.346   1.075  0.00  0.00     0.002 A 
ENDROOT
BRANCH   1   7
ATOM      7  C2  UNL d   1      -0.697  -1.357  -0.770  0.00  0.00     0.056 C 
BRANCH   7   8
ATOM      8  C1  UNL d   1      -1.486  -1.109  -2.060  0.00  0.00     0.007 C 
ATOM      9  C   UNL d   1      -2.658  -2.066  -2.240  0.00  0.00     0.009 C 
ENDBRANCH   7   8
ENDBRANCH   1   7
TORSDOF 2
ENDMDL
