MODEL 1
REMARK minimizedAffinity -4.91465139
REMARK minimizedRMSD -1
REMARK  2 active torsions:
REMARK  status: ('A' for Active; 'I' for Inactive)
REMARK    1  A    between atoms: C1_2  and  C2_3 
REMARK    2  A    between atoms: C2_3  and  C3_4 
ROOT
ATOM      1  C3  UNL d   1      -0.906  -0.486  -0.240  0.00  0.00    -0.075 A 
ATOM      2  C4  UNL d   1      -2.012   0.370  -0.131  0.00  0.00     0.002 A 
ATOM      3  C5  UNL d   1      -2.069   1.327   0.883  0.00  0.00     0.002 A 
ATOM      4  C6  UNL d   1      -1.029   1.433   1.804  0.00  0.00    -0.004 A 
ATOM      5  C7  UNL d   1       0.066   0.577   1.715  0.00  0.00     0.002 A 
ATOM      6  C8  UNL d   1       0.128  -0.379   0.699  0.00  0.00     0.002 A 
ENDROOT
BRANCH   1   7
ATOM      7  C2  UNL d   1      -0.825  -1.504  -1.353  0.00  0.00     0.056 C 
BRANCH   7   8
ATOM      8  C1  UNL d   1      -2.137  -2.252  -1.612  0.00  0.00     0.007 C 
ATOM      9  C   UNL d   1      -2.705  -2.004  -3.003  0.00  0.00     0.009 C 
ENDBRANCH   7   8
ENDBRANCH   1   7
TORSDOF 2
ENDMDL
