MODEL 1
REMARK minimizedAffinity -4.28410339
REMARK minimizedRMSD -1
REMARK  2 active torsions:
REMARK  status: ('A' for Active; 'I' for Inactive)
REMARK    1  A    between atoms: C1_2  and  C2_3 
REMARK    2  A    between atoms: C2_3  and  C3_4 
ROOT
ATOM      1  C3  UNL d   1       0.109  -0.134   0.392  0.00  0.00    -0.075 A 
ATOM      2  C4  UNL d   1       0.097   0.773   1.462  0.00  0.00     0.002 A 
ATOM      3  C5  UNL d   1       1.291   1.289   1.966  0.00  0.00     0.002 A 
ATOM      4  C6  UNL d   1       2.510   0.898   1.416  0.00  0.00    -0.004 A 
ATOM      5  C7  UNL d   1       2.535  -0.015   0.364  0.00  0.00     0.002 A 
ATOM      6  C8  UNL d   1       1.342  -0.530  -0.145  0.00  0.00     0.002 A 
ENDROOT
BRANCH   1   7
ATOM      7  C2  UNL d   1      -1.181  -0.674  -0.178  0.00  0.00     0.056 C 
BRANCH   7   8
ATOM      8  C1  UNL d   1      -1.122  -0.974  -1.679  0.00  0.00     0.007 C 
ATOM      9  C   UNL d   1      -2.367  -1.680  -2.200  0.00  0.00     0.009 C 
ENDBRANCH   7   8
ENDBRANCH   1   7
TORSDOF 2
ENDMDL
