MODEL 1
REMARK minimizedAffinity -5.86800098
REMARK minimizedRMSD -1
REMARK  2 active torsions:
REMARK  status: ('A' for Active; 'I' for Inactive)
REMARK    1  A    between atoms: C1_2  and  C2_3 
REMARK    2  A    between atoms: C2_3  and  C3_4 
ROOT
ATOM      1  C3  UNL d   1      -0.090  -0.523  -0.110  0.00  0.00    -0.075 A 
ATOM      2  C4  UNL d   1      -0.619   0.316   0.882  0.00  0.00     0.002 A 
ATOM      3  C5  UNL d   1       0.207   1.199   1.578  0.00  0.00     0.002 A 
ATOM      4  C6  UNL d   1       1.571   1.246   1.300  0.00  0.00    -0.004 A 
ATOM      5  C7  UNL d   1       2.111   0.405   0.329  0.00  0.00     0.002 A 
ATOM      6  C8  UNL d   1       1.285  -0.476  -0.372  0.00  0.00     0.002 A 
ENDROOT
BRANCH   1   7
ATOM      7  C2  UNL d   1      -0.984  -1.459  -0.887  0.00  0.00     0.056 C 
BRANCH   7   8
ATOM      8  C1  UNL d   1      -1.207  -1.042  -2.345  0.00  0.00     0.007 C 
ATOM      9  C   UNL d   1      -2.565  -1.464  -2.890  0.00  0.00     0.009 C 
ENDBRANCH   7   8
ENDBRANCH   1   7
TORSDOF 2
ENDMDL
