MODEL 1
REMARK minimizedAffinity -5.66782045
REMARK minimizedRMSD -1
REMARK  2 active torsions:
REMARK  status: ('A' for Active; 'I' for Inactive)
REMARK    1  A    between atoms: C1_2  and  C2_3 
REMARK    2  A    between atoms: C2_3  and  C3_4 
ROOT
ATOM      1  C3  UNL d   1       0.698   0.916   0.350  0.00  0.00    -0.075 A 
ATOM      2  C4  UNL d   1       1.558   0.869  -0.757  0.00  0.00     0.002 A 
ATOM      3  C5  UNL d   1       1.382  -0.096  -1.750  0.00  0.00     0.002 A 
ATOM      4  C6  UNL d   1       0.354  -1.029  -1.644  0.00  0.00    -0.004 A 
ATOM      5  C7  UNL d   1      -0.497  -1.001  -0.541  0.00  0.00     0.002 A 
ATOM      6  C8  UNL d   1      -0.326  -0.035   0.452  0.00  0.00     0.002 A 
ENDROOT
BRANCH   1   7
ATOM      7  C2  UNL d   1       0.864   1.976   1.413  0.00  0.00     0.056 C 
BRANCH   7   8
ATOM      8  C1  UNL d   1       1.206   3.364   0.862  0.00  0.00     0.007 C 
ATOM      9  C   UNL d   1       2.057   4.195   1.813  0.00  0.00     0.009 C 
ENDBRANCH   7   8
ENDBRANCH   1   7
TORSDOF 2
ENDMDL
