MODEL 1
REMARK minimizedAffinity -2.28889918
REMARK minimizedRMSD -1
REMARK  0 active torsions:
REMARK  status: ('A' for Active; 'I' for Inactive)
ROOT
ATOM      1  O1  BZF d   1       0.590  -0.249  -1.627  0.00  0.00    -0.204 OA
ATOM      2  C2  BZF d   1       0.464   1.120  -1.755  0.00  0.00     0.174 A 
ATOM      3  C3  BZF d   1      -0.328   1.621  -0.785  0.00  0.00    -0.012 A 
ATOM      4  C3A BZF d   1      -0.647   0.506   0.053  0.00  0.00    -0.107 A 
ATOM      5  C4  BZF d   1      -1.387   0.369   1.192  0.00  0.00     0.055 A 
ATOM      6  C5  BZF d   1      -1.561  -0.870   1.722  0.00  0.00    -0.016 A 
ATOM      7  C6  BZF d   1      -1.014  -1.993   1.137  0.00  0.00     0.022 A 
ATOM      8  C7  BZF d   1      -0.268  -1.907   0.009  0.00  0.00     0.029 A 
ATOM      9  C7A BZF d   1      -0.063  -0.652  -0.510  0.00  0.00     0.058 A 
ENDROOT
TORSDOF 0
ENDMDL
