MODEL 1
REMARK minimizedAffinity 7.08638573
REMARK minimizedRMSD -1
REMARK  0 active torsions:
REMARK  status: ('A' for Active; 'I' for Inactive)
ROOT
ATOM      1  O1  BZF d   1       1.179   2.477   1.414  0.00  0.00    -0.204 OA
ATOM      2  C2  BZF d   1       1.613   3.631   2.039  0.00  0.00     0.174 A 
ATOM      3  C3  BZF d   1       2.856   3.958   1.629  0.00  0.00    -0.012 A 
ATOM      4  C3A BZF d   1       3.185   2.997   0.621  0.00  0.00    -0.107 A 
ATOM      5  C4  BZF d   1       4.280   2.807  -0.172  0.00  0.00     0.055 A 
ATOM      6  C5  BZF d   1       4.315   1.731  -1.002  0.00  0.00    -0.016 A 
ATOM      7  C6  BZF d   1       3.277   0.824  -1.060  0.00  0.00     0.022 A 
ATOM      8  C7  BZF d   1       2.168   0.974  -0.295  0.00  0.00     0.029 A 
ATOM      9  C7A BZF d   1       2.115   2.078   0.520  0.00  0.00     0.058 A 
ENDROOT
TORSDOF 0
ENDMDL
