MODEL 1
REMARK minimizedAffinity -0.527884483
REMARK minimizedRMSD -1
REMARK  0 active torsions:
REMARK  status: ('A' for Active; 'I' for Inactive)
ROOT
ATOM      1  O1  BZF d   1       0.544   0.601  -0.660  0.00  0.00    -0.204 OA
ATOM      2  C2  BZF d   1       0.935   0.131  -1.899  0.00  0.00     0.174 A 
ATOM      3  C3  BZF d   1       0.607  -1.169  -2.043  0.00  0.00    -0.012 A 
ATOM      4  C3A BZF d   1      -0.112  -1.509  -0.854  0.00  0.00    -0.107 A 
ATOM      5  C4  BZF d   1      -0.711  -2.655  -0.415  0.00  0.00     0.055 A 
ATOM      6  C5  BZF d   1      -1.265  -2.678   0.826  0.00  0.00    -0.016 A 
ATOM      7  C6  BZF d   1      -1.233  -1.576   1.655  0.00  0.00     0.022 A 
ATOM      8  C7  BZF d   1      -0.655  -0.415   1.261  0.00  0.00     0.029 A 
ATOM      9  C7A BZF d   1      -0.123  -0.379  -0.005  0.00  0.00     0.058 A 
ENDROOT
TORSDOF 0
ENDMDL
