MODEL 1
REMARK minimizedAffinity 4.03775549
REMARK minimizedRMSD -1
REMARK  0 active torsions:
REMARK  status: ('A' for Active; 'I' for Inactive)
ROOT
ATOM      1  O1  BZF d   1       2.461   3.026   0.542  0.00  0.00    -0.204 OA
ATOM      2  C2  BZF d   1       1.570   3.665   1.383  0.00  0.00     0.174 A 
ATOM      3  C3  BZF d   1       0.331   3.151   1.245  0.00  0.00    -0.012 A 
ATOM      4  C3A BZF d   1       0.473   2.066   0.324  0.00  0.00    -0.107 A 
ATOM      5  C4  BZF d   1      -0.403   1.159  -0.201  0.00  0.00     0.055 A 
ATOM      6  C5  BZF d   1       0.041   0.274  -1.132  0.00  0.00    -0.016 A 
ATOM      7  C6  BZF d   1       1.351   0.272  -1.564  0.00  0.00     0.022 A 
ATOM      8  C7  BZF d   1       2.258   1.149  -1.070  0.00  0.00     0.029 A 
ATOM      9  C7A BZF d   1       1.820   2.023  -0.105  0.00  0.00     0.058 A 
ENDROOT
TORSDOF 0
ENDMDL
