MODEL 1
REMARK minimizedAffinity -5.58283806
REMARK minimizedRMSD -1
REMARK  0 active torsions:
REMARK  status: ('A' for Active; 'I' for Inactive)
ROOT
ATOM      1  O1  BZF d   1       0.715   0.659  -1.200  0.00  0.00    -0.204 OA
ATOM      2  C2  BZF d   1       1.361  -0.269  -1.995  0.00  0.00     0.174 A 
ATOM      3  C3  BZF d   1       1.095  -1.523  -1.579  0.00  0.00    -0.012 A 
ATOM      4  C3A BZF d   1       0.155  -1.374  -0.511  0.00  0.00    -0.107 A 
ATOM      5  C4  BZF d   1      -0.498  -2.262   0.296  0.00  0.00     0.055 A 
ATOM      6  C5  BZF d   1      -1.293  -1.788   1.292  0.00  0.00    -0.016 A 
ATOM      7  C6  BZF d   1      -1.454  -0.436   1.511  0.00  0.00     0.022 A 
ATOM      8  C7  BZF d   1      -0.831   0.483   0.734  0.00  0.00     0.029 A 
ATOM      9  C7A BZF d   1      -0.053   0.008  -0.294  0.00  0.00     0.058 A 
ENDROOT
TORSDOF 0
ENDMDL
