MODEL 1
REMARK minimizedAffinity 0.964887202
REMARK minimizedRMSD -1
REMARK  0 active torsions:
REMARK  status: ('A' for Active; 'I' for Inactive)
ROOT
ATOM      1  O1  BZF d   1      -0.831   0.968  -0.398  0.00  0.00    -0.204 OA
ATOM      2  C2  BZF d   1      -1.675   0.542   0.608  0.00  0.00     0.174 A 
ATOM      3  C3  BZF d   1      -1.524  -0.780   0.832  0.00  0.00    -0.012 A 
ATOM      4  C3A BZF d   1      -0.457  -1.187  -0.029  0.00  0.00    -0.107 A 
ATOM      5  C4  BZF d   1       0.167  -2.382  -0.251  0.00  0.00     0.055 A 
ATOM      6  C5  BZF d   1       1.125  -2.459  -1.212  0.00  0.00    -0.016 A 
ATOM      7  C6  BZF d   1       1.479  -1.364  -1.973  0.00  0.00     0.022 A 
ATOM      8  C7  BZF d   1       0.892  -0.157  -1.786  0.00  0.00     0.029 A 
ATOM      9  C7A BZF d   1      -0.053  -0.068  -0.793  0.00  0.00     0.058 A 
ENDROOT
TORSDOF 0
ENDMDL
