MODEL 1
REMARK minimizedAffinity -2.48276687
REMARK minimizedRMSD -1
REMARK  0 active torsions:
REMARK  status: ('A' for Active; 'I' for Inactive)
ROOT
ATOM      1  O1  BZF d   1      -0.030  -2.892   0.951  0.00  0.00    -0.204 OA
ATOM      2  C2  BZF d   1       1.309  -2.934   0.613  0.00  0.00     0.174 A 
ATOM      3  C3  BZF d   1       1.670  -1.814  -0.047  0.00  0.00    -0.012 A 
ATOM      4  C3A BZF d   1       0.506  -0.983  -0.044  0.00  0.00    -0.107 A 
ATOM      5  C4  BZF d   1       0.241   0.265  -0.532  0.00  0.00     0.055 A 
ATOM      6  C5  BZF d   1      -1.020   0.761  -0.429  0.00  0.00    -0.016 A 
ATOM      7  C6  BZF d   1      -2.040   0.036   0.151  0.00  0.00     0.022 A 
ATOM      8  C7  BZF d   1      -1.825  -1.204   0.654  0.00  0.00     0.029 A 
ATOM      9  C7A BZF d   1      -0.544  -1.695   0.581  0.00  0.00     0.058 A 
ENDROOT
TORSDOF 0
ENDMDL
