MODEL 1
REMARK minimizedAffinity -6.2690134
REMARK minimizedRMSD -1
REMARK  0 active torsions:
REMARK  status: ('A' for Active; 'I' for Inactive)
ROOT
ATOM      1  O1  BZF d   1       0.368  -0.038  -2.183  0.00  0.00    -0.204 OA
ATOM      2  C2  BZF d   1       0.221   0.935  -1.213  0.00  0.00     0.174 A 
ATOM      3  C3  BZF d   1      -0.055   0.380  -0.016  0.00  0.00    -0.012 A 
ATOM      4  C3A BZF d   1       0.010  -1.033  -0.232  0.00  0.00    -0.107 A 
ATOM      5  C4  BZF d   1      -0.155  -2.116   0.583  0.00  0.00     0.055 A 
ATOM      6  C5  BZF d   1      -0.099  -3.363   0.044  0.00  0.00    -0.016 A 
ATOM      7  C6  BZF d   1       0.116  -3.562  -1.304  0.00  0.00     0.022 A 
ATOM      8  C7  BZF d   1       0.291  -2.519  -2.151  0.00  0.00     0.029 A 
ATOM      9  C7A BZF d   1       0.267  -1.259  -1.604  0.00  0.00     0.058 A 
ENDROOT
TORSDOF 0
ENDMDL
