MODEL 1
REMARK minimizedAffinity -0.299723238
REMARK minimizedRMSD -1
REMARK  0 active torsions:
REMARK  status: ('A' for Active; 'I' for Inactive)
ROOT
ATOM      1  O1  BZF d   1      -0.613  -2.934  -1.770  0.00  0.00    -0.204 OA
ATOM      2  C2  BZF d   1      -1.241  -3.613  -0.744  0.00  0.00     0.174 A 
ATOM      3  C3  BZF d   1      -1.316  -2.844   0.362  0.00  0.00    -0.012 A 
ATOM      4  C3A BZF d   1      -0.780  -1.575  -0.024  0.00  0.00    -0.107 A 
ATOM      5  C4  BZF d   1      -0.600  -0.392   0.635  0.00  0.00     0.055 A 
ATOM      6  C5  BZF d   1       0.019   0.633  -0.007  0.00  0.00    -0.016 A 
ATOM      7  C6  BZF d   1       0.475   0.509  -1.303  0.00  0.00     0.022 A 
ATOM      8  C7  BZF d   1       0.315  -0.643  -1.999  0.00  0.00     0.029 A 
ATOM      9  C7A BZF d   1      -0.340  -1.670  -1.364  0.00  0.00     0.058 A 
ENDROOT
TORSDOF 0
ENDMDL
