MODEL 1
REMARK minimizedAffinity 1.58138204
REMARK minimizedRMSD -1
REMARK  0 active torsions:
REMARK  status: ('A' for Active; 'I' for Inactive)
ROOT
ATOM      1  O1  BZF d   1       0.282   3.621   0.816  0.00  0.00    -0.204 OA
ATOM      2  C2  BZF d   1       1.218   3.781   1.819  0.00  0.00     0.174 A 
ATOM      3  C3  BZF d   1       1.566   2.589   2.344  0.00  0.00    -0.012 A 
ATOM      4  C3A BZF d   1       0.868   1.615   1.562  0.00  0.00    -0.107 A 
ATOM      5  C4  BZF d   1       0.818   0.251   1.587  0.00  0.00     0.055 A 
ATOM      6  C5  BZF d   1      -0.019  -0.395   0.733  0.00  0.00    -0.016 A 
ATOM      7  C6  BZF d   1      -0.822   0.291  -0.154  0.00  0.00     0.022 A 
ATOM      8  C7  BZF d   1      -0.804   1.644  -0.219  0.00  0.00     0.029 A 
ATOM      9  C7A BZF d   1       0.065   2.299   0.619  0.00  0.00     0.058 A 
ENDROOT
TORSDOF 0
ENDMDL
