MODEL 1
REMARK minimizedAffinity 8.68719769
REMARK minimizedRMSD -1
REMARK  0 active torsions:
REMARK  status: ('A' for Active; 'I' for Inactive)
ROOT
ATOM      1  O1  BZF d   1      -1.628  -2.900   1.050  0.00  0.00    -0.204 OA
ATOM      2  C2  BZF d   1      -2.987  -3.042   1.255  0.00  0.00     0.174 A 
ATOM      3  C3  BZF d   1      -3.539  -1.870   1.630  0.00  0.00    -0.012 A 
ATOM      4  C3A BZF d   1      -2.474  -0.916   1.571  0.00  0.00    -0.107 A 
ATOM      5  C4  BZF d   1      -2.400   0.425   1.816  0.00  0.00     0.055 A 
ATOM      6  C5  BZF d   1      -1.193   1.045   1.738  0.00  0.00    -0.016 A 
ATOM      7  C6  BZF d   1      -0.041   0.355   1.424  0.00  0.00     0.022 A 
ATOM      8  C7  BZF d   1      -0.065  -0.976   1.168  0.00  0.00     0.029 A 
ATOM      9  C7A BZF d   1      -1.288  -1.599   1.214  0.00  0.00     0.058 A 
ENDROOT
TORSDOF 0
ENDMDL
