MODEL 1
REMARK minimizedAffinity -4.77913523
REMARK minimizedRMSD -1
REMARK  0 active torsions:
REMARK  status: ('A' for Active; 'I' for Inactive)
ROOT
ATOM      1  O1  BZF d   1      -0.327  -0.157   0.472  0.00  0.00    -0.204 OA
ATOM      2  C2  BZF d   1      -0.197   0.613  -0.668  0.00  0.00     0.174 A 
ATOM      3  C3  BZF d   1       0.002  -0.166  -1.751  0.00  0.00    -0.012 A 
ATOM      4  C3A BZF d   1      -0.097  -1.510  -1.271  0.00  0.00    -0.107 A 
ATOM      5  C4  BZF d   1      -0.006  -2.731  -1.876  0.00  0.00     0.055 A 
ATOM      6  C5  BZF d   1      -0.075  -3.853  -1.111  0.00  0.00    -0.016 A 
ATOM      7  C6  BZF d   1      -0.230  -3.790   0.258  0.00  0.00     0.022 A 
ATOM      8  C7  BZF d   1      -0.330  -2.602   0.902  0.00  0.00     0.029 A 
ATOM      9  C7A BZF d   1      -0.293  -1.467   0.128  0.00  0.00     0.058 A 
ENDROOT
TORSDOF 0
ENDMDL
