MODEL 1
REMARK minimizedAffinity 0.413616985
REMARK minimizedRMSD -1
REMARK  0 active torsions:
REMARK  status: ('A' for Active; 'I' for Inactive)
ROOT
ATOM      1  O1  BZF d   1      -1.240  -3.302   1.016  0.00  0.00    -0.204 OA
ATOM      2  C2  BZF d   1      -2.315  -2.448   1.172  0.00  0.00     0.174 A 
ATOM      3  C3  BZF d   1      -2.076  -1.263   0.574  0.00  0.00    -0.012 A 
ATOM      4  C3A BZF d   1      -0.808  -1.416  -0.071  0.00  0.00    -0.107 A 
ATOM      5  C4  BZF d   1      -0.040  -0.590  -0.841  0.00  0.00     0.055 A 
ATOM      6  C5  BZF d   1       1.181  -1.019  -1.255  0.00  0.00    -0.016 A 
ATOM      7  C6  BZF d   1       1.668  -2.264  -0.914  0.00  0.00     0.022 A 
ATOM      8  C7  BZF d   1       0.940  -3.121  -0.157  0.00  0.00     0.029 A 
ATOM      9  C7A BZF d   1      -0.308  -2.703   0.236  0.00  0.00     0.058 A 
ENDROOT
TORSDOF 0
ENDMDL
