MODEL 1
REMARK minimizedAffinity 14.2036228
REMARK minimizedRMSD -1
REMARK  0 active torsions:
REMARK  status: ('A' for Active; 'I' for Inactive)
ROOT
ATOM      1  C   UNL d   1       2.443  -3.440   1.140  0.00  0.00     0.124 A 
ATOM      2  C1  UNL d   1       1.927  -2.159   0.999  0.00  0.00     0.062 A 
ATOM      3  C2  UNL d   1       2.782  -1.064   0.924  0.00  0.00     0.162 A 
ATOM      4  C3  UNL d   1       4.164  -1.245   0.989  0.00  0.00    -0.034 A 
ATOM      5  C4  UNL d   1       4.675  -2.536   1.132  0.00  0.00     0.162 A 
ATOM      6  C5  UNL d   1       3.816  -3.627   1.206  0.00  0.00     0.062 A 
ATOM      7  F   UNL d   1       4.317  -4.864   1.342  0.00  0.00    -0.097 F 
ATOM      8  F1  UNL d   1       5.999  -2.745   1.197  0.00  0.00    -0.096 F 
ATOM      9  I   UNL d   1       5.447   0.390   0.877  0.00  0.00    -0.060 I 
ATOM     10  F2  UNL d   1       2.256   0.162   0.788  0.00  0.00    -0.096 F 
ATOM     11  F3  UNL d   1       0.600  -1.976   0.935  0.00  0.00    -0.097 F 
ATOM     12  F4  UNL d   1       1.617  -4.492   1.212  0.00  0.00    -0.092 F 
ENDROOT
TORSDOF 0
ENDMDL
