MODEL 1
REMARK minimizedAffinity 11.356039
REMARK minimizedRMSD -1
REMARK  0 active torsions:
REMARK  status: ('A' for Active; 'I' for Inactive)
ROOT
ATOM      1  C   UNL d   1      -3.878   0.856   1.329  0.00  0.00     0.124 A 
ATOM      2  C1  UNL d   1      -3.341   0.745   2.603  0.00  0.00     0.062 A 
ATOM      3  C2  UNL d   1      -2.304  -0.150   2.851  0.00  0.00     0.162 A 
ATOM      4  C3  UNL d   1      -1.797  -0.942   1.820  0.00  0.00    -0.034 A 
ATOM      5  C4  UNL d   1      -2.343  -0.825   0.541  0.00  0.00     0.162 A 
ATOM      6  C5  UNL d   1      -3.379   0.071   0.299  0.00  0.00     0.062 A 
ATOM      7  F   UNL d   1      -3.897   0.177  -0.934  0.00  0.00    -0.097 F 
ATOM      8  F1  UNL d   1      -1.879  -1.571  -0.473  0.00  0.00    -0.096 F 
ATOM      9  I   UNL d   1      -0.247  -2.281   2.185  0.00  0.00    -0.060 I 
ATOM     10  F2  UNL d   1      -1.804  -0.237   4.092  0.00  0.00    -0.096 F 
ATOM     11  F3  UNL d   1      -3.822   1.502   3.600  0.00  0.00    -0.097 F 
ATOM     12  F4  UNL d   1      -4.876   1.718   1.094  0.00  0.00    -0.092 F 
ENDROOT
TORSDOF 0
ENDMDL
