MODEL 1
REMARK minimizedAffinity 11.0118132
REMARK minimizedRMSD -1
REMARK  0 active torsions:
REMARK  status: ('A' for Active; 'I' for Inactive)
ROOT
ATOM      1  C   UNL d   1       3.691  -3.304   0.143  0.00  0.00     0.124 A 
ATOM      2  C1  UNL d   1       3.370  -1.994   0.472  0.00  0.00     0.062 A 
ATOM      3  C2  UNL d   1       2.151  -1.703   1.077  0.00  0.00     0.162 A 
ATOM      4  C3  UNL d   1       1.243  -2.725   1.359  0.00  0.00    -0.034 A 
ATOM      5  C4  UNL d   1       1.573  -4.039   1.024  0.00  0.00     0.162 A 
ATOM      6  C5  UNL d   1       2.793  -4.325   0.419  0.00  0.00     0.062 A 
ATOM      7  F   UNL d   1       3.101  -5.591   0.102  0.00  0.00    -0.097 F 
ATOM      8  F1  UNL d   1       0.724  -5.045   1.281  0.00  0.00    -0.096 F 
ATOM      9  I   UNL d   1      -0.581  -2.294   2.264  0.00  0.00    -0.060 I 
ATOM     10  F2  UNL d   1       1.867  -0.429   1.384  0.00  0.00    -0.096 F 
ATOM     11  F3  UNL d   1       4.236  -1.006   0.205  0.00  0.00    -0.097 F 
ATOM     12  F4  UNL d   1       4.864  -3.581  -0.440  0.00  0.00    -0.092 F 
ENDROOT
TORSDOF 0
ENDMDL
