MODEL 1
REMARK minimizedAffinity 18.2371445
REMARK minimizedRMSD -1
REMARK  0 active torsions:
REMARK  status: ('A' for Active; 'I' for Inactive)
ROOT
ATOM      1  C   UNL d   1       3.885  -3.824   0.750  0.00  0.00     0.124 A 
ATOM      2  C1  UNL d   1       2.809  -4.698   0.834  0.00  0.00     0.062 A 
ATOM      3  C2  UNL d   1       1.554  -4.228   1.207  0.00  0.00     0.162 A 
ATOM      4  C3  UNL d   1       1.365  -2.877   1.498  0.00  0.00    -0.034 A 
ATOM      5  C4  UNL d   1       2.452  -2.004   1.412  0.00  0.00     0.162 A 
ATOM      6  C5  UNL d   1       3.705  -2.479   1.038  0.00  0.00     0.062 A 
ATOM      7  F   UNL d   1       4.743  -1.633   0.957  0.00  0.00    -0.097 F 
ATOM      8  F1  UNL d   1       2.306  -0.699   1.684  0.00  0.00    -0.096 F 
ATOM      9  I   UNL d   1      -0.511  -2.170   2.056  0.00  0.00    -0.060 I 
ATOM     10  F2  UNL d   1       0.532  -5.095   1.281  0.00  0.00    -0.096 F 
ATOM     11  F3  UNL d   1       2.981  -5.998   0.557  0.00  0.00    -0.097 F 
ATOM     12  F4  UNL d   1       5.092  -4.279   0.391  0.00  0.00    -0.092 F 
ENDROOT
TORSDOF 0
ENDMDL
