MODEL 1
REMARK minimizedAffinity 6.12986803
REMARK minimizedRMSD -1
REMARK  0 active torsions:
REMARK  status: ('A' for Active; 'I' for Inactive)
ROOT
ATOM      1  C   UNL d   1      -1.000   1.006   3.493  0.00  0.00     0.124 A 
ATOM      2  C1  UNL d   1      -1.892   0.148   2.866  0.00  0.00     0.062 A 
ATOM      3  C2  UNL d   1      -1.483  -1.124   2.475  0.00  0.00     0.162 A 
ATOM      4  C3  UNL d   1      -0.174  -1.546   2.712  0.00  0.00    -0.034 A 
ATOM      5  C4  UNL d   1       0.717  -0.676   3.344  0.00  0.00     0.162 A 
ATOM      6  C5  UNL d   1       0.303   0.594   3.732  0.00  0.00     0.062 A 
ATOM      7  F   UNL d   1       1.166   1.422   4.338  0.00  0.00    -0.097 F 
ATOM      8  F1  UNL d   1       1.982  -1.050   3.587  0.00  0.00    -0.096 F 
ATOM      9  I   UNL d   1       0.442  -3.446   2.130  0.00  0.00    -0.060 I 
ATOM     10  F2  UNL d   1      -2.366  -1.932   1.871  0.00  0.00    -0.096 F 
ATOM     11  F3  UNL d   1      -3.152   0.545   2.633  0.00  0.00    -0.097 F 
ATOM     12  F4  UNL d   1      -1.397   2.230   3.867  0.00  0.00    -0.092 F 
ENDROOT
TORSDOF 0
ENDMDL
