MODEL 1
REMARK minimizedAffinity 20.9178982
REMARK minimizedRMSD -1
REMARK  0 active torsions:
REMARK  status: ('A' for Active; 'I' for Inactive)
ROOT
ATOM      1  C   UNL d   1       2.616  -2.887   1.258  0.00  0.00     0.124 A 
ATOM      2  C1  UNL d   1       2.079  -1.615   1.404  0.00  0.00     0.062 A 
ATOM      3  C2  UNL d   1       2.863  -0.492   1.157  0.00  0.00     0.162 A 
ATOM      4  C3  UNL d   1       4.192  -0.635   0.759  0.00  0.00    -0.034 A 
ATOM      5  C4  UNL d   1       4.725  -1.917   0.615  0.00  0.00     0.162 A 
ATOM      6  C5  UNL d   1       3.938  -3.036   0.863  0.00  0.00     0.062 A 
ATOM      7  F   UNL d   1       4.458  -4.264   0.721  0.00  0.00    -0.097 F 
ATOM      8  F1  UNL d   1       6.000  -2.090   0.234  0.00  0.00    -0.096 F 
ATOM      9  I   UNL d   1       5.367   1.043   0.388  0.00  0.00    -0.060 I 
ATOM     10  F2  UNL d   1       2.318   0.725   1.306  0.00  0.00    -0.096 F 
ATOM     11  F3  UNL d   1       0.802  -1.468   1.786  0.00  0.00    -0.097 F 
ATOM     12  F4  UNL d   1       1.860  -3.966   1.497  0.00  0.00    -0.092 F 
ENDROOT
TORSDOF 0
ENDMDL
