MODEL 1
REMARK minimizedAffinity 9.21836567
REMARK minimizedRMSD -1
REMARK  0 active torsions:
REMARK  status: ('A' for Active; 'I' for Inactive)
ROOT
ATOM      1  C2' OXE d   1      -2.583  -6.000  -1.502  0.00  0.00     0.078 C 
ATOM      2  C1' OXE d   1      -0.752  -6.000  -3.630  0.00  0.00     0.078 C 
ATOM      3  C1  OXE d   1      -0.244  -5.608  -2.265  0.00  0.00    -0.078 A 
ATOM      4  C2  OXE d   1      -1.157  -5.566  -1.239  0.00  0.00    -0.078 A 
ATOM      5  C3  OXE d   1      -0.731  -5.264   0.052  0.00  0.00     0.003 A 
ATOM      6  C4  OXE d   1       0.587  -4.854   0.285  0.00  0.00    -0.002 A 
ATOM      7  C5  OXE d   1       1.524  -4.851  -0.754  0.00  0.00    -0.002 A 
ATOM      8  C6  OXE d   1       1.136  -5.266  -2.023  0.00  0.00     0.003 A 
ENDROOT
TORSDOF 0
ENDMDL
