MODEL 1
REMARK minimizedAffinity 6.37182331
REMARK minimizedRMSD -1
REMARK  0 active torsions:
REMARK  status: ('A' for Active; 'I' for Inactive)
ROOT
ATOM      1  C2' OXE d   1       5.998   4.527   4.949  0.00  0.00     0.078 C 
ATOM      2  C1' OXE d   1       5.999   2.137   3.478  0.00  0.00     0.078 C 
ATOM      3  C1  OXE d   1       5.734   3.421   2.732  0.00  0.00    -0.078 A 
ATOM      4  C2  OXE d   1       5.689   4.581   3.468  0.00  0.00    -0.078 A 
ATOM      5  C3  OXE d   1       5.503   5.800   2.822  0.00  0.00     0.003 A 
ATOM      6  C4  OXE d   1       5.208   5.839   1.454  0.00  0.00    -0.002 A 
ATOM      7  C5  OXE d   1       5.209   4.665   0.693  0.00  0.00    -0.002 A 
ATOM      8  C6  OXE d   1       5.512   3.455   1.308  0.00  0.00     0.003 A 
ENDROOT
TORSDOF 0
ENDMDL
