MODEL 1
REMARK minimizedAffinity 12.3030233
REMARK minimizedRMSD -1
REMARK  0 active torsions:
REMARK  status: ('A' for Active; 'I' for Inactive)
ROOT
ATOM      1  C2' OXE d   1       2.613   1.127  -3.354  0.00  0.00     0.078 C 
ATOM      2  C1' OXE d   1       2.962   2.973  -5.439  0.00  0.00     0.078 C 
ATOM      3  C1  OXE d   1       1.576   2.425  -5.209  0.00  0.00    -0.078 A 
ATOM      4  C2  OXE d   1       1.423   1.487  -4.216  0.00  0.00    -0.078 A 
ATOM      5  C3  OXE d   1       0.155   0.991  -3.926  0.00  0.00     0.003 A 
ATOM      6  C4  OXE d   1      -0.938   1.322  -4.735  0.00  0.00    -0.002 A 
ATOM      7  C5  OXE d   1      -0.797   2.246  -5.776  0.00  0.00    -0.002 A 
ATOM      8  C6  OXE d   1       0.442   2.837  -5.999  0.00  0.00     0.003 A 
ENDROOT
TORSDOF 0
ENDMDL
