MODEL 1
REMARK minimizedAffinity 7.17664862
REMARK minimizedRMSD -1
REMARK  0 active torsions:
REMARK  status: ('A' for Active; 'I' for Inactive)
ROOT
ATOM      1  C2' OXE d   1       3.835   4.876   2.235  0.00  0.00     0.078 C 
ATOM      2  C1' OXE d   1       5.347   2.625   2.959  0.00  0.00     0.078 C 
ATOM      3  C1  OXE d   1       5.310   3.786   3.920  0.00  0.00    -0.078 A 
ATOM      4  C2  OXE d   1       4.606   4.902   3.537  0.00  0.00    -0.078 A 
ATOM      5  C3  OXE d   1       4.494   5.980   4.411  0.00  0.00     0.003 A 
ATOM      6  C4  OXE d   1       5.219   6.000   5.609  0.00  0.00    -0.002 A 
ATOM      7  C5  OXE d   1       5.975   4.890   6.000  0.00  0.00    -0.002 A 
ATOM      8  C6  OXE d   1       5.996   3.760   5.188  0.00  0.00     0.003 A 
ENDROOT
TORSDOF 0
ENDMDL
