MODEL 1
REMARK minimizedAffinity -0.491170704
REMARK minimizedRMSD -1
REMARK  0 active torsions:
REMARK  status: ('A' for Active; 'I' for Inactive)
ROOT
ATOM      1  C2' OXE d   1       3.734   5.994   1.606  0.00  0.00     0.078 C 
ATOM      2  C1' OXE d   1       2.055   5.558   3.813  0.00  0.00     0.078 C 
ATOM      3  C1  OXE d   1       2.414   4.369   2.957  0.00  0.00    -0.078 A 
ATOM      4  C2  OXE d   1       3.199   4.600   1.852  0.00  0.00    -0.078 A 
ATOM      5  C3  OXE d   1       3.605   3.530   1.060  0.00  0.00     0.003 A 
ATOM      6  C4  OXE d   1       3.097   2.246   1.288  0.00  0.00    -0.002 A 
ATOM      7  C5  OXE d   1       2.265   1.996   2.385  0.00  0.00    -0.002 A 
ATOM      8  C6  OXE d   1       1.949   3.037   3.251  0.00  0.00     0.003 A 
ENDROOT
TORSDOF 0
ENDMDL
