MODEL 1
REMARK minimizedAffinity 14.7340593
REMARK minimizedRMSD -1
REMARK  0 active torsions:
REMARK  status: ('A' for Active; 'I' for Inactive)
ROOT
ATOM      1  C2' OXE d   1       4.955   5.064   2.587  0.00  0.00     0.078 C 
ATOM      2  C1' OXE d   1       5.775   2.389   2.365  0.00  0.00     0.078 C 
ATOM      3  C1  OXE d   1       4.302   2.687   2.231  0.00  0.00    -0.078 A 
ATOM      4  C2  OXE d   1       3.905   3.993   2.388  0.00  0.00    -0.078 A 
ATOM      5  C3  OXE d   1       2.565   4.331   2.220  0.00  0.00     0.003 A 
ATOM      6  C4  OXE d   1       1.599   3.332   2.045  0.00  0.00    -0.002 A 
ATOM      7  C5  OXE d   1       1.978   1.991   1.922  0.00  0.00    -0.002 A 
ATOM      8  C6  OXE d   1       3.327   1.657   1.970  0.00  0.00     0.003 A 
ENDROOT
TORSDOF 0
ENDMDL
