MODEL 1
REMARK minimizedAffinity 15.819026
REMARK minimizedRMSD -1
REMARK  0 active torsions:
REMARK  status: ('A' for Active; 'I' for Inactive)
ROOT
ATOM      1  C2' OXE d   1       2.874   2.357   1.572  0.00  0.00     0.078 C 
ATOM      2  C1' OXE d   1       5.437   2.308   2.716  0.00  0.00     0.078 C 
ATOM      3  C1  OXE d   1       4.947   3.614   2.142  0.00  0.00    -0.078 A 
ATOM      4  C2  OXE d   1       3.711   3.617   1.543  0.00  0.00    -0.078 A 
ATOM      5  C3  OXE d   1       3.189   4.808   1.046  0.00  0.00     0.003 A 
ATOM      6  C4  OXE d   1       3.974   5.967   1.014  0.00  0.00    -0.002 A 
ATOM      7  C5  OXE d   1       5.251   5.976   1.584  0.00  0.00    -0.002 A 
ATOM      8  C6  OXE d   1       5.735   4.821   2.189  0.00  0.00     0.003 A 
ENDROOT
TORSDOF 0
ENDMDL
