MODEL 1
REMARK minimizedAffinity 3.9369297
REMARK minimizedRMSD -1
REMARK  0 active torsions:
REMARK  status: ('A' for Active; 'I' for Inactive)
ROOT
ATOM      1  C2' OXE d   1      -2.550   5.570  -5.992  0.00  0.00     0.078 C 
ATOM      2  C1' OXE d   1      -1.785   2.870  -5.967  0.00  0.00     0.078 C 
ATOM      3  C1  OXE d   1      -3.261   3.183  -5.974  0.00  0.00    -0.078 A 
ATOM      4  C2  OXE d   1      -3.626   4.507  -5.939  0.00  0.00    -0.078 A 
ATOM      5  C3  OXE d   1      -4.973   4.852  -5.999  0.00  0.00     0.003 A 
ATOM      6  C4  OXE d   1      -5.962   3.863  -5.940  0.00  0.00    -0.002 A 
ATOM      7  C5  OXE d   1      -5.611   2.508  -5.935  0.00  0.00    -0.002 A 
ATOM      8  C6  OXE d   1      -4.269   2.152  -5.995  0.00  0.00     0.003 A 
ENDROOT
TORSDOF 0
ENDMDL
