MODEL 1
REMARK minimizedAffinity 2.25946426
REMARK minimizedRMSD -1
REMARK  0 active torsions:
REMARK  status: ('A' for Active; 'I' for Inactive)
ROOT
ATOM      1  C2' OXE d   1      -5.996   2.345  -5.993  0.00  0.00     0.078 C 
ATOM      2  C1' OXE d   1      -5.169   5.027  -5.957  0.00  0.00     0.078 C 
ATOM      3  C1  OXE d   1      -4.101   3.962  -5.964  0.00  0.00    -0.078 A 
ATOM      4  C2  OXE d   1      -4.515   2.652  -5.935  0.00  0.00    -0.078 A 
ATOM      5  C3  OXE d   1      -3.572   1.630  -5.995  0.00  0.00     0.003 A 
ATOM      6  C4  OXE d   1      -2.204   1.922  -5.931  0.00  0.00    -0.002 A 
ATOM      7  C5  OXE d   1      -1.762   3.249  -5.920  0.00  0.00    -0.002 A 
ATOM      8  C6  OXE d   1      -2.694   4.279  -5.979  0.00  0.00     0.003 A 
ENDROOT
TORSDOF 0
ENDMDL
