MODEL 1
REMARK minimizedAffinity 0.47253108
REMARK minimizedRMSD -1
REMARK  0 active torsions:
REMARK  status: ('A' for Active; 'I' for Inactive)
ROOT
ATOM      1  C2' OXE d   1       3.028   3.040   0.151  0.00  0.00     0.078 C 
ATOM      2  C1' OXE d   1       3.735   5.732  -0.214  0.00  0.00     0.078 C 
ATOM      3  C1  OXE d   1       3.726   5.192   1.194  0.00  0.00    -0.078 A 
ATOM      4  C2  OXE d   1       3.334   3.887   1.368  0.00  0.00    -0.078 A 
ATOM      5  C3  OXE d   1       3.361   3.322   2.640  0.00  0.00     0.003 A 
ATOM      6  C4  OXE d   1       3.636   4.115   3.762  0.00  0.00    -0.002 A 
ATOM      7  C5  OXE d   1       3.999   5.457   3.610  0.00  0.00    -0.002 A 
ATOM      8  C6  OXE d   1       4.090   5.999   2.333  0.00  0.00     0.003 A 
ENDROOT
TORSDOF 0
ENDMDL
