MODEL 1
REMARK minimizedAffinity 14.3351297
REMARK minimizedRMSD -1
REMARK  0 active torsions:
REMARK  status: ('A' for Active; 'I' for Inactive)
ROOT
ATOM      1  C2' OXE d   1       4.590   2.985   3.474  0.00  0.00     0.078 C 
ATOM      2  C1' OXE d   1       1.873   2.499   2.963  0.00  0.00     0.078 C 
ATOM      3  C1  OXE d   1       2.666   3.232   1.910  0.00  0.00    -0.078 A 
ATOM      4  C2  OXE d   1       3.983   3.507   2.189  0.00  0.00    -0.078 A 
ATOM      5  C3  OXE d   1       4.775   4.132   1.230  0.00  0.00     0.003 A 
ATOM      6  C4  OXE d   1       4.204   4.620   0.048  0.00  0.00    -0.002 A 
ATOM      7  C5  OXE d   1       2.855   4.386  -0.238  0.00  0.00    -0.002 A 
ATOM      8  C6  OXE d   1       2.084   3.658   0.661  0.00  0.00     0.003 A 
ENDROOT
TORSDOF 0
ENDMDL
