MODEL 1
REMARK minimizedAffinity 3.78078485
REMARK minimizedRMSD -1
REMARK  0 active torsions:
REMARK  status: ('A' for Active; 'I' for Inactive)
ROOT
ATOM      1  C2' OXE d   1      -2.283   0.811   1.267  0.00  0.00     0.078 C 
ATOM      2  C1' OXE d   1       0.229   1.971   0.792  0.00  0.00     0.078 C 
ATOM      3  C1  OXE d   1       0.164   0.472   0.947  0.00  0.00    -0.078 A 
ATOM      4  C2  OXE d   1      -1.062  -0.082   1.226  0.00  0.00    -0.078 A 
ATOM      5  C3  OXE d   1      -1.187  -1.465   1.324  0.00  0.00     0.003 A 
ATOM      6  C4  OXE d   1      -0.051  -2.284   1.295  0.00  0.00    -0.002 A 
ATOM      7  C5  OXE d   1       1.212  -1.735   1.051  0.00  0.00    -0.002 A 
ATOM      8  C6  OXE d   1       1.331  -0.367   0.833  0.00  0.00     0.003 A 
ENDROOT
TORSDOF 0
ENDMDL
