MODEL 1
REMARK minimizedAffinity -3.27915096
REMARK minimizedRMSD -1
REMARK  0 active torsions:
REMARK  status: ('A' for Active; 'I' for Inactive)
ROOT
ATOM      1  C2' OXE d   1      -0.523   1.880  -5.629  0.00  0.00     0.078 C 
ATOM      2  C1' OXE d   1      -0.155   4.638  -5.998  0.00  0.00     0.078 C 
ATOM      3  C1  OXE d   1      -1.570   4.122  -5.918  0.00  0.00    -0.078 A 
ATOM      4  C2  OXE d   1      -1.741   2.765  -5.785  0.00  0.00    -0.078 A 
ATOM      5  C3  OXE d   1      -3.024   2.242  -5.652  0.00  0.00     0.003 A 
ATOM      6  C4  OXE d   1      -4.145   3.066  -5.806  0.00  0.00    -0.002 A 
ATOM      7  C5  OXE d   1      -3.993   4.445  -5.983  0.00  0.00    -0.002 A 
ATOM      8  C6  OXE d   1      -2.715   4.994  -5.998  0.00  0.00     0.003 A 
ENDROOT
TORSDOF 0
ENDMDL
