MODEL 1
REMARK minimizedAffinity -0.824132264
REMARK minimizedRMSD -1
REMARK  0 active torsions:
REMARK  status: ('A' for Active; 'I' for Inactive)
ROOT
ATOM      1  C2' OXE d   1      -0.337   3.940  -1.164  0.00  0.00     0.078 C 
ATOM      2  C1' OXE d   1      -1.104   1.731   0.389  0.00  0.00     0.078 C 
ATOM      3  C1  OXE d   1       0.339   1.822  -0.041  0.00  0.00    -0.078 A 
ATOM      4  C2  OXE d   1       0.695   2.882  -0.839  0.00  0.00    -0.078 A 
ATOM      5  C3  OXE d   1       2.025   3.044  -1.218  0.00  0.00     0.003 A 
ATOM      6  C4  OXE d   1       2.972   2.055  -0.922  0.00  0.00    -0.002 A 
ATOM      7  C5  OXE d   1       2.621   0.948  -0.143  0.00  0.00    -0.002 A 
ATOM      8  C6  OXE d   1       1.322   0.838   0.340  0.00  0.00     0.003 A 
ENDROOT
TORSDOF 0
ENDMDL
