MODEL 1
REMARK minimizedAffinity -1.30487156
REMARK minimizedRMSD -1
REMARK  0 active torsions:
REMARK  status: ('A' for Active; 'I' for Inactive)
ROOT
ATOM      1  C2' OXE d   1      -3.871   5.541  -6.000  0.00  0.00     0.078 C 
ATOM      2  C1' OXE d   1      -3.722   2.746  -5.782  0.00  0.00     0.078 C 
ATOM      3  C1  OXE d   1      -2.427   3.518  -5.839  0.00  0.00    -0.078 A 
ATOM      4  C2  OXE d   1      -2.509   4.881  -5.993  0.00  0.00    -0.078 A 
ATOM      5  C3  OXE d   1      -1.346   5.646  -5.996  0.00  0.00     0.003 A 
ATOM      6  C4  OXE d   1      -0.091   5.026  -6.000  0.00  0.00    -0.002 A 
ATOM      7  C5  OXE d   1       0.016   3.636  -5.884  0.00  0.00    -0.002 A 
ATOM      8  C6  OXE d   1      -1.140   2.872  -5.760  0.00  0.00     0.003 A 
ENDROOT
TORSDOF 0
ENDMDL
