MODEL 1
REMARK minimizedAffinity 1.10802662
REMARK minimizedRMSD -1
REMARK  0 active torsions:
REMARK  status: ('A' for Active; 'I' for Inactive)
ROOT
ATOM      1  C2' OXE d   1      -3.425   2.708  -5.992  0.00  0.00     0.078 C 
ATOM      2  C1' OXE d   1      -3.752   5.496  -5.999  0.00  0.00     0.078 C 
ATOM      3  C1  OXE d   1      -2.345   4.953  -5.984  0.00  0.00    -0.078 A 
ATOM      4  C2  OXE d   1      -2.195   3.588  -5.933  0.00  0.00    -0.078 A 
ATOM      5  C3  OXE d   1      -0.919   3.033  -5.973  0.00  0.00     0.003 A 
ATOM      6  C4  OXE d   1       0.213   3.853  -5.908  0.00  0.00    -0.002 A 
ATOM      7  C5  OXE d   1       0.082   5.246  -5.919  0.00  0.00    -0.002 A 
ATOM      8  C6  OXE d   1      -1.186   5.811  -6.000  0.00  0.00     0.003 A 
ENDROOT
TORSDOF 0
ENDMDL
