MODEL 1
REMARK minimizedAffinity 4.92563677
REMARK minimizedRMSD -1
REMARK  0 active torsions:
REMARK  status: ('A' for Active; 'I' for Inactive)
ROOT
ATOM      1  C2' OXE d   1      -3.006   5.092  -6.000  0.00  0.00     0.078 C 
ATOM      2  C1' OXE d   1      -3.007   2.292  -5.805  0.00  0.00     0.078 C 
ATOM      3  C1  OXE d   1      -1.672   2.993  -5.853  0.00  0.00    -0.078 A 
ATOM      4  C2  OXE d   1      -1.681   4.360  -5.995  0.00  0.00    -0.078 A 
ATOM      5  C3  OXE d   1      -0.479   5.061  -5.989  0.00  0.00     0.003 A 
ATOM      6  C4  OXE d   1       0.742   4.375  -5.995  0.00  0.00    -0.002 A 
ATOM      7  C5  OXE d   1       0.773   2.981  -5.890  0.00  0.00    -0.002 A 
ATOM      8  C6  OXE d   1      -0.422   2.279  -5.776  0.00  0.00     0.003 A 
ENDROOT
TORSDOF 0
ENDMDL
