MODEL 1
REMARK minimizedAffinity 5.26257467
REMARK minimizedRMSD -1
REMARK  0 active torsions:
REMARK  status: ('A' for Active; 'I' for Inactive)
ROOT
ATOM      1  C2' OXE d   1       0.973   5.326  -5.880  0.00  0.00     0.078 C 
ATOM      2  C1' OXE d   1       1.832   2.654  -5.855  0.00  0.00     0.078 C 
ATOM      3  C1  OXE d   1       0.349   2.915  -5.922  0.00  0.00    -0.078 A 
ATOM      4  C2  OXE d   1      -0.065   4.225  -5.886  0.00  0.00    -0.078 A 
ATOM      5  C3  OXE d   1      -1.420   4.524  -6.000  0.00  0.00     0.003 A 
ATOM      6  C4  OXE d   1      -2.374   3.499  -5.996  0.00  0.00    -0.002 A 
ATOM      7  C5  OXE d   1      -1.976   2.158  -5.992  0.00  0.00    -0.002 A 
ATOM      8  C6  OXE d   1      -0.620   1.850  -5.999  0.00  0.00     0.003 A 
ENDROOT
TORSDOF 0
ENDMDL
