MODEL 1
REMARK minimizedAffinity -2.50423884
REMARK minimizedRMSD -1
REMARK  0 active torsions:
REMARK  status: ('A' for Active; 'I' for Inactive)
ROOT
ATOM      1  C2' OXE d   1      -0.430   5.389  -6.000  0.00  0.00     0.078 C 
ATOM      2  C1' OXE d   1       0.370   2.710  -5.752  0.00  0.00     0.078 C 
ATOM      3  C1  OXE d   1      -1.109   2.999  -5.812  0.00  0.00    -0.078 A 
ATOM      4  C2  OXE d   1      -1.492   4.317  -5.886  0.00  0.00    -0.078 A 
ATOM      5  C3  OXE d   1      -2.843   4.636  -5.999  0.00  0.00     0.003 A 
ATOM      6  C4  OXE d   1      -3.819   3.639  -5.883  0.00  0.00    -0.002 A 
ATOM      7  C5  OXE d   1      -3.450   2.294  -5.767  0.00  0.00    -0.002 A 
ATOM      8  C6  OXE d   1      -2.102   1.955  -5.773  0.00  0.00     0.003 A 
ENDROOT
TORSDOF 0
ENDMDL
