MODEL 1
REMARK minimizedAffinity -1.84642184
REMARK minimizedRMSD -1
REMARK  2 active torsions:
REMARK  status: ('A' for Active; 'I' for Inactive)
REMARK    1  A    between atoms: C1_2  and  C2_3 
REMARK    2  A    between atoms: C2_3  and  C3_4 
ROOT
ATOM      1  C3  UNL d   1       5.978   1.526   4.852  0.00  0.00    -0.075 A 
ATOM      2  C4  UNL d   1       5.969   1.445   3.452  0.00  0.00     0.002 A 
ATOM      3  C5  UNL d   1       5.985   2.603   2.675  0.00  0.00     0.002 A 
ATOM      4  C6  UNL d   1       6.000   3.855   3.286  0.00  0.00    -0.004 A 
ATOM      5  C7  UNL d   1       5.992   3.948   4.676  0.00  0.00     0.002 A 
ATOM      6  C8  UNL d   1       5.981   2.790   5.456  0.00  0.00     0.002 A 
ENDROOT
BRANCH   1   7
ATOM      7  C2  UNL d   1       5.990   0.275   5.698  0.00  0.00     0.056 C 
BRANCH   7   8
ATOM      8  C1  UNL d   1       5.626  -1.001   4.931  0.00  0.00     0.007 C 
ATOM      9  C   UNL d   1       5.999  -2.276   5.675  0.00  0.00     0.009 C 
ENDBRANCH   7   8
ENDBRANCH   1   7
TORSDOF 2
ENDMDL
