MODEL 1
REMARK minimizedAffinity -0.662672222
REMARK minimizedRMSD -1
REMARK  2 active torsions:
REMARK  status: ('A' for Active; 'I' for Inactive)
REMARK    1  A    between atoms: C1_2  and  C2_3 
REMARK    2  A    between atoms: C2_3  and  C3_4 
ROOT
ATOM      1  C3  UNL d   1       5.978   1.623   3.959  0.00  0.00    -0.075 A 
ATOM      2  C4  UNL d   1       5.936   0.466   3.167  0.00  0.00     0.002 A 
ATOM      3  C5  UNL d   1       5.889  -0.796   3.760  0.00  0.00     0.002 A 
ATOM      4  C6  UNL d   1       5.894  -0.918   5.148  0.00  0.00    -0.004 A 
ATOM      5  C7  UNL d   1       5.952   0.224   5.944  0.00  0.00     0.002 A 
ATOM      6  C8  UNL d   1       5.995   1.488   5.353  0.00  0.00     0.002 A 
ENDROOT
BRANCH   1   7
ATOM      7  C2  UNL d   1       6.000   2.993   3.324  0.00  0.00     0.056 C 
BRANCH   7   8
ATOM      8  C1  UNL d   1       5.944   4.148   4.330  0.00  0.00     0.007 C 
ATOM      9  C   UNL d   1       6.000   5.520   3.672  0.00  0.00     0.009 C 
ENDBRANCH   7   8
ENDBRANCH   1   7
TORSDOF 2
ENDMDL
