MODEL 1
REMARK minimizedAffinity -3.77013159
REMARK minimizedRMSD -1
REMARK  2 active torsions:
REMARK  status: ('A' for Active; 'I' for Inactive)
REMARK    1  A    between atoms: C1_2  and  C2_3 
REMARK    2  A    between atoms: C2_3  and  C3_4 
ROOT
ATOM      1  C3  UNL d   1       5.644   0.926   4.544  0.00  0.00    -0.075 A 
ATOM      2  C4  UNL d   1       5.999   0.876   3.188  0.00  0.00     0.002 A 
ATOM      3  C5  UNL d   1       5.979  -0.335   2.495  0.00  0.00     0.002 A 
ATOM      4  C6  UNL d   1       5.614  -1.510   3.149  0.00  0.00    -0.004 A 
ATOM      5  C7  UNL d   1       5.275  -1.474   4.500  0.00  0.00     0.002 A 
ATOM      6  C8  UNL d   1       5.291  -0.263   5.195  0.00  0.00     0.002 A 
ENDROOT
BRANCH   1   7
ATOM      7  C2  UNL d   1       5.636   2.238   5.291  0.00  0.00     0.056 C 
BRANCH   7   8
ATOM      8  C1  UNL d   1       5.089   3.416   4.479  0.00  0.00     0.007 C 
ATOM      9  C   UNL d   1       5.996   4.639   4.508  0.00  0.00     0.009 C 
ENDBRANCH   7   8
ENDBRANCH   1   7
TORSDOF 2
ENDMDL
