MODEL 1
REMARK minimizedAffinity -2.69392896
REMARK minimizedRMSD -1
REMARK  2 active torsions:
REMARK  status: ('A' for Active; 'I' for Inactive)
REMARK    1  A    between atoms: C1_2  and  C2_3 
REMARK    2  A    between atoms: C2_3  and  C3_4 
ROOT
ATOM      1  C3  UNL d   1       5.841   1.135   4.589  0.00  0.00    -0.075 A 
ATOM      2  C4  UNL d   1       5.860   2.514   4.842  0.00  0.00     0.002 A 
ATOM      3  C5  UNL d   1       5.934   3.427   3.790  0.00  0.00     0.002 A 
ATOM      4  C6  UNL d   1       6.000   2.973   2.474  0.00  0.00    -0.004 A 
ATOM      5  C7  UNL d   1       5.998   1.605   2.211  0.00  0.00     0.002 A 
ATOM      6  C8  UNL d   1       5.920   0.690   3.262  0.00  0.00     0.002 A 
ENDROOT
BRANCH   1   7
ATOM      7  C2  UNL d   1       5.732   0.142   5.721  0.00  0.00     0.056 C 
BRANCH   7   8
ATOM      8  C1  UNL d   1       5.257  -1.249   5.288  0.00  0.00     0.007 C 
ATOM      9  C   UNL d   1       5.991  -2.381   5.995  0.00  0.00     0.009 C 
ENDBRANCH   7   8
ENDBRANCH   1   7
TORSDOF 2
ENDMDL
