MODEL 1
REMARK minimizedAffinity -1.15719438
REMARK minimizedRMSD -1
REMARK  2 active torsions:
REMARK  status: ('A' for Active; 'I' for Inactive)
REMARK    1  A    between atoms: C1_2  and  C2_3 
REMARK    2  A    between atoms: C2_3  and  C3_4 
ROOT
ATOM      1  C3  UNL d   1       5.954   1.164   3.846  0.00  0.00    -0.075 A 
ATOM      2  C4  UNL d   1       6.000  -0.093   3.225  0.00  0.00     0.002 A 
ATOM      3  C5  UNL d   1       5.929  -1.261   3.984  0.00  0.00     0.002 A 
ATOM      4  C6  UNL d   1       5.822  -1.189   5.371  0.00  0.00    -0.004 A 
ATOM      5  C7  UNL d   1       5.792   0.054   6.000  0.00  0.00     0.002 A 
ATOM      6  C8  UNL d   1       5.858   1.225   5.243  0.00  0.00     0.002 A 
ENDROOT
BRANCH   1   7
ATOM      7  C2  UNL d   1       6.000   2.432   3.028  0.00  0.00     0.056 C 
BRANCH   7   8
ATOM      8  C1  UNL d   1       5.313   3.629   3.694  0.00  0.00     0.007 C 
ATOM      9  C   UNL d   1       6.000   4.956   3.398  0.00  0.00     0.009 C 
ENDBRANCH   7   8
ENDBRANCH   1   7
TORSDOF 2
ENDMDL
