MODEL 1
REMARK minimizedAffinity -3.53600907
REMARK minimizedRMSD -1
REMARK  2 active torsions:
REMARK  status: ('A' for Active; 'I' for Inactive)
REMARK    1  A    between atoms: C1_2  and  C2_3 
REMARK    2  A    between atoms: C2_3  and  C3_4 
ROOT
ATOM      1  C3  UNL d   1       5.773   1.210   4.828  0.00  0.00    -0.075 A 
ATOM      2  C4  UNL d   1       5.543   0.865   3.489  0.00  0.00     0.002 A 
ATOM      3  C5  UNL d   1       5.331  -0.466   3.126  0.00  0.00     0.002 A 
ATOM      4  C6  UNL d   1       5.357  -1.467   4.095  0.00  0.00    -0.004 A 
ATOM      5  C7  UNL d   1       5.601  -1.137   5.426  0.00  0.00     0.002 A 
ATOM      6  C8  UNL d   1       5.809   0.194   5.792  0.00  0.00     0.002 A 
ENDROOT
BRANCH   1   7
ATOM      7  C2  UNL d   1       5.974   2.652   5.231  0.00  0.00     0.056 C 
BRANCH   7   8
ATOM      8  C1  UNL d   1       5.989   3.632   4.053  0.00  0.00     0.007 C 
ATOM      9  C   UNL d   1       5.993   5.092   4.487  0.00  0.00     0.009 C 
ENDBRANCH   7   8
ENDBRANCH   1   7
TORSDOF 2
ENDMDL
