MODEL 1
REMARK minimizedAffinity -2.31541109
REMARK minimizedRMSD -1
REMARK  2 active torsions:
REMARK  status: ('A' for Active; 'I' for Inactive)
REMARK    1  A    between atoms: C1_2  and  C2_3 
REMARK    2  A    between atoms: C2_3  and  C3_4 
ROOT
ATOM      1  C3  UNL d   1       5.999   1.903   3.952  0.00  0.00    -0.075 A 
ATOM      2  C4  UNL d   1       6.000   0.722   3.196  0.00  0.00     0.002 A 
ATOM      3  C5  UNL d   1       5.977  -0.523   3.827  0.00  0.00     0.002 A 
ATOM      4  C6  UNL d   1       5.964  -0.602   5.217  0.00  0.00    -0.004 A 
ATOM      5  C7  UNL d   1       5.979   0.564   5.979  0.00  0.00     0.002 A 
ATOM      6  C8  UNL d   1       5.997   1.811   5.351  0.00  0.00     0.002 A 
ENDROOT
BRANCH   1   7
ATOM      7  C2  UNL d   1       5.993   3.253   3.276  0.00  0.00     0.056 C 
BRANCH   7   8
ATOM      8  C1  UNL d   1       5.756   4.428   4.231  0.00  0.00     0.007 C 
ATOM      9  C   UNL d   1       5.999   5.785   3.584  0.00  0.00     0.009 C 
ENDBRANCH   7   8
ENDBRANCH   1   7
TORSDOF 2
ENDMDL
