MODEL 1
REMARK minimizedAffinity -1.99005961
REMARK minimizedRMSD -1
REMARK  2 active torsions:
REMARK  status: ('A' for Active; 'I' for Inactive)
REMARK    1  A    between atoms: C1_2  and  C2_3 
REMARK    2  A    between atoms: C2_3  and  C3_4 
ROOT
ATOM      1  C3  UNL d   1       5.990   1.236   4.350  0.00  0.00    -0.075 A 
ATOM      2  C4  UNL d   1       5.979   2.481   4.994  0.00  0.00     0.002 A 
ATOM      3  C5  UNL d   1       5.955   3.662   4.252  0.00  0.00     0.002 A 
ATOM      4  C6  UNL d   1       5.953   3.614   2.860  0.00  0.00    -0.004 A 
ATOM      5  C7  UNL d   1       5.980   2.383   2.209  0.00  0.00     0.002 A 
ATOM      6  C8  UNL d   1       5.999   1.199   2.949  0.00  0.00     0.002 A 
ENDROOT
BRANCH   1   7
ATOM      7  C2  UNL d   1       5.985  -0.047   5.147  0.00  0.00     0.056 C 
BRANCH   7   8
ATOM      8  C1  UNL d   1       5.353  -1.235   4.414  0.00  0.00     0.007 C 
ATOM      9  C   UNL d   1       5.996  -2.569   4.767  0.00  0.00     0.009 C 
ENDBRANCH   7   8
ENDBRANCH   1   7
TORSDOF 2
ENDMDL
