MODEL 1
REMARK minimizedAffinity -3.38066459
REMARK minimizedRMSD -1
REMARK  2 active torsions:
REMARK  status: ('A' for Active; 'I' for Inactive)
REMARK    1  A    between atoms: C1_2  and  C2_3 
REMARK    2  A    between atoms: C2_3  and  C3_4 
ROOT
ATOM      1  C3  UNL d   1       5.268   0.574   4.272  0.00  0.00    -0.075 A 
ATOM      2  C4  UNL d   1       5.732   0.867   2.981  0.00  0.00     0.002 A 
ATOM      3  C5  UNL d   1       5.995   2.184   2.605  0.00  0.00     0.002 A 
ATOM      4  C6  UNL d   1       5.789   3.225   3.508  0.00  0.00    -0.004 A 
ATOM      5  C7  UNL d   1       5.313   2.947   4.787  0.00  0.00     0.002 A 
ATOM      6  C8  UNL d   1       5.053   1.630   5.169  0.00  0.00     0.002 A 
ENDROOT
BRANCH   1   7
ATOM      7  C2  UNL d   1       5.010  -0.852   4.696  0.00  0.00     0.056 C 
BRANCH   7   8
ATOM      8  C1  UNL d   1       5.825  -1.298   5.914  0.00  0.00     0.007 C 
ATOM      9  C   UNL d   1       5.997  -2.809   6.000  0.00  0.00     0.009 C 
ENDBRANCH   7   8
ENDBRANCH   1   7
TORSDOF 2
ENDMDL
