MODEL 1
REMARK minimizedAffinity -3.99764705
REMARK minimizedRMSD -1
REMARK  1 active torsions:
REMARK  status: ('A' for Active; 'I' for Inactive)
REMARK    1  A    between atoms: C1_2  and  C2_3 
ROOT
ATOM      1  C2  UNL d   1       0.998  -1.866   0.220  0.00  0.00    -0.073 A 
ATOM      2  C3  UNL d   1       0.183  -2.211   1.305  0.00  0.00    -0.002 A 
ATOM      3  C4  UNL d   1      -0.756  -1.303   1.798  0.00  0.00     0.004 A 
ATOM      4  C5  UNL d   1      -0.893  -0.046   1.209  0.00  0.00    -0.004 A 
ATOM      5  C6  UNL d   1      -0.096   0.313   0.118  0.00  0.00    -0.075 A 
ATOM      6  C7  UNL d   1      -0.231   1.662  -0.526  0.00  0.00     0.076 C 
ATOM      7  C8  UNL d   1       0.845  -0.603  -0.370  0.00  0.00     0.001 A 
ENDROOT
BRANCH   1   8
ATOM      8  C1  UNL d   1       2.008  -2.845  -0.320  0.00  0.00     0.053 C 
ATOM      9  C   UNL d   1       3.071  -2.160  -1.164  0.00  0.00     0.018 C 
ENDBRANCH   1   8
TORSDOF 1
ENDMDL
