MODEL 1
REMARK minimizedAffinity 0.191788003
REMARK minimizedRMSD -1
REMARK  1 active torsions:
REMARK  status: ('A' for Active; 'I' for Inactive)
REMARK    1  A    between atoms: C1_2  and  C2_3 
ROOT
ATOM      1  C2  UNL d   1      -2.272   0.522   0.449  0.00  0.00    -0.073 A 
ATOM      2  C3  UNL d   1      -2.488   1.300   1.591  0.00  0.00    -0.002 A 
ATOM      3  C4  UNL d   1      -3.781   1.489   2.082  0.00  0.00     0.004 A 
ATOM      4  C5  UNL d   1      -4.868   0.896   1.440  0.00  0.00    -0.004 A 
ATOM      5  C6  UNL d   1      -4.671   0.104   0.304  0.00  0.00    -0.075 A 
ATOM      6  C7  UNL d   1      -5.830  -0.539  -0.399  0.00  0.00     0.076 C 
ATOM      7  C8  UNL d   1      -3.370  -0.078  -0.184  0.00  0.00     0.001 A 
ENDROOT
BRANCH   1   8
ATOM      8  C1  UNL d   1      -0.877   0.310  -0.081  0.00  0.00     0.053 C 
ATOM      9  C   UNL d   1       0.184   0.762   0.910  0.00  0.00     0.018 C 
ENDBRANCH   1   8
TORSDOF 1
ENDMDL
