MODEL 1
REMARK minimizedAffinity -4.15232801
REMARK minimizedRMSD -1
REMARK  1 active torsions:
REMARK  status: ('A' for Active; 'I' for Inactive)
REMARK    1  A    between atoms: C1_2  and  C2_3 
ROOT
ATOM      1  C2  UNL d   1      -0.345   0.548  -0.606  0.00  0.00    -0.073 A 
ATOM      2  C3  UNL d   1      -0.033   1.902  -0.437  0.00  0.00    -0.002 A 
ATOM      3  C4  UNL d   1       1.126   2.279   0.242  0.00  0.00     0.004 A 
ATOM      4  C5  UNL d   1       1.989   1.308   0.751  0.00  0.00    -0.004 A 
ATOM      5  C6  UNL d   1       1.701  -0.050   0.581  0.00  0.00    -0.075 A 
ATOM      6  C7  UNL d   1       2.618  -1.107   1.125  0.00  0.00     0.076 C 
ATOM      7  C8  UNL d   1       0.533  -0.421  -0.099  0.00  0.00     0.001 A 
ENDROOT
BRANCH   1   8
ATOM      8  C1  UNL d   1      -1.592   0.136  -1.343  0.00  0.00     0.053 C 
ATOM      9  C   UNL d   1      -1.413   0.208  -2.852  0.00  0.00     0.018 C 
ENDBRANCH   1   8
TORSDOF 1
ENDMDL
