MODEL 1
REMARK minimizedAffinity 2.19887924
REMARK minimizedRMSD -1
REMARK  1 active torsions:
REMARK  status: ('A' for Active; 'I' for Inactive)
REMARK    1  A    between atoms: C1_2  and  C2_3 
ROOT
ATOM      1  C2  UNL d   1      -0.732  -0.236  -1.521  0.00  0.00    -0.073 A 
ATOM      2  C3  UNL d   1      -1.310   0.966  -1.944  0.00  0.00    -0.002 A 
ATOM      3  C4  UNL d   1      -1.928   1.050  -3.192  0.00  0.00     0.004 A 
ATOM      4  C5  UNL d   1      -1.979  -0.066  -4.027  0.00  0.00    -0.004 A 
ATOM      5  C6  UNL d   1      -1.417  -1.280  -3.617  0.00  0.00    -0.075 A 
ATOM      6  C7  UNL d   1      -1.462  -2.489  -4.503  0.00  0.00     0.076 C 
ATOM      7  C8  UNL d   1      -0.796  -1.355  -2.363  0.00  0.00     0.001 A 
ENDROOT
BRANCH   1   8
ATOM      8  C1  UNL d   1      -0.070  -0.333  -0.170  0.00  0.00     0.053 C 
ATOM      9  C   UNL d   1       0.696   0.932   0.181  0.00  0.00     0.018 C 
ENDBRANCH   1   8
TORSDOF 1
ENDMDL
