MODEL 1
REMARK minimizedAffinity -2.51860738
REMARK minimizedRMSD -1
REMARK  1 active torsions:
REMARK  status: ('A' for Active; 'I' for Inactive)
REMARK    1  A    between atoms: C1_2  and  C2_3 
ROOT
ATOM      1  C2  UNL d   1       0.710  -0.255   0.252  0.00  0.00    -0.073 A 
ATOM      2  C3  UNL d   1       1.382  -0.200   1.478  0.00  0.00    -0.002 A 
ATOM      3  C4  UNL d   1       2.579  -0.894   1.658  0.00  0.00     0.004 A 
ATOM      4  C5  UNL d   1       3.119  -1.644   0.614  0.00  0.00    -0.004 A 
ATOM      5  C6  UNL d   1       2.469  -1.702  -0.623  0.00  0.00    -0.075 A 
ATOM      6  C7  UNL d   1       3.036  -2.506  -1.756  0.00  0.00     0.076 C 
ATOM      7  C8  UNL d   1       1.266  -1.004  -0.795  0.00  0.00     0.001 A 
ENDROOT
BRANCH   1   8
ATOM      8  C1  UNL d   1      -0.580   0.498   0.051  0.00  0.00     0.053 C 
ATOM      9  C   UNL d   1      -1.033   0.474  -1.400  0.00  0.00     0.018 C 
ENDBRANCH   1   8
TORSDOF 1
ENDMDL
