MODEL 1
REMARK minimizedAffinity 1.79771411
REMARK minimizedRMSD -1
REMARK  0 active torsions:
REMARK  status: ('A' for Active; 'I' for Inactive)
ROOT
ATOM      1  N1  IND d   1      -5.999   0.848  -3.415  0.00  0.00    -0.196 N 
ATOM      2  C2  IND d   1      -5.921   0.560  -4.749  0.00  0.00     0.054 A 
ATOM      3  C3  IND d   1      -5.603   1.670  -5.452  0.00  0.00    -0.031 A 
ATOM      4  C4  IND d   1      -5.068   4.042  -4.608  0.00  0.00     0.051 A 
ATOM      5  C5  IND d   1      -5.044   4.802  -3.472  0.00  0.00    -0.031 A 
ATOM      6  C6  IND d   1      -5.341   4.271  -2.233  0.00  0.00     0.015 A 
ATOM      7  C7  IND d   1      -5.663   2.952  -2.083  0.00  0.00    -0.016 A 
ATOM      8  C8  IND d   1      -5.695   2.179  -3.235  0.00  0.00    -0.047 A 
ATOM      9  C9  IND d   1      -5.436   2.722  -4.500  0.00  0.00    -0.096 A 
ATOM     10  HN1 IND d   1      -6.204   0.291  -2.793  0.00  0.00     0.298 HD
ENDROOT
TORSDOF 0
ENDMDL
