MODEL 1
REMARK minimizedAffinity 3.67523479
REMARK minimizedRMSD -1
REMARK  0 active torsions:
REMARK  status: ('A' for Active; 'I' for Inactive)
ROOT
ATOM      1  N1  IND d   1      -5.991   0.940  -1.290  0.00  0.00    -0.196 N 
ATOM      2  C2  IND d   1      -5.962   1.987  -0.411  0.00  0.00     0.054 A 
ATOM      3  C3  IND d   1      -5.922   3.161  -1.080  0.00  0.00    -0.031 A 
ATOM      4  C4  IND d   1      -5.998   3.603  -3.615  0.00  0.00     0.051 A 
ATOM      5  C5  IND d   1      -5.990   2.961  -4.821  0.00  0.00    -0.031 A 
ATOM      6  C6  IND d   1      -5.985   1.584  -4.914  0.00  0.00     0.015 A 
ATOM      7  C7  IND d   1      -5.998   0.795  -3.799  0.00  0.00    -0.016 A 
ATOM      8  C8  IND d   1      -5.999   1.444  -2.572  0.00  0.00    -0.047 A 
ATOM      9  C9  IND d   1      -5.962   2.841  -2.471  0.00  0.00    -0.096 A 
ATOM     10  HN1 IND d   1      -6.001   0.107  -1.078  0.00  0.00     0.298 HD
ENDROOT
TORSDOF 0
ENDMDL
