MODEL 1
REMARK minimizedAffinity 5.76580858
REMARK minimizedRMSD -1
REMARK  0 active torsions:
REMARK  status: ('A' for Active; 'I' for Inactive)
ROOT
ATOM      1  N1  IND d   1      -5.165   3.122  -0.164  0.00  0.00    -0.196 N 
ATOM      2  C2  IND d   1      -5.580   1.866   0.182  0.00  0.00     0.054 A 
ATOM      3  C3  IND d   1      -6.000   1.191  -0.911  0.00  0.00    -0.031 A 
ATOM      4  C4  IND d   1      -6.000   1.917  -3.381  0.00  0.00     0.051 A 
ATOM      5  C5  IND d   1      -5.748   2.991  -4.188  0.00  0.00    -0.031 A 
ATOM      6  C6  IND d   1      -5.278   4.187  -3.686  0.00  0.00     0.015 A 
ATOM      7  C7  IND d   1      -5.029   4.350  -2.352  0.00  0.00    -0.016 A 
ATOM      8  C8  IND d   1      -5.290   3.264  -1.529  0.00  0.00    -0.047 A 
ATOM      9  C9  IND d   1      -5.808   2.062  -2.028  0.00  0.00    -0.096 A 
ATOM     10  HN1 IND d   1      -4.876   3.722   0.379  0.00  0.00     0.298 HD
ENDROOT
TORSDOF 0
ENDMDL
