MODEL 1
REMARK minimizedAffinity 6.9147706
REMARK minimizedRMSD -1
REMARK  0 active torsions:
REMARK  status: ('A' for Active; 'I' for Inactive)
ROOT
ATOM      1  N1  IND d   1      -6.000  -0.676   4.717  0.00  0.00    -0.196 N 
ATOM      2  C2  IND d   1      -5.356  -1.879   4.800  0.00  0.00     0.054 A 
ATOM      3  C3  IND d   1      -4.579  -2.072   3.710  0.00  0.00    -0.031 A 
ATOM      4  C4  IND d   1      -4.135  -0.502   1.719  0.00  0.00     0.051 A 
ATOM      5  C5  IND d   1      -4.525   0.692   1.181  0.00  0.00    -0.031 A 
ATOM      6  C6  IND d   1      -5.443   1.509   1.809  0.00  0.00     0.015 A 
ATOM      7  C7  IND d   1      -5.999   1.166   3.008  0.00  0.00    -0.016 A 
ATOM      8  C8  IND d   1      -5.611  -0.049   3.554  0.00  0.00    -0.047 A 
ATOM      9  C9  IND d   1      -4.712  -0.902   2.901  0.00  0.00    -0.096 A 
ATOM     10  HN1 IND d   1      -6.555  -0.363   5.295  0.00  0.00     0.298 HD
ENDROOT
TORSDOF 0
ENDMDL
