MODEL 1
REMARK minimizedAffinity 1.1194675
REMARK minimizedRMSD -1
REMARK  0 active torsions:
REMARK  status: ('A' for Active; 'I' for Inactive)
ROOT
ATOM      1  N1  IND d   1      -6.000   1.440  -5.837  0.00  0.00    -0.196 N 
ATOM      2  C2  IND d   1      -5.999   0.214  -5.232  0.00  0.00     0.054 A 
ATOM      3  C3  IND d   1      -5.961   0.353  -3.888  0.00  0.00    -0.031 A 
ATOM      4  C4  IND d   1      -5.998   2.497  -2.463  0.00  0.00     0.051 A 
ATOM      5  C5  IND d   1      -5.962   3.859  -2.566  0.00  0.00    -0.031 A 
ATOM      6  C6  IND d   1      -5.939   4.498  -3.789  0.00  0.00     0.015 A 
ATOM      7  C7  IND d   1      -5.963   3.795  -4.960  0.00  0.00    -0.016 A 
ATOM      8  C8  IND d   1      -5.992   2.411  -4.860  0.00  0.00    -0.047 A 
ATOM      9  C9  IND d   1      -5.973   1.756  -3.621  0.00  0.00    -0.096 A 
ATOM     10  HN1 IND d   1      -6.005   1.582  -6.685  0.00  0.00     0.298 HD
ENDROOT
TORSDOF 0
ENDMDL
