MODEL 1
REMARK minimizedAffinity 4.77783346
REMARK minimizedRMSD -1
REMARK  0 active torsions:
REMARK  status: ('A' for Active; 'I' for Inactive)
ROOT
ATOM      1  N1  IND d   1      -5.993   0.885  -1.182  0.00  0.00    -0.196 N 
ATOM      2  C2  IND d   1      -5.809   1.654  -0.067  0.00  0.00     0.054 A 
ATOM      3  C3  IND d   1      -5.577   2.940  -0.414  0.00  0.00    -0.031 A 
ATOM      4  C4  IND d   1      -5.554   4.024  -2.749  0.00  0.00     0.051 A 
ATOM      5  C5  IND d   1      -5.634   3.719  -4.079  0.00  0.00    -0.031 A 
ATOM      6  C6  IND d   1      -5.845   2.429  -4.520  0.00  0.00     0.015 A 
ATOM      7  C7  IND d   1      -5.996   1.392  -3.643  0.00  0.00    -0.016 A 
ATOM      8  C8  IND d   1      -5.908   1.696  -2.292  0.00  0.00    -0.047 A 
ATOM      9  C9  IND d   1      -5.651   2.997  -1.840  0.00  0.00    -0.096 A 
ATOM     10  HN1 IND d   1      -6.138   0.038  -1.189  0.00  0.00     0.298 HD
ENDROOT
TORSDOF 0
ENDMDL
