MODEL 1
REMARK minimizedAffinity -0.106585756
REMARK minimizedRMSD -1
REMARK  0 active torsions:
REMARK  status: ('A' for Active; 'I' for Inactive)
ROOT
ATOM      1  N1  IND d   1       1.467  -3.834  -0.120  0.00  0.00    -0.196 N 
ATOM      2  C2  IND d   1       1.181  -5.164  -0.250  0.00  0.00     0.054 A 
ATOM      3  C3  IND d   1       2.293  -5.853  -0.593  0.00  0.00    -0.031 A 
ATOM      4  C4  IND d   1       4.708  -5.015  -0.893  0.00  0.00     0.051 A 
ATOM      5  C5  IND d   1       5.457  -3.872  -0.914  0.00  0.00    -0.031 A 
ATOM      6  C6  IND d   1       4.904  -2.633  -0.663  0.00  0.00     0.015 A 
ATOM      7  C7  IND d   1       3.577  -2.492  -0.370  0.00  0.00    -0.016 A 
ATOM      8  C8  IND d   1       2.812  -3.649  -0.355  0.00  0.00    -0.047 A 
ATOM      9  C9  IND d   1       3.359  -4.905  -0.651  0.00  0.00    -0.096 A 
ATOM     10  HN1 IND d   1       0.902  -3.216   0.076  0.00  0.00     0.298 HD
ENDROOT
TORSDOF 0
ENDMDL
