MODEL 1
REMARK minimizedAffinity 13.3219986
REMARK minimizedRMSD -1
REMARK  0 active torsions:
REMARK  status: ('A' for Active; 'I' for Inactive)
ROOT
ATOM      1  N1  IND d   1       0.011   4.504   0.770  0.00  0.00    -0.196 N 
ATOM      2  C2  IND d   1       0.504   3.246   0.568  0.00  0.00     0.054 A 
ATOM      3  C3  IND d   1       0.020   2.730  -0.584  0.00  0.00    -0.031 A 
ATOM      4  C4  IND d   1      -1.513   3.815  -2.345  0.00  0.00     0.051 A 
ATOM      5  C5  IND d   1      -2.251   4.940  -2.584  0.00  0.00    -0.031 A 
ATOM      6  C6  IND d   1      -2.271   6.000  -1.701  0.00  0.00     0.015 A 
ATOM      7  C7  IND d   1      -1.542   5.979  -0.546  0.00  0.00    -0.016 A 
ATOM      8  C8  IND d   1      -0.797   4.835  -0.296  0.00  0.00    -0.047 A 
ATOM      9  C9  IND d   1      -0.806   3.739  -1.168  0.00  0.00    -0.096 A 
ATOM     10  HN1 IND d   1       0.177   5.005   1.449  0.00  0.00     0.298 HD
ENDROOT
TORSDOF 0
ENDMDL
