MODEL 1
REMARK minimizedAffinity 7.58460617
REMARK minimizedRMSD -1
REMARK  0 active torsions:
REMARK  status: ('A' for Active; 'I' for Inactive)
ROOT
ATOM      1  N1  IND d   1       1.086   3.796  -0.365  0.00  0.00    -0.196 N 
ATOM      2  C2  IND d   1       0.703   2.510  -0.108  0.00  0.00     0.054 A 
ATOM      3  C3  IND d   1      -0.501   2.256  -0.669  0.00  0.00    -0.031 A 
ATOM      4  C4  IND d   1      -1.973   3.774  -2.137  0.00  0.00     0.051 A 
ATOM      5  C5  IND d   1      -2.061   5.050  -2.619  0.00  0.00    -0.031 A 
ATOM      6  C6  IND d   1      -1.083   5.991  -2.372  0.00  0.00     0.015 A 
ATOM      7  C7  IND d   1       0.030   5.687  -1.639  0.00  0.00    -0.016 A 
ATOM      8  C8  IND d   1       0.119   4.395  -1.142  0.00  0.00    -0.047 A 
ATOM      9  C9  IND d   1      -0.891   3.447  -1.354  0.00  0.00    -0.096 A 
ATOM     10  HN1 IND d   1       1.810   4.169  -0.088  0.00  0.00     0.298 HD
ENDROOT
TORSDOF 0
ENDMDL
