MODEL 1
REMARK minimizedAffinity 8.31302834
REMARK minimizedRMSD -1
REMARK  1 active torsions:
REMARK  status: ('A' for Active; 'I' for Inactive)
REMARK    1  A    between atoms: C1_2  and  C2_3 
ROOT
ATOM      1  C2  UNL d   1      -1.251   4.873   4.572  0.00  0.00    -0.073 A 
ATOM      2  C3  UNL d   1      -1.920   5.578   5.579  0.00  0.00    -0.002 A 
ATOM      3  C4  UNL d   1      -3.190   5.176   5.995  0.00  0.00     0.004 A 
ATOM      4  C5  UNL d   1      -3.800   4.064   5.415  0.00  0.00    -0.004 A 
ATOM      5  C6  UNL d   1      -3.142   3.340   4.416  0.00  0.00    -0.075 A 
ATOM      6  C7  UNL d   1      -3.785   2.143   3.780  0.00  0.00     0.076 C 
ATOM      7  C8  UNL d   1      -1.868   3.751   4.001  0.00  0.00     0.001 A 
ENDROOT
BRANCH   1   8
ATOM      8  C1  UNL d   1       0.123   5.299   4.124  0.00  0.00     0.053 C 
ATOM      9  C   UNL d   1       0.824   4.214   3.323  0.00  0.00     0.018 C 
ENDBRANCH   1   8
TORSDOF 1
ENDMDL
