MODEL 1
REMARK minimizedAffinity 17.4718857
REMARK minimizedRMSD -1
REMARK  1 active torsions:
REMARK  status: ('A' for Active; 'I' for Inactive)
REMARK    1  A    between atoms: C1_2  and  C2_3 
ROOT
ATOM      1  C2  UNL d   1      -3.396   1.940  -3.872  0.00  0.00    -0.073 A 
ATOM      2  C3  UNL d   1      -4.476   1.416  -4.591  0.00  0.00    -0.002 A 
ATOM      3  C4  UNL d   1      -5.414   2.268  -5.176  0.00  0.00     0.004 A 
ATOM      4  C5  UNL d   1      -5.279   3.650  -5.054  0.00  0.00    -0.004 A 
ATOM      5  C6  UNL d   1      -4.200   4.194  -4.349  0.00  0.00    -0.075 A 
ATOM      6  C7  UNL d   1      -4.041   5.679  -4.207  0.00  0.00     0.076 C 
ATOM      7  C8  UNL d   1      -3.263   3.332  -3.763  0.00  0.00     0.001 A 
ENDROOT
BRANCH   1   8
ATOM      8  C1  UNL d   1      -2.377   1.025  -3.245  0.00  0.00     0.053 C 
ATOM      9  C   UNL d   1      -2.967   0.211  -2.105  0.00  0.00     0.018 C 
ENDBRANCH   1   8
TORSDOF 1
ENDMDL
