MODEL 1
REMARK minimizedAffinity 4.51732683
REMARK minimizedRMSD -1
REMARK  1 active torsions:
REMARK  status: ('A' for Active; 'I' for Inactive)
REMARK    1  A    between atoms: C1_2  and  C2_3 
ROOT
ATOM      1  C2  UNL d   1       3.040  -2.034   4.051  0.00  0.00    -0.073 A 
ATOM      2  C3  UNL d   1       2.088  -1.114   4.506  0.00  0.00    -0.002 A 
ATOM      3  C4  UNL d   1       1.058  -0.692   3.664  0.00  0.00     0.004 A 
ATOM      4  C5  UNL d   1       0.965  -1.189   2.364  0.00  0.00    -0.004 A 
ATOM      5  C6  UNL d   1       1.901  -2.118   1.896  0.00  0.00    -0.075 A 
ATOM      6  C7  UNL d   1       1.816  -2.660   0.499  0.00  0.00     0.076 C 
ATOM      7  C8  UNL d   1       2.934  -2.535   2.746  0.00  0.00     0.001 A 
ENDROOT
BRANCH   1   8
ATOM      8  C1  UNL d   1       4.151  -2.497   4.959  0.00  0.00     0.053 C 
ATOM      9  C   UNL d   1       3.799  -3.792   5.674  0.00  0.00     0.018 C 
ENDBRANCH   1   8
TORSDOF 1
ENDMDL
