MODEL 1
REMARK minimizedAffinity 11.8111973
REMARK minimizedRMSD -1
REMARK  1 active torsions:
REMARK  status: ('A' for Active; 'I' for Inactive)
REMARK    1  A    between atoms: C1_2  and  C2_3 
ROOT
ATOM      1  C2  UNL d   1       5.358   1.654  -4.964  0.00  0.00    -0.073 A 
ATOM      2  C3  UNL d   1       4.162   1.310  -5.605  0.00  0.00    -0.002 A 
ATOM      3  C4  UNL d   1       3.569   0.069  -5.371  0.00  0.00     0.004 A 
ATOM      4  C5  UNL d   1       4.160  -0.837  -4.491  0.00  0.00    -0.004 A 
ATOM      5  C6  UNL d   1       5.349  -0.507  -3.831  0.00  0.00    -0.075 A 
ATOM      6  C7  UNL d   1       5.998  -1.471  -2.882  0.00  0.00     0.076 C 
ATOM      7  C8  UNL d   1       5.940   0.741  -4.073  0.00  0.00     0.001 A 
ENDROOT
BRANCH   1   8
ATOM      8  C1  UNL d   1       5.999   2.996  -5.208  0.00  0.00     0.053 C 
ATOM      9  C   UNL d   1       5.035   3.979  -5.853  0.00  0.00     0.018 C 
ENDBRANCH   1   8
TORSDOF 1
ENDMDL
