MODEL 1
REMARK minimizedAffinity 7.39960575
REMARK minimizedRMSD -1
REMARK  1 active torsions:
REMARK  status: ('A' for Active; 'I' for Inactive)
REMARK    1  A    between atoms: C1_2  and  C2_3 
ROOT
ATOM      1  C2  UNL d   1      -0.607   2.276  -4.014  0.00  0.00    -0.073 A 
ATOM      2  C3  UNL d   1      -1.216   2.390  -5.269  0.00  0.00    -0.002 A 
ATOM      3  C4  UNL d   1      -2.591   2.192  -5.406  0.00  0.00     0.004 A 
ATOM      4  C5  UNL d   1      -3.370   1.885  -4.291  0.00  0.00    -0.004 A 
ATOM      5  C6  UNL d   1      -2.782   1.778  -3.027  0.00  0.00    -0.075 A 
ATOM      6  C7  UNL d   1      -3.607   1.446  -1.818  0.00  0.00     0.076 C 
ATOM      7  C8  UNL d   1      -1.401   1.976  -2.897  0.00  0.00     0.001 A 
ENDROOT
BRANCH   1   8
ATOM      8  C1  UNL d   1       0.875   2.496  -3.860  0.00  0.00     0.053 C 
ATOM      9  C   UNL d   1       1.327   3.801  -4.497  0.00  0.00     0.018 C 
ENDBRANCH   1   8
TORSDOF 1
ENDMDL
