MODEL 1
REMARK minimizedAffinity 6.25904417
REMARK minimizedRMSD -1
REMARK  0 active torsions:
REMARK  status: ('A' for Active; 'I' for Inactive)
ROOT
ATOM      1  C   UNL d   1       1.657  -1.672  -1.939  0.00  0.00     0.020 A 
ATOM      2  C1  UNL d   1       1.435  -2.960  -2.425  0.00  0.00     0.020 A 
ATOM      3  C2  UNL d   1       0.343  -3.700  -1.967  0.00  0.00     0.034 A 
ATOM      4  C3  UNL d   1      -0.531  -3.153  -1.021  0.00  0.00     0.017 A 
ATOM      5  C4  UNL d   1      -0.308  -1.860  -0.534  0.00  0.00     0.017 A 
ATOM      6  C5  UNL d   1       0.788  -1.123  -0.996  0.00  0.00     0.034 A 
ATOM      7 Cl   UNL d   1      -1.342  -1.118   0.635  0.00  0.00    -0.070 Cl
ATOM      8 Cl1  UNL d   1      -1.862  -4.124  -0.500  0.00  0.00    -0.070 Cl
ENDROOT
TORSDOF 0
ENDMDL
