MODEL 1
REMARK minimizedAffinity 8.37827396
REMARK minimizedRMSD -1
REMARK  0 active torsions:
REMARK  status: ('A' for Active; 'I' for Inactive)
ROOT
ATOM      1  C   UNL d   1       1.493   5.575  -2.661  0.00  0.00     0.020 A 
ATOM      2  C1  UNL d   1       2.145   5.576  -1.428  0.00  0.00     0.020 A 
ATOM      3  C2  UNL d   1       3.534   5.707  -1.374  0.00  0.00     0.034 A 
ATOM      4  C3  UNL d   1       4.276   5.838  -2.553  0.00  0.00     0.017 A 
ATOM      5  C4  UNL d   1       3.620   5.838  -3.790  0.00  0.00     0.017 A 
ATOM      6  C5  UNL d   1       2.229   5.706  -3.839  0.00  0.00     0.034 A 
ATOM      7 Cl   UNL d   1       4.467   5.995  -5.288  0.00  0.00    -0.070 Cl
ATOM      8 Cl1  UNL d   1       5.990   5.997  -2.411  0.00  0.00    -0.070 Cl
ENDROOT
TORSDOF 0
ENDMDL
