MODEL 1
REMARK minimizedAffinity 3.88486004
REMARK minimizedRMSD -1
REMARK  0 active torsions:
REMARK  status: ('A' for Active; 'I' for Inactive)
ROOT
ATOM      1  C   UNL d   1      -3.434   0.032  -4.279  0.00  0.00     0.020 A 
ATOM      2  C1  UNL d   1      -4.121   0.371  -5.445  0.00  0.00     0.020 A 
ATOM      3  C2  UNL d   1      -4.712   1.630  -5.566  0.00  0.00     0.034 A 
ATOM      4  C3  UNL d   1      -4.618   2.555  -4.520  0.00  0.00     0.017 A 
ATOM      5  C4  UNL d   1      -3.928   2.215  -3.351  0.00  0.00     0.017 A 
ATOM      6  C5  UNL d   1      -3.338   0.953  -3.235  0.00  0.00     0.034 A 
ATOM      7 Cl   UNL d   1      -3.769   3.304  -2.018  0.00  0.00    -0.070 Cl
ATOM      8 Cl1  UNL d   1      -5.373   4.094  -4.738  0.00  0.00    -0.070 Cl
ENDROOT
TORSDOF 0
ENDMDL
