MODEL 1
REMARK minimizedAffinity 15.7678003
REMARK minimizedRMSD -1
REMARK  0 active torsions:
REMARK  status: ('A' for Active; 'I' for Inactive)
ROOT
ATOM      1  C   UNL d   1      -4.636  -5.882  -5.674  0.00  0.00     0.020 A 
ATOM      2  C1  UNL d   1      -5.750  -5.614  -4.880  0.00  0.00     0.020 A 
ATOM      3  C2  UNL d   1      -5.978  -4.318  -4.411  0.00  0.00     0.034 A 
ATOM      4  C3  UNL d   1      -5.090  -3.286  -4.735  0.00  0.00     0.017 A 
ATOM      5  C4  UNL d   1      -3.972  -3.556  -5.532  0.00  0.00     0.017 A 
ATOM      6  C5  UNL d   1      -3.749  -4.855  -6.000  0.00  0.00     0.034 A 
ATOM      7 Cl   UNL d   1      -2.832  -2.334  -5.975  0.00  0.00    -0.070 Cl
ATOM      8 Cl1  UNL d   1      -5.433  -1.708  -4.120  0.00  0.00    -0.070 Cl
ENDROOT
TORSDOF 0
ENDMDL
