MODEL 1
REMARK minimizedAffinity 7.17365026
REMARK minimizedRMSD -1
REMARK  0 active torsions:
REMARK  status: ('A' for Active; 'I' for Inactive)
ROOT
ATOM      1  C   UNL d   1       1.910  -0.292  -0.443  0.00  0.00     0.020 A 
ATOM      2  C1  UNL d   1       2.133   1.084  -0.415  0.00  0.00     0.020 A 
ATOM      3  C2  UNL d   1       2.367   1.728   0.801  0.00  0.00     0.034 A 
ATOM      4  C3  UNL d   1       2.379   0.997   1.994  0.00  0.00     0.017 A 
ATOM      5  C4  UNL d   1       2.156  -0.384   1.965  0.00  0.00     0.017 A 
ATOM      6  C5  UNL d   1       1.922  -1.025   0.744  0.00  0.00     0.034 A 
ATOM      7 Cl   UNL d   1       2.155  -1.353   3.396  0.00  0.00    -0.070 Cl
ATOM      8 Cl1  UNL d   1       2.676   1.859   3.462  0.00  0.00    -0.070 Cl
ENDROOT
TORSDOF 0
ENDMDL
