MODEL 1
REMARK minimizedAffinity 3.67776418
REMARK minimizedRMSD -1
REMARK  0 active torsions:
REMARK  status: ('A' for Active; 'I' for Inactive)
ROOT
ATOM      1  C   UNL d   1       5.874  -2.999   3.751  0.00  0.00     0.020 A 
ATOM      2  C1  UNL d   1       6.000  -3.987   4.726  0.00  0.00     0.020 A 
ATOM      3  C2  UNL d   1       4.858  -4.551   5.301  0.00  0.00     0.034 A 
ATOM      4  C3  UNL d   1       3.586  -4.126   4.900  0.00  0.00     0.017 A 
ATOM      5  C4  UNL d   1       3.461  -3.134   3.921  0.00  0.00     0.017 A 
ATOM      6  C5  UNL d   1       4.607  -2.574   3.349  0.00  0.00     0.034 A 
ATOM      7 Cl   UNL d   1       1.925  -2.559   3.375  0.00  0.00    -0.070 Cl
ATOM      8 Cl1  UNL d   1       2.218  -4.866   5.653  0.00  0.00    -0.070 Cl
ENDROOT
TORSDOF 0
ENDMDL
