MODEL 1
REMARK minimizedAffinity 3.88581252
REMARK minimizedRMSD -1
REMARK  0 active torsions:
REMARK  status: ('A' for Active; 'I' for Inactive)
ROOT
ATOM      1  C   UNL d   1      -4.490   2.189  -4.259  0.00  0.00     0.020 A 
ATOM      2  C1  UNL d   1      -5.609   3.017  -4.183  0.00  0.00     0.020 A 
ATOM      3  C2  UNL d   1      -6.000   3.551  -2.953  0.00  0.00     0.034 A 
ATOM      4  C3  UNL d   1      -5.272   3.256  -1.794  0.00  0.00     0.017 A 
ATOM      5  C4  UNL d   1      -4.149   2.424  -1.872  0.00  0.00     0.017 A 
ATOM      6  C5  UNL d   1      -3.762   1.893  -3.106  0.00  0.00     0.034 A 
ATOM      7 Cl   UNL d   1      -3.201   2.015  -0.486  0.00  0.00    -0.070 Cl
ATOM      8 Cl1  UNL d   1      -5.813   3.950  -0.307  0.00  0.00    -0.070 Cl
ENDROOT
TORSDOF 0
ENDMDL
