MODEL 1
REMARK minimizedAffinity -4.30065298
REMARK minimizedRMSD -1
REMARK  1 active torsions:
REMARK  status: ('A' for Active; 'I' for Inactive)
REMARK    1  A    between atoms: C1_2  and  C2_3 
ROOT
ATOM      1  C2  UNL d   1      -0.206  -0.867   0.369  0.00  0.00    -0.073 A 
ATOM      2  C3  UNL d   1      -0.411   0.511   0.509  0.00  0.00    -0.002 A 
ATOM      3  C4  UNL d   1      -1.608   1.092   0.089  0.00  0.00     0.004 A 
ATOM      4  C5  UNL d   1      -2.614   0.302  -0.468  0.00  0.00    -0.004 A 
ATOM      5  C6  UNL d   1      -2.433  -1.078  -0.605  0.00  0.00    -0.075 A 
ATOM      6  C7  UNL d   1      -3.505  -1.941  -1.204  0.00  0.00     0.076 C 
ATOM      7  C8  UNL d   1      -1.227  -1.654  -0.184  0.00  0.00     0.001 A 
ENDROOT
BRANCH   1   8
ATOM      8  C1  UNL d   1       1.083  -1.500   0.827  0.00  0.00     0.053 C 
ATOM      9  C   UNL d   1       0.971  -3.013   0.924  0.00  0.00     0.018 C 
ENDBRANCH   1   8
TORSDOF 1
ENDMDL
