MODEL 1
REMARK minimizedAffinity 9.94884109
REMARK minimizedRMSD -1
REMARK  1 active torsions:
REMARK  status: ('A' for Active; 'I' for Inactive)
REMARK    1  A    between atoms: C1_2  and  C2_3 
ROOT
ATOM      1  C2  UNL d   1      -0.787  -0.928   3.115  0.00  0.00    -0.073 A 
ATOM      2  C3  UNL d   1      -1.416  -1.222   1.899  0.00  0.00    -0.002 A 
ATOM      3  C4  UNL d   1      -0.737  -1.042   0.693  0.00  0.00     0.004 A 
ATOM      4  C5  UNL d   1       0.577  -0.574   0.690  0.00  0.00    -0.004 A 
ATOM      5  C6  UNL d   1       1.226  -0.286   1.895  0.00  0.00    -0.075 A 
ATOM      6  C7  UNL d   1       2.638   0.220   1.909  0.00  0.00     0.076 C 
ATOM      7  C8  UNL d   1       0.537  -0.466   3.102  0.00  0.00     0.001 A 
ENDROOT
BRANCH   1   8
ATOM      8  C1  UNL d   1      -1.514  -1.126   4.420  0.00  0.00     0.053 C 
ATOM      9  C   UNL d   1      -1.522  -2.584   4.852  0.00  0.00     0.018 C 
ENDBRANCH   1   8
TORSDOF 1
ENDMDL
