MODEL 1
REMARK minimizedAffinity 3.46079707
REMARK minimizedRMSD -1
REMARK  1 active torsions:
REMARK  status: ('A' for Active; 'I' for Inactive)
REMARK    1  A    between atoms: C1_2  and  C2_3 
ROOT
ATOM      1  C2  UNL d   1      -2.187  -4.969  -1.501  0.00  0.00    -0.073 A 
ATOM      2  C3  UNL d   1      -2.139  -4.134  -2.622  0.00  0.00    -0.002 A 
ATOM      3  C4  UNL d   1      -3.287  -3.910  -3.384  0.00  0.00     0.004 A 
ATOM      4  C5  UNL d   1      -4.494  -4.513  -3.028  0.00  0.00    -0.004 A 
ATOM      5  C6  UNL d   1      -4.564  -5.342  -1.904  0.00  0.00    -0.075 A 
ATOM      6  C7  UNL d   1      -5.854  -5.999  -1.509  0.00  0.00     0.076 C 
ATOM      7  C8  UNL d   1      -3.407  -5.563  -1.146  0.00  0.00     0.001 A 
ENDROOT
BRANCH   1   8
ATOM      8  C1  UNL d   1      -0.952  -5.209  -0.671  0.00  0.00     0.053 C 
ATOM      9  C   UNL d   1      -0.760  -4.135   0.388  0.00  0.00     0.018 C 
ENDBRANCH   1   8
TORSDOF 1
ENDMDL
