MODEL 1
REMARK minimizedAffinity 6.51439667
REMARK minimizedRMSD -1
REMARK  1 active torsions:
REMARK  status: ('A' for Active; 'I' for Inactive)
REMARK    1  A    between atoms: C1_2  and  C2_3 
ROOT
ATOM      1  C2  UNL d   1      -2.031   2.941  -3.225  0.00  0.00    -0.073 A 
ATOM      2  C3  UNL d   1      -1.836   3.696  -4.387  0.00  0.00    -0.002 A 
ATOM      3  C4  UNL d   1      -0.754   4.571  -4.486  0.00  0.00     0.004 A 
ATOM      4  C5  UNL d   1       0.148   4.695  -3.429  0.00  0.00    -0.004 A 
ATOM      5  C6  UNL d   1      -0.023   3.940  -2.264  0.00  0.00    -0.075 A 
ATOM      6  C7  UNL d   1       0.937   4.063  -1.117  0.00  0.00     0.076 C 
ATOM      7  C8  UNL d   1      -1.114   3.066  -2.171  0.00  0.00     0.001 A 
ENDROOT
BRANCH   1   8
ATOM      8  C1  UNL d   1      -3.195   1.990  -3.115  0.00  0.00     0.053 C 
ATOM      9  C   UNL d   1      -4.529   2.718  -3.132  0.00  0.00     0.018 C 
ENDBRANCH   1   8
TORSDOF 1
ENDMDL
