MODEL 1
REMARK minimizedAffinity -1.11963105
REMARK minimizedRMSD -1
REMARK  1 active torsions:
REMARK  status: ('A' for Active; 'I' for Inactive)
REMARK    1  A    between atoms: C1_2  and  C2_3 
ROOT
ATOM      1  C2  UNL d   1      -4.942  -5.991   0.401  0.00  0.00    -0.073 A 
ATOM      2  C3  UNL d   1      -6.000  -6.000  -0.516  0.00  0.00    -0.002 A 
ATOM      3  C4  UNL d   1      -5.744  -5.999  -1.887  0.00  0.00     0.004 A 
ATOM      4  C5  UNL d   1      -4.430  -5.996  -2.356  0.00  0.00    -0.004 A 
ATOM      5  C6  UNL d   1      -3.360  -5.999  -1.456  0.00  0.00    -0.075 A 
ATOM      6  C7  UNL d   1      -1.941  -5.993  -1.945  0.00  0.00     0.076 C 
ATOM      7  C8  UNL d   1      -3.625  -5.997  -0.080  0.00  0.00     0.001 A 
ENDROOT
BRANCH   1   8
ATOM      8  C1  UNL d   1      -5.214  -5.998   1.883  0.00  0.00     0.053 C 
ATOM      9  C   UNL d   1      -4.374  -4.968   2.622  0.00  0.00     0.018 C 
ENDBRANCH   1   8
TORSDOF 1
ENDMDL
