MODEL 1
REMARK minimizedAffinity 4.20957661
REMARK minimizedRMSD -1
REMARK  1 active torsions:
REMARK  status: ('A' for Active; 'I' for Inactive)
REMARK    1  A    between atoms: C1_2  and  C2_3 
ROOT
ATOM      1  C2  UNL d   1      -1.015  -4.774  -1.557  0.00  0.00    -0.073 A 
ATOM      2  C3  UNL d   1      -2.390  -4.886  -1.793  0.00  0.00    -0.002 A 
ATOM      3  C4  UNL d   1      -3.291  -4.075  -1.102  0.00  0.00     0.004 A 
ATOM      4  C5  UNL d   1      -2.828  -3.141  -0.175  0.00  0.00    -0.004 A 
ATOM      5  C6  UNL d   1      -1.457  -3.007   0.066  0.00  0.00    -0.075 A 
ATOM      6  C7  UNL d   1      -0.943  -2.009   1.062  0.00  0.00     0.076 C 
ATOM      7  C8  UNL d   1      -0.558  -3.827  -0.630  0.00  0.00     0.001 A 
ENDROOT
BRANCH   1   8
ATOM      8  C1  UNL d   1      -0.037  -5.643  -2.305  0.00  0.00     0.053 C 
ATOM      9  C   UNL d   1       0.090  -5.232  -3.763  0.00  0.00     0.018 C 
ENDBRANCH   1   8
TORSDOF 1
ENDMDL
