MODEL 1
REMARK minimizedAffinity -1.5152837
REMARK minimizedRMSD -1
REMARK  0 active torsions:
REMARK  status: ('A' for Active; 'I' for Inactive)
ROOT
ATOM      1  C4' PXY d   1      -4.492   1.491   6.000  0.00  0.00     0.077 C 
ATOM      2  C1' PXY d   1      -6.000   5.670   2.301  0.00  0.00     0.077 C 
ATOM      3  C1  PXY d   1      -5.601   4.583   3.280  0.00  0.00    -0.082 A 
ATOM      4  C2  PXY d   1      -5.257   3.389   2.827  0.00  0.00     0.003 A 
ATOM      5  C3  PXY d   1      -4.925   2.385   3.700  0.00  0.00     0.003 A 
ATOM      6  C4  PXY d   1      -4.893   2.621   5.048  0.00  0.00    -0.082 A 
ATOM      7  C5  PXY d   1      -5.232   3.841   5.518  0.00  0.00     0.003 A 
ATOM      8  C6  PXY d   1      -5.606   4.834   4.618  0.00  0.00     0.003 A 
ENDROOT
TORSDOF 0
ENDMDL
