MODEL 1
REMARK minimizedAffinity -2.73125482
REMARK minimizedRMSD -1
REMARK  0 active torsions:
REMARK  status: ('A' for Active; 'I' for Inactive)
ROOT
ATOM      1  C4' PXY d   1      -5.999   2.922   5.999  0.00  0.00     0.077 C 
ATOM      2  C1' PXY d   1      -4.991   5.998   1.210  0.00  0.00     0.077 C 
ATOM      3  C1  PXY d   1      -5.250   5.201   2.473  0.00  0.00    -0.082 A 
ATOM      4  C2  PXY d   1      -5.340   3.883   2.408  0.00  0.00     0.003 A 
ATOM      5  C3  PXY d   1      -5.606   3.149   3.535  0.00  0.00     0.003 A 
ATOM      6  C4  PXY d   1      -5.729   3.767   4.751  0.00  0.00    -0.082 A 
ATOM      7  C5  PXY d   1      -5.628   5.111   4.828  0.00  0.00     0.003 A 
ATOM      8  C6  PXY d   1      -5.399   5.841   3.665  0.00  0.00     0.003 A 
ENDROOT
TORSDOF 0
ENDMDL
