MODEL 1
REMARK minimizedAffinity 4.87153244
REMARK minimizedRMSD -1
REMARK  0 active torsions:
REMARK  status: ('A' for Active; 'I' for Inactive)
ROOT
ATOM      1  C4' PXY d   1      -5.462   5.636   5.999  0.00  0.00     0.077 C 
ATOM      2  C1' PXY d   1      -5.239   4.198   0.405  0.00  0.00     0.077 C 
ATOM      3  C1  PXY d   1      -5.296   4.562   1.875  0.00  0.00    -0.082 A 
ATOM      4  C2  PXY d   1      -5.966   5.638   2.257  0.00  0.00     0.003 A 
ATOM      5  C3  PXY d   1      -6.000   6.000   3.579  0.00  0.00     0.003 A 
ATOM      6  C4  PXY d   1      -5.387   5.224   4.526  0.00  0.00    -0.082 A 
ATOM      7  C5  PXY d   1      -4.710   4.120   4.145  0.00  0.00     0.003 A 
ATOM      8  C6  PXY d   1      -4.652   3.792   2.794  0.00  0.00     0.003 A 
ENDROOT
TORSDOF 0
ENDMDL
