MODEL 1
REMARK minimizedAffinity -2.34167123
REMARK minimizedRMSD -1
REMARK  0 active torsions:
REMARK  status: ('A' for Active; 'I' for Inactive)
ROOT
ATOM      1  C4' PXY d   1      -4.980   6.000   0.406  0.00  0.00     0.077 C 
ATOM      2  C1' PXY d   1      -5.017   2.639   5.109  0.00  0.00     0.077 C 
ATOM      3  C1  PXY d   1      -5.020   3.522   3.877  0.00  0.00    -0.082 A 
ATOM      4  C2  PXY d   1      -4.071   3.378   2.966  0.00  0.00     0.003 A 
ATOM      5  C3  PXY d   1      -4.040   4.190   1.862  0.00  0.00     0.003 A 
ATOM      6  C4  PXY d   1      -5.022   5.123   1.661  0.00  0.00    -0.082 A 
ATOM      7  C5  PXY d   1      -6.000   5.269   2.579  0.00  0.00     0.003 A 
ATOM      8  C6  PXY d   1      -5.990   4.463   3.714  0.00  0.00     0.003 A 
ENDROOT
TORSDOF 0
ENDMDL
