MODEL 1
REMARK minimizedAffinity 10.5454159
REMARK minimizedRMSD -1
REMARK  0 active torsions:
REMARK  status: ('A' for Active; 'I' for Inactive)
ROOT
ATOM      1  C4' PXY d   1       1.656  -0.512   2.687  0.00  0.00     0.077 C 
ATOM      2  C1' PXY d   1      -3.330  -0.911  -0.210  0.00  0.00     0.077 C 
ATOM      3  C1  PXY d   1      -2.017  -0.814   0.541  0.00  0.00    -0.082 A 
ATOM      4  C2  PXY d   1      -2.022  -0.539   1.835  0.00  0.00     0.003 A 
ATOM      5  C3  PXY d   1      -0.842  -0.416   2.523  0.00  0.00     0.003 A 
ATOM      6  C4  PXY d   1       0.354  -0.629   1.891  0.00  0.00    -0.082 A 
ATOM      7  C5  PXY d   1       0.367  -0.921   0.573  0.00  0.00     0.003 A 
ATOM      8  C6  PXY d   1      -0.840  -1.000  -0.116  0.00  0.00     0.003 A 
ENDROOT
TORSDOF 0
ENDMDL
