MODEL 1
REMARK minimizedAffinity -3.47619629
REMARK minimizedRMSD -1
REMARK  0 active torsions:
REMARK  status: ('A' for Active; 'I' for Inactive)
ROOT
ATOM      1  C4' PXY d   1      -5.739   5.999   2.326  0.00  0.00     0.077 C 
ATOM      2  C1' PXY d   1      -5.362   1.550   5.997  0.00  0.00     0.077 C 
ATOM      3  C1  PXY d   1      -5.464   2.725   5.044  0.00  0.00    -0.082 A 
ATOM      4  C2  PXY d   1      -5.708   2.508   3.762  0.00  0.00     0.003 A 
ATOM      5  C3  PXY d   1      -5.772   3.556   2.881  0.00  0.00     0.003 A 
ATOM      6  C4  PXY d   1      -5.637   4.844   3.326  0.00  0.00    -0.082 A 
ATOM      7  C5  PXY d   1      -5.399   5.075   4.634  0.00  0.00     0.003 A 
ATOM      8  C6  PXY d   1      -5.297   3.994   5.506  0.00  0.00     0.003 A 
ENDROOT
TORSDOF 0
ENDMDL
