MODEL 1
REMARK minimizedAffinity -2.3575995
REMARK minimizedRMSD -1
REMARK  0 active torsions:
REMARK  status: ('A' for Active; 'I' for Inactive)
ROOT
ATOM      1  C4' PXY d   1      -4.875   3.219   5.999  0.00  0.00     0.077 C 
ATOM      2  C1' PXY d   1      -5.999   6.000   1.058  0.00  0.00     0.077 C 
ATOM      3  C1  PXY d   1      -5.699   5.282   2.359  0.00  0.00    -0.082 A 
ATOM      4  C2  PXY d   1      -5.554   3.967   2.361  0.00  0.00     0.003 A 
ATOM      5  C3  PXY d   1      -5.314   3.298   3.534  0.00  0.00     0.003 A 
ATOM      6  C4  PXY d   1      -5.169   3.987   4.708  0.00  0.00    -0.082 A 
ATOM      7  C5  PXY d   1      -5.305   5.330   4.711  0.00  0.00     0.003 A 
ATOM      8  C6  PXY d   1      -5.589   5.986   3.517  0.00  0.00     0.003 A 
ENDROOT
TORSDOF 0
ENDMDL
