MODEL 1
REMARK minimizedAffinity -2.99278235
REMARK minimizedRMSD -1
REMARK  0 active torsions:
REMARK  status: ('A' for Active; 'I' for Inactive)
ROOT
ATOM      1  C4' PXY d   1      -5.262   5.994   1.333  0.00  0.00     0.077 C 
ATOM      2  C1' PXY d   1      -5.856   2.636   6.000  0.00  0.00     0.077 C 
ATOM      3  C1  PXY d   1      -5.709   3.525   4.781  0.00  0.00    -0.082 A 
ATOM      4  C2  PXY d   1      -5.336   2.997   3.627  0.00  0.00     0.003 A 
ATOM      5  C3  PXY d   1      -5.166   3.792   2.523  0.00  0.00     0.003 A 
ATOM      6  C4  PXY d   1      -5.433   5.133   2.587  0.00  0.00    -0.082 A 
ATOM      7  C5  PXY d   1      -5.824   5.678   3.758  0.00  0.00     0.003 A 
ATOM      8  C6  PXY d   1      -5.950   4.861   4.878  0.00  0.00     0.003 A 
ENDROOT
TORSDOF 0
ENDMDL
