MODEL 1
REMARK minimizedAffinity -3.22396326
REMARK minimizedRMSD -1
REMARK  0 active torsions:
REMARK  status: ('A' for Active; 'I' for Inactive)
ROOT
ATOM      1  C4' PXY d   1      -4.878   5.971   0.938  0.00  0.00     0.077 C 
ATOM      2  C1' PXY d   1      -5.976   3.343   5.968  0.00  0.00     0.077 C 
ATOM      3  C1  PXY d   1      -5.697   4.041   4.651  0.00  0.00    -0.082 A 
ATOM      4  C2  PXY d   1      -5.151   3.363   3.655  0.00  0.00     0.003 A 
ATOM      5  C3  PXY d   1      -4.863   3.987   2.468  0.00  0.00     0.003 A 
ATOM      6  C4  PXY d   1      -5.186   5.305   2.282  0.00  0.00    -0.082 A 
ATOM      7  C5  PXY d   1      -5.753   6.000   3.290  0.00  0.00     0.003 A 
ATOM      8  C6  PXY d   1      -6.000   5.359   4.501  0.00  0.00     0.003 A 
ENDROOT
TORSDOF 0
ENDMDL
