MODEL 1
REMARK minimizedAffinity -0.81489265
REMARK minimizedRMSD -1
REMARK  0 active torsions:
REMARK  status: ('A' for Active; 'I' for Inactive)
ROOT
ATOM      1  C4' PXY d   1       1.533  -0.705  -0.549  0.00  0.00     0.077 C 
ATOM      2  C1' PXY d   1      -3.881   0.217   1.254  0.00  0.00     0.077 C 
ATOM      3  C1  PXY d   1      -2.457  -0.020   0.792  0.00  0.00    -0.082 A 
ATOM      4  C2  PXY d   1      -2.197  -0.123  -0.501  0.00  0.00     0.003 A 
ATOM      5  C3  PXY d   1      -0.919  -0.368  -0.934  0.00  0.00     0.003 A 
ATOM      6  C4  PXY d   1       0.111  -0.457  -0.037  0.00  0.00    -0.082 A 
ATOM      7  C5  PXY d   1      -0.144  -0.343   1.283  0.00  0.00     0.003 A 
ATOM      8  C6  PXY d   1      -1.454  -0.134   1.705  0.00  0.00     0.003 A 
ENDROOT
TORSDOF 0
ENDMDL
