MODEL 1
REMARK minimizedAffinity -1.47905123
REMARK minimizedRMSD -1
REMARK  0 active torsions:
REMARK  status: ('A' for Active; 'I' for Inactive)
ROOT
ATOM      1  C4' PXY d   1      -5.183   3.973   0.449  0.00  0.00     0.077 C 
ATOM      2  C1' PXY d   1      -5.976   5.435   5.986  0.00  0.00     0.077 C 
ATOM      3  C1  PXY d   1      -5.776   5.061   4.530  0.00  0.00    -0.082 A 
ATOM      4  C2  PXY d   1      -5.399   3.832   4.216  0.00  0.00     0.003 A 
ATOM      5  C3  PXY d   1      -5.183   3.486   2.907  0.00  0.00     0.003 A 
ATOM      6  C4  PXY d   1      -5.406   4.392   1.905  0.00  0.00    -0.082 A 
ATOM      7  C5  PXY d   1      -5.801   5.645   2.216  0.00  0.00     0.003 A 
ATOM      8  C6  PXY d   1      -5.975   5.988   3.554  0.00  0.00     0.003 A 
ENDROOT
TORSDOF 0
ENDMDL
