MODEL 1
REMARK minimizedAffinity 1.04033601
REMARK minimizedRMSD -1
REMARK  0 active torsions:
REMARK  status: ('A' for Active; 'I' for Inactive)
ROOT
ATOM      1  C4' PXY d   1      -6.000   4.948  -0.097  0.00  0.00     0.077 C 
ATOM      2  C1' PXY d   1      -4.514   4.854   5.488  0.00  0.00     0.077 C 
ATOM      3  C1  PXY d   1      -4.895   4.869   4.021  0.00  0.00    -0.082 A 
ATOM      4  C2  PXY d   1      -5.373   5.978   3.480  0.00  0.00     0.003 A 
ATOM      5  C3  PXY d   1      -5.753   6.000   2.163  0.00  0.00     0.003 A 
ATOM      6  C4  PXY d   1      -5.593   4.890   1.377  0.00  0.00    -0.082 A 
ATOM      7  C5  PXY d   1      -5.096   3.757   1.919  0.00  0.00     0.003 A 
ATOM      8  C6  PXY d   1      -4.755   3.744   3.268  0.00  0.00     0.003 A 
ENDROOT
TORSDOF 0
ENDMDL
