MODEL 1
REMARK minimizedAffinity -2.65674782
REMARK minimizedRMSD -1
REMARK  0 active torsions:
REMARK  status: ('A' for Active; 'I' for Inactive)
ROOT
ATOM      1  C4' PXY d   1      -4.129   3.252   6.000  0.00  0.00     0.077 C 
ATOM      2  C1' PXY d   1      -5.653   6.000   1.148  0.00  0.00     0.077 C 
ATOM      3  C1  PXY d   1      -5.250   5.291   2.426  0.00  0.00    -0.082 A 
ATOM      4  C2  PXY d   1      -4.914   4.012   2.386  0.00  0.00     0.003 A 
ATOM      5  C3  PXY d   1      -4.578   3.347   3.537  0.00  0.00     0.003 A 
ATOM      6  C4  PXY d   1      -4.534   4.011   4.733  0.00  0.00    -0.082 A 
ATOM      7  C5  PXY d   1      -4.866   5.319   4.781  0.00  0.00     0.003 A 
ATOM      8  C6  PXY d   1      -5.244   5.965   3.607  0.00  0.00     0.003 A 
ENDROOT
TORSDOF 0
ENDMDL
