MODEL 1
REMARK minimizedAffinity 6.87097025
REMARK minimizedRMSD -1
REMARK  0 active torsions:
REMARK  status: ('A' for Active; 'I' for Inactive)
ROOT
ATOM      1  C4' PXY d   1      -5.405   4.238  -1.538  0.00  0.00     0.077 C 
ATOM      2  C1' PXY d   1      -5.665   5.316   4.135  0.00  0.00     0.077 C 
ATOM      3  C1  PXY d   1      -5.606   5.042   2.645  0.00  0.00    -0.082 A 
ATOM      4  C2  PXY d   1      -5.164   3.873   2.212  0.00  0.00     0.003 A 
ATOM      5  C3  PXY d   1      -5.074   3.620   0.867  0.00  0.00     0.003 A 
ATOM      6  C4  PXY d   1      -5.491   4.555  -0.043  0.00  0.00    -0.082 A 
ATOM      7  C5  PXY d   1      -5.953   5.746   0.392  0.00  0.00     0.003 A 
ATOM      8  C6  PXY d   1      -5.997   5.999   1.760  0.00  0.00     0.003 A 
ENDROOT
TORSDOF 0
ENDMDL
