MODEL 1
REMARK minimizedAffinity 0.728615344
REMARK minimizedRMSD -1
REMARK  0 active torsions:
REMARK  status: ('A' for Active; 'I' for Inactive)
ROOT
ATOM      1  C4' PXY d   1      -3.493  -1.380   0.418  0.00  0.00     0.077 C 
ATOM      2  C1' PXY d   1       1.867   0.110  -1.150  0.00  0.00     0.077 C 
ATOM      3  C1  PXY d   1       0.466  -0.288  -0.729  0.00  0.00    -0.082 A 
ATOM      4  C2  PXY d   1      -0.516  -0.257  -1.615  0.00  0.00     0.003 A 
ATOM      5  C3  PXY d   1      -1.795  -0.583  -1.243  0.00  0.00     0.003 A 
ATOM      6  C4  PXY d   1      -2.062  -0.996   0.035  0.00  0.00    -0.082 A 
ATOM      7  C5  PXY d   1      -1.062  -1.040   0.942  0.00  0.00     0.003 A 
ATOM      8  C6  PXY d   1       0.221  -0.666   0.555  0.00  0.00     0.003 A 
ENDROOT
TORSDOF 0
ENDMDL
