MODEL 1
REMARK minimizedAffinity -2.32477617
REMARK minimizedRMSD -1
REMARK  0 active torsions:
REMARK  status: ('A' for Active; 'I' for Inactive)
ROOT
ATOM      1  C4' PXY d   1      -4.949   3.433   0.375  0.00  0.00     0.077 C 
ATOM      2  C1' PXY d   1      -6.000   6.000   5.447  0.00  0.00     0.077 C 
ATOM      3  C1  PXY d   1      -5.733   5.334   4.111  0.00  0.00    -0.082 A 
ATOM      4  C2  PXY d   1      -5.238   4.108   4.079  0.00  0.00     0.003 A 
ATOM      5  C3  PXY d   1      -4.961   3.503   2.880  0.00  0.00     0.003 A 
ATOM      6  C4  PXY d   1      -5.243   4.140   1.701  0.00  0.00    -0.082 A 
ATOM      7  C5  PXY d   1      -5.758   5.388   1.726  0.00  0.00     0.003 A 
ATOM      8  C6  PXY d   1      -5.994   6.000   2.954  0.00  0.00     0.003 A 
ENDROOT
TORSDOF 0
ENDMDL
