MODEL 1
REMARK minimizedAffinity 1.19613397
REMARK minimizedRMSD -1
REMARK  0 active torsions:
REMARK  status: ('A' for Active; 'I' for Inactive)
ROOT
ATOM      1  C4' PXY d   1      -5.554   3.095   0.320  0.00  0.00     0.077 C 
ATOM      2  C1' PXY d   1      -5.887   5.996   5.309  0.00  0.00     0.077 C 
ATOM      3  C1  PXY d   1      -5.805   5.245   3.995  0.00  0.00    -0.082 A 
ATOM      4  C2  PXY d   1      -5.731   3.924   3.999  0.00  0.00     0.003 A 
ATOM      5  C3  PXY d   1      -5.625   3.231   2.821  0.00  0.00     0.003 A 
ATOM      6  C4  PXY d   1      -5.648   3.894   1.623  0.00  0.00    -0.082 A 
ATOM      7  C5  PXY d   1      -5.734   5.241   1.609  0.00  0.00     0.003 A 
ATOM      8  C6  PXY d   1      -5.800   5.929   2.818  0.00  0.00     0.003 A 
ENDROOT
TORSDOF 0
ENDMDL
