MODEL 1
REMARK minimizedAffinity -2.04014659
REMARK minimizedRMSD -1
REMARK  0 active torsions:
REMARK  status: ('A' for Active; 'I' for Inactive)
ROOT
ATOM      1  C4' PXY d   1      -4.710   3.189   6.000  0.00  0.00     0.077 C 
ATOM      2  C1' PXY d   1      -4.655   5.999   0.948  0.00  0.00     0.077 C 
ATOM      3  C1  PXY d   1      -4.672   5.251   2.267  0.00  0.00    -0.082 A 
ATOM      4  C2  PXY d   1      -4.918   5.908   3.388  0.00  0.00     0.003 A 
ATOM      5  C3  PXY d   1      -4.906   5.253   4.593  0.00  0.00     0.003 A 
ATOM      6  C4  PXY d   1      -4.692   3.902   4.644  0.00  0.00    -0.082 A 
ATOM      7  C5  PXY d   1      -4.451   3.222   3.503  0.00  0.00     0.003 A 
ATOM      8  C6  PXY d   1      -4.427   3.913   2.295  0.00  0.00     0.003 A 
ENDROOT
TORSDOF 0
ENDMDL
