MODEL 1
REMARK minimizedAffinity -2.97753096
REMARK minimizedRMSD -1
REMARK  0 active torsions:
REMARK  status: ('A' for Active; 'I' for Inactive)
ROOT
ATOM      1  C4' PXY d   1      -5.788   5.981   2.928  0.00  0.00     0.077 C 
ATOM      2  C1' PXY d   1      -4.779   1.189   6.000  0.00  0.00     0.077 C 
ATOM      3  C1  PXY d   1      -5.054   2.449   5.202  0.00  0.00    -0.082 A 
ATOM      4  C2  PXY d   1      -4.661   2.523   3.941  0.00  0.00     0.003 A 
ATOM      5  C3  PXY d   1      -4.873   3.666   3.214  0.00  0.00     0.003 A 
ATOM      6  C4  PXY d   1      -5.541   4.725   3.768  0.00  0.00    -0.082 A 
ATOM      7  C5  PXY d   1      -5.954   4.654   5.052  0.00  0.00     0.003 A 
ATOM      8  C6  PXY d   1      -5.693   3.500   5.784  0.00  0.00     0.003 A 
ENDROOT
TORSDOF 0
ENDMDL
