MODEL 1
REMARK minimizedAffinity -0.616571307
REMARK minimizedRMSD -1
REMARK  0 active torsions:
REMARK  status: ('A' for Active; 'I' for Inactive)
ROOT
ATOM      1  C2' OXE d   1       0.587   5.375  -1.583  0.00  0.00     0.078 C 
ATOM      2  C1' OXE d   1      -0.756   3.186  -2.717  0.00  0.00     0.078 C 
ATOM      3  C1  OXE d   1      -0.500   3.161  -1.231  0.00  0.00    -0.078 A 
ATOM      4  C2  OXE d   1       0.199   4.214  -0.692  0.00  0.00    -0.078 A 
ATOM      5  C3  OXE d   1       0.414   4.268   0.682  0.00  0.00     0.003 A 
ATOM      6  C4  OXE d   1       0.060   3.186   1.498  0.00  0.00    -0.002 A 
ATOM      7  C5  OXE d   1      -0.617   2.085   0.963  0.00  0.00    -0.002 A 
ATOM      8  C6  OXE d   1      -0.942   2.076  -0.389  0.00  0.00     0.003 A 
ENDROOT
TORSDOF 0
ENDMDL
