MODEL 1
REMARK minimizedAffinity -0.342294544
REMARK minimizedRMSD -1
REMARK  0 active torsions:
REMARK  status: ('A' for Active; 'I' for Inactive)
ROOT
ATOM      1  C2' OXE d   1      -0.147   3.648  -2.013  0.00  0.00     0.078 C 
ATOM      2  C1' OXE d   1      -0.456   6.000  -0.512  0.00  0.00     0.078 C 
ATOM      3  C1  OXE d   1      -0.234   4.711   0.238  0.00  0.00    -0.078 A 
ATOM      4  C2  OXE d   1      -0.130   3.558  -0.502  0.00  0.00    -0.078 A 
ATOM      5  C3  OXE d   1       0.131   2.349   0.137  0.00  0.00     0.003 A 
ATOM      6  C4  OXE d   1       0.135   2.273   1.535  0.00  0.00    -0.002 A 
ATOM      7  C5  OXE d   1      -0.008   3.430   2.309  0.00  0.00    -0.002 A 
ATOM      8  C6  OXE d   1      -0.150   4.660   1.677  0.00  0.00     0.003 A 
ENDROOT
TORSDOF 0
ENDMDL
