MODEL 1
REMARK minimizedAffinity 7.50382566
REMARK minimizedRMSD -1
REMARK  0 active torsions:
REMARK  status: ('A' for Active; 'I' for Inactive)
ROOT
ATOM      1  C2' OXE d   1      -2.437   1.809   2.423  0.00  0.00     0.078 C 
ATOM      2  C1' OXE d   1       0.170   0.769   2.348  0.00  0.00     0.078 C 
ATOM      3  C1  OXE d   1      -0.149   1.933   1.445  0.00  0.00    -0.078 A 
ATOM      4  C2  OXE d   1      -1.439   2.406   1.453  0.00  0.00    -0.078 A 
ATOM      5  C3  OXE d   1      -1.773   3.513   0.679  0.00  0.00     0.003 A 
ATOM      6  C4  OXE d   1      -0.848   4.054  -0.222  0.00  0.00    -0.002 A 
ATOM      7  C5  OXE d   1       0.461   3.562  -0.275  0.00  0.00    -0.002 A 
ATOM      8  C6  OXE d   1       0.837   2.532   0.580  0.00  0.00     0.003 A 
ENDROOT
TORSDOF 0
ENDMDL
