MODEL 1
REMARK minimizedAffinity 13.362751
REMARK minimizedRMSD -1
REMARK  0 active torsions:
REMARK  status: ('A' for Active; 'I' for Inactive)
ROOT
ATOM      1  C2' OXE d   1       1.812  -3.779  -2.632  0.00  0.00     0.078 C 
ATOM      2  C1' OXE d   1       2.604  -2.451  -4.975  0.00  0.00     0.078 C 
ATOM      3  C1  OXE d   1       3.671  -3.145  -4.165  0.00  0.00    -0.078 A 
ATOM      4  C2  OXE d   1       3.281  -3.752  -2.995  0.00  0.00    -0.078 A 
ATOM      5  C3  OXE d   1       4.216  -4.453  -2.238  0.00  0.00     0.003 A 
ATOM      6  C4  OXE d   1       5.574  -4.415  -2.576  0.00  0.00    -0.002 A 
ATOM      7  C5  OXE d   1       5.998  -3.769  -3.742  0.00  0.00    -0.002 A 
ATOM      8  C6  OXE d   1       5.055  -3.166  -4.568  0.00  0.00     0.003 A 
ENDROOT
TORSDOF 0
ENDMDL
