MODEL 1
REMARK minimizedAffinity 5.33679628
REMARK minimizedRMSD -1
REMARK  0 active torsions:
REMARK  status: ('A' for Active; 'I' for Inactive)
ROOT
ATOM      1  C2' OXE d   1      -5.659  -5.088   5.974  0.00  0.00     0.078 C 
ATOM      2  C1' OXE d   1      -4.029  -2.802   5.999  0.00  0.00     0.078 C 
ATOM      3  C1  OXE d   1      -4.624  -3.227   4.680  0.00  0.00    -0.078 A 
ATOM      4  C2  OXE d   1      -5.383  -4.373   4.669  0.00  0.00    -0.078 A 
ATOM      5  C3  OXE d   1      -6.000  -4.780   3.489  0.00  0.00     0.003 A 
ATOM      6  C4  OXE d   1      -5.731  -4.119   2.284  0.00  0.00    -0.002 A 
ATOM      7  C5  OXE d   1      -4.929  -2.973   2.267  0.00  0.00    -0.002 A 
ATOM      8  C6  OXE d   1      -4.404  -2.490   3.461  0.00  0.00     0.003 A 
ENDROOT
TORSDOF 0
ENDMDL
