MODEL 1
REMARK minimizedAffinity 4.41061831
REMARK minimizedRMSD -1
REMARK  0 active torsions:
REMARK  status: ('A' for Active; 'I' for Inactive)
ROOT
ATOM      1  C2' OXE d   1      -5.110  -3.142   2.409  0.00  0.00     0.078 C 
ATOM      2  C1' OXE d   1      -3.853  -2.247   4.754  0.00  0.00     0.078 C 
ATOM      3  C1  OXE d   1      -4.584  -3.565   4.807  0.00  0.00    -0.078 A 
ATOM      4  C2  OXE d   1      -5.236  -3.972   3.668  0.00  0.00    -0.078 A 
ATOM      5  C3  OXE d   1      -5.879  -5.206   3.647  0.00  0.00     0.003 A 
ATOM      6  C4  OXE d   1      -6.000  -5.964   4.818  0.00  0.00    -0.002 A 
ATOM      7  C5  OXE d   1      -5.377  -5.547   6.000  0.00  0.00    -0.002 A 
ATOM      8  C6  OXE d   1      -4.631  -4.374   6.000  0.00  0.00     0.003 A 
ENDROOT
TORSDOF 0
ENDMDL
