MODEL 1
REMARK minimizedAffinity 15.6176205
REMARK minimizedRMSD -1
REMARK  0 active torsions:
REMARK  status: ('A' for Active; 'I' for Inactive)
ROOT
ATOM      1  C2' OXE d   1      -1.906   1.444  -0.952  0.00  0.00     0.078 C 
ATOM      2  C1' OXE d   1      -2.970   1.989  -3.492  0.00  0.00     0.078 C 
ATOM      3  C1  OXE d   1      -1.826   2.846  -3.009  0.00  0.00    -0.078 A 
ATOM      4  C2  OXE d   1      -1.343   2.603  -1.746  0.00  0.00    -0.078 A 
ATOM      5  C3  OXE d   1      -0.253   3.328  -1.273  0.00  0.00     0.003 A 
ATOM      6  C4  OXE d   1       0.255   4.405  -2.010  0.00  0.00    -0.002 A 
ATOM      7  C5  OXE d   1      -0.249   4.696  -3.282  0.00  0.00    -0.002 A 
ATOM      8  C6  OXE d   1      -1.259   3.901  -3.813  0.00  0.00     0.003 A 
ENDROOT
TORSDOF 0
ENDMDL
