MODEL 1
REMARK minimizedAffinity 2.40862298
REMARK minimizedRMSD -1
REMARK  0 active torsions:
REMARK  status: ('A' for Active; 'I' for Inactive)
ROOT
ATOM      1  C2' OXE d   1      -2.153   0.792   3.504  0.00  0.00     0.078 C 
ATOM      2  C1' OXE d   1       0.644   0.686   3.714  0.00  0.00     0.078 C 
ATOM      3  C1  OXE d   1       0.052   1.540   2.620  0.00  0.00    -0.078 A 
ATOM      4  C2  OXE d   1      -1.316   1.549   2.496  0.00  0.00    -0.078 A 
ATOM      5  C3  OXE d   1      -1.916   2.363   1.539  0.00  0.00     0.003 A 
ATOM      6  C4  OXE d   1      -1.134   3.052   0.604  0.00  0.00    -0.002 A 
ATOM      7  C5  OXE d   1       0.262   3.025   0.688  0.00  0.00    -0.002 A 
ATOM      8  C6  OXE d   1       0.869   2.309   1.714  0.00  0.00     0.003 A 
ENDROOT
TORSDOF 0
ENDMDL
