MODEL 1
REMARK minimizedAffinity 14.8184566
REMARK minimizedRMSD -1
REMARK  0 active torsions:
REMARK  status: ('A' for Active; 'I' for Inactive)
ROOT
ATOM      1  C2' OXE d   1      -1.871   5.316  -2.589  0.00  0.00     0.078 C 
ATOM      2  C1' OXE d   1      -1.271   2.606  -3.006  0.00  0.00     0.078 C 
ATOM      3  C1  OXE d   1      -0.585   3.311  -1.863  0.00  0.00    -0.078 A 
ATOM      4  C2  OXE d   1      -0.849   4.649  -1.695  0.00  0.00    -0.078 A 
ATOM      5  C3  OXE d   1      -0.284   5.334  -0.623  0.00  0.00     0.003 A 
ATOM      6  C4  OXE d   1       0.668   4.712   0.194  0.00  0.00    -0.002 A 
ATOM      7  C5  OXE d   1       0.981   3.360   0.016  0.00  0.00    -0.002 A 
ATOM      8  C6  OXE d   1       0.334   2.636  -0.979  0.00  0.00     0.003 A 
ENDROOT
TORSDOF 0
ENDMDL
