MODEL 1
REMARK minimizedAffinity 1.33833873
REMARK minimizedRMSD -1
REMARK  0 active torsions:
REMARK  status: ('A' for Active; 'I' for Inactive)
ROOT
ATOM      1  C2' OXE d   1      -0.489   1.877   2.960  0.00  0.00     0.078 C 
ATOM      2  C1' OXE d   1       1.455   3.900   2.867  0.00  0.00     0.078 C 
ATOM      3  C1  OXE d   1       0.763   3.530   1.579  0.00  0.00    -0.078 A 
ATOM      4  C2  OXE d   1      -0.154   2.507   1.625  0.00  0.00    -0.078 A 
ATOM      5  C3  OXE d   1      -0.861   2.162   0.477  0.00  0.00     0.003 A 
ATOM      6  C4  OXE d   1      -0.537   2.743  -0.755  0.00  0.00    -0.002 A 
ATOM      7  C5  OXE d   1       0.421   3.759  -0.832  0.00  0.00    -0.002 A 
ATOM      8  C6  OXE d   1       1.048   4.193   0.331  0.00  0.00     0.003 A 
ENDROOT
TORSDOF 0
ENDMDL
