MODEL 1
REMARK minimizedAffinity 6.45011234
REMARK minimizedRMSD -1
REMARK  0 active torsions:
REMARK  status: ('A' for Active; 'I' for Inactive)
ROOT
ATOM      1  C2' OXE d   1       0.569   4.149   1.649  0.00  0.00     0.078 C 
ATOM      2  C1' OXE d   1      -0.986   1.815   1.778  0.00  0.00     0.078 C 
ATOM      3  C1  OXE d   1      -0.802   2.465   0.429  0.00  0.00    -0.078 A 
ATOM      4  C2  OXE d   1      -0.079   3.632   0.383  0.00  0.00    -0.078 A 
ATOM      5  C3  OXE d   1       0.167   4.242  -0.844  0.00  0.00     0.003 A 
ATOM      6  C4  OXE d   1      -0.445   3.763  -2.009  0.00  0.00    -0.002 A 
ATOM      7  C5  OXE d   1      -1.218   2.598  -1.977  0.00  0.00    -0.002 A 
ATOM      8  C6  OXE d   1      -1.371   1.915  -0.776  0.00  0.00     0.003 A 
ENDROOT
TORSDOF 0
ENDMDL
