MODEL 1
REMARK minimizedAffinity 10.7606268
REMARK minimizedRMSD -1
REMARK  0 active torsions:
REMARK  status: ('A' for Active; 'I' for Inactive)
ROOT
ATOM      1  C2' OXE d   1       1.206   4.374   0.367  0.00  0.00     0.078 C 
ATOM      2  C1' OXE d   1      -0.050   1.872   0.584  0.00  0.00     0.078 C 
ATOM      3  C1  OXE d   1      -0.208   2.629  -0.711  0.00  0.00    -0.078 A 
ATOM      4  C2  OXE d   1       0.371   3.873  -0.791  0.00  0.00    -0.078 A 
ATOM      5  C3  OXE d   1       0.302   4.589  -1.983  0.00  0.00     0.003 A 
ATOM      6  C4  OXE d   1      -0.481   4.123  -3.046  0.00  0.00    -0.002 A 
ATOM      7  C5  OXE d   1      -1.111   2.877  -2.970  0.00  0.00    -0.002 A 
ATOM      8  C6  OXE d   1      -0.950   2.100  -1.829  0.00  0.00     0.003 A 
ENDROOT
TORSDOF 0
ENDMDL
