MODEL 1
REMARK minimizedAffinity 0.886369526
REMARK minimizedRMSD -1
REMARK  0 active torsions:
REMARK  status: ('A' for Active; 'I' for Inactive)
ROOT
ATOM      1  C2' OXE d   1      -4.121  -3.246   5.806  0.00  0.00     0.078 C 
ATOM      2  C1' OXE d   1      -5.999  -5.324   5.997  0.00  0.00     0.078 C 
ATOM      3  C1  OXE d   1      -5.522  -4.931   4.621  0.00  0.00    -0.078 A 
ATOM      4  C2  OXE d   1      -4.639  -3.882   4.534  0.00  0.00    -0.078 A 
ATOM      5  C3  OXE d   1      -4.125  -3.515   3.293  0.00  0.00     0.003 A 
ATOM      6  C4  OXE d   1      -4.616  -4.102   2.121  0.00  0.00    -0.002 A 
ATOM      7  C5  OXE d   1      -5.546  -5.145   2.185  0.00  0.00    -0.002 A 
ATOM      8  C6  OXE d   1      -5.977  -5.599   3.427  0.00  0.00     0.003 A 
ENDROOT
TORSDOF 0
ENDMDL
