MODEL 1
REMARK minimizedAffinity 3.23123455
REMARK minimizedRMSD -1
REMARK  0 active torsions:
REMARK  status: ('A' for Active; 'I' for Inactive)
ROOT
ATOM      1  C2' OXE d   1       0.742   3.759   2.232  0.00  0.00     0.078 C 
ATOM      2  C1' OXE d   1       0.202   2.807  -0.353  0.00  0.00     0.078 C 
ATOM      3  C1  OXE d   1      -0.400   2.061   0.811  0.00  0.00    -0.078 A 
ATOM      4  C2  OXE d   1      -0.093   2.506   2.074  0.00  0.00    -0.078 A 
ATOM      5  C3  OXE d   1      -0.666   1.887   3.182  0.00  0.00     0.003 A 
ATOM      6  C4  OXE d   1      -1.429   0.724   3.027  0.00  0.00    -0.002 A 
ATOM      7  C5  OXE d   1      -1.722   0.230   1.751  0.00  0.00    -0.002 A 
ATOM      8  C6  OXE d   1      -1.251   0.911   0.633  0.00  0.00     0.003 A 
ENDROOT
TORSDOF 0
ENDMDL
