MODEL 1
REMARK minimizedAffinity 12.27174
REMARK minimizedRMSD -1
REMARK  0 active torsions:
REMARK  status: ('A' for Active; 'I' for Inactive)
ROOT
ATOM      1  C2' OXE d   1      -3.510   4.897   1.154  0.00  0.00     0.078 C 
ATOM      2  C1' OXE d   1      -2.458   2.353   0.607  0.00  0.00     0.078 C 
ATOM      3  C1  OXE d   1      -1.555   3.545   0.410  0.00  0.00    -0.078 A 
ATOM      4  C2  OXE d   1      -2.092   4.789   0.635  0.00  0.00    -0.078 A 
ATOM      5  C3  OXE d   1      -1.287   5.919   0.521  0.00  0.00     0.003 A 
ATOM      6  C4  OXE d   1       0.020   5.811   0.031  0.00  0.00    -0.002 A 
ATOM      7  C5  OXE d   1       0.574   4.556  -0.242  0.00  0.00    -0.002 A 
ATOM      8  C6  OXE d   1      -0.184   3.413  -0.018  0.00  0.00     0.003 A 
ENDROOT
TORSDOF 0
ENDMDL
