MODEL 1
REMARK minimizedAffinity -3.16609383
REMARK minimizedRMSD -1
REMARK  0 active torsions:
REMARK  status: ('A' for Active; 'I' for Inactive)
ROOT
ATOM      1  C2' OXE d   1      -5.768   0.624  -4.126  0.00  0.00     0.078 C 
ATOM      2  C1' OXE d   1      -3.339   1.475  -3.006  0.00  0.00     0.078 C 
ATOM      3  C1  OXE d   1      -4.086   0.366  -2.307  0.00  0.00    -0.078 A 
ATOM      4  C2  OXE d   1      -5.296  -0.012  -2.836  0.00  0.00    -0.078 A 
ATOM      5  C3  OXE d   1      -5.999  -1.067  -2.263  0.00  0.00     0.003 A 
ATOM      6  C4  OXE d   1      -5.561  -1.643  -1.064  0.00  0.00    -0.002 A 
ATOM      7  C5  OXE d   1      -4.350  -1.245  -0.487  0.00  0.00    -0.002 A 
ATOM      8  C6  OXE d   1      -3.581  -0.274  -1.117  0.00  0.00     0.003 A 
ENDROOT
TORSDOF 0
ENDMDL
