MODEL 1
REMARK minimizedAffinity -2.3984561
REMARK minimizedRMSD -1
REMARK  0 active torsions:
REMARK  status: ('A' for Active; 'I' for Inactive)
ROOT
ATOM      1  C2' OXE d   1      -5.977  -2.905   5.991  0.00  0.00     0.078 C 
ATOM      2  C1' OXE d   1      -5.534  -4.374   3.641  0.00  0.00     0.078 C 
ATOM      3  C1  OXE d   1      -4.361  -3.643   4.246  0.00  0.00    -0.078 A 
ATOM      4  C2  OXE d   1      -4.598  -2.889   5.370  0.00  0.00    -0.078 A 
ATOM      5  C3  OXE d   1      -3.540  -2.239   5.999  0.00  0.00     0.003 A 
ATOM      6  C4  OXE d   1      -2.269  -2.221   5.412  0.00  0.00    -0.002 A 
ATOM      7  C5  OXE d   1      -2.015  -2.950   4.245  0.00  0.00    -0.002 A 
ATOM      8  C6  OXE d   1      -3.038  -3.700   3.674  0.00  0.00     0.003 A 
ENDROOT
TORSDOF 0
ENDMDL
