MODEL 1
REMARK minimizedAffinity 1.86007833
REMARK minimizedRMSD -1
REMARK  0 active torsions:
REMARK  status: ('A' for Active; 'I' for Inactive)
ROOT
ATOM      1  O1  BZF d   1       5.459  -3.720   2.002  0.00  0.00    -0.204 OA
ATOM      2  C2  BZF d   1       4.869  -4.897   1.583  0.00  0.00     0.174 A 
ATOM      3  C3  BZF d   1       4.534  -5.666   2.639  0.00  0.00    -0.012 A 
ATOM      4  C3A BZF d   1       4.855  -4.884   3.792  0.00  0.00    -0.107 A 
ATOM      5  C4  BZF d   1       4.736  -5.098   5.136  0.00  0.00     0.055 A 
ATOM      6  C5  BZF d   1       5.212  -4.163   5.999  0.00  0.00    -0.016 A 
ATOM      7  C6  BZF d   1       5.816  -3.005   5.554  0.00  0.00     0.022 A 
ATOM      8  C7  BZF d   1       5.952  -2.745   4.231  0.00  0.00     0.029 A 
ATOM      9  C7A BZF d   1       5.443  -3.674   3.356  0.00  0.00     0.058 A 
ENDROOT
TORSDOF 0
ENDMDL
