MODEL 1
REMARK minimizedAffinity 4.82584667
REMARK minimizedRMSD -1
REMARK  0 active torsions:
REMARK  status: ('A' for Active; 'I' for Inactive)
ROOT
ATOM      1  O1  BZF d   1      -5.012   0.593  -3.769  0.00  0.00    -0.204 OA
ATOM      2  C2  BZF d   1      -5.527   1.082  -4.954  0.00  0.00     0.174 A 
ATOM      3  C3  BZF d   1      -4.767   0.701  -6.000  0.00  0.00    -0.012 A 
ATOM      4  C3A BZF d   1      -3.762  -0.152  -5.443  0.00  0.00    -0.107 A 
ATOM      5  C4  BZF d   1      -2.721  -0.853  -5.983  0.00  0.00     0.055 A 
ATOM      6  C5  BZF d   1      -1.882  -1.531  -5.156  0.00  0.00    -0.016 A 
ATOM      7  C6  BZF d   1      -2.051  -1.524  -3.787  0.00  0.00     0.022 A 
ATOM      8  C7  BZF d   1      -3.071  -0.847  -3.206  0.00  0.00     0.029 A 
ATOM      9  C7A BZF d   1      -3.940  -0.189  -4.041  0.00  0.00     0.058 A 
ENDROOT
TORSDOF 0
ENDMDL
