MODEL 1
REMARK minimizedAffinity -0.21511896
REMARK minimizedRMSD -1
REMARK  0 active torsions:
REMARK  status: ('A' for Active; 'I' for Inactive)
ROOT
ATOM      1  O1  BZF d   1      -5.278  -0.011  -5.596  0.00  0.00    -0.204 OA
ATOM      2  C2  BZF d   1      -4.399   0.976  -5.999  0.00  0.00     0.174 A 
ATOM      3  C3  BZF d   1      -3.338   1.041  -5.170  0.00  0.00    -0.012 A 
ATOM      4  C3A BZF d   1      -3.522  -0.031  -4.239  0.00  0.00    -0.107 A 
ATOM      5  C4  BZF d   1      -2.792  -0.491  -3.181  0.00  0.00     0.055 A 
ATOM      6  C5  BZF d   1      -3.286  -1.512  -2.432  0.00  0.00    -0.016 A 
ATOM      7  C6  BZF d   1      -4.507  -2.091  -2.709  0.00  0.00     0.022 A 
ATOM      8  C7  BZF d   1      -5.265  -1.671  -3.751  0.00  0.00     0.029 A 
ATOM      9  C7A BZF d   1      -4.753  -0.662  -4.530  0.00  0.00     0.058 A 
ENDROOT
TORSDOF 0
ENDMDL
