MODEL 1
REMARK minimizedAffinity 2.31613946
REMARK minimizedRMSD -1
REMARK  0 active torsions:
REMARK  status: ('A' for Active; 'I' for Inactive)
ROOT
ATOM      1  O1  BZF d   1      -2.689  -1.440  -3.750  0.00  0.00    -0.204 OA
ATOM      2  C2  BZF d   1      -1.705  -1.131  -4.670  0.00  0.00     0.174 A 
ATOM      3  C3  BZF d   1      -2.182  -0.297  -5.617  0.00  0.00    -0.012 A 
ATOM      4  C3A BZF d   1      -3.522   0.002  -5.215  0.00  0.00    -0.107 A 
ATOM      5  C4  BZF d   1      -4.506   0.789  -5.742  0.00  0.00     0.055 A 
ATOM      6  C5  BZF d   1      -5.727   0.807  -5.145  0.00  0.00    -0.016 A 
ATOM      7  C6  BZF d   1      -6.000   0.048  -4.026  0.00  0.00     0.022 A 
ATOM      8  C7  BZF d   1      -5.054  -0.744  -3.465  0.00  0.00     0.029 A 
ATOM      9  C7A BZF d   1      -3.809  -0.739  -4.046  0.00  0.00     0.058 A 
ENDROOT
TORSDOF 0
ENDMDL
