MODEL 1
REMARK minimizedAffinity -1.15146458
REMARK minimizedRMSD -1
REMARK  0 active torsions:
REMARK  status: ('A' for Active; 'I' for Inactive)
ROOT
ATOM      1  O1  BZF d   1      -1.864  -0.168  -4.468  0.00  0.00    -0.204 OA
ATOM      2  C2  BZF d   1      -1.833  -0.998  -3.364  0.00  0.00     0.174 A 
ATOM      3  C3  BZF d   1      -3.082  -1.329  -2.979  0.00  0.00    -0.012 A 
ATOM      4  C3A BZF d   1      -3.946  -0.740  -3.956  0.00  0.00    -0.107 A 
ATOM      5  C4  BZF d   1      -5.300  -0.729  -4.127  0.00  0.00     0.055 A 
ATOM      6  C5  BZF d   1      -5.832   0.001  -5.142  0.00  0.00    -0.016 A 
ATOM      7  C6  BZF d   1      -5.041   0.736  -6.000  0.00  0.00     0.022 A 
ATOM      8  C7  BZF d   1      -3.691   0.753  -5.873  0.00  0.00     0.029 A 
ATOM      9  C7A BZF d   1      -3.149  -0.011  -4.868  0.00  0.00     0.058 A 
ENDROOT
TORSDOF 0
ENDMDL
