MODEL 1
REMARK minimizedAffinity 5.07027721
REMARK minimizedRMSD -1
REMARK  0 active torsions:
REMARK  status: ('A' for Active; 'I' for Inactive)
ROOT
ATOM      1  O1  BZF d   1       5.534  -2.374   0.334  0.00  0.00    -0.204 OA
ATOM      2  C2  BZF d   1       5.792  -3.623   0.866  0.00  0.00     0.174 A 
ATOM      3  C3  BZF d   1       4.666  -4.172   1.363  0.00  0.00    -0.012 A 
ATOM      4  C3A BZF d   1       3.623  -3.246   1.045  0.00  0.00    -0.107 A 
ATOM      5  C4  BZF d   1       2.274  -3.240   1.263  0.00  0.00     0.055 A 
ATOM      6  C5  BZF d   1       1.551  -2.151   0.892  0.00  0.00    -0.016 A 
ATOM      7  C6  BZF d   1       2.143  -1.051   0.306  0.00  0.00     0.022 A 
ATOM      8  C7  BZF d   1       3.476  -1.014   0.065  0.00  0.00     0.029 A 
ATOM      9  C7A BZF d   1       4.205  -2.126   0.409  0.00  0.00     0.058 A 
ENDROOT
TORSDOF 0
ENDMDL
