MODEL 1
REMARK minimizedAffinity 10.5726032
REMARK minimizedRMSD -1
REMARK  0 active torsions:
REMARK  status: ('A' for Active; 'I' for Inactive)
ROOT
ATOM      1  O1  BZF d   1      -3.956   0.436  -5.593  0.00  0.00    -0.204 OA
ATOM      2  C2  BZF d   1      -4.230  -0.784  -5.006  0.00  0.00     0.174 A 
ATOM      3  C3  BZF d   1      -4.046  -0.725  -3.671  0.00  0.00    -0.012 A 
ATOM      4  C3A BZF d   1      -3.720   0.641  -3.396  0.00  0.00    -0.107 A 
ATOM      5  C4  BZF d   1      -3.442   1.327  -2.249  0.00  0.00     0.055 A 
ATOM      6  C5  BZF d   1      -3.092   2.637  -2.331  0.00  0.00    -0.016 A 
ATOM      7  C6  BZF d   1      -3.005   3.291  -3.543  0.00  0.00     0.022 A 
ATOM      8  C7  BZF d   1      -3.276   2.653  -4.708  0.00  0.00     0.029 A 
ATOM      9  C7A BZF d   1      -3.663   1.338  -4.625  0.00  0.00     0.058 A 
ENDROOT
TORSDOF 0
ENDMDL
