MODEL 1
REMARK minimizedAffinity -2.65654278
REMARK minimizedRMSD -1
REMARK  0 active torsions:
REMARK  status: ('A' for Active; 'I' for Inactive)
ROOT
ATOM      1  O1  BZF d   1       4.986  -3.666   2.187  0.00  0.00    -0.204 OA
ATOM      2  C2  BZF d   1       4.979  -3.791   3.563  0.00  0.00     0.174 A 
ATOM      3  C3  BZF d   1       3.936  -3.125   4.098  0.00  0.00    -0.012 A 
ATOM      4  C3A BZF d   1       3.195  -2.624   2.981  0.00  0.00    -0.107 A 
ATOM      5  C4  BZF d   1       2.046  -1.895   2.867  0.00  0.00     0.055 A 
ATOM      6  C5  BZF d   1       1.630  -1.508   1.633  0.00  0.00    -0.016 A 
ATOM      7  C6  BZF d   1       2.339  -1.827   0.494  0.00  0.00     0.022 A 
ATOM      8  C7  BZF d   1       3.482  -2.552   0.556  0.00  0.00     0.029 A 
ATOM      9  C7A BZF d   1       3.888  -2.974   1.799  0.00  0.00     0.058 A 
ENDROOT
TORSDOF 0
ENDMDL
