MODEL 1
REMARK minimizedAffinity 6.47875118
REMARK minimizedRMSD -1
REMARK  0 active torsions:
REMARK  status: ('A' for Active; 'I' for Inactive)
ROOT
ATOM      1  O1  BZF d   1       4.517  -3.715   2.286  0.00  0.00    -0.204 OA
ATOM      2  C2  BZF d   1       4.380  -4.886   1.565  0.00  0.00     0.174 A 
ATOM      3  C3  BZF d   1       4.517  -5.961   2.368  0.00  0.00    -0.012 A 
ATOM      4  C3A BZF d   1       4.662  -5.429   3.688  0.00  0.00    -0.107 A 
ATOM      5  C4  BZF d   1       4.820  -6.000   4.919  0.00  0.00     0.055 A 
ATOM      6  C5  BZF d   1       5.006  -5.198   6.000  0.00  0.00    -0.016 A 
ATOM      7  C6  BZF d   1       5.046  -3.824   5.887  0.00  0.00     0.022 A 
ATOM      8  C7  BZF d   1       4.890  -3.211   4.688  0.00  0.00     0.029 A 
ATOM      9  C7A BZF d   1       4.668  -4.018   3.598  0.00  0.00     0.058 A 
ENDROOT
TORSDOF 0
ENDMDL
