MODEL 1
REMARK minimizedAffinity 0.271523505
REMARK minimizedRMSD -1
REMARK  0 active torsions:
REMARK  status: ('A' for Active; 'I' for Inactive)
ROOT
ATOM      1  O1  BZF d   1       4.512  -3.892   1.083  0.00  0.00    -0.204 OA
ATOM      2  C2  BZF d   1       5.842  -3.520   1.106  0.00  0.00     0.174 A 
ATOM      3  C3  BZF d   1       5.993  -2.254   0.666  0.00  0.00    -0.012 A 
ATOM      4  C3A BZF d   1       4.665  -1.775   0.437  0.00  0.00    -0.107 A 
ATOM      5  C4  BZF d   1       4.158  -0.581   0.009  0.00  0.00     0.055 A 
ATOM      6  C5  BZF d   1       2.818  -0.461  -0.179  0.00  0.00    -0.016 A 
ATOM      7  C6  BZF d   1       1.956  -1.515   0.046  0.00  0.00     0.022 A 
ATOM      8  C7  BZF d   1       2.411  -2.717   0.476  0.00  0.00     0.029 A 
ATOM      9  C7A BZF d   1       3.762  -2.831   0.698  0.00  0.00     0.058 A 
ENDROOT
TORSDOF 0
ENDMDL
