MODEL 1
REMARK minimizedAffinity 4.16321564
REMARK minimizedRMSD -1
REMARK  0 active torsions:
REMARK  status: ('A' for Active; 'I' for Inactive)
ROOT
ATOM      1  O1  BZF d   1      -4.561   0.619  -5.963  0.00  0.00    -0.204 OA
ATOM      2  C2  BZF d   1      -5.714   0.737  -5.210  0.00  0.00     0.174 A 
ATOM      3  C3  BZF d   1      -5.588   0.084  -4.037  0.00  0.00    -0.012 A 
ATOM      4  C3A BZF d   1      -4.241  -0.399  -4.017  0.00  0.00    -0.107 A 
ATOM      5  C4  BZF d   1      -3.511  -1.109  -3.107  0.00  0.00     0.055 A 
ATOM      6  C5  BZF d   1      -2.244  -1.483  -3.424  0.00  0.00    -0.016 A 
ATOM      7  C6  BZF d   1      -1.678  -1.170  -4.643  0.00  0.00     0.022 A 
ATOM      8  C7  BZF d   1      -2.361  -0.463  -5.576  0.00  0.00     0.029 A 
ATOM      9  C7A BZF d   1      -3.630  -0.054  -5.245  0.00  0.00     0.058 A 
ENDROOT
TORSDOF 0
ENDMDL
