MODEL 1
REMARK minimizedAffinity -1.76702297
REMARK minimizedRMSD -1
REMARK  0 active torsions:
REMARK  status: ('A' for Active; 'I' for Inactive)
ROOT
ATOM      1  O1  BZF d   1      -2.273  -1.024  -3.719  0.00  0.00    -0.204 OA
ATOM      2  C2  BZF d   1      -2.870  -1.502  -2.568  0.00  0.00     0.174 A 
ATOM      3  C3  BZF d   1      -4.125  -1.024  -2.447  0.00  0.00    -0.012 A 
ATOM      4  C3A BZF d   1      -4.358  -0.270  -3.641  0.00  0.00    -0.107 A 
ATOM      5  C4  BZF d   1      -5.429   0.434  -4.113  0.00  0.00     0.055 A 
ATOM      6  C5  BZF d   1      -5.307   1.117  -5.281  0.00  0.00    -0.016 A 
ATOM      7  C6  BZF d   1      -4.129   1.123  -6.000  0.00  0.00     0.022 A 
ATOM      8  C7  BZF d   1      -3.042   0.435  -5.574  0.00  0.00     0.029 A 
ATOM      9  C7A BZF d   1      -3.172  -0.283  -4.411  0.00  0.00     0.058 A 
ENDROOT
TORSDOF 0
ENDMDL
