MODEL 1
REMARK minimizedAffinity 13.8898764
REMARK minimizedRMSD -1
REMARK  0 active torsions:
REMARK  status: ('A' for Active; 'I' for Inactive)
ROOT
ATOM      1  C1  DEN d   1       0.487   1.347   4.868  0.00  0.00     0.130 A 
ATOM      2  C2  DEN d   1       0.861   1.177   3.466  0.00  0.00    -0.031 A 
ATOM      3  C3  DEN d   1      -0.346   1.393   2.643  0.00  0.00     0.027 A 
ATOM      4  C4  DEN d   1      -2.743   1.974   3.397  0.00  0.00     0.027 A 
ATOM      5  C5  DEN d   1      -3.550   2.209   4.487  0.00  0.00    -0.003 A 
ATOM      6  C6  DEN d   1      -3.081   2.140   5.772  0.00  0.00     0.001 A 
ATOM      7  C7  DEN d   1      -1.756   1.873   5.997  0.00  0.00     0.017 A 
ATOM      8  C8  DEN d   1      -0.937   1.628   4.903  0.00  0.00    -0.094 A 
ATOM      9  C9  DEN d   1      -1.428   1.714   3.611  0.00  0.00    -0.072 A 
ENDROOT
TORSDOF 0
ENDMDL
