MODEL 1
REMARK minimizedAffinity 10.7334909
REMARK minimizedRMSD -1
REMARK  0 active torsions:
REMARK  status: ('A' for Active; 'I' for Inactive)
ROOT
ATOM      1  C1  DEN d   1       3.526  -3.733  -0.289  0.00  0.00     0.130 A 
ATOM      2  C2  DEN d   1       4.734  -4.499   0.003  0.00  0.00    -0.031 A 
ATOM      3  C3  DEN d   1       5.153  -5.182  -1.237  0.00  0.00     0.027 A 
ATOM      4  C4  DEN d   1       4.056  -5.124  -3.571  0.00  0.00     0.027 A 
ATOM      5  C5  DEN d   1       3.004  -4.621  -4.305  0.00  0.00    -0.003 A 
ATOM      6  C6  DEN d   1       2.043  -3.820  -3.748  0.00  0.00     0.001 A 
ATOM      7  C7  DEN d   1       2.137  -3.462  -2.429  0.00  0.00     0.017 A 
ATOM      8  C8  DEN d   1       3.190  -3.972  -1.681  0.00  0.00    -0.094 A 
ATOM      9  C9  DEN d   1       4.159  -4.770  -2.265  0.00  0.00    -0.072 A 
ENDROOT
TORSDOF 0
ENDMDL
