MODEL 1
REMARK minimizedAffinity 7.40093756
REMARK minimizedRMSD -1
REMARK  0 active torsions:
REMARK  status: ('A' for Active; 'I' for Inactive)
ROOT
ATOM      1  C1  DEN d   1      -2.824   2.040   5.374  0.00  0.00     0.130 A 
ATOM      2  C2  DEN d   1      -3.556   1.888   4.120  0.00  0.00    -0.031 A 
ATOM      3  C3  DEN d   1      -2.621   1.358   3.107  0.00  0.00     0.027 A 
ATOM      4  C4  DEN d   1      -0.125   0.759   3.359  0.00  0.00     0.027 A 
ATOM      5  C5  DEN d   1       0.940   0.730   4.233  0.00  0.00    -0.003 A 
ATOM      6  C6  DEN d   1       0.834   1.163   5.528  0.00  0.00     0.001 A 
ATOM      7  C7  DEN d   1      -0.375   1.603   6.000  0.00  0.00     0.017 A 
ATOM      8  C8  DEN d   1      -1.451   1.643   5.123  0.00  0.00    -0.094 A 
ATOM      9  C9  DEN d   1      -1.326   1.189   3.821  0.00  0.00    -0.072 A 
ENDROOT
TORSDOF 0
ENDMDL
