MODEL 1
REMARK minimizedAffinity 20.1475487
REMARK minimizedRMSD -1
REMARK  0 active torsions:
REMARK  status: ('A' for Active; 'I' for Inactive)
ROOT
ATOM      1  C1  DEN d   1      -2.055   2.138  -4.155  0.00  0.00     0.130 A 
ATOM      2  C2  DEN d   1      -2.934   1.370  -5.032  0.00  0.00    -0.031 A 
ATOM      3  C3  DEN d   1      -3.654   2.320  -5.903  0.00  0.00     0.027 A 
ATOM      4  C4  DEN d   1      -3.491   4.893  -5.982  0.00  0.00     0.027 A 
ATOM      5  C5  DEN d   1      -2.889   5.997  -5.421  0.00  0.00    -0.003 A 
ATOM      6  C6  DEN d   1      -1.999   5.896  -4.384  0.00  0.00     0.001 A 
ATOM      7  C7  DEN d   1      -1.652   4.660  -3.906  0.00  0.00     0.017 A 
ATOM      8  C8  DEN d   1      -2.260   3.542  -4.461  0.00  0.00    -0.094 A 
ATOM      9  C9  DEN d   1      -3.148   3.665  -5.517  0.00  0.00    -0.072 A 
ENDROOT
TORSDOF 0
ENDMDL
