MODEL 1
REMARK minimizedAffinity 19.4132004
REMARK minimizedRMSD -1
REMARK  0 active torsions:
REMARK  status: ('A' for Active; 'I' for Inactive)
ROOT
ATOM      1  C1  DEN d   1       0.378   0.821   2.225  0.00  0.00     0.130 A 
ATOM      2  C2  DEN d   1      -0.944   1.303   1.835  0.00  0.00    -0.031 A 
ATOM      3  C3  DEN d   1      -1.476   2.123   2.942  0.00  0.00     0.027 A 
ATOM      4  C4  DEN d   1      -0.386   2.693   5.208  0.00  0.00     0.027 A 
ATOM      5  C5  DEN d   1       0.727   2.502   5.999  0.00  0.00    -0.003 A 
ATOM      6  C6  DEN d   1       1.777   1.717   5.604  0.00  0.00     0.001 A 
ATOM      7  C7  DEN d   1       1.758   1.129   4.367  0.00  0.00     0.017 A 
ATOM      8  C8  DEN d   1       0.637   1.310   3.567  0.00  0.00    -0.094 A 
ATOM      9  C9  DEN d   1      -0.410   2.118   3.979  0.00  0.00    -0.072 A 
ENDROOT
TORSDOF 0
ENDMDL
