MODEL 1
REMARK minimizedAffinity 18.6704178
REMARK minimizedRMSD -1
REMARK  0 active torsions:
REMARK  status: ('A' for Active; 'I' for Inactive)
ROOT
ATOM      1  C1  DEN d   1      -1.991   1.504   4.610  0.00  0.00     0.130 A 
ATOM      2  C2  DEN d   1      -1.981   0.922   3.271  0.00  0.00    -0.031 A 
ATOM      3  C3  DEN d   1      -3.336   1.063   2.702  0.00  0.00     0.027 A 
ATOM      4  C4  DEN d   1      -5.436   2.125   3.758  0.00  0.00     0.027 A 
ATOM      5  C5  DEN d   1      -5.938   2.743   4.882  0.00  0.00    -0.003 A 
ATOM      6  C6  DEN d   1      -5.174   2.958   5.999  0.00  0.00     0.001 A 
ATOM      7  C7  DEN d   1      -3.853   2.593   5.998  0.00  0.00     0.017 A 
ATOM      8  C8  DEN d   1      -3.343   1.964   4.871  0.00  0.00    -0.094 A 
ATOM      9  C9  DEN d   1      -4.128   1.766   3.748  0.00  0.00    -0.072 A 
ENDROOT
TORSDOF 0
ENDMDL
