MODEL 1
REMARK minimizedAffinity 22.4662819
REMARK minimizedRMSD -1
REMARK  0 active torsions:
REMARK  status: ('A' for Active; 'I' for Inactive)
ROOT
ATOM      1  C1  DEN d   1      -5.316   0.013   3.612  0.00  0.00     0.130 A 
ATOM      2  C2  DEN d   1      -4.314  -0.907   4.144  0.00  0.00    -0.031 A 
ATOM      3  C3  DEN d   1      -3.538  -0.190   5.175  0.00  0.00     0.027 A 
ATOM      4  C4  DEN d   1      -3.791   2.241   5.999  0.00  0.00     0.027 A 
ATOM      5  C5  DEN d   1      -4.496   3.413   5.837  0.00  0.00    -0.003 A 
ATOM      6  C6  DEN d   1      -5.492   3.544   4.906  0.00  0.00     0.001 A 
ATOM      7  C7  DEN d   1      -5.842   2.469   4.132  0.00  0.00     0.017 A 
ATOM      8  C8  DEN d   1      -5.132   1.286   4.285  0.00  0.00    -0.094 A 
ATOM      9  C9  DEN d   1      -4.136   1.170   5.240  0.00  0.00    -0.072 A 
ENDROOT
TORSDOF 0
ENDMDL
