MODEL 1
REMARK minimizedAffinity 23.1771984
REMARK minimizedRMSD -1
REMARK  0 active torsions:
REMARK  status: ('A' for Active; 'I' for Inactive)
ROOT
ATOM      1  C1  DEN d   1      -4.196  -1.122   3.714  0.00  0.00     0.130 A 
ATOM      2  C2  DEN d   1      -3.785  -1.878   4.895  0.00  0.00    -0.031 A 
ATOM      3  C3  DEN d   1      -3.577  -0.921   6.000  0.00  0.00     0.027 A 
ATOM      4  C4  DEN d   1      -3.855   1.644   5.999  0.00  0.00     0.027 A 
ATOM      5  C5  DEN d   1      -4.175   2.738   5.227  0.00  0.00    -0.003 A 
ATOM      6  C6  DEN d   1      -4.490   2.627   3.898  0.00  0.00     0.001 A 
ATOM      7  C7  DEN d   1      -4.534   1.389   3.313  0.00  0.00     0.017 A 
ATOM      8  C8  DEN d   1      -4.205   0.282   4.083  0.00  0.00    -0.094 A 
ATOM      9  C9  DEN d   1      -3.902   0.414   5.428  0.00  0.00    -0.072 A 
ENDROOT
TORSDOF 0
ENDMDL
