MODEL 1
REMARK minimizedAffinity -1.28195822
REMARK minimizedRMSD -1
REMARK  0 active torsions:
REMARK  status: ('A' for Active; 'I' for Inactive)
ROOT
ATOM      1  N1  IND d   1       1.463  -0.018  -1.045  0.00  0.00    -0.196 N 
ATOM      2  C2  IND d   1       0.634  -0.142  -2.125  0.00  0.00     0.054 A 
ATOM      3  C3  IND d   1      -0.652  -0.240  -1.722  0.00  0.00    -0.031 A 
ATOM      4  C4  IND d   1      -1.635  -0.119   0.655  0.00  0.00     0.051 A 
ATOM      5  C5  IND d   1      -1.268  -0.048   1.970  0.00  0.00    -0.031 A 
ATOM      6  C6  IND d   1       0.054   0.041   2.354  0.00  0.00     0.015 A 
ATOM      7  C7  IND d   1       1.063   0.074   1.434  0.00  0.00    -0.016 A 
ATOM      8  C8  IND d   1       0.695  -0.005   0.098  0.00  0.00    -0.047 A 
ATOM      9  C9  IND d   1      -0.642  -0.138  -0.297  0.00  0.00    -0.096 A 
ATOM     10  HN1 IND d   1       2.321   0.042  -1.075  0.00  0.00     0.298 HD
ENDROOT
TORSDOF 0
ENDMDL
