MODEL 1
REMARK minimizedAffinity -5.44862175
REMARK minimizedRMSD -1
REMARK  0 active torsions:
REMARK  status: ('A' for Active; 'I' for Inactive)
ROOT
ATOM      1  N1  IND d   1      -1.025   0.642  -0.524  0.00  0.00    -0.196 N 
ATOM      2  C2  IND d   1       0.318   0.419  -0.643  0.00  0.00     0.054 A 
ATOM      3  C3  IND d   1       0.827  -0.021   0.530  0.00  0.00    -0.031 A 
ATOM      4  C4  IND d   1      -0.379  -0.543   2.744  0.00  0.00     0.051 A 
ATOM      5  C5  IND d   1      -1.601  -0.462   3.350  0.00  0.00    -0.031 A 
ATOM      6  C6  IND d   1      -2.717  -0.002   2.681  0.00  0.00     0.015 A 
ATOM      7  C7  IND d   1      -2.654   0.385   1.372  0.00  0.00    -0.016 A 
ATOM      8  C8  IND d   1      -1.413   0.311   0.756  0.00  0.00    -0.047 A 
ATOM      9  C9  IND d   1      -0.268  -0.115   1.442  0.00  0.00    -0.096 A 
ATOM     10  HN1 IND d   1      -1.541   0.940  -1.144  0.00  0.00     0.298 HD
ENDROOT
TORSDOF 0
ENDMDL
