MODEL 1
REMARK minimizedAffinity -1.12411761
REMARK minimizedRMSD -1
REMARK  0 active torsions:
REMARK  status: ('A' for Active; 'I' for Inactive)
ROOT
ATOM      1  N1  IND d   1      -1.109   0.853  -1.154  0.00  0.00    -0.196 N 
ATOM      2  C2  IND d   1      -0.018   0.546  -1.918  0.00  0.00     0.054 A 
ATOM      3  C3  IND d   1       0.981   0.069  -1.142  0.00  0.00    -0.031 A 
ATOM      4  C4  IND d   1       1.009  -0.386   1.392  0.00  0.00     0.051 A 
ATOM      5  C5  IND d   1       0.257  -0.230   2.522  0.00  0.00    -0.031 A 
ATOM      6  C6  IND d   1      -1.015   0.303   2.484  0.00  0.00     0.015 A 
ATOM      7  C7  IND d   1      -1.590   0.691   1.307  0.00  0.00    -0.016 A 
ATOM      8  C8  IND d   1      -0.827   0.541   0.158  0.00  0.00    -0.047 A 
ATOM      9  C9  IND d   1       0.481   0.040   0.196  0.00  0.00    -0.096 A 
ATOM     10  HN1 IND d   1      -1.847   1.185  -1.444  0.00  0.00     0.298 HD
ENDROOT
TORSDOF 0
ENDMDL
