MODEL 1
REMARK minimizedAffinity -1.8105787
REMARK minimizedRMSD -1
REMARK  0 active torsions:
REMARK  status: ('A' for Active; 'I' for Inactive)
ROOT
ATOM      1  N1  IND d   1      -0.826   0.793  -1.296  0.00  0.00    -0.196 N 
ATOM      2  C2  IND d   1       0.280   0.493  -2.042  0.00  0.00     0.054 A 
ATOM      3  C3  IND d   1       1.269   0.023  -1.249  0.00  0.00    -0.031 A 
ATOM      4  C4  IND d   1       1.257  -0.432   1.285  0.00  0.00     0.051 A 
ATOM      5  C5  IND d   1       0.486  -0.281   2.403  0.00  0.00    -0.031 A 
ATOM      6  C6  IND d   1      -0.789   0.244   2.344  0.00  0.00     0.015 A 
ATOM      7  C7  IND d   1      -1.347   0.628   1.157  0.00  0.00    -0.016 A 
ATOM      8  C8  IND d   1      -0.564   0.483   0.021  0.00  0.00    -0.047 A 
ATOM      9  C9  IND d   1       0.747  -0.009   0.081  0.00  0.00    -0.096 A 
ATOM     10  HN1 IND d   1      -1.561   1.120  -1.598  0.00  0.00     0.298 HD
ENDROOT
TORSDOF 0
ENDMDL
