MODEL 1
REMARK minimizedAffinity -4.6871767
REMARK minimizedRMSD -1
REMARK  0 active torsions:
REMARK  status: ('A' for Active; 'I' for Inactive)
ROOT
ATOM      1  N1  IND d   1      -0.913   0.720  -0.481  0.00  0.00    -0.196 N 
ATOM      2  C2  IND d   1       0.391   0.796  -0.883  0.00  0.00     0.054 A 
ATOM      3  C3  IND d   1       1.212   0.356   0.097  0.00  0.00    -0.031 A 
ATOM      4  C4  IND d   1       0.625  -0.631   2.401  0.00  0.00     0.051 A 
ATOM      5  C5  IND d   1      -0.433  -0.869   3.233  0.00  0.00    -0.031 A 
ATOM      6  C6  IND d   1      -1.731  -0.587   2.861  0.00  0.00     0.015 A 
ATOM      7  C7  IND d   1      -2.023  -0.064   1.633  0.00  0.00    -0.016 A 
ATOM      8  C8  IND d   1      -0.950   0.186   0.788  0.00  0.00    -0.047 A 
ATOM      9  C9  IND d   1       0.373  -0.059   1.177  0.00  0.00    -0.096 A 
ATOM     10  HN1 IND d   1      -1.596   0.964  -0.944  0.00  0.00     0.298 HD
ENDROOT
TORSDOF 0
ENDMDL
