MODEL 1
REMARK minimizedAffinity -3.49450684
REMARK minimizedRMSD -1
REMARK  0 active torsions:
REMARK  status: ('A' for Active; 'I' for Inactive)
ROOT
ATOM      1  N1  IND d   1      -2.648   0.367  -0.019  0.00  0.00    -0.196 N 
ATOM      2  C2  IND d   1      -2.588   1.010  -1.224  0.00  0.00     0.054 A 
ATOM      3  C3  IND d   1      -1.302   1.158  -1.614  0.00  0.00    -0.031 A 
ATOM      4  C4  IND d   1       0.857   0.332  -0.481  0.00  0.00     0.051 A 
ATOM      5  C5  IND d   1       1.312  -0.274   0.656  0.00  0.00    -0.031 A 
ATOM      6  C6  IND d   1       0.454  -0.708   1.645  0.00  0.00     0.015 A 
ATOM      7  C7  IND d   1      -0.900  -0.562   1.528  0.00  0.00    -0.016 A 
ATOM      8  C8  IND d   1      -1.366   0.059   0.378  0.00  0.00    -0.047 A 
ATOM      9  C9  IND d   1      -0.496   0.540  -0.610  0.00  0.00    -0.096 A 
ATOM     10  HN1 IND d   1      -3.366   0.186   0.418  0.00  0.00     0.298 HD
ENDROOT
TORSDOF 0
ENDMDL
