MODEL 1
REMARK minimizedAffinity -0.373859912
REMARK minimizedRMSD -1
REMARK  0 active torsions:
REMARK  status: ('A' for Active; 'I' for Inactive)
ROOT
ATOM      1  N1  IND d   1      -2.288   0.754   0.325  0.00  0.00    -0.196 N 
ATOM      2  C2  IND d   1      -2.137   0.824  -1.032  0.00  0.00     0.054 A 
ATOM      3  C3  IND d   1      -0.833   0.702  -1.366  0.00  0.00    -0.031 A 
ATOM      4  C4  IND d   1       1.210   0.278   0.142  0.00  0.00     0.051 A 
ATOM      5  C5  IND d   1       1.577   0.176   1.454  0.00  0.00    -0.031 A 
ATOM      6  C6  IND d   1       0.656   0.260   2.478  0.00  0.00     0.015 A 
ATOM      7  C7  IND d   1      -0.675   0.439   2.226  0.00  0.00    -0.016 A 
ATOM      8  C8  IND d   1      -1.051   0.550   0.894  0.00  0.00    -0.047 A 
ATOM      9  C9  IND d   1      -0.114   0.508  -0.147  0.00  0.00    -0.096 A 
ATOM     10  HN1 IND d   1      -3.032   0.825   0.751  0.00  0.00     0.298 HD
ENDROOT
TORSDOF 0
ENDMDL
