MODEL 1
REMARK minimizedAffinity -4.82715607
REMARK minimizedRMSD -1
REMARK  0 active torsions:
REMARK  status: ('A' for Active; 'I' for Inactive)
ROOT
ATOM      1  N1  IND d   1      -1.754  -0.373   1.529  0.00  0.00    -0.196 N 
ATOM      2  C2  IND d   1      -1.220  -0.591   2.768  0.00  0.00     0.054 A 
ATOM      3  C3  IND d   1       0.131  -0.549   2.711  0.00  0.00    -0.031 A 
ATOM      4  C4  IND d   1       1.669  -0.037   0.712  0.00  0.00     0.051 A 
ATOM      5  C5  IND d   1       1.645   0.190  -0.636  0.00  0.00    -0.031 A 
ATOM      6  C6  IND d   1       0.462   0.246  -1.344  0.00  0.00     0.015 A 
ATOM      7  C7  IND d   1      -0.746   0.086  -0.727  0.00  0.00    -0.016 A 
ATOM      8  C8  IND d   1      -0.725  -0.152   0.640  0.00  0.00    -0.047 A 
ATOM      9  C9  IND d   1       0.474  -0.252   1.357  0.00  0.00    -0.096 A 
ATOM     10  HN1 IND d   1      -2.592  -0.373   1.337  0.00  0.00     0.298 HD
ENDROOT
TORSDOF 0
ENDMDL
