MODEL 1
REMARK minimizedAffinity -0.634218991
REMARK minimizedRMSD -1
REMARK  0 active torsions:
REMARK  status: ('A' for Active; 'I' for Inactive)
ROOT
ATOM      1  N1  IND d   1      -0.629  -0.787  -1.222  0.00  0.00    -0.196 N 
ATOM      2  C2  IND d   1      -0.585   0.499  -0.760  0.00  0.00     0.054 A 
ATOM      3  C3  IND d   1       0.351   1.208  -1.432  0.00  0.00    -0.031 A 
ATOM      4  C4  IND d   1       1.852   0.485  -3.395  0.00  0.00     0.051 A 
ATOM      5  C5  IND d   1       2.197  -0.605  -4.143  0.00  0.00    -0.031 A 
ATOM      6  C6  IND d   1       1.603  -1.837  -3.953  0.00  0.00     0.015 A 
ATOM      7  C7  IND d   1       0.630  -2.021  -3.012  0.00  0.00    -0.016 A 
ATOM      8  C8  IND d   1       0.283  -0.917  -2.246  0.00  0.00    -0.047 A 
ATOM      9  C9  IND d   1       0.912   0.324  -2.405  0.00  0.00    -0.096 A 
ATOM     10  HN1 IND d   1      -1.141  -1.410  -0.922  0.00  0.00     0.298 HD
ENDROOT
TORSDOF 0
ENDMDL
