MODEL 1
REMARK minimizedAffinity -6.36311722
REMARK minimizedRMSD -1
REMARK  0 active torsions:
REMARK  status: ('A' for Active; 'I' for Inactive)
ROOT
ATOM      1  N1  IND d   1      -0.593   0.583  -0.571  0.00  0.00    -0.196 N 
ATOM      2  C2  IND d   1       0.757   0.380  -0.499  0.00  0.00     0.054 A 
ATOM      3  C3  IND d   1       1.124   0.101   0.772  0.00  0.00    -0.031 A 
ATOM      4  C4  IND d   1      -0.338  -0.172   2.873  0.00  0.00     0.051 A 
ATOM      5  C5  IND d   1      -1.626  -0.046   3.314  0.00  0.00    -0.031 A 
ATOM      6  C6  IND d   1      -2.656   0.300   2.464  0.00  0.00     0.015 A 
ATOM      7  C7  IND d   1      -2.438   0.524   1.134  0.00  0.00    -0.016 A 
ATOM      8  C8  IND d   1      -1.131   0.404   0.685  0.00  0.00    -0.047 A 
ATOM      9  C9  IND d   1      -0.074   0.094   1.550  0.00  0.00    -0.096 A 
ATOM     10  HN1 IND d   1      -1.032   0.789  -1.281  0.00  0.00     0.298 HD
ENDROOT
TORSDOF 0
ENDMDL
