MODEL 1
REMARK minimizedAffinity -3.11089301
REMARK minimizedRMSD -1
REMARK  0 active torsions:
REMARK  status: ('A' for Active; 'I' for Inactive)
ROOT
ATOM      1  N1  IND d   1      -1.866   0.707  -0.810  0.00  0.00    -0.196 N 
ATOM      2  C2  IND d   1      -3.093   0.841  -0.221  0.00  0.00     0.054 A 
ATOM      3  C3  IND d   1      -2.981   0.752   1.123  0.00  0.00    -0.031 A 
ATOM      4  C4  IND d   1      -0.871   0.490   2.575  0.00  0.00     0.051 A 
ATOM      5  C5  IND d   1       0.478   0.291   2.489  0.00  0.00    -0.031 A 
ATOM      6  C6  IND d   1       1.128   0.221   1.274  0.00  0.00     0.015 A 
ATOM      7  C7  IND d   1       0.452   0.360   0.095  0.00  0.00    -0.016 A 
ATOM      8  C8  IND d   1      -0.919   0.556   0.179  0.00  0.00    -0.047 A 
ATOM      9  C9  IND d   1      -1.591   0.585   1.408  0.00  0.00    -0.096 A 
ATOM     10  HN1 IND d   1      -1.713   0.716  -1.656  0.00  0.00     0.298 HD
ENDROOT
TORSDOF 0
ENDMDL
