MODEL 1
REMARK minimizedAffinity 0.525349736
REMARK minimizedRMSD -1
REMARK  0 active torsions:
REMARK  status: ('A' for Active; 'I' for Inactive)
ROOT
ATOM      1  N1  IND d   1      -1.377   0.144  -0.734  0.00  0.00    -0.196 N 
ATOM      2  C2  IND d   1      -0.538  -0.059  -1.794  0.00  0.00     0.054 A 
ATOM      3  C3  IND d   1       0.749  -0.068  -1.381  0.00  0.00    -0.031 A 
ATOM      4  C4  IND d   1       1.702   0.131   1.003  0.00  0.00     0.051 A 
ATOM      5  C5  IND d   1       1.329   0.366   2.296  0.00  0.00    -0.031 A 
ATOM      6  C6  IND d   1       0.007   0.541   2.653  0.00  0.00     0.015 A 
ATOM      7  C7  IND d   1      -0.995   0.474   1.728  0.00  0.00    -0.016 A 
ATOM      8  C8  IND d   1      -0.619   0.243   0.412  0.00  0.00    -0.047 A 
ATOM      9  C9  IND d   1       0.724   0.107   0.037  0.00  0.00    -0.096 A 
ATOM     10  HN1 IND d   1      -2.234   0.202  -0.776  0.00  0.00     0.298 HD
ENDROOT
TORSDOF 0
ENDMDL
