MODEL 1
REMARK minimizedAffinity -4.97604418
REMARK minimizedRMSD -1
REMARK  0 active torsions:
REMARK  status: ('A' for Active; 'I' for Inactive)
ROOT
ATOM      1  N1  IND d   1      -0.785   0.689  -1.013  0.00  0.00    -0.196 N 
ATOM      2  C2  IND d   1      -2.123   0.456  -0.855  0.00  0.00     0.054 A 
ATOM      3  C3  IND d   1      -2.374  -0.020   0.385  0.00  0.00    -0.031 A 
ATOM      4  C4  IND d   1      -0.755  -0.396   2.351  0.00  0.00     0.051 A 
ATOM      5  C5  IND d   1       0.572  -0.360   2.676  0.00  0.00    -0.031 A 
ATOM      6  C6  IND d   1       1.534   0.039   1.770  0.00  0.00     0.015 A 
ATOM      7  C7  IND d   1       1.201   0.429   0.503  0.00  0.00    -0.016 A 
ATOM      8  C8  IND d   1      -0.145   0.386   0.168  0.00  0.00    -0.047 A 
ATOM      9  C9  IND d   1      -1.121  -0.058   1.070  0.00  0.00    -0.096 A 
ATOM     10  HN1 IND d   1      -0.408   0.977  -1.730  0.00  0.00     0.298 HD
ENDROOT
TORSDOF 0
ENDMDL
