MODEL 1
REMARK minimizedAffinity -5.25757885
REMARK minimizedRMSD -1
REMARK  0 active torsions:
REMARK  status: ('A' for Active; 'I' for Inactive)
ROOT
ATOM      1  N1  IND d   1      -0.692  -0.192  -0.875  0.00  0.00    -0.196 N 
ATOM      2  C2  IND d   1       0.652  -0.429  -0.957  0.00  0.00     0.054 A 
ATOM      3  C3  IND d   1       1.180  -0.573   0.279  0.00  0.00    -0.031 A 
ATOM      4  C4  IND d   1       0.007  -0.561   2.571  0.00  0.00     0.051 A 
ATOM      5  C5  IND d   1      -1.208  -0.345   3.158  0.00  0.00    -0.031 A 
ATOM      6  C6  IND d   1      -2.336  -0.064   2.415  0.00  0.00     0.015 A 
ATOM      7  C7  IND d   1      -2.294   0.000   1.051  0.00  0.00    -0.016 A 
ATOM      8  C8  IND d   1      -1.060  -0.211   0.452  0.00  0.00    -0.047 A 
ATOM      9  C9  IND d   1       0.097  -0.454   1.203  0.00  0.00    -0.096 A 
ATOM     10  HN1 IND d   1      -1.219  -0.054  -1.541  0.00  0.00     0.298 HD
ENDROOT
TORSDOF 0
ENDMDL
