MODEL 1
REMARK minimizedAffinity -3.76366758
REMARK minimizedRMSD -1
REMARK  0 active torsions:
REMARK  status: ('A' for Active; 'I' for Inactive)
ROOT
ATOM      1  N1  IND d   1      -0.422  -0.877  -1.013  0.00  0.00    -0.196 N 
ATOM      2  C2  IND d   1       0.194   0.140  -1.688  0.00  0.00     0.054 A 
ATOM      3  C3  IND d   1       0.689   1.050  -0.819  0.00  0.00    -0.031 A 
ATOM      4  C4  IND d   1       0.692   1.020   1.756  0.00  0.00     0.051 A 
ATOM      5  C5  IND d   1       0.216   0.314   2.825  0.00  0.00    -0.031 A 
ATOM      6  C6  IND d   1      -0.509  -0.849   2.667  0.00  0.00     0.015 A 
ATOM      7  C7  IND d   1      -0.777  -1.359   1.428  0.00  0.00    -0.016 A 
ATOM      8  C8  IND d   1      -0.301  -0.642   0.339  0.00  0.00    -0.047 A 
ATOM      9  C9  IND d   1       0.398   0.562   0.492  0.00  0.00    -0.096 A 
ATOM     10  HN1 IND d   1      -0.818  -1.550  -1.372  0.00  0.00     0.298 HD
ENDROOT
TORSDOF 0
ENDMDL
