MODEL 1
REMARK minimizedAffinity -2.70052552
REMARK minimizedRMSD -1
REMARK  0 active torsions:
REMARK  status: ('A' for Active; 'I' for Inactive)
ROOT
ATOM      1  C   UNL d   1      -4.674   5.878   1.665  0.00  0.00     0.172 C 
ATOM      2  N   UNL d   1      -5.015   5.109   2.839  0.00  0.00    -0.070 N 
ATOM      3  C1  UNL d   1      -4.511   3.877   3.160  0.00  0.00    -0.004 A 
ATOM      4  C2  UNL d   1      -5.084   3.484   4.350  0.00  0.00    -0.047 A 
ATOM      5  C3  UNL d   1      -5.963   4.515   4.758  0.00  0.00    -0.047 A 
ATOM      6  C4  UNL d   1      -5.901   5.509   3.804  0.00  0.00    -0.004 A 
ENDROOT
TORSDOF 0
ENDMDL
