MODEL 1
REMARK minimizedAffinity 1.18112254
REMARK minimizedRMSD -1
REMARK  0 active torsions:
REMARK  status: ('A' for Active; 'I' for Inactive)
ROOT
ATOM      1  C   UNL d   1      -5.997   6.000   2.991  0.00  0.00     0.172 C 
ATOM      2  N   UNL d   1      -5.354   4.873   2.358  0.00  0.00    -0.070 N 
ATOM      3  C1  UNL d   1      -4.480   4.939   1.306  0.00  0.00    -0.004 A 
ATOM      4  C2  UNL d   1      -4.091   3.653   0.998  0.00  0.00    -0.047 A 
ATOM      5  C3  UNL d   1      -4.755   2.784   1.896  0.00  0.00    -0.047 A 
ATOM      6  C4  UNL d   1      -5.530   3.565   2.727  0.00  0.00    -0.004 A 
ENDROOT
TORSDOF 0
ENDMDL
