MODEL 1
REMARK minimizedAffinity -2.30303001
REMARK minimizedRMSD -1
REMARK  0 active torsions:
REMARK  status: ('A' for Active; 'I' for Inactive)
ROOT
ATOM      1  C   UNL d   1      -5.471   5.162   2.637  0.00  0.00     0.172 C 
ATOM      2  N   UNL d   1      -5.605   4.346   3.821  0.00  0.00    -0.070 N 
ATOM      3  C1  UNL d   1      -5.998   4.790   5.056  0.00  0.00    -0.004 A 
ATOM      4  C2  UNL d   1      -6.000   3.709   5.911  0.00  0.00    -0.047 A 
ATOM      5  C3  UNL d   1      -5.593   2.578   5.165  0.00  0.00    -0.047 A 
ATOM      6  C4  UNL d   1      -5.355   3.001   3.874  0.00  0.00    -0.004 A 
ENDROOT
TORSDOF 0
ENDMDL
