MODEL 1
REMARK minimizedAffinity -2.35340881
REMARK minimizedRMSD -1
REMARK  0 active torsions:
REMARK  status: ('A' for Active; 'I' for Inactive)
ROOT
ATOM      1  C   UNL d   1      -5.329   5.946   1.461  0.00  0.00     0.172 C 
ATOM      2  N   UNL d   1      -5.094   4.952   2.482  0.00  0.00    -0.070 N 
ATOM      3  C1  UNL d   1      -4.650   5.203   3.753  0.00  0.00    -0.004 A 
ATOM      4  C2  UNL d   1      -4.556   3.997   4.413  0.00  0.00    -0.047 A 
ATOM      5  C3  UNL d   1      -4.955   2.986   3.507  0.00  0.00    -0.047 A 
ATOM      6  C4  UNL d   1      -5.283   3.605   2.319  0.00  0.00    -0.004 A 
ENDROOT
TORSDOF 0
ENDMDL
