MODEL 1
REMARK minimizedAffinity -2.68540287
REMARK minimizedRMSD -1
REMARK  0 active torsions:
REMARK  status: ('A' for Active; 'I' for Inactive)
ROOT
ATOM      1  C   UNL d   1      -4.360   5.130   1.219  0.00  0.00     0.172 C 
ATOM      2  N   UNL d   1      -4.593   4.884   2.623  0.00  0.00    -0.070 N 
ATOM      3  C1  UNL d   1      -3.668   5.026   3.622  0.00  0.00    -0.004 A 
ATOM      4  C2  UNL d   1      -4.279   4.698   4.813  0.00  0.00    -0.047 A 
ATOM      5  C3  UNL d   1      -5.618   4.345   4.519  0.00  0.00    -0.047 A 
ATOM      6  C4  UNL d   1      -5.785   4.469   3.155  0.00  0.00    -0.004 A 
ENDROOT
TORSDOF 0
ENDMDL
