MODEL 1
REMARK minimizedAffinity -3.07222986
REMARK minimizedRMSD -1
REMARK  0 active torsions:
REMARK  status: ('A' for Active; 'I' for Inactive)
ROOT
ATOM      1  C   UNL d   1      -4.175   2.531   3.430  0.00  0.00     0.172 C 
ATOM      2  N   UNL d   1      -4.519   3.933   3.441  0.00  0.00    -0.070 N 
ATOM      3  C1  UNL d   1      -4.649   4.732   2.336  0.00  0.00    -0.004 A 
ATOM      4  C2  UNL d   1      -4.985   5.997   2.768  0.00  0.00    -0.047 A 
ATOM      5  C3  UNL d   1      -5.058   5.958   4.180  0.00  0.00    -0.047 A 
ATOM      6  C4  UNL d   1      -4.765   4.668   4.571  0.00  0.00    -0.004 A 
ENDROOT
TORSDOF 0
ENDMDL
