MODEL 1
REMARK minimizedAffinity -2.53522539
REMARK minimizedRMSD -1
REMARK  0 active torsions:
REMARK  status: ('A' for Active; 'I' for Inactive)
ROOT
ATOM      1  C   UNL d   1      -4.852   6.000   1.483  0.00  0.00     0.172 C 
ATOM      2  N   UNL d   1      -4.793   5.451   2.817  0.00  0.00    -0.070 N 
ATOM      3  C1  UNL d   1      -5.425   4.313   3.241  0.00  0.00    -0.004 A 
ATOM      4  C2  UNL d   1      -5.118   4.130   4.572  0.00  0.00    -0.047 A 
ATOM      5  C3  UNL d   1      -4.272   5.196   4.962  0.00  0.00    -0.047 A 
ATOM      6  C4  UNL d   1      -4.087   5.998   3.856  0.00  0.00    -0.004 A 
ENDROOT
TORSDOF 0
ENDMDL
