MODEL 1
REMARK minimizedAffinity -2.56111717
REMARK minimizedRMSD -1
REMARK  0 active torsions:
REMARK  status: ('A' for Active; 'I' for Inactive)
ROOT
ATOM      1  C   UNL d   1      -4.924   5.934   2.175  0.00  0.00     0.172 C 
ATOM      2  N   UNL d   1      -5.055   5.402   3.511  0.00  0.00    -0.070 N 
ATOM      3  C1  UNL d   1      -5.724   6.000   4.546  0.00  0.00    -0.004 A 
ATOM      4  C2  UNL d   1      -5.618   5.179   5.648  0.00  0.00    -0.047 A 
ATOM      5  C3  UNL d   1      -4.859   4.049   5.262  0.00  0.00    -0.047 A 
ATOM      6  C4  UNL d   1      -4.523   4.213   3.934  0.00  0.00    -0.004 A 
ENDROOT
TORSDOF 0
ENDMDL
