MODEL 1
REMARK minimizedAffinity -2.66363788
REMARK minimizedRMSD -1
REMARK  0 active torsions:
REMARK  status: ('A' for Active; 'I' for Inactive)
ROOT
ATOM      1  C   UNL d   1      -4.877   3.237   5.146  0.00  0.00     0.172 C 
ATOM      2  N   UNL d   1      -5.062   4.248   4.132  0.00  0.00    -0.070 N 
ATOM      3  C1  UNL d   1      -5.997   5.248   4.163  0.00  0.00    -0.004 A 
ATOM      4  C2  UNL d   1      -5.849   6.000   3.017  0.00  0.00    -0.047 A 
ATOM      5  C3  UNL d   1      -4.789   5.432   2.272  0.00  0.00    -0.047 A 
ATOM      6  C4  UNL d   1      -4.320   4.349   2.985  0.00  0.00    -0.004 A 
ENDROOT
TORSDOF 0
ENDMDL
