MODEL 1
REMARK minimizedAffinity -2.70789552
REMARK minimizedRMSD -1
REMARK  0 active torsions:
REMARK  status: ('A' for Active; 'I' for Inactive)
ROOT
ATOM      1  C   UNL d   1      -5.999   2.783   5.020  0.00  0.00     0.172 C 
ATOM      2  N   UNL d   1      -5.456   3.767   4.114  0.00  0.00    -0.070 N 
ATOM      3  C1  UNL d   1      -4.604   3.509   3.073  0.00  0.00    -0.004 A 
ATOM      4  C2  UNL d   1      -4.320   4.707   2.454  0.00  0.00    -0.047 A 
ATOM      5  C3  UNL d   1      -5.024   5.720   3.147  0.00  0.00    -0.047 A 
ATOM      6  C4  UNL d   1      -5.719   5.110   4.170  0.00  0.00    -0.004 A 
ENDROOT
TORSDOF 0
ENDMDL
