MODEL 1
REMARK minimizedAffinity -2.62145376
REMARK minimizedRMSD -1
REMARK  0 active torsions:
REMARK  status: ('A' for Active; 'I' for Inactive)
ROOT
ATOM      1  C   UNL d   1      -4.864   5.993   1.647  0.00  0.00     0.172 C 
ATOM      2  N   UNL d   1      -4.704   5.411   2.959  0.00  0.00    -0.070 N 
ATOM      3  C1  UNL d   1      -5.247   4.226   3.378  0.00  0.00    -0.004 A 
ATOM      4  C2  UNL d   1      -4.862   4.024   4.686  0.00  0.00    -0.047 A 
ATOM      5  C3  UNL d   1      -4.060   5.127   5.066  0.00  0.00    -0.047 A 
ATOM      6  C4  UNL d   1      -3.979   5.970   3.978  0.00  0.00    -0.004 A 
ENDROOT
TORSDOF 0
ENDMDL
