MODEL 1
REMARK minimizedAffinity -2.24959135
REMARK minimizedRMSD -1
REMARK  0 active torsions:
REMARK  status: ('A' for Active; 'I' for Inactive)
ROOT
ATOM      1  C   UNL d   1      -5.995   5.291   2.276  0.00  0.00     0.172 C 
ATOM      2  N   UNL d   1      -5.879   4.320   3.339  0.00  0.00    -0.070 N 
ATOM      3  C1  UNL d   1      -5.999   4.582   4.677  0.00  0.00    -0.004 A 
ATOM      4  C2  UNL d   1      -5.824   3.396   5.357  0.00  0.00    -0.047 A 
ATOM      5  C3  UNL d   1      -5.589   2.387   4.394  0.00  0.00    -0.047 A 
ATOM      6  C4  UNL d   1      -5.628   2.986   3.153  0.00  0.00    -0.004 A 
ENDROOT
TORSDOF 0
ENDMDL
