MODEL 1
REMARK minimizedAffinity -2.32412887
REMARK minimizedRMSD -1
REMARK  0 active torsions:
REMARK  status: ('A' for Active; 'I' for Inactive)
ROOT
ATOM      1  C   UNL d   1      -4.744   3.752   5.437  0.00  0.00     0.172 C 
ATOM      2  N   UNL d   1      -5.046   4.261   4.119  0.00  0.00    -0.070 N 
ATOM      3  C1  UNL d   1      -4.430   5.324   3.514  0.00  0.00    -0.004 A 
ATOM      4  C2  UNL d   1      -5.001   5.490   2.271  0.00  0.00    -0.047 A 
ATOM      5  C3  UNL d   1      -5.993   4.492   2.124  0.00  0.00    -0.047 A 
ATOM      6  C4  UNL d   1      -6.000   3.746   3.283  0.00  0.00    -0.004 A 
ENDROOT
TORSDOF 0
ENDMDL
