MODEL 1
REMARK minimizedAffinity -2.62261081
REMARK minimizedRMSD -1
REMARK  0 active torsions:
REMARK  status: ('A' for Active; 'I' for Inactive)
ROOT
ATOM      1  C   UNL d   1      -4.879   5.252   1.566  0.00  0.00     0.172 C 
ATOM      2  N   UNL d   1      -5.010   4.453   2.761  0.00  0.00    -0.070 N 
ATOM      3  C1  UNL d   1      -6.000   3.540   3.007  0.00  0.00    -0.004 A 
ATOM      4  C2  UNL d   1      -5.770   2.992   4.251  0.00  0.00    -0.047 A 
ATOM      5  C3  UNL d   1      -4.601   3.598   4.771  0.00  0.00    -0.047 A 
ATOM      6  C4  UNL d   1      -4.151   4.498   3.828  0.00  0.00    -0.004 A 
ENDROOT
TORSDOF 0
ENDMDL
