MODEL 1
REMARK minimizedAffinity -2.72758031
REMARK minimizedRMSD -1
REMARK  0 active torsions:
REMARK  status: ('A' for Active; 'I' for Inactive)
ROOT
ATOM      1  C   UNL d   1      -4.774   5.303   1.647  0.00  0.00     0.172 C 
ATOM      2  N   UNL d   1      -4.745   4.593   2.904  0.00  0.00    -0.070 N 
ATOM      3  C1  UNL d   1      -3.977   4.922   3.990  0.00  0.00    -0.004 A 
ATOM      4  C2  UNL d   1      -4.237   4.004   4.984  0.00  0.00    -0.047 A 
ATOM      5  C3  UNL d   1      -5.193   3.091   4.479  0.00  0.00    -0.047 A 
ATOM      6  C4  UNL d   1      -5.490   3.479   3.189  0.00  0.00    -0.004 A 
ENDROOT
TORSDOF 0
ENDMDL
