MODEL 1
REMARK minimizedAffinity -3.01644444
REMARK minimizedRMSD -1
REMARK  0 active torsions:
REMARK  status: ('A' for Active; 'I' for Inactive)
ROOT
ATOM      1  C   UNL d   1      -4.809   5.672   1.874  0.00  0.00     0.172 C 
ATOM      2  N   UNL d   1      -4.938   4.692   2.927  0.00  0.00    -0.070 N 
ATOM      3  C1  UNL d   1      -4.142   4.604   4.037  0.00  0.00    -0.004 A 
ATOM      4  C2  UNL d   1      -4.589   3.542   4.794  0.00  0.00    -0.047 A 
ATOM      5  C3  UNL d   1      -5.691   2.972   4.114  0.00  0.00    -0.047 A 
ATOM      6  C4  UNL d   1      -5.886   3.704   2.962  0.00  0.00    -0.004 A 
ENDROOT
TORSDOF 0
ENDMDL
