MODEL 1
REMARK minimizedAffinity -1.98379529
REMARK minimizedRMSD -1
REMARK  0 active torsions:
REMARK  status: ('A' for Active; 'I' for Inactive)
ROOT
ATOM      1  C4' PXY d   1       2.630  -1.122   1.834  0.00  0.00     0.077 C 
ATOM      2  C1' PXY d   1      -2.033   0.580  -1.128  0.00  0.00     0.077 C 
ATOM      3  C1  PXY d   1      -0.804   0.144  -0.356  0.00  0.00    -0.082 A 
ATOM      4  C2  PXY d   1      -0.651  -1.130  -0.034  0.00  0.00     0.003 A 
ATOM      5  C3  PXY d   1       0.439  -1.536   0.692  0.00  0.00     0.003 A 
ATOM      6  C4  PXY d   1       1.409  -0.638   1.047  0.00  0.00    -0.082 A 
ATOM      7  C5  PXY d   1       1.266   0.662   0.713  0.00  0.00     0.003 A 
ATOM      8  C6  PXY d   1       0.132   1.061   0.012  0.00  0.00     0.003 A 
ENDROOT
TORSDOF 0
ENDMDL
