MODEL 1
REMARK minimizedAffinity -1.99948847
REMARK minimizedRMSD -1
REMARK  0 active torsions:
REMARK  status: ('A' for Active; 'I' for Inactive)
ROOT
ATOM      1  C4' PXY d   1      -2.269   0.421  -1.709  0.00  0.00     0.077 C 
ATOM      2  C1' PXY d   1       2.452   0.210   1.619  0.00  0.00     0.077 C 
ATOM      3  C1  PXY d   1       1.215   0.252   0.743  0.00  0.00    -0.082 A 
ATOM      4  C2  PXY d   1       0.817   1.405   0.230  0.00  0.00     0.003 A 
ATOM      5  C3  PXY d   1      -0.317   1.467  -0.538  0.00  0.00     0.003 A 
ATOM      6  C4  PXY d   1      -1.021   0.329  -0.827  0.00  0.00    -0.082 A 
ATOM      7  C5  PXY d   1      -0.615  -0.853  -0.316  0.00  0.00     0.003 A 
ATOM      8  C6  PXY d   1       0.516  -0.888   0.495  0.00  0.00     0.003 A 
ENDROOT
TORSDOF 0
ENDMDL
