MODEL 1
REMARK minimizedAffinity -3.04236698
REMARK minimizedRMSD -1
REMARK  0 active torsions:
REMARK  status: ('A' for Active; 'I' for Inactive)
ROOT
ATOM      1  C4' PXY d   1       3.823  -0.769   0.584  0.00  0.00     0.077 C 
ATOM      2  C1' PXY d   1      -1.796   0.500   1.063  0.00  0.00     0.077 C 
ATOM      3  C1  PXY d   1      -0.319   0.180   0.937  0.00  0.00    -0.082 A 
ATOM      4  C2  PXY d   1       0.057  -0.975   0.411  0.00  0.00     0.003 A 
ATOM      5  C3  PXY d   1       1.388  -1.294   0.320  0.00  0.00     0.003 A 
ATOM      6  C4  PXY d   1       2.344  -0.400   0.722  0.00  0.00    -0.082 A 
ATOM      7  C5  PXY d   1       1.968   0.784   1.250  0.00  0.00     0.003 A 
ATOM      8  C6  PXY d   1       0.611   1.072   1.372  0.00  0.00     0.003 A 
ENDROOT
TORSDOF 0
ENDMDL
