MODEL 1
REMARK minimizedAffinity -2.63775158
REMARK minimizedRMSD -1
REMARK  0 active torsions:
REMARK  status: ('A' for Active; 'I' for Inactive)
ROOT
ATOM      1  C4' PXY d   1      -1.709   0.527  -0.669  0.00  0.00     0.077 C 
ATOM      2  C1' PXY d   1       2.926  -0.837   2.505  0.00  0.00     0.077 C 
ATOM      3  C1  PXY d   1       1.713  -0.466   1.674  0.00  0.00    -0.082 A 
ATOM      4  C2  PXY d   1       0.677  -1.288   1.626  0.00  0.00     0.003 A 
ATOM      5  C3  PXY d   1      -0.414  -0.984   0.854  0.00  0.00     0.003 A 
ATOM      6  C4  PXY d   1      -0.468   0.199   0.165  0.00  0.00    -0.082 A 
ATOM      7  C5  PXY d   1       0.581   1.047   0.217  0.00  0.00     0.003 A 
ATOM      8  C6  PXY d   1       1.697   0.700   0.974  0.00  0.00     0.003 A 
ENDROOT
TORSDOF 0
ENDMDL
