MODEL 1
REMARK minimizedAffinity -4.03881693
REMARK minimizedRMSD -1
REMARK  0 active torsions:
REMARK  status: ('A' for Active; 'I' for Inactive)
ROOT
ATOM      1  C4' PXY d   1      -2.074  -0.748  -0.357  0.00  0.00     0.077 C 
ATOM      2  C1' PXY d   1       3.425   0.111   1.206  0.00  0.00     0.077 C 
ATOM      3  C1  PXY d   1       1.986  -0.126   0.791  0.00  0.00    -0.082 A 
ATOM      4  C2  PXY d   1       1.160   0.902   0.680  0.00  0.00     0.003 A 
ATOM      5  C3  PXY d   1      -0.152   0.703   0.336  0.00  0.00     0.003 A 
ATOM      6  C4  PXY d   1      -0.611  -0.555   0.051  0.00  0.00    -0.082 A 
ATOM      7  C5  PXY d   1       0.229  -1.608   0.151  0.00  0.00     0.003 A 
ATOM      8  C6  PXY d   1       1.547  -1.389   0.542  0.00  0.00     0.003 A 
ENDROOT
TORSDOF 0
ENDMDL
