MODEL 1
REMARK minimizedAffinity -2.41691256
REMARK minimizedRMSD -1
REMARK  0 active torsions:
REMARK  status: ('A' for Active; 'I' for Inactive)
ROOT
ATOM      1  C4' PXY d   1      -1.040   0.120   0.174  0.00  0.00     0.077 C 
ATOM      2  C1' PXY d   1      -4.060  -0.308  -4.737  0.00  0.00     0.077 C 
ATOM      3  C1  PXY d   1      -3.271  -0.208  -3.446  0.00  0.00    -0.082 A 
ATOM      4  C2  PXY d   1      -3.054   0.978  -2.902  0.00  0.00     0.003 A 
ATOM      5  C3  PXY d   1      -2.315   1.090  -1.752  0.00  0.00     0.003 A 
ATOM      6  C4  PXY d   1      -1.839  -0.030  -1.124  0.00  0.00    -0.082 A 
ATOM      7  C5  PXY d   1      -2.066  -1.245  -1.666  0.00  0.00     0.003 A 
ATOM      8  C6  PXY d   1      -2.783  -1.333  -2.856  0.00  0.00     0.003 A 
ENDROOT
TORSDOF 0
ENDMDL
