MODEL 1
REMARK minimizedAffinity -5.10158348
REMARK minimizedRMSD -1
REMARK  0 active torsions:
REMARK  status: ('A' for Active; 'I' for Inactive)
ROOT
ATOM      1  C4' PXY d   1      -1.264  -0.041  -0.287  0.00  0.00     0.077 C 
ATOM      2  C1' PXY d   1       3.916  -1.269   1.965  0.00  0.00     0.077 C 
ATOM      3  C1  PXY d   1       2.561  -0.935   1.373  0.00  0.00    -0.082 A 
ATOM      4  C2  PXY d   1       1.507  -1.664   1.699  0.00  0.00     0.003 A 
ATOM      5  C3  PXY d   1       0.280  -1.396   1.148  0.00  0.00     0.003 A 
ATOM      6  C4  PXY d   1       0.121  -0.336   0.295  0.00  0.00    -0.082 A 
ATOM      7  C5  PXY d   1       1.190   0.419  -0.035  0.00  0.00     0.003 A 
ATOM      8  C6  PXY d   1       2.435   0.104   0.504  0.00  0.00     0.003 A 
ENDROOT
TORSDOF 0
ENDMDL
