MODEL 1
REMARK minimizedAffinity -5.10350561
REMARK minimizedRMSD -1
REMARK  0 active torsions:
REMARK  status: ('A' for Active; 'I' for Inactive)
ROOT
ATOM      1  C4' PXY d   1      -2.277  -0.116  -1.391  0.00  0.00     0.077 C 
ATOM      2  C1' PXY d   1       2.461   0.540   1.854  0.00  0.00     0.077 C 
ATOM      3  C1  PXY d   1       1.221   0.355   1.002  0.00  0.00    -0.082 A 
ATOM      4  C2  PXY d   1       0.715   1.390   0.350  0.00  0.00     0.003 A 
ATOM      5  C3  PXY d   1      -0.424   1.248  -0.399  0.00  0.00     0.003 A 
ATOM      6  C4  PXY d   1      -1.021   0.022  -0.527  0.00  0.00    -0.082 A 
ATOM      7  C5  PXY d   1      -0.505  -1.041   0.126  0.00  0.00     0.003 A 
ATOM      8  C6  PXY d   1       0.629  -0.867   0.915  0.00  0.00     0.003 A 
ENDROOT
TORSDOF 0
ENDMDL
