MODEL 1
REMARK minimizedAffinity -4.48404503
REMARK minimizedRMSD -1
REMARK  0 active torsions:
REMARK  status: ('A' for Active; 'I' for Inactive)
ROOT
ATOM      1  C4' PXY d   1      -1.742  -0.377  -0.517  0.00  0.00     0.077 C 
ATOM      2  C1' PXY d   1       3.060  -1.079   2.624  0.00  0.00     0.077 C 
ATOM      3  C1  PXY d   1       1.799  -0.908   1.800  0.00  0.00    -0.082 A 
ATOM      4  C2  PXY d   1       1.656   0.165   1.038  0.00  0.00     0.003 A 
ATOM      5  C3  PXY d   1       0.508   0.351   0.312  0.00  0.00     0.003 A 
ATOM      6  C4  PXY d   1      -0.481  -0.596   0.324  0.00  0.00    -0.082 A 
ATOM      7  C5  PXY d   1      -0.338  -1.698   1.091  0.00  0.00     0.003 A 
ATOM      8  C6  PXY d   1       0.817  -1.848   1.853  0.00  0.00     0.003 A 
ENDROOT
TORSDOF 0
ENDMDL
