MODEL 1
REMARK minimizedAffinity -5.27301359
REMARK minimizedRMSD -1
REMARK  0 active torsions:
REMARK  status: ('A' for Active; 'I' for Inactive)
ROOT
ATOM      1  C4' PXY d   1      -2.027   0.471  -0.947  0.00  0.00     0.077 C 
ATOM      2  C1' PXY d   1       3.271  -0.523   1.142  0.00  0.00     0.077 C 
ATOM      3  C1  PXY d   1       1.882  -0.250   0.599  0.00  0.00    -0.082 A 
ATOM      4  C2  PXY d   1       1.051  -1.259   0.391  0.00  0.00     0.003 A 
ATOM      5  C3  PXY d   1      -0.197  -1.033  -0.130  0.00  0.00     0.003 A 
ATOM      6  C4  PXY d   1      -0.618   0.243  -0.391  0.00  0.00    -0.082 A 
ATOM      7  C5  PXY d   1       0.220   1.279  -0.171  0.00  0.00     0.003 A 
ATOM      8  C6  PXY d   1       1.497   1.025   0.319  0.00  0.00     0.003 A 
ENDROOT
TORSDOF 0
ENDMDL
