MODEL 1
REMARK minimizedAffinity 12.8976212
REMARK minimizedRMSD -1
REMARK  0 active torsions:
REMARK  status: ('A' for Active; 'I' for Inactive)
ROOT
ATOM      1  C   UNL d   1       2.162   0.648  -1.537  0.00  0.00     0.077 C 
ATOM      2  C1  UNL d   1       1.978  -0.835  -1.405  0.00  0.00    -0.074 A 
ATOM      3  C2  UNL d   1       2.948  -1.627  -0.784  0.00  0.00    -0.005 A 
ATOM      4  C3  UNL d   1       2.758  -3.004  -0.660  0.00  0.00     0.006 A 
ATOM      5  C4  UNL d   1       1.598  -3.600  -1.156  0.00  0.00    -0.005 A 
ATOM      6  C5  UNL d   1       0.616  -2.824  -1.779  0.00  0.00    -0.074 A 
ATOM      7  C6  UNL d   1      -0.641  -3.448  -2.308  0.00  0.00     0.077 C 
ATOM      8  C7  UNL d   1       0.811  -1.440  -1.893  0.00  0.00    -0.001 A 
ENDROOT
TORSDOF 0
ENDMDL
