MODEL 1
REMARK minimizedAffinity 8.23768997
REMARK minimizedRMSD -1
REMARK  0 active torsions:
REMARK  status: ('A' for Active; 'I' for Inactive)
ROOT
ATOM      1  C   UNL d   1       1.649  -1.890  -5.840  0.00  0.00     0.077 C 
ATOM      2  C1  UNL d   1       3.148  -1.876  -5.900  0.00  0.00    -0.074 A 
ATOM      3  C2  UNL d   1       3.854  -0.670  -5.952  0.00  0.00    -0.005 A 
ATOM      4  C3  UNL d   1       5.248  -0.672  -5.997  0.00  0.00     0.006 A 
ATOM      5  C4  UNL d   1       5.949  -1.879  -5.991  0.00  0.00    -0.005 A 
ATOM      6  C5  UNL d   1       5.260  -3.095  -5.939  0.00  0.00    -0.074 A 
ATOM      7  C6  UNL d   1       5.999  -4.400  -5.922  0.00  0.00     0.077 C 
ATOM      8  C7  UNL d   1       3.860  -3.084  -5.886  0.00  0.00    -0.001 A 
ENDROOT
TORSDOF 0
ENDMDL
