MODEL 1
REMARK minimizedAffinity 20.0786495
REMARK minimizedRMSD -1
REMARK  0 active torsions:
REMARK  status: ('A' for Active; 'I' for Inactive)
ROOT
ATOM      1  C   UNL d   1      -1.928   2.236   3.011  0.00  0.00     0.077 C 
ATOM      2  C1  UNL d   1      -0.610   2.157   3.722  0.00  0.00    -0.074 A 
ATOM      3  C2  UNL d   1      -0.544   2.178   5.119  0.00  0.00    -0.005 A 
ATOM      4  C3  UNL d   1       0.689   2.094   5.766  0.00  0.00     0.006 A 
ATOM      5  C4  UNL d   1       1.866   1.988   5.025  0.00  0.00    -0.005 A 
ATOM      6  C5  UNL d   1       1.820   1.964   3.627  0.00  0.00    -0.074 A 
ATOM      7  C6  UNL d   1       3.075   1.841   2.815  0.00  0.00     0.077 C 
ATOM      8  C7  UNL d   1       0.577   2.042   2.984  0.00  0.00    -0.001 A 
ENDROOT
TORSDOF 0
ENDMDL
