MODEL 1
REMARK minimizedAffinity 11.3069096
REMARK minimizedRMSD -1
REMARK  0 active torsions:
REMARK  status: ('A' for Active; 'I' for Inactive)
ROOT
ATOM      1  C   UNL d   1      -4.785   5.999  -5.854  0.00  0.00     0.077 C 
ATOM      2  C1  UNL d   1      -3.663   5.401  -5.058  0.00  0.00    -0.074 A 
ATOM      3  C2  UNL d   1      -3.224   5.999  -3.872  0.00  0.00    -0.005 A 
ATOM      4  C3  UNL d   1      -2.186   5.426  -3.138  0.00  0.00     0.006 A 
ATOM      5  C4  UNL d   1      -1.578   4.250  -3.580  0.00  0.00    -0.005 A 
ATOM      6  C5  UNL d   1      -2.005   3.637  -4.762  0.00  0.00    -0.074 A 
ATOM      7  C6  UNL d   1      -1.369   2.368  -5.246  0.00  0.00     0.077 C 
ATOM      8  C7  UNL d   1      -3.053   4.216  -5.491  0.00  0.00    -0.001 A 
ENDROOT
TORSDOF 0
ENDMDL
