MODEL 1
REMARK minimizedAffinity 9.70231438
REMARK minimizedRMSD -1
REMARK  0 active torsions:
REMARK  status: ('A' for Active; 'I' for Inactive)
ROOT
ATOM      1  C   UNL d   1      -3.754   3.117   6.000  0.00  0.00     0.077 C 
ATOM      2  C1  UNL d   1      -3.867   1.839   5.224  0.00  0.00    -0.074 A 
ATOM      3  C2  UNL d   1      -3.913   1.847   3.826  0.00  0.00    -0.005 A 
ATOM      4  C3  UNL d   1      -4.009   0.650   3.118  0.00  0.00     0.006 A 
ATOM      5  C4  UNL d   1      -4.060  -0.567   3.799  0.00  0.00    -0.005 A 
ATOM      6  C5  UNL d   1      -4.015  -0.596   5.197  0.00  0.00    -0.074 A 
ATOM      7  C6  UNL d   1      -4.059  -1.895   5.944  0.00  0.00     0.077 C 
ATOM      8  C7  UNL d   1      -3.911   0.612   5.901  0.00  0.00    -0.001 A 
ENDROOT
TORSDOF 0
ENDMDL
