MODEL 1
REMARK minimizedAffinity 2.27815104
REMARK minimizedRMSD -1
REMARK  0 active torsions:
REMARK  status: ('A' for Active; 'I' for Inactive)
ROOT
ATOM      1  C   UNL d   1      -1.023  -4.509  -3.362  0.00  0.00     0.077 C 
ATOM      2  C1  UNL d   1      -2.195  -4.643  -4.287  0.00  0.00    -0.074 A 
ATOM      3  C2  UNL d   1      -2.567  -5.889  -4.802  0.00  0.00    -0.005 A 
ATOM      4  C3  UNL d   1      -3.665  -5.999  -5.654  0.00  0.00     0.006 A 
ATOM      5  C4  UNL d   1      -4.403  -4.866  -6.000  0.00  0.00    -0.005 A 
ATOM      6  C5  UNL d   1      -4.047  -3.612  -5.495  0.00  0.00    -0.074 A 
ATOM      7  C6  UNL d   1      -4.835  -2.385  -5.849  0.00  0.00     0.077 C 
ATOM      8  C7  UNL d   1      -2.946  -3.510  -4.633  0.00  0.00    -0.001 A 
ENDROOT
TORSDOF 0
ENDMDL
