MODEL 1
REMARK minimizedAffinity 11.3614683
REMARK minimizedRMSD -1
REMARK  0 active torsions:
REMARK  status: ('A' for Active; 'I' for Inactive)
ROOT
ATOM      1  C   UNL d   1       3.099   2.693  -1.681  0.00  0.00     0.077 C 
ATOM      2  C1  UNL d   1       3.408   1.325  -1.150  0.00  0.00    -0.074 A 
ATOM      3  C2  UNL d   1       4.667   1.028  -0.618  0.00  0.00    -0.005 A 
ATOM      4  C3  UNL d   1       4.936  -0.246  -0.118  0.00  0.00     0.006 A 
ATOM      5  C4  UNL d   1       3.951  -1.234  -0.145  0.00  0.00    -0.005 A 
ATOM      6  C5  UNL d   1       2.686  -0.955  -0.672  0.00  0.00    -0.074 A 
ATOM      7  C6  UNL d   1       1.613  -2.002  -0.700  0.00  0.00     0.077 C 
ATOM      8  C7  UNL d   1       2.421   0.330  -1.166  0.00  0.00    -0.001 A 
ENDROOT
TORSDOF 0
ENDMDL
