MODEL 1
REMARK minimizedAffinity 9.87350464
REMARK minimizedRMSD -1
REMARK  0 active torsions:
REMARK  status: ('A' for Active; 'I' for Inactive)
ROOT
ATOM      1  C   UNL d   1       0.331  -4.860  -3.083  0.00  0.00     0.077 C 
ATOM      2  C1  UNL d   1       1.216  -3.825  -2.453  0.00  0.00    -0.074 A 
ATOM      3  C2  UNL d   1       2.218  -4.191  -1.548  0.00  0.00    -0.005 A 
ATOM      4  C3  UNL d   1       3.039  -3.218  -0.978  0.00  0.00     0.006 A 
ATOM      5  C4  UNL d   1       2.868  -1.873  -1.307  0.00  0.00    -0.005 A 
ATOM      6  C5  UNL d   1       1.872  -1.489  -2.211  0.00  0.00    -0.074 A 
ATOM      7  C6  UNL d   1       1.681  -0.049  -2.583  0.00  0.00     0.077 C 
ATOM      8  C7  UNL d   1       1.055  -2.473  -2.785  0.00  0.00    -0.001 A 
ENDROOT
TORSDOF 0
ENDMDL
