MODEL 1
REMARK minimizedAffinity -2.90924478
REMARK minimizedRMSD -1
REMARK  0 active torsions:
REMARK  status: ('A' for Active; 'I' for Inactive)
ROOT
ATOM      1  C   UNL d   1      -4.028  -2.885  -5.982  0.00  0.00     0.077 C 
ATOM      2  C1  UNL d   1      -3.023  -3.851  -5.427  0.00  0.00    -0.074 A 
ATOM      3  C2  UNL d   1      -2.850  -5.116  -6.000  0.00  0.00    -0.005 A 
ATOM      4  C3  UNL d   1      -1.906  -6.000  -5.479  0.00  0.00     0.006 A 
ATOM      5  C4  UNL d   1      -1.126  -5.630  -4.383  0.00  0.00    -0.005 A 
ATOM      6  C5  UNL d   1      -1.285  -4.370  -3.798  0.00  0.00    -0.074 A 
ATOM      7  C6  UNL d   1      -0.448  -3.953  -2.625  0.00  0.00     0.077 C 
ATOM      8  C7  UNL d   1      -2.231  -3.484  -4.331  0.00  0.00    -0.001 A 
ENDROOT
TORSDOF 0
ENDMDL
