MODEL 1
REMARK minimizedAffinity -1.46368814
REMARK minimizedRMSD -1
REMARK  0 active torsions:
REMARK  status: ('A' for Active; 'I' for Inactive)
ROOT
ATOM      1  C   UNL d   1      -0.005  -3.850  -4.054  0.00  0.00     0.077 C 
ATOM      2  C1  UNL d   1      -1.303  -4.155  -4.740  0.00  0.00    -0.074 A 
ATOM      3  C2  UNL d   1      -1.568  -5.434  -5.240  0.00  0.00    -0.005 A 
ATOM      4  C3  UNL d   1      -2.784  -5.705  -5.867  0.00  0.00     0.006 A 
ATOM      5  C4  UNL d   1      -3.746  -4.703  -6.000  0.00  0.00    -0.005 A 
ATOM      6  C5  UNL d   1      -3.499  -3.418  -5.505  0.00  0.00    -0.074 A 
ATOM      7  C6  UNL d   1      -4.525  -2.332  -5.630  0.00  0.00     0.077 C 
ATOM      8  C7  UNL d   1      -2.277  -3.155  -4.870  0.00  0.00    -0.001 A 
ENDROOT
TORSDOF 0
ENDMDL
