MODEL 1
REMARK minimizedAffinity 1.00127554
REMARK minimizedRMSD -1
REMARK  0 active torsions:
REMARK  status: ('A' for Active; 'I' for Inactive)
ROOT
ATOM      1  C   UNL d   1      -4.371  -2.488  -5.147  0.00  0.00     0.077 C 
ATOM      2  C1  UNL d   1      -3.514  -3.719  -5.151  0.00  0.00    -0.074 A 
ATOM      3  C2  UNL d   1      -3.802  -4.793  -6.000  0.00  0.00    -0.005 A 
ATOM      4  C3  UNL d   1      -2.990  -5.926  -6.000  0.00  0.00     0.006 A 
ATOM      5  C4  UNL d   1      -1.883  -5.998  -5.153  0.00  0.00    -0.005 A 
ATOM      6  C5  UNL d   1      -1.579  -4.933  -4.298  0.00  0.00    -0.074 A 
ATOM      7  C6  UNL d   1      -0.387  -4.990  -3.388  0.00  0.00     0.077 C 
ATOM      8  C7  UNL d   1      -2.396  -3.795  -4.309  0.00  0.00    -0.001 A 
ENDROOT
TORSDOF 0
ENDMDL
