MODEL 1
REMARK minimizedAffinity 4.15490294
REMARK minimizedRMSD -1
REMARK  0 active torsions:
REMARK  status: ('A' for Active; 'I' for Inactive)
ROOT
ATOM      1  C   UNL d   1      -0.859  -4.824  -2.604  0.00  0.00     0.077 C 
ATOM      2  C1  UNL d   1      -1.770  -4.791  -3.796  0.00  0.00    -0.074 A 
ATOM      3  C2  UNL d   1      -1.535  -5.611  -4.903  0.00  0.00    -0.005 A 
ATOM      4  C3  UNL d   1      -2.396  -5.576  -6.000  0.00  0.00     0.006 A 
ATOM      5  C4  UNL d   1      -3.499  -4.721  -6.000  0.00  0.00    -0.005 A 
ATOM      6  C5  UNL d   1      -3.750  -3.894  -4.901  0.00  0.00    -0.074 A 
ATOM      7  C6  UNL d   1      -4.936  -2.976  -4.881  0.00  0.00     0.077 C 
ATOM      8  C7  UNL d   1      -2.884  -3.940  -3.800  0.00  0.00    -0.001 A 
ENDROOT
TORSDOF 0
ENDMDL
