MODEL 1
REMARK minimizedAffinity 4.19839954
REMARK minimizedRMSD -1
REMARK  0 active torsions:
REMARK  status: ('A' for Active; 'I' for Inactive)
ROOT
ATOM      1  C   UNL d   1      -0.797  -4.887  -2.634  0.00  0.00     0.077 C 
ATOM      2  C1  UNL d   1      -1.722  -4.862  -3.814  0.00  0.00    -0.074 A 
ATOM      3  C2  UNL d   1      -1.807  -5.954  -4.684  0.00  0.00    -0.005 A 
ATOM      4  C3  UNL d   1      -2.679  -5.920  -5.772  0.00  0.00     0.006 A 
ATOM      5  C4  UNL d   1      -3.475  -4.796  -6.000  0.00  0.00    -0.005 A 
ATOM      6  C5  UNL d   1      -3.405  -3.696  -5.139  0.00  0.00    -0.074 A 
ATOM      7  C6  UNL d   1      -4.261  -2.485  -5.364  0.00  0.00     0.077 C 
ATOM      8  C7  UNL d   1      -2.531  -3.741  -4.044  0.00  0.00    -0.001 A 
ENDROOT
TORSDOF 0
ENDMDL
