MODEL 1
REMARK minimizedAffinity 4.77716637
REMARK minimizedRMSD -1
REMARK  0 active torsions:
REMARK  status: ('A' for Active; 'I' for Inactive)
ROOT
ATOM      1  C   UNL d   1      -4.259  -2.619  -5.272  0.00  0.00     0.077 C 
ATOM      2  C1  UNL d   1      -3.349  -3.805  -5.146  0.00  0.00    -0.074 A 
ATOM      3  C2  UNL d   1      -3.480  -4.905  -6.000  0.00  0.00    -0.005 A 
ATOM      4  C3  UNL d   1      -2.621  -5.997  -5.877  0.00  0.00     0.006 A 
ATOM      5  C4  UNL d   1      -1.624  -6.000  -4.901  0.00  0.00    -0.005 A 
ATOM      6  C5  UNL d   1      -1.477  -4.908  -4.039  0.00  0.00    -0.074 A 
ATOM      7  C6  UNL d   1      -0.404  -4.891  -2.991  0.00  0.00     0.077 C 
ATOM      8  C7  UNL d   1      -2.340  -3.812  -4.173  0.00  0.00    -0.001 A 
ENDROOT
TORSDOF 0
ENDMDL
