MODEL 1
REMARK minimizedAffinity -3.55933595
REMARK minimizedRMSD -1
REMARK  0 active torsions:
REMARK  status: ('A' for Active; 'I' for Inactive)
ROOT
ATOM      1  C   UNL d   1      -0.777  -3.458  -3.720  0.00  0.00     0.077 C 
ATOM      2  C1  UNL d   1      -1.880  -4.084  -4.521  0.00  0.00    -0.074 A 
ATOM      3  C2  UNL d   1      -1.815  -5.427  -4.906  0.00  0.00    -0.005 A 
ATOM      4  C3  UNL d   1      -2.853  -5.999  -5.642  0.00  0.00     0.006 A 
ATOM      5  C4  UNL d   1      -3.965  -5.234  -6.000  0.00  0.00    -0.005 A 
ATOM      6  C5  UNL d   1      -4.047  -3.890  -5.623  0.00  0.00    -0.074 A 
ATOM      7  C6  UNL d   1      -5.239  -3.057  -5.990  0.00  0.00     0.077 C 
ATOM      8  C7  UNL d   1      -3.004  -3.325  -4.877  0.00  0.00    -0.001 A 
ENDROOT
TORSDOF 0
ENDMDL
