MODEL 1
REMARK minimizedAffinity 1.01072657
REMARK minimizedRMSD -1
REMARK  0 active torsions:
REMARK  status: ('A' for Active; 'I' for Inactive)
ROOT
ATOM      1  C   UNL d   1      -4.784  -2.631  -5.997  0.00  0.00     0.077 C 
ATOM      2  C1  UNL d   1      -3.800  -3.612  -5.432  0.00  0.00    -0.074 A 
ATOM      3  C2  UNL d   1      -3.645  -4.882  -5.998  0.00  0.00    -0.005 A 
ATOM      4  C3  UNL d   1      -2.719  -5.780  -5.467  0.00  0.00     0.006 A 
ATOM      5  C4  UNL d   1      -1.940  -5.419  -4.367  0.00  0.00    -0.005 A 
ATOM      6  C5  UNL d   1      -2.081  -4.153  -3.789  0.00  0.00    -0.074 A 
ATOM      7  C6  UNL d   1      -1.244  -3.745  -2.613  0.00  0.00     0.077 C 
ATOM      8  C7  UNL d   1      -3.008  -3.254  -4.332  0.00  0.00    -0.001 A 
ENDROOT
TORSDOF 0
ENDMDL
