MODEL 1
REMARK minimizedAffinity 5.1468544
REMARK minimizedRMSD -1
REMARK  0 active torsions:
REMARK  status: ('A' for Active; 'I' for Inactive)
ROOT
ATOM      1  C   UNL d   1      -3.070   1.056  -0.647  0.00  0.00     0.172 C 
ATOM      2  N   UNL d   1      -2.277   0.386  -1.652  0.00  0.00    -0.070 N 
ATOM      3  C1  UNL d   1      -2.344   0.609  -3.001  0.00  0.00    -0.004 A 
ATOM      4  C2  UNL d   1      -1.432  -0.223  -3.613  0.00  0.00    -0.047 A 
ATOM      5  C3  UNL d   1      -0.795  -0.974  -2.596  0.00  0.00    -0.047 A 
ATOM      6  C4  UNL d   1      -1.338  -0.576  -1.392  0.00  0.00    -0.004 A 
ENDROOT
TORSDOF 0
ENDMDL
