MODEL 1
REMARK minimizedAffinity 8.62995434
REMARK minimizedRMSD -1
REMARK  0 active torsions:
REMARK  status: ('A' for Active; 'I' for Inactive)
ROOT
ATOM      1  C   UNL d   1      -0.945   2.536   2.221  0.00  0.00     0.172 C 
ATOM      2  N   UNL d   1      -0.438   3.418   1.197  0.00  0.00    -0.070 N 
ATOM      3  C1  UNL d   1       0.879   3.567   0.852  0.00  0.00    -0.004 A 
ATOM      4  C2  UNL d   1       0.948   4.497  -0.163  0.00  0.00    -0.047 A 
ATOM      5  C3  UNL d   1      -0.374   4.922  -0.437  0.00  0.00    -0.047 A 
ATOM      6  C4  UNL d   1      -1.211   4.239   0.419  0.00  0.00    -0.004 A 
ENDROOT
TORSDOF 0
ENDMDL
