MODEL 1
REMARK minimizedAffinity 3.23332834
REMARK minimizedRMSD -1
REMARK  0 active torsions:
REMARK  status: ('A' for Active; 'I' for Inactive)
ROOT
ATOM      1  C   UNL d   1       5.294  -5.309  -0.182  0.00  0.00     0.172 C 
ATOM      2  N   UNL d   1       5.129  -3.901  -0.460  0.00  0.00    -0.070 N 
ATOM      3  C1  UNL d   1       5.875  -3.169  -1.344  0.00  0.00    -0.004 A 
ATOM      4  C2  UNL d   1       5.407  -1.873  -1.319  0.00  0.00    -0.047 A 
ATOM      5  C3  UNL d   1       4.343  -1.825  -0.387  0.00  0.00    -0.047 A 
ATOM      6  C4  UNL d   1       4.193  -3.094   0.130  0.00  0.00    -0.004 A 
ENDROOT
TORSDOF 0
ENDMDL
