MODEL 1
REMARK minimizedAffinity 1.39256001
REMARK minimizedRMSD -1
REMARK  0 active torsions:
REMARK  status: ('A' for Active; 'I' for Inactive)
ROOT
ATOM      1  C   UNL d   1      -2.143   2.085   1.897  0.00  0.00     0.172 C 
ATOM      2  N   UNL d   1      -1.369   3.034   1.133  0.00  0.00    -0.070 N 
ATOM      3  C1  UNL d   1      -0.009   3.007   0.969  0.00  0.00    -0.004 A 
ATOM      4  C2  UNL d   1       0.341   4.078   0.176  0.00  0.00    -0.047 A 
ATOM      5  C3  UNL d   1      -0.848   4.773  -0.148  0.00  0.00    -0.047 A 
ATOM      6  C4  UNL d   1      -1.892   4.105   0.458  0.00  0.00    -0.004 A 
ENDROOT
TORSDOF 0
ENDMDL
