MODEL 1
REMARK minimizedAffinity 1.42387688
REMARK minimizedRMSD -1
REMARK  0 active torsions:
REMARK  status: ('A' for Active; 'I' for Inactive)
ROOT
ATOM      1  C   UNL d   1       0.488   4.603  -0.182  0.00  0.00     0.172 C 
ATOM      2  N   UNL d   1       0.045   3.588   0.745  0.00  0.00    -0.070 N 
ATOM      3  C1  UNL d   1       0.788   2.521   1.175  0.00  0.00    -0.004 A 
ATOM      4  C2  UNL d   1       0.012   1.791   2.049  0.00  0.00    -0.047 A 
ATOM      5  C3  UNL d   1      -1.241   2.441   2.146  0.00  0.00    -0.047 A 
ATOM      6  C4  UNL d   1      -1.193   3.550   1.329  0.00  0.00    -0.004 A 
ENDROOT
TORSDOF 0
ENDMDL
