MODEL 1
REMARK minimizedAffinity 4.57584095
REMARK minimizedRMSD -1
REMARK  0 active torsions:
REMARK  status: ('A' for Active; 'I' for Inactive)
ROOT
ATOM      1  C   UNL d   1       2.487   5.233   0.836  0.00  0.00     0.172 C 
ATOM      2  N   UNL d   1       1.246   4.574   0.502  0.00  0.00    -0.070 N 
ATOM      3  C1  UNL d   1       0.977   3.243   0.674  0.00  0.00    -0.004 A 
ATOM      4  C2  UNL d   1      -0.309   3.012   0.235  0.00  0.00    -0.047 A 
ATOM      5  C3  UNL d   1      -0.830   4.247  -0.218  0.00  0.00    -0.047 A 
ATOM      6  C4  UNL d   1       0.153   5.197  -0.041  0.00  0.00    -0.004 A 
ENDROOT
TORSDOF 0
ENDMDL
