MODEL 1
REMARK minimizedAffinity 0.736847401
REMARK minimizedRMSD -1
REMARK  0 active torsions:
REMARK  status: ('A' for Active; 'I' for Inactive)
ROOT
ATOM      1  C   UNL d   1       2.444  -2.083   5.309  0.00  0.00     0.172 C 
ATOM      2  N   UNL d   1       1.612  -1.051   4.736  0.00  0.00    -0.070 N 
ATOM      3  C1  UNL d   1       0.301  -0.814   5.055  0.00  0.00    -0.004 A 
ATOM      4  C2  UNL d   1      -0.132   0.250   4.294  0.00  0.00    -0.047 A 
ATOM      5  C3  UNL d   1       0.955   0.666   3.489  0.00  0.00    -0.047 A 
ATOM      6  C4  UNL d   1       2.022  -0.156   3.784  0.00  0.00    -0.004 A 
ENDROOT
TORSDOF 0
ENDMDL
