MODEL 1
REMARK minimizedAffinity 6.20099974
REMARK minimizedRMSD -1
REMARK  0 active torsions:
REMARK  status: ('A' for Active; 'I' for Inactive)
ROOT
ATOM      1  C   UNL d   1       3.027   3.640   2.168  0.00  0.00     0.172 C 
ATOM      2  N   UNL d   1       1.801   3.427   1.435  0.00  0.00    -0.070 N 
ATOM      3  C1  UNL d   1       1.160   4.358   0.663  0.00  0.00    -0.004 A 
ATOM      4  C2  UNL d   1       0.033   3.766   0.136  0.00  0.00    -0.047 A 
ATOM      5  C3  UNL d   1      -0.005   2.433   0.608  0.00  0.00    -0.047 A 
ATOM      6  C4  UNL d   1       1.101   2.249   1.410  0.00  0.00    -0.004 A 
ENDROOT
TORSDOF 0
ENDMDL
