MODEL 1
REMARK minimizedAffinity 5.32660055
REMARK minimizedRMSD -1
REMARK  0 active torsions:
REMARK  status: ('A' for Active; 'I' for Inactive)
ROOT
ATOM      1  C   UNL d   1       2.394  -1.121   0.036  0.00  0.00     0.172 C 
ATOM      2  N   UNL d   1       3.638  -1.701  -0.413  0.00  0.00    -0.070 N 
ATOM      3  C1  UNL d   1       3.850  -3.028  -0.680  0.00  0.00    -0.004 A 
ATOM      4  C2  UNL d   1       5.160  -3.173  -1.081  0.00  0.00    -0.047 A 
ATOM      5  C3  UNL d   1       5.757  -1.890  -1.054  0.00  0.00    -0.047 A 
ATOM      6  C4  UNL d   1       4.792  -0.998  -0.636  0.00  0.00    -0.004 A 
ENDROOT
TORSDOF 0
ENDMDL
