MODEL 1
REMARK minimizedAffinity 5.9344058
REMARK minimizedRMSD -1
REMARK  0 active torsions:
REMARK  status: ('A' for Active; 'I' for Inactive)
ROOT
ATOM      1  C   UNL d   1      -0.300   0.551  -2.672  0.00  0.00     0.077 C 
ATOM      2  C1  UNL d   1       0.149   1.401  -1.520  0.00  0.00    -0.074 A 
ATOM      3  C2  UNL d   1       0.272   0.862  -0.235  0.00  0.00    -0.005 A 
ATOM      4  C3  UNL d   1       0.700   1.662   0.824  0.00  0.00     0.006 A 
ATOM      5  C4  UNL d   1       1.009   3.006   0.610  0.00  0.00    -0.005 A 
ATOM      6  C5  UNL d   1       0.893   3.561  -0.668  0.00  0.00    -0.074 A 
ATOM      7  C6  UNL d   1       1.230   5.001  -0.917  0.00  0.00     0.077 C 
ATOM      8  C7  UNL d   1       0.469   2.749  -1.729  0.00  0.00    -0.001 A 
ENDROOT
TORSDOF 0
ENDMDL
