MODEL 1
REMARK minimizedAffinity -1.61817884
REMARK minimizedRMSD -1
REMARK  0 active torsions:
REMARK  status: ('A' for Active; 'I' for Inactive)
ROOT
ATOM      1  C   UNL d   1       1.112   0.403   0.461  0.00  0.00     0.077 C 
ATOM      2  C1  UNL d   1       0.330   1.594  -0.007  0.00  0.00    -0.074 A 
ATOM      3  C2  UNL d   1      -1.052   1.514  -0.203  0.00  0.00    -0.005 A 
ATOM      4  C3  UNL d   1      -1.768   2.633  -0.630  0.00  0.00     0.006 A 
ATOM      5  C4  UNL d   1      -1.109   3.841  -0.865  0.00  0.00    -0.005 A 
ATOM      6  C5  UNL d   1       0.273   3.939  -0.675  0.00  0.00    -0.074 A 
ATOM      7  C6  UNL d   1       0.995   5.232  -0.914  0.00  0.00     0.077 C 
ATOM      8  C7  UNL d   1       0.984   2.812  -0.239  0.00  0.00    -0.001 A 
ENDROOT
TORSDOF 0
ENDMDL
