MODEL 1
REMARK minimizedAffinity 5.43469238
REMARK minimizedRMSD -1
REMARK  0 active torsions:
REMARK  status: ('A' for Active; 'I' for Inactive)
ROOT
ATOM      1  C   UNL d   1       1.525   4.518   0.045  0.00  0.00     0.077 C 
ATOM      2  C1  UNL d   1       0.817   3.204   0.183  0.00  0.00    -0.074 A 
ATOM      3  C2  UNL d   1      -0.550   3.092  -0.091  0.00  0.00    -0.005 A 
ATOM      4  C3  UNL d   1      -1.194   1.860   0.032  0.00  0.00     0.006 A 
ATOM      5  C4  UNL d   1      -0.478   0.730   0.430  0.00  0.00    -0.005 A 
ATOM      6  C5  UNL d   1       0.890   0.823   0.707  0.00  0.00    -0.074 A 
ATOM      7  C6  UNL d   1       1.676  -0.384   1.125  0.00  0.00     0.077 C 
ATOM      8  C7  UNL d   1       1.531   2.062   0.574  0.00  0.00    -0.001 A 
ENDROOT
TORSDOF 0
ENDMDL
