MODEL 1
REMARK minimizedAffinity 11.4769268
REMARK minimizedRMSD -1
REMARK  0 active torsions:
REMARK  status: ('A' for Active; 'I' for Inactive)
ROOT
ATOM      1  C   UNL d   1      -6.000   4.060  -4.124  0.00  0.00     0.077 C 
ATOM      2  C1  UNL d   1      -4.979   3.077  -3.632  0.00  0.00    -0.074 A 
ATOM      3  C2  UNL d   1      -3.611   3.356  -3.722  0.00  0.00    -0.005 A 
ATOM      4  C3  UNL d   1      -2.674   2.436  -3.251  0.00  0.00     0.006 A 
ATOM      5  C4  UNL d   1      -3.094   1.231  -2.686  0.00  0.00    -0.005 A 
ATOM      6  C5  UNL d   1      -4.457   0.936  -2.587  0.00  0.00    -0.074 A 
ATOM      7  C6  UNL d   1      -4.926  -0.350  -1.973  0.00  0.00     0.077 C 
ATOM      8  C7  UNL d   1      -5.393   1.868  -3.056  0.00  0.00    -0.001 A 
ENDROOT
TORSDOF 0
ENDMDL
