MODEL 1
REMARK minimizedAffinity 9.37954617
REMARK minimizedRMSD -1
REMARK  0 active torsions:
REMARK  status: ('A' for Active; 'I' for Inactive)
ROOT
ATOM      1  C   UNL d   1      -6.000   5.654  -6.000  0.00  0.00     0.077 C 
ATOM      2  C1  UNL d   1      -5.249   4.677  -5.145  0.00  0.00    -0.074 A 
ATOM      3  C2  UNL d   1      -3.874   4.819  -4.929  0.00  0.00    -0.005 A 
ATOM      4  C3  UNL d   1      -3.191   3.907  -4.124  0.00  0.00     0.006 A 
ATOM      5  C4  UNL d   1      -3.874   2.846  -3.529  0.00  0.00    -0.005 A 
ATOM      6  C5  UNL d   1      -5.248   2.688  -3.733  0.00  0.00    -0.074 A 
ATOM      7  C6  UNL d   1      -5.999   1.559  -3.093  0.00  0.00     0.077 C 
ATOM      8  C7  UNL d   1      -5.929   3.612  -4.537  0.00  0.00    -0.001 A 
ENDROOT
TORSDOF 0
ENDMDL
