MODEL 1
REMARK minimizedAffinity 4.24513912
REMARK minimizedRMSD -1
REMARK  0 active torsions:
REMARK  status: ('A' for Active; 'I' for Inactive)
ROOT
ATOM      1  C   UNL d   1      -6.000   5.997  -4.844  0.00  0.00     0.077 C 
ATOM      2  C1  UNL d   1      -5.245   4.880  -4.188  0.00  0.00    -0.074 A 
ATOM      3  C2  UNL d   1      -3.862   4.964  -3.993  0.00  0.00    -0.005 A 
ATOM      4  C3  UNL d   1      -3.175   3.920  -3.373  0.00  0.00     0.006 A 
ATOM      5  C4  UNL d   1      -3.862   2.784  -2.942  0.00  0.00    -0.005 A 
ATOM      6  C5  UNL d   1      -5.244   2.683  -3.128  0.00  0.00    -0.074 A 
ATOM      7  C6  UNL d   1      -5.999   1.474  -2.662  0.00  0.00     0.077 C 
ATOM      8  C7  UNL d   1      -5.929   3.739  -3.746  0.00  0.00    -0.001 A 
ENDROOT
TORSDOF 0
ENDMDL
