MODEL 1
REMARK minimizedAffinity 2.69498205
REMARK minimizedRMSD -1
REMARK  0 active torsions:
REMARK  status: ('A' for Active; 'I' for Inactive)
ROOT
ATOM      1  C   UNL d   1       0.749  -1.897  -3.375  0.00  0.00     0.077 C 
ATOM      2  C1  UNL d   1       0.974  -3.325  -2.977  0.00  0.00    -0.074 A 
ATOM      3  C2  UNL d   1       0.016  -4.024  -2.234  0.00  0.00    -0.005 A 
ATOM      4  C3  UNL d   1       0.235  -5.355  -1.879  0.00  0.00     0.006 A 
ATOM      5  C4  UNL d   1       1.411  -6.000  -2.262  0.00  0.00    -0.005 A 
ATOM      6  C5  UNL d   1       2.380  -5.318  -3.005  0.00  0.00    -0.074 A 
ATOM      7  C6  UNL d   1       3.646  -6.000  -3.434  0.00  0.00     0.077 C 
ATOM      8  C7  UNL d   1       2.150  -3.983  -3.364  0.00  0.00    -0.001 A 
ENDROOT
TORSDOF 0
ENDMDL
