MODEL 1
REMARK minimizedAffinity 4.31118488
REMARK minimizedRMSD -1
REMARK  0 active torsions:
REMARK  status: ('A' for Active; 'I' for Inactive)
ROOT
ATOM      1  C   UNL d   1      -4.809   0.877  -3.030  0.00  0.00     0.077 C 
ATOM      2  C1  UNL d   1      -4.850   2.285  -3.546  0.00  0.00    -0.074 A 
ATOM      3  C2  UNL d   1      -5.969   2.766  -4.233  0.00  0.00    -0.005 A 
ATOM      4  C3  UNL d   1      -5.997   4.080  -4.699  0.00  0.00     0.006 A 
ATOM      5  C4  UNL d   1      -4.908   4.925  -4.484  0.00  0.00    -0.005 A 
ATOM      6  C5  UNL d   1      -3.780   4.462  -3.798  0.00  0.00    -0.074 A 
ATOM      7  C6  UNL d   1      -2.605   5.360  -3.550  0.00  0.00     0.077 C 
ATOM      8  C7  UNL d   1      -3.763   3.142  -3.327  0.00  0.00    -0.001 A 
ENDROOT
TORSDOF 0
ENDMDL
