MODEL 1
REMARK minimizedAffinity -3.84643197
REMARK minimizedRMSD -1
REMARK  0 active torsions:
REMARK  status: ('A' for Active; 'I' for Inactive)
ROOT
ATOM      1  C   UNL d   1      -6.000  -2.653   3.744  0.00  0.00     0.077 C 
ATOM      2  C1  UNL d   1      -5.323  -1.461   3.134  0.00  0.00    -0.074 A 
ATOM      3  C2  UNL d   1      -4.244  -0.842   3.773  0.00  0.00    -0.005 A 
ATOM      4  C3  UNL d   1      -3.619   0.260   3.188  0.00  0.00     0.006 A 
ATOM      5  C4  UNL d   1      -4.066   0.752   1.962  0.00  0.00    -0.005 A 
ATOM      6  C5  UNL d   1      -5.143   0.145   1.308  0.00  0.00    -0.074 A 
ATOM      7  C6  UNL d   1      -5.629   0.656  -0.016  0.00  0.00     0.077 C 
ATOM      8  C7  UNL d   1      -5.761  -0.966   1.898  0.00  0.00    -0.001 A 
ENDROOT
TORSDOF 0
ENDMDL
