MODEL 1
REMARK minimizedAffinity -3.99533987
REMARK minimizedRMSD -1
REMARK  1 active torsions:
REMARK  status: ('A' for Active; 'I' for Inactive)
REMARK    1  A    between atoms: C3_4  and  O_7 
ROOT
ATOM      1  C   UNL d   1       1.334   0.065  -2.319  0.00  0.00    -0.033 A 
ATOM      2  C1  UNL d   1       1.836   0.797  -3.397  0.00  0.00     0.039 A 
ATOM      3  C2  UNL d   1       1.210   0.727  -4.643  0.00  0.00    -0.080 A 
ATOM      4  C3  UNL d   1       0.084  -0.077  -4.797  0.00  0.00     0.150 A 
ATOM      5  C4  UNL d   1      -0.424  -0.806  -3.727  0.00  0.00    -0.007 A 
ATOM      6  C5  UNL d   1       0.203  -0.735  -2.484  0.00  0.00     0.039 A 
ENDROOT
BRANCH   4   7
ATOM      7  O   UNL d   1      -0.558  -0.180  -5.995  0.00  0.00    -0.526 OA
ATOM      8  H5  UNL d   1      -0.079   0.355  -6.649  0.00  0.00     0.418 HD
ENDBRANCH   4   7
TORSDOF 1
ENDMDL
