MODEL 1
REMARK minimizedAffinity -3.09733891
REMARK minimizedRMSD -1
REMARK  1 active torsions:
REMARK  status: ('A' for Active; 'I' for Inactive)
REMARK    1  A    between atoms: C3_4  and  O_7 
ROOT
ATOM      1  C   UNL d   1      -0.123   1.025   0.992  0.00  0.00    -0.033 A 
ATOM      2  C1  UNL d   1      -0.219  -0.011   0.062  0.00  0.00     0.039 A 
ATOM      3  C2  UNL d   1       0.772  -0.994   0.004  0.00  0.00    -0.080 A 
ATOM      4  C3  UNL d   1       1.851  -0.929   0.882  0.00  0.00     0.150 A 
ATOM      5  C4  UNL d   1       1.950   0.099   1.814  0.00  0.00    -0.007 A 
ATOM      6  C5  UNL d   1       0.961   1.080   1.869  0.00  0.00     0.039 A 
ENDROOT
BRANCH   4   7
ATOM      7  O   UNL d   1       2.844  -1.862   0.860  0.00  0.00    -0.526 OA
ATOM      8  H5  UNL d   1       2.657  -2.494   0.147  0.00  0.00     0.418 HD
ENDBRANCH   4   7
TORSDOF 1
ENDMDL
