MODEL 1
REMARK minimizedAffinity -2.65679908
REMARK minimizedRMSD -1
REMARK  1 active torsions:
REMARK  status: ('A' for Active; 'I' for Inactive)
REMARK    1  A    between atoms: C3_4  and  O_7 
ROOT
ATOM      1  C   UNL d   1       0.029   0.202  -0.141  0.00  0.00    -0.033 A 
ATOM      2  C1  UNL d   1       0.416  -0.958  -0.815  0.00  0.00     0.039 A 
ATOM      3  C2  UNL d   1      -0.478  -2.023  -0.945  0.00  0.00    -0.080 A 
ATOM      4  C3  UNL d   1      -1.753  -1.915  -0.398  0.00  0.00     0.150 A 
ATOM      5  C4  UNL d   1      -2.147  -0.761   0.271  0.00  0.00    -0.007 A 
ATOM      6  C5  UNL d   1      -1.253   0.301   0.401  0.00  0.00     0.039 A 
ENDROOT
BRANCH   4   7
ATOM      7  O   UNL d   1      -2.658  -2.930  -0.496  0.00  0.00    -0.526 OA
ATOM      8  H5  UNL d   1      -2.238  -3.674  -0.959  0.00  0.00     0.418 HD
ENDBRANCH   4   7
TORSDOF 1
ENDMDL
