MODEL 1
REMARK minimizedAffinity -1.8204689
REMARK minimizedRMSD -1
REMARK  1 active torsions:
REMARK  status: ('A' for Active; 'I' for Inactive)
REMARK    1  A    between atoms: C3_4  and  O_7 
ROOT
ATOM      1  C   UNL d   1      -1.236  -0.430  -0.198  0.00  0.00    -0.033 A 
ATOM      2  C1  UNL d   1      -0.041  -0.263   0.506  0.00  0.00     0.039 A 
ATOM      3  C2  UNL d   1      -0.016   0.512   1.666  0.00  0.00    -0.080 A 
ATOM      4  C3  UNL d   1      -1.189   1.114   2.112  0.00  0.00     0.150 A 
ATOM      5  C4  UNL d   1      -2.383   0.948   1.418  0.00  0.00    -0.007 A 
ATOM      6  C5  UNL d   1      -2.407   0.174   0.259  0.00  0.00     0.039 A 
ENDROOT
BRANCH   4   7
ATOM      7  O   UNL d   1      -1.213   1.883   3.237  0.00  0.00    -0.526 OA
ATOM      8  H5  UNL d   1      -0.311   1.932   3.596  0.00  0.00     0.418 HD
ENDBRANCH   4   7
TORSDOF 1
ENDMDL
