MODEL 1
REMARK minimizedAffinity -4.39683819
REMARK minimizedRMSD -1
REMARK  1 active torsions:
REMARK  status: ('A' for Active; 'I' for Inactive)
REMARK    1  A    between atoms: C3_4  and  O_7 
ROOT
ATOM      1  C   UNL d   1       0.512  -0.432  -0.100  0.00  0.00    -0.033 A 
ATOM      2  C1  UNL d   1      -0.846  -0.131   0.016  0.00  0.00     0.039 A 
ATOM      3  C2  UNL d   1      -1.295   0.692   1.051  0.00  0.00    -0.080 A 
ATOM      4  C3  UNL d   1      -0.376   1.206   1.962  0.00  0.00     0.150 A 
ATOM      5  C4  UNL d   1       0.979   0.912   1.851  0.00  0.00    -0.007 A 
ATOM      6  C5  UNL d   1       1.425   0.090   0.817  0.00  0.00     0.039 A 
ENDROOT
BRANCH   4   7
ATOM      7  O   UNL d   1      -0.767   2.009   2.992  0.00  0.00    -0.526 OA
ATOM      8  H5  UNL d   1      -1.734   2.102   2.960  0.00  0.00     0.418 HD
ENDBRANCH   4   7
TORSDOF 1
ENDMDL
