MODEL 1
REMARK minimizedAffinity -3.84897828
REMARK minimizedRMSD -1
REMARK  1 active torsions:
REMARK  status: ('A' for Active; 'I' for Inactive)
REMARK    1  A    between atoms: C3_4  and  O_7 
ROOT
ATOM      1  C   UNL d   1      -0.268  -1.171  -0.364  0.00  0.00    -0.033 A 
ATOM      2  C1  UNL d   1       0.814  -0.819   0.446  0.00  0.00     0.039 A 
ATOM      3  C2  UNL d   1       0.618   0.005   1.556  0.00  0.00    -0.080 A 
ATOM      4  C3  UNL d   1      -0.663   0.469   1.845  0.00  0.00     0.150 A 
ATOM      5  C4  UNL d   1      -1.745   0.120   1.044  0.00  0.00    -0.007 A 
ATOM      6  C5  UNL d   1      -1.547  -0.703  -0.064  0.00  0.00     0.039 A 
ENDROOT
BRANCH   4   7
ATOM      7  O   UNL d   1      -0.903   1.280   2.915  0.00  0.00    -0.526 OA
ATOM      8  H5  UNL d   1      -0.058   1.461   3.359  0.00  0.00     0.418 HD
ENDBRANCH   4   7
TORSDOF 1
ENDMDL
