MODEL 1
REMARK minimizedAffinity -2.91519475
REMARK minimizedRMSD -1
REMARK  1 active torsions:
REMARK  status: ('A' for Active; 'I' for Inactive)
REMARK    1  A    between atoms: C3_4  and  O_7 
ROOT
ATOM      1  C   UNL d   1      -0.308  -0.979  -4.877  0.00  0.00    -0.033 A 
ATOM      2  C1  UNL d   1       0.211  -0.895  -3.583  0.00  0.00     0.039 A 
ATOM      3  C2  UNL d   1       1.094   0.133  -3.249  0.00  0.00    -0.080 A 
ATOM      4  C3  UNL d   1       1.450   1.070  -4.215  0.00  0.00     0.150 A 
ATOM      5  C4  UNL d   1       0.934   0.995  -5.505  0.00  0.00    -0.007 A 
ATOM      6  C5  UNL d   1       0.052  -0.033  -5.837  0.00  0.00     0.039 A 
ENDROOT
BRANCH   4   7
ATOM      7  O   UNL d   1       2.312   2.088  -3.937  0.00  0.00    -0.526 OA
ATOM      8  H5  UNL d   1       2.610   1.997  -3.016  0.00  0.00     0.418 HD
ENDBRANCH   4   7
TORSDOF 1
ENDMDL
