MODEL 1
REMARK minimizedAffinity -1.29072309
REMARK minimizedRMSD -1
REMARK  1 active torsions:
REMARK  status: ('A' for Active; 'I' for Inactive)
REMARK    1  A    between atoms: C3_4  and  O_7 
ROOT
ATOM      1  C   UNL d   1       0.981  -0.931  -0.485  0.00  0.00    -0.033 A 
ATOM      2  C1  UNL d   1       1.748  -0.874   0.680  0.00  0.00     0.039 A 
ATOM      3  C2  UNL d   1       1.415   0.027   1.694  0.00  0.00    -0.080 A 
ATOM      4  C3  UNL d   1       0.314   0.863   1.531  0.00  0.00     0.150 A 
ATOM      5  C4  UNL d   1      -0.457   0.808   0.374  0.00  0.00    -0.007 A 
ATOM      6  C5  UNL d   1      -0.122  -0.091  -0.638  0.00  0.00     0.039 A 
ENDROOT
BRANCH   4   7
ATOM      7  O   UNL d   1      -0.048   1.761   2.490  0.00  0.00    -0.526 OA
ATOM      8  H5  UNL d   1       0.592   1.706   3.219  0.00  0.00     0.418 HD
ENDBRANCH   4   7
TORSDOF 1
ENDMDL
