MODEL 1
REMARK minimizedAffinity -4.40158129
REMARK minimizedRMSD -1
REMARK  1 active torsions:
REMARK  status: ('A' for Active; 'I' for Inactive)
REMARK    1  A    between atoms: C3_4  and  O_7 
ROOT
ATOM      1  C   UNL d   1       1.317   0.746   2.000  0.00  0.00    -0.033 A 
ATOM      2  C1  UNL d   1       1.770  -0.455   1.451  0.00  0.00     0.039 A 
ATOM      3  C2  UNL d   1       1.362  -0.837   0.171  0.00  0.00    -0.080 A 
ATOM      4  C3  UNL d   1       0.503  -0.010  -0.548  0.00  0.00     0.150 A 
ATOM      5  C4  UNL d   1       0.051   1.190  -0.008  0.00  0.00    -0.007 A 
ATOM      6  C5  UNL d   1       0.459   1.569   1.270  0.00  0.00     0.039 A 
ENDROOT
BRANCH   4   7
ATOM      7  O   UNL d   1       0.074  -0.343  -1.798  0.00  0.00    -0.526 OA
ATOM      8  H5  UNL d   1       0.444  -1.212  -2.029  0.00  0.00     0.418 HD
ENDBRANCH   4   7
TORSDOF 1
ENDMDL
