MODEL 1
REMARK minimizedAffinity -3.89121556
REMARK minimizedRMSD -1
REMARK  1 active torsions:
REMARK  status: ('A' for Active; 'I' for Inactive)
REMARK    1  A    between atoms: C3_4  and  O_7 
ROOT
ATOM      1  C   UNL d   1      -0.179  -0.635   0.055  0.00  0.00    -0.033 A 
ATOM      2  C1  UNL d   1      -1.470  -0.270   0.441  0.00  0.00     0.039 A 
ATOM      3  C2  UNL d   1      -1.659   0.594   1.521  0.00  0.00    -0.080 A 
ATOM      4  C3  UNL d   1      -0.551   1.086   2.205  0.00  0.00     0.150 A 
ATOM      5  C4  UNL d   1       0.738   0.730   1.823  0.00  0.00    -0.007 A 
ATOM      6  C5  UNL d   1       0.925  -0.134   0.745  0.00  0.00     0.039 A 
ENDROOT
BRANCH   4   7
ATOM      7  O   UNL d   1      -0.686   1.929   3.269  0.00  0.00    -0.526 OA
ATOM      8  H5  UNL d   1      -1.634   2.064   3.436  0.00  0.00     0.418 HD
ENDBRANCH   4   7
TORSDOF 1
ENDMDL
