MODEL 1
REMARK minimizedAffinity -2.04132128
REMARK minimizedRMSD -1
REMARK  1 active torsions:
REMARK  status: ('A' for Active; 'I' for Inactive)
REMARK    1  A    between atoms: C3_4  and  O_7 
ROOT
ATOM      1  C   UNL d   1       1.174  -0.980   0.062  0.00  0.00    -0.033 A 
ATOM      2  C1  UNL d   1      -0.117  -0.492  -0.152  0.00  0.00     0.039 A 
ATOM      3  C2  UNL d   1      -0.601   0.567   0.618  0.00  0.00    -0.080 A 
ATOM      4  C3  UNL d   1       0.214   1.129   1.596  0.00  0.00     0.150 A 
ATOM      5  C4  UNL d   1       1.502   0.651   1.812  0.00  0.00    -0.007 A 
ATOM      6  C5  UNL d   1       1.984  -0.407   1.043  0.00  0.00     0.039 A 
ENDROOT
BRANCH   4   7
ATOM      7  O   UNL d   1      -0.217   2.162   2.376  0.00  0.00    -0.526 OA
ATOM      8  H5  UNL d   1      -1.135   2.367   2.134  0.00  0.00     0.418 HD
ENDBRANCH   4   7
TORSDOF 1
ENDMDL
