MODEL 1
REMARK minimizedAffinity -0.794474423
REMARK minimizedRMSD -1
REMARK  1 active torsions:
REMARK  status: ('A' for Active; 'I' for Inactive)
REMARK    1  A    between atoms: C3_4  and  O_7 
ROOT
ATOM      1  C   UNL d   1       1.966  -0.175   1.948  0.00  0.00    -0.033 A 
ATOM      2  C1  UNL d   1       1.832  -1.092   0.903  0.00  0.00     0.039 A 
ATOM      3  C2  UNL d   1       0.900  -0.865  -0.112  0.00  0.00    -0.080 A 
ATOM      4  C3  UNL d   1       0.110   0.280  -0.071  0.00  0.00     0.150 A 
ATOM      5  C4  UNL d   1       0.241   1.200   0.965  0.00  0.00    -0.007 A 
ATOM      6  C5  UNL d   1       1.171   0.971   1.978  0.00  0.00     0.039 A 
ENDROOT
BRANCH   4   7
ATOM      7  O   UNL d   1      -0.817   0.542  -1.036  0.00  0.00    -0.526 OA
ATOM      8  H5  UNL d   1      -0.816  -0.194  -1.671  0.00  0.00     0.418 HD
ENDBRANCH   4   7
TORSDOF 1
ENDMDL
