MODEL 1
REMARK minimizedAffinity 3.70275903
REMARK minimizedRMSD -1
REMARK  1 active torsions:
REMARK  status: ('A' for Active; 'I' for Inactive)
REMARK    1  A    between atoms: C1_2  and  C2_3 
ROOT
ATOM      1  C2  UNL d   1       1.360   0.143  -1.107  0.00  0.00    -0.081 A 
ATOM      2  C3  UNL d   1       2.188  -0.334  -2.132  0.00  0.00     0.006 A 
ATOM      3  C4  UNL d   1       2.459   0.459  -3.249  0.00  0.00     0.002 A 
ATOM      4  C5  UNL d   1       1.914   1.743  -3.358  0.00  0.00    -0.080 A 
ATOM      5  C6  UNL d   1       2.222   2.616  -4.538  0.00  0.00     0.076 C 
ATOM      6  C7  UNL d   1       1.074   2.213  -2.343  0.00  0.00     0.002 A 
ATOM      7  C8  UNL d   1       0.802   1.420  -1.225  0.00  0.00     0.006 A 
ENDROOT
BRANCH   1   8
ATOM      8  C1  UNL d   1       1.118  -0.684   0.129  0.00  0.00     0.054 C 
ATOM      9  C   UNL d   1       0.128  -1.808  -0.141  0.00  0.00     0.018 C 
ENDBRANCH   1   8
TORSDOF 1
ENDMDL
