MODEL 1
REMARK minimizedAffinity 2.10948849
REMARK minimizedRMSD -1
REMARK  1 active torsions:
REMARK  status: ('A' for Active; 'I' for Inactive)
REMARK    1  A    between atoms: C1_2  and  C2_3 
ROOT
ATOM      1  C2  UNL d   1       2.232   1.028   2.439  0.00  0.00    -0.081 A 
ATOM      2  C3  UNL d   1       1.147   0.222   2.806  0.00  0.00     0.006 A 
ATOM      3  C4  UNL d   1       0.419  -0.471   1.837  0.00  0.00     0.002 A 
ATOM      4  C5  UNL d   1       0.767  -0.376   0.485  0.00  0.00    -0.080 A 
ATOM      5  C6  UNL d   1       0.013  -1.139  -0.563  0.00  0.00     0.076 C 
ATOM      6  C7  UNL d   1       1.840   0.443   0.116  0.00  0.00     0.002 A 
ATOM      7  C8  UNL d   1       2.568   1.136   1.085  0.00  0.00     0.006 A 
ENDROOT
BRANCH   1   8
ATOM      8  C1  UNL d   1       3.059   1.725   3.488  0.00  0.00     0.054 C 
ATOM      9  C   UNL d   1       4.548   1.520   3.246  0.00  0.00     0.018 C 
ENDBRANCH   1   8
TORSDOF 1
ENDMDL
