MODEL 1
REMARK minimizedAffinity 1.27810967
REMARK minimizedRMSD -1
REMARK  1 active torsions:
REMARK  status: ('A' for Active; 'I' for Inactive)
REMARK    1  A    between atoms: C1_2  and  C2_3 
ROOT
ATOM      1  C2  UNL d   1       0.625   0.337   2.594  0.00  0.00    -0.081 A 
ATOM      2  C3  UNL d   1       0.291  -0.613   1.621  0.00  0.00     0.006 A 
ATOM      3  C4  UNL d   1       1.102  -0.792   0.498  0.00  0.00     0.002 A 
ATOM      4  C5  UNL d   1       2.265  -0.031   0.334  0.00  0.00    -0.080 A 
ATOM      5  C6  UNL d   1       3.161  -0.235  -0.852  0.00  0.00     0.076 C 
ATOM      6  C7  UNL d   1       2.589   0.930   1.297  0.00  0.00     0.002 A 
ATOM      7  C8  UNL d   1       1.778   1.110   2.419  0.00  0.00     0.006 A 
ENDROOT
BRANCH   1   8
ATOM      8  C1  UNL d   1      -0.214   0.487   3.837  0.00  0.00     0.054 C 
ATOM      9  C   UNL d   1      -0.619  -0.868   4.399  0.00  0.00     0.018 C 
ENDBRANCH   1   8
TORSDOF 1
ENDMDL
