MODEL 1
REMARK minimizedAffinity 8.22411728
REMARK minimizedRMSD -1
REMARK  1 active torsions:
REMARK  status: ('A' for Active; 'I' for Inactive)
REMARK    1  A    between atoms: C1_2  and  C2_3 
ROOT
ATOM      1  C2  UNL d   1       1.341   1.920   1.543  0.00  0.00    -0.081 A 
ATOM      2  C3  UNL d   1       2.734   1.891   1.689  0.00  0.00     0.006 A 
ATOM      3  C4  UNL d   1       3.492   0.907   1.051  0.00  0.00     0.002 A 
ATOM      4  C5  UNL d   1       2.873  -0.060   0.252  0.00  0.00    -0.080 A 
ATOM      5  C6  UNL d   1       3.679  -1.104  -0.463  0.00  0.00     0.076 C 
ATOM      6  C7  UNL d   1       1.480  -0.042   0.120  0.00  0.00     0.002 A 
ATOM      7  C8  UNL d   1       0.721   0.941   0.758  0.00  0.00     0.006 A 
ENDROOT
BRANCH   1   8
ATOM      8  C1  UNL d   1       0.527   3.018   2.177  0.00  0.00     0.054 C 
ATOM      9  C   UNL d   1      -0.015   3.980   1.129  0.00  0.00     0.018 C 
ENDBRANCH   1   8
TORSDOF 1
ENDMDL
