MODEL 1
REMARK minimizedAffinity 2.64431167
REMARK minimizedRMSD -1
REMARK  1 active torsions:
REMARK  status: ('A' for Active; 'I' for Inactive)
REMARK    1  A    between atoms: C1_2  and  C2_3 
ROOT
ATOM      1  C2  UNL d   1      -1.206  -2.921  -1.962  0.00  0.00    -0.081 A 
ATOM      2  C3  UNL d   1      -1.959  -1.833  -1.505  0.00  0.00     0.006 A 
ATOM      3  C4  UNL d   1      -1.428  -0.949  -0.563  0.00  0.00     0.002 A 
ATOM      4  C5  UNL d   1      -0.132  -1.134  -0.068  0.00  0.00    -0.080 A 
ATOM      5  C6  UNL d   1       0.461  -0.175   0.921  0.00  0.00     0.076 C 
ATOM      6  C7  UNL d   1       0.614  -2.231  -0.511  0.00  0.00     0.002 A 
ATOM      7  C8  UNL d   1       0.083  -3.115  -1.453  0.00  0.00     0.006 A 
ENDROOT
BRANCH   1   8
ATOM      8  C1  UNL d   1      -1.752  -3.838  -3.026  0.00  0.00     0.054 C 
ATOM      9  C   UNL d   1      -1.165  -5.237  -2.905  0.00  0.00     0.018 C 
ENDBRANCH   1   8
TORSDOF 1
ENDMDL
