MODEL 1
REMARK minimizedAffinity 16.9654922
REMARK minimizedRMSD -1
REMARK  1 active torsions:
REMARK  status: ('A' for Active; 'I' for Inactive)
REMARK    1  A    between atoms: C1_2  and  C2_3 
ROOT
ATOM      1  C2  UNL d   1       3.014  -0.151  -2.278  0.00  0.00    -0.081 A 
ATOM      2  C3  UNL d   1       3.742   1.030  -2.465  0.00  0.00     0.006 A 
ATOM      3  C4  UNL d   1       3.662   1.728  -3.672  0.00  0.00     0.002 A 
ATOM      4  C5  UNL d   1       2.848   1.261  -4.709  0.00  0.00    -0.080 A 
ATOM      5  C6  UNL d   1       2.730   2.016  -6.000  0.00  0.00     0.076 C 
ATOM      6  C7  UNL d   1       2.134   0.071  -4.529  0.00  0.00     0.002 A 
ATOM      7  C8  UNL d   1       2.214  -0.627  -3.322  0.00  0.00     0.006 A 
ENDROOT
BRANCH   1   8
ATOM      8  C1  UNL d   1       3.047  -0.871  -0.954  0.00  0.00     0.054 C 
ATOM      9  C   UNL d   1       1.668  -0.915  -0.313  0.00  0.00     0.018 C 
ENDBRANCH   1   8
TORSDOF 1
ENDMDL
