MODEL 1
REMARK minimizedAffinity -3.30473065
REMARK minimizedRMSD -1
REMARK  0 active torsions:
REMARK  status: ('A' for Active; 'I' for Inactive)
ROOT
ATOM      1  C   UNL d   1      -0.589   1.830   1.835  0.00  0.00     0.020 A 
ATOM      2  C1  UNL d   1      -0.160   0.532   2.111  0.00  0.00     0.020 A 
ATOM      3  C2  UNL d   1       0.044  -0.372   1.067  0.00  0.00     0.034 A 
ATOM      4  C3  UNL d   1      -0.181   0.019  -0.258  0.00  0.00     0.017 A 
ATOM      5  C4  UNL d   1      -0.613   1.322  -0.534  0.00  0.00     0.017 A 
ATOM      6  C5  UNL d   1      -0.815   2.223   0.516  0.00  0.00     0.034 A 
ATOM      7 Cl   UNL d   1      -0.912   1.878  -2.142  0.00  0.00    -0.070 Cl
ATOM      8 Cl1  UNL d   1       0.091  -1.152  -1.499  0.00  0.00    -0.070 Cl
ENDROOT
TORSDOF 0
ENDMDL
