MODEL 1
REMARK minimizedAffinity -3.94572806
REMARK minimizedRMSD -1
REMARK  0 active torsions:
REMARK  status: ('A' for Active; 'I' for Inactive)
ROOT
ATOM      1  C   UNL d   1       0.497  -0.737   0.278  0.00  0.00     0.020 A 
ATOM      2  C1  UNL d   1       0.353  -0.363   1.614  0.00  0.00     0.020 A 
ATOM      3  C2  UNL d   1      -0.362   0.791   1.942  0.00  0.00     0.034 A 
ATOM      4  C3  UNL d   1      -0.936   1.574   0.935  0.00  0.00     0.017 A 
ATOM      5  C4  UNL d   1      -0.791   1.198  -0.406  0.00  0.00     0.017 A 
ATOM      6  C5  UNL d   1      -0.074   0.042  -0.729  0.00  0.00     0.034 A 
ATOM      7 Cl   UNL d   1      -1.471   2.114  -1.704  0.00  0.00    -0.070 Cl
ATOM      8 Cl1  UNL d   1      -1.808   2.987   1.414  0.00  0.00    -0.070 Cl
ENDROOT
TORSDOF 0
ENDMDL
