MODEL 1
REMARK minimizedAffinity -1.97761381
REMARK minimizedRMSD -1
REMARK  0 active torsions:
REMARK  status: ('A' for Active; 'I' for Inactive)
ROOT
ATOM      1  C   UNL d   1       0.514  -1.001  -0.921  0.00  0.00     0.020 A 
ATOM      2  C1  UNL d   1       0.408  -1.217   0.452  0.00  0.00     0.020 A 
ATOM      3  C2  UNL d   1      -0.220  -0.268   1.262  0.00  0.00     0.034 A 
ATOM      4  C3  UNL d   1      -0.744   0.901   0.699  0.00  0.00     0.017 A 
ATOM      5  C4  UNL d   1      -0.638   1.117  -0.680  0.00  0.00     0.017 A 
ATOM      6  C5  UNL d   1      -0.008   0.164  -1.486  0.00  0.00     0.034 A 
ATOM      7 Cl   UNL d   1      -1.260   2.535  -1.447  0.00  0.00    -0.070 Cl
ATOM      8 Cl1  UNL d   1      -1.508   2.031   1.760  0.00  0.00    -0.070 Cl
ENDROOT
TORSDOF 0
ENDMDL
