MODEL 1
REMARK minimizedAffinity -1.14703453
REMARK minimizedRMSD -1
REMARK  0 active torsions:
REMARK  status: ('A' for Active; 'I' for Inactive)
ROOT
ATOM      1  C   UNL d   1       0.776  -0.249   3.147  0.00  0.00     0.020 A 
ATOM      2  C1  UNL d   1       0.071   0.953   3.190  0.00  0.00     0.020 A 
ATOM      3  C2  UNL d   1      -0.220   1.634   2.006  0.00  0.00     0.034 A 
ATOM      4  C3  UNL d   1       0.194   1.114   0.774  0.00  0.00     0.017 A 
ATOM      5  C4  UNL d   1       0.901  -0.093   0.732  0.00  0.00     0.017 A 
ATOM      6  C5  UNL d   1       1.190  -0.771   1.921  0.00  0.00     0.034 A 
ATOM      7 Cl   UNL d   1       1.445  -0.798  -0.749  0.00  0.00    -0.070 Cl
ATOM      8 Cl1  UNL d   1      -0.201   2.009  -0.650  0.00  0.00    -0.070 Cl
ENDROOT
TORSDOF 0
ENDMDL
