MODEL 1
REMARK minimizedAffinity 1.27903366
REMARK minimizedRMSD -1
REMARK  0 active torsions:
REMARK  status: ('A' for Active; 'I' for Inactive)
ROOT
ATOM      1  C   UNL d   1       1.167   0.496  -0.057  0.00  0.00     0.020 A 
ATOM      2  C1  UNL d   1      -0.108   0.610   0.494  0.00  0.00     0.020 A 
ATOM      3  C2  UNL d   1      -0.344   0.188   1.804  0.00  0.00     0.034 A 
ATOM      4  C3  UNL d   1       0.698  -0.351   2.568  0.00  0.00     0.017 A 
ATOM      5  C4  UNL d   1       1.978  -0.465   2.014  0.00  0.00     0.017 A 
ATOM      6  C5  UNL d   1       2.208  -0.040   0.702  0.00  0.00     0.034 A 
ATOM      7 Cl   UNL d   1       3.314  -1.119   2.895  0.00  0.00    -0.070 Cl
ATOM      8 Cl1  UNL d   1       0.335  -0.852   4.181  0.00  0.00    -0.070 Cl
ENDROOT
TORSDOF 0
ENDMDL
