MODEL 1
REMARK minimizedAffinity -3.62965202
REMARK minimizedRMSD -1
REMARK  0 active torsions:
REMARK  status: ('A' for Active; 'I' for Inactive)
ROOT
ATOM      1  C   UNL d   1      -0.443   3.128   1.130  0.00  0.00     0.020 A 
ATOM      2  C1  UNL d   1      -0.435   3.102  -0.264  0.00  0.00     0.020 A 
ATOM      3  C2  UNL d   1      -0.126   1.919  -0.939  0.00  0.00     0.034 A 
ATOM      4  C3  UNL d   1       0.176   0.757  -0.220  0.00  0.00     0.017 A 
ATOM      5  C4  UNL d   1       0.168   0.784   1.180  0.00  0.00     0.017 A 
ATOM      6  C5  UNL d   1      -0.142   1.971   1.850  0.00  0.00     0.034 A 
ATOM      7 Cl   UNL d   1       0.530  -0.610   2.136  0.00  0.00    -0.070 Cl
ATOM      8 Cl1  UNL d   1       0.549  -0.670  -1.119  0.00  0.00    -0.070 Cl
ENDROOT
TORSDOF 0
ENDMDL
