MODEL 1
REMARK minimizedAffinity -3.05321002
REMARK minimizedRMSD -1
REMARK  0 active torsions:
REMARK  status: ('A' for Active; 'I' for Inactive)
ROOT
ATOM      1  C   UNL d   1      -0.089  -4.340  -1.068  0.00  0.00     0.020 A 
ATOM      2  C1  UNL d   1      -0.013  -5.336  -0.095  0.00  0.00     0.020 A 
ATOM      3  C2  UNL d   1       1.231  -5.833   0.300  0.00  0.00     0.034 A 
ATOM      4  C3  UNL d   1       2.404  -5.335  -0.279  0.00  0.00     0.017 A 
ATOM      5  C4  UNL d   1       2.327  -4.335  -1.255  0.00  0.00     0.017 A 
ATOM      6  C5  UNL d   1       1.079  -3.841  -1.647  0.00  0.00     0.034 A 
ATOM      7 Cl   UNL d   1       3.730  -3.670  -2.014  0.00  0.00    -0.070 Cl
ATOM      8 Cl1  UNL d   1       3.908  -5.996   0.257  0.00  0.00    -0.070 Cl
ENDROOT
TORSDOF 0
ENDMDL
