MODEL 1
REMARK minimizedAffinity -0.12409538
REMARK minimizedRMSD -1
REMARK  0 active torsions:
REMARK  status: ('A' for Active; 'I' for Inactive)
ROOT
ATOM      1  C   UNL d   1      -1.880   1.936  -0.233  0.00  0.00     0.020 A 
ATOM      2  C1  UNL d   1      -1.607   2.139   1.119  0.00  0.00     0.020 A 
ATOM      3  C2  UNL d   1      -0.629   1.373   1.757  0.00  0.00     0.034 A 
ATOM      4  C3  UNL d   1       0.080   0.401   1.042  0.00  0.00     0.017 A 
ATOM      5  C4  UNL d   1      -0.195   0.198  -0.316  0.00  0.00     0.017 A 
ATOM      6  C5  UNL d   1      -1.175   0.968  -0.949  0.00  0.00     0.034 A 
ATOM      7 Cl   UNL d   1       0.639  -0.983  -1.264  0.00  0.00    -0.070 Cl
ATOM      8 Cl1  UNL d   1       1.277  -0.510   1.893  0.00  0.00    -0.070 Cl
ENDROOT
TORSDOF 0
ENDMDL
