MODEL 1
REMARK minimizedAffinity -4.2207799
REMARK minimizedRMSD -1
REMARK  0 active torsions:
REMARK  status: ('A' for Active; 'I' for Inactive)
ROOT
ATOM      1  C   UNL d   1      -1.229   2.892   1.162  0.00  0.00     0.020 A 
ATOM      2  C1  UNL d   1      -1.405   2.570  -0.184  0.00  0.00     0.020 A 
ATOM      3  C2  UNL d   1      -0.906   1.366  -0.685  0.00  0.00     0.034 A 
ATOM      4  C3  UNL d   1      -0.228   0.480   0.160  0.00  0.00     0.017 A 
ATOM      5  C4  UNL d   1      -0.052   0.803   1.510  0.00  0.00     0.017 A 
ATOM      6  C5  UNL d   1      -0.554   2.010   2.006  0.00  0.00     0.034 A 
ATOM      7 Cl   UNL d   1       0.773  -0.240   2.613  0.00  0.00    -0.070 Cl
ATOM      8 Cl1  UNL d   1       0.363  -0.992  -0.527  0.00  0.00    -0.070 Cl
ENDROOT
TORSDOF 0
ENDMDL
