MODEL 1
REMARK minimizedAffinity -4.2900629
REMARK minimizedRMSD -1
REMARK  0 active torsions:
REMARK  status: ('A' for Active; 'I' for Inactive)
ROOT
ATOM      1  C   UNL d   1      -0.769   2.782   1.217  0.00  0.00     0.020 A 
ATOM      2  C1  UNL d   1      -1.613   2.426   0.166  0.00  0.00     0.020 A 
ATOM      3  C2  UNL d   1      -1.531   1.149  -0.393  0.00  0.00     0.034 A 
ATOM      4  C3  UNL d   1      -0.603   0.224   0.098  0.00  0.00     0.017 A 
ATOM      5  C4  UNL d   1       0.245   0.582   1.153  0.00  0.00     0.017 A 
ATOM      6  C5  UNL d   1       0.158   1.862   1.709  0.00  0.00     0.034 A 
ATOM      7 Cl   UNL d   1       1.415  -0.505   1.812  0.00  0.00    -0.070 Cl
ATOM      8 Cl1  UNL d   1      -0.556  -1.338  -0.641  0.00  0.00    -0.070 Cl
ENDROOT
TORSDOF 0
ENDMDL
