MODEL 1
REMARK minimizedAffinity -3.05729318
REMARK minimizedRMSD -1
REMARK  0 active torsions:
REMARK  status: ('A' for Active; 'I' for Inactive)
ROOT
ATOM      1  C   UNL d   1       0.730  -1.111   0.973  0.00  0.00     0.020 A 
ATOM      2  C1  UNL d   1       0.696  -1.302  -0.408  0.00  0.00     0.020 A 
ATOM      3  C2  UNL d   1       0.024  -0.388  -1.222  0.00  0.00     0.034 A 
ATOM      4  C3  UNL d   1      -0.616   0.721  -0.657  0.00  0.00     0.017 A 
ATOM      5  C4  UNL d   1      -0.581   0.911   0.729  0.00  0.00     0.017 A 
ATOM      6  C5  UNL d   1       0.093  -0.007   1.540  0.00  0.00     0.034 A 
ATOM      7 Cl   UNL d   1      -1.348   2.255   1.500  0.00  0.00    -0.070 Cl
ATOM      8 Cl1  UNL d   1      -1.427   1.811  -1.724  0.00  0.00    -0.070 Cl
ENDROOT
TORSDOF 0
ENDMDL
