MODEL 1
REMARK minimizedAffinity -0.56867677
REMARK minimizedRMSD -1
REMARK  0 active torsions:
REMARK  status: ('A' for Active; 'I' for Inactive)
ROOT
ATOM      1  C   UNL d   1       0.286   0.082  -2.466  0.00  0.00     0.020 A 
ATOM      2  C1  UNL d   1      -0.451   1.265  -2.497  0.00  0.00     0.020 A 
ATOM      3  C2  UNL d   1      -1.007   1.772  -1.321  0.00  0.00     0.034 A 
ATOM      4  C3  UNL d   1      -0.828   1.096  -0.109  0.00  0.00     0.017 A 
ATOM      5  C4  UNL d   1      -0.089  -0.092  -0.079  0.00  0.00     0.017 A 
ATOM      6  C5  UNL d   1       0.466  -0.595  -1.260  0.00  0.00     0.034 A 
ATOM      7 Cl   UNL d   1       0.175  -0.983   1.378  0.00  0.00    -0.070 Cl
ATOM      8 Cl1  UNL d   1      -1.544   1.780   1.307  0.00  0.00    -0.070 Cl
ENDROOT
TORSDOF 0
ENDMDL
