MODEL 1
REMARK minimizedAffinity -5.45545578
REMARK minimizedRMSD -1
REMARK  0 active torsions:
REMARK  status: ('A' for Active; 'I' for Inactive)
ROOT
ATOM      1  C   UNL d   1      -2.066  -0.122  -0.049  0.00  0.00     0.078 C 
ATOM      2  C1  UNL d   1      -1.028   0.005   1.026  0.00  0.00    -0.077 A 
ATOM      3  C2  UNL d   1      -1.362   0.481   2.299  0.00  0.00    -0.001 A 
ATOM      4  C3  UNL d   1      -0.384   0.603   3.287  0.00  0.00     0.003 A 
ATOM      5  C4  UNL d   1       0.937   0.253   3.011  0.00  0.00    -0.005 A 
ATOM      6  C5  UNL d   1       1.280  -0.220   1.746  0.00  0.00     0.003 A 
ATOM      7  C6  UNL d   1       0.302  -0.343   0.757  0.00  0.00    -0.001 A 
ENDROOT
TORSDOF 0
ENDMDL
