MODEL 1
REMARK minimizedAffinity -1.52115536
REMARK minimizedRMSD -1
REMARK  0 active torsions:
REMARK  status: ('A' for Active; 'I' for Inactive)
ROOT
ATOM      1  C   UNL d   1      -0.770   0.738   3.154  0.00  0.00     0.078 C 
ATOM      2  C1  UNL d   1      -0.042   0.271   1.928  0.00  0.00    -0.077 A 
ATOM      3  C2  UNL d   1       1.279  -0.187   2.005  0.00  0.00    -0.001 A 
ATOM      4  C3  UNL d   1       1.947  -0.609   0.855  0.00  0.00     0.003 A 
ATOM      5  C4  UNL d   1       1.304  -0.576  -0.380  0.00  0.00    -0.005 A 
ATOM      6  C5  UNL d   1      -0.010  -0.120  -0.467  0.00  0.00     0.003 A 
ATOM      7  C6  UNL d   1      -0.680   0.303   0.682  0.00  0.00    -0.001 A 
ENDROOT
TORSDOF 0
ENDMDL
