MODEL 1
REMARK minimizedAffinity 1.0188421
REMARK minimizedRMSD -1
REMARK  0 active torsions:
REMARK  status: ('A' for Active; 'I' for Inactive)
ROOT
ATOM      1  C   UNL d   1      -0.358  -0.407   0.049  0.00  0.00     0.078 C 
ATOM      2  C1  UNL d   1      -1.194  -1.581  -0.366  0.00  0.00    -0.077 A 
ATOM      3  C2  UNL d   1      -2.580  -1.586  -0.166  0.00  0.00    -0.001 A 
ATOM      4  C3  UNL d   1      -3.344  -2.689  -0.548  0.00  0.00     0.003 A 
ATOM      5  C4  UNL d   1      -2.732  -3.797  -1.131  0.00  0.00    -0.005 A 
ATOM      6  C5  UNL d   1      -1.353  -3.802  -1.331  0.00  0.00     0.003 A 
ATOM      7  C6  UNL d   1      -0.587  -2.700  -0.950  0.00  0.00    -0.001 A 
ENDROOT
TORSDOF 0
ENDMDL
