MODEL 1
REMARK minimizedAffinity -0.712295949
REMARK minimizedRMSD -1
REMARK  0 active torsions:
REMARK  status: ('A' for Active; 'I' for Inactive)
ROOT
ATOM      1  C   UNL d   1       0.040  -0.418  -0.264  0.00  0.00     0.078 C 
ATOM      2  C1  UNL d   1      -1.066  -1.345  -0.674  0.00  0.00    -0.077 A 
ATOM      3  C2  UNL d   1      -0.795  -2.527  -1.374  0.00  0.00    -0.001 A 
ATOM      4  C3  UNL d   1      -1.835  -3.374  -1.757  0.00  0.00     0.003 A 
ATOM      5  C4  UNL d   1      -3.154  -3.049  -1.445  0.00  0.00    -0.005 A 
ATOM      6  C5  UNL d   1      -3.434  -1.874  -0.751  0.00  0.00     0.003 A 
ATOM      7  C6  UNL d   1      -2.395  -1.025  -0.367  0.00  0.00    -0.001 A 
ENDROOT
TORSDOF 0
ENDMDL
