MODEL 1
REMARK minimizedAffinity -5.26896429
REMARK minimizedRMSD -1
REMARK  0 active torsions:
REMARK  status: ('A' for Active; 'I' for Inactive)
ROOT
ATOM      1  C   UNL d   1      -2.504  -0.674  -0.051  0.00  0.00     0.078 C 
ATOM      2  C1  UNL d   1      -1.584   0.132   0.817  0.00  0.00    -0.077 A 
ATOM      3  C2  UNL d   1      -1.948   0.483   2.122  0.00  0.00    -0.001 A 
ATOM      4  C3  UNL d   1      -1.086   1.242   2.915  0.00  0.00     0.003 A 
ATOM      5  C4  UNL d   1       0.145   1.658   2.411  0.00  0.00    -0.005 A 
ATOM      6  C5  UNL d   1       0.514   1.316   1.112  0.00  0.00     0.003 A 
ATOM      7  C6  UNL d   1      -0.347   0.556   0.317  0.00  0.00    -0.001 A 
ENDROOT
TORSDOF 0
ENDMDL
