MODEL 1
REMARK minimizedAffinity -3.90158868
REMARK minimizedRMSD -1
REMARK  0 active torsions:
REMARK  status: ('A' for Active; 'I' for Inactive)
ROOT
ATOM      1  C   UNL d   1       0.171   0.325  -0.900  0.00  0.00     0.078 C 
ATOM      2  C1  UNL d   1      -0.249   0.493   0.529  0.00  0.00    -0.077 A 
ATOM      3  C2  UNL d   1      -1.472  -0.013   0.986  0.00  0.00    -0.001 A 
ATOM      4  C3  UNL d   1      -1.855   0.160   2.317  0.00  0.00     0.003 A 
ATOM      5  C4  UNL d   1      -1.021   0.840   3.202  0.00  0.00    -0.005 A 
ATOM      6  C5  UNL d   1       0.197   1.350   2.756  0.00  0.00     0.003 A 
ATOM      7  C6  UNL d   1       0.581   1.178   1.425  0.00  0.00    -0.001 A 
ENDROOT
TORSDOF 0
ENDMDL
