MODEL 1
REMARK minimizedAffinity -4.95213175
REMARK minimizedRMSD -1
REMARK  0 active torsions:
REMARK  status: ('A' for Active; 'I' for Inactive)
ROOT
ATOM      1  C   UNL d   1      -1.251  -0.048  -0.149  0.00  0.00     0.078 C 
ATOM      2  C1  UNL d   1      -1.951  -1.276  -0.650  0.00  0.00    -0.077 A 
ATOM      3  C2  UNL d   1      -3.349  -1.349  -0.677  0.00  0.00    -0.001 A 
ATOM      4  C3  UNL d   1      -3.987  -2.502  -1.137  0.00  0.00     0.003 A 
ATOM      5  C4  UNL d   1      -3.235  -3.591  -1.573  0.00  0.00    -0.005 A 
ATOM      6  C5  UNL d   1      -1.844  -3.529  -1.548  0.00  0.00     0.003 A 
ATOM      7  C6  UNL d   1      -1.204  -2.376  -1.088  0.00  0.00    -0.001 A 
ENDROOT
TORSDOF 0
ENDMDL
