MODEL 1
REMARK minimizedAffinity -0.61169827
REMARK minimizedRMSD -1
REMARK  0 active torsions:
REMARK  status: ('A' for Active; 'I' for Inactive)
ROOT
ATOM      1  C   UNL d   1       0.377   0.392  -2.813  0.00  0.00     0.078 C 
ATOM      2  C1  UNL d   1       0.445   0.403  -1.315  0.00  0.00    -0.077 A 
ATOM      3  C2  UNL d   1       0.083   1.541  -0.584  0.00  0.00    -0.001 A 
ATOM      4  C3  UNL d   1       0.160   1.539   0.809  0.00  0.00     0.003 A 
ATOM      5  C4  UNL d   1       0.601   0.403   1.484  0.00  0.00    -0.005 A 
ATOM      6  C5  UNL d   1       0.965  -0.734   0.766  0.00  0.00     0.003 A 
ATOM      7  C6  UNL d   1       0.888  -0.734  -0.628  0.00  0.00    -0.001 A 
ENDROOT
TORSDOF 0
ENDMDL
