MODEL 1
REMARK minimizedAffinity 0.281100452
REMARK minimizedRMSD -1
REMARK  0 active torsions:
REMARK  status: ('A' for Active; 'I' for Inactive)
ROOT
ATOM      1  C   UNL d   1       2.345  -2.031   4.958  0.00  0.00     0.078 C 
ATOM      2  C1  UNL d   1       1.518  -0.786   5.077  0.00  0.00    -0.077 A 
ATOM      3  C2  UNL d   1       1.942   0.419   4.504  0.00  0.00    -0.001 A 
ATOM      4  C3  UNL d   1       1.167   1.573   4.631  0.00  0.00     0.003 A 
ATOM      5  C4  UNL d   1      -0.038   1.533   5.331  0.00  0.00    -0.005 A 
ATOM      6  C5  UNL d   1      -0.467   0.339   5.906  0.00  0.00     0.003 A 
ATOM      7  C6  UNL d   1       0.307  -0.816   5.781  0.00  0.00    -0.001 A 
ENDROOT
TORSDOF 0
ENDMDL
