MODEL 1
REMARK minimizedAffinity 6.63390875
REMARK minimizedRMSD -1
REMARK  0 active torsions:
REMARK  status: ('A' for Active; 'I' for Inactive)
ROOT
ATOM      1  C   UNL d   1      -3.216  -3.742  -3.548  0.00  0.00     0.078 C 
ATOM      2  C1  UNL d   1      -2.118  -2.733  -3.387  0.00  0.00    -0.077 A 
ATOM      3  C2  UNL d   1      -0.774  -3.124  -3.376  0.00  0.00    -0.001 A 
ATOM      4  C3  UNL d   1       0.236  -2.175  -3.215  0.00  0.00     0.003 A 
ATOM      5  C4  UNL d   1      -0.086  -0.828  -3.063  0.00  0.00    -0.005 A 
ATOM      6  C5  UNL d   1      -1.421  -0.429  -3.070  0.00  0.00     0.003 A 
ATOM      7  C6  UNL d   1      -2.433  -1.377  -3.231  0.00  0.00    -0.001 A 
ENDROOT
TORSDOF 0
ENDMDL
