MODEL 1
REMARK minimizedAffinity 10.3725929
REMARK minimizedRMSD -1
REMARK  0 active torsions:
REMARK  status: ('A' for Active; 'I' for Inactive)
ROOT
ATOM      1  C   UNL d   1       2.924  -2.287  -0.740  0.00  0.00     0.078 C 
ATOM      2  C1  UNL d   1       2.488  -3.574  -1.375  0.00  0.00    -0.077 A 
ATOM      3  C2  UNL d   1       1.575  -3.580  -2.437  0.00  0.00    -0.001 A 
ATOM      4  C3  UNL d   1       1.170  -4.786  -3.012  0.00  0.00     0.003 A 
ATOM      5  C4  UNL d   1       1.672  -5.994  -2.532  0.00  0.00    -0.005 A 
ATOM      6  C5  UNL d   1       2.579  -5.997  -1.474  0.00  0.00     0.003 A 
ATOM      7  C6  UNL d   1       2.985  -4.793  -0.897  0.00  0.00    -0.001 A 
ENDROOT
TORSDOF 0
ENDMDL
