MODEL 1
REMARK minimizedAffinity 6.96243858
REMARK minimizedRMSD -1
REMARK  0 active torsions:
REMARK  status: ('A' for Active; 'I' for Inactive)
ROOT
ATOM      1  C   UNL d   1      -3.571  -1.557   5.436  0.00  0.00     0.078 C 
ATOM      2  C1  UNL d   1      -3.382  -0.982   4.064  0.00  0.00    -0.077 A 
ATOM      3  C2  UNL d   1      -2.316  -0.118   3.784  0.00  0.00    -0.001 A 
ATOM      4  C3  UNL d   1      -2.159   0.417   2.505  0.00  0.00     0.003 A 
ATOM      5  C4  UNL d   1      -3.064   0.096   1.496  0.00  0.00    -0.005 A 
ATOM      6  C5  UNL d   1      -4.129  -0.761   1.765  0.00  0.00     0.003 A 
ATOM      7  C6  UNL d   1      -4.288  -1.298   3.044  0.00  0.00    -0.001 A 
ENDROOT
TORSDOF 0
ENDMDL
