MODEL 1
REMARK minimizedAffinity 10.4079256
REMARK minimizedRMSD -1
REMARK  0 active torsions:
REMARK  status: ('A' for Active; 'I' for Inactive)
ROOT
ATOM      1  C   UNL d   1      -3.836  -2.970  -4.951  0.00  0.00     0.078 C 
ATOM      2  C1  UNL d   1      -2.746  -3.596  -4.134  0.00  0.00    -0.077 A 
ATOM      3  C2  UNL d   1      -1.398  -3.337  -4.409  0.00  0.00    -0.001 A 
ATOM      4  C3  UNL d   1      -0.393  -3.935  -3.647  0.00  0.00     0.003 A 
ATOM      5  C4  UNL d   1      -0.726  -4.798  -2.605  0.00  0.00    -0.005 A 
ATOM      6  C5  UNL d   1      -2.065  -5.064  -2.324  0.00  0.00     0.003 A 
ATOM      7  C6  UNL d   1      -3.071  -4.467  -3.086  0.00  0.00    -0.001 A 
ENDROOT
TORSDOF 0
ENDMDL
