MODEL 1
REMARK minimizedAffinity 12.3936148
REMARK minimizedRMSD -1
REMARK  0 active torsions:
REMARK  status: ('A' for Active; 'I' for Inactive)
ROOT
ATOM      1  C   UNL d   1       4.368   1.971  -0.009  0.00  0.00     0.078 C 
ATOM      2  C1  UNL d   1       3.630   0.748  -0.463  0.00  0.00    -0.077 A 
ATOM      3  C2  UNL d   1       3.888  -0.504   0.109  0.00  0.00    -0.001 A 
ATOM      4  C3  UNL d   1       3.200  -1.636  -0.330  0.00  0.00     0.003 A 
ATOM      5  C4  UNL d   1       2.250  -1.529  -1.344  0.00  0.00    -0.005 A 
ATOM      6  C5  UNL d   1       1.988  -0.288  -1.920  0.00  0.00     0.003 A 
ATOM      7  C6  UNL d   1       2.675   0.846  -1.483  0.00  0.00    -0.001 A 
ENDROOT
TORSDOF 0
ENDMDL
