MODEL 1
REMARK minimizedAffinity -1.91577518
REMARK minimizedRMSD -1
REMARK  0 active torsions:
REMARK  status: ('A' for Active; 'I' for Inactive)
ROOT
ATOM      1  C   UNL d   1      -5.686  -5.311  -6.000  0.00  0.00     0.078 C 
ATOM      2  C1  UNL d   1      -4.423  -4.871  -5.322  0.00  0.00    -0.077 A 
ATOM      3  C2  UNL d   1      -3.473  -4.096  -5.999  0.00  0.00    -0.001 A 
ATOM      4  C3  UNL d   1      -2.298  -3.702  -5.359  0.00  0.00     0.003 A 
ATOM      5  C4  UNL d   1      -2.060  -4.077  -4.038  0.00  0.00    -0.005 A 
ATOM      6  C5  UNL d   1      -2.998  -4.850  -3.357  0.00  0.00     0.003 A 
ATOM      7  C6  UNL d   1      -4.175  -5.245  -3.995  0.00  0.00    -0.001 A 
ENDROOT
TORSDOF 0
ENDMDL
