MODEL 1
REMARK minimizedAffinity 15.0113983
REMARK minimizedRMSD -1
REMARK  0 active torsions:
REMARK  status: ('A' for Active; 'I' for Inactive)
ROOT
ATOM      1  C   UNL d   1      -5.994  -2.111   1.843  0.00  0.00     0.078 C 
ATOM      2  C1  UNL d   1      -4.857  -1.226   2.257  0.00  0.00    -0.077 A 
ATOM      3  C2  UNL d   1      -4.328  -1.289   3.553  0.00  0.00    -0.001 A 
ATOM      4  C3  UNL d   1      -3.277  -0.452   3.928  0.00  0.00     0.003 A 
ATOM      5  C4  UNL d   1      -2.745   0.456   3.014  0.00  0.00    -0.005 A 
ATOM      6  C5  UNL d   1      -3.266   0.528   1.723  0.00  0.00     0.003 A 
ATOM      7  C6  UNL d   1      -4.318  -0.308   1.347  0.00  0.00    -0.001 A 
ENDROOT
TORSDOF 0
ENDMDL
