MODEL 1
REMARK minimizedAffinity 7.39741278
REMARK minimizedRMSD -1
REMARK  0 active torsions:
REMARK  status: ('A' for Active; 'I' for Inactive)
ROOT
ATOM      1  C   UNL d   1      -1.687   0.465  -3.436  0.00  0.00     0.078 C 
ATOM      2  C1  UNL d   1      -1.598   1.660  -4.338  0.00  0.00    -0.077 A 
ATOM      3  C2  UNL d   1      -0.471   1.876  -5.140  0.00  0.00    -0.001 A 
ATOM      4  C3  UNL d   1      -0.397   2.998  -5.967  0.00  0.00     0.003 A 
ATOM      5  C4  UNL d   1      -1.447   3.913  -6.000  0.00  0.00    -0.005 A 
ATOM      6  C5  UNL d   1      -2.572   3.708  -5.204  0.00  0.00     0.003 A 
ATOM      7  C6  UNL d   1      -2.648   2.587  -4.376  0.00  0.00    -0.001 A 
ENDROOT
TORSDOF 0
ENDMDL
