MODEL 1
REMARK minimizedAffinity 7.4917016
REMARK minimizedRMSD -1
REMARK  0 active torsions:
REMARK  status: ('A' for Active; 'I' for Inactive)
ROOT
ATOM      1  C   UNL d   1      -3.550   0.239   2.618  0.00  0.00     0.078 C 
ATOM      2  C1  UNL d   1      -2.079   0.492   2.761  0.00  0.00    -0.077 A 
ATOM      3  C2  UNL d   1      -1.551   1.781   2.616  0.00  0.00    -0.001 A 
ATOM      4  C3  UNL d   1      -0.178   2.001   2.741  0.00  0.00     0.003 A 
ATOM      5  C4  UNL d   1       0.679   0.935   3.011  0.00  0.00    -0.005 A 
ATOM      6  C5  UNL d   1       0.163  -0.351   3.155  0.00  0.00     0.003 A 
ATOM      7  C6  UNL d   1      -1.209  -0.572   3.030  0.00  0.00    -0.001 A 
ENDROOT
TORSDOF 0
ENDMDL
