MODEL 1
REMARK minimizedAffinity 2.3692708
REMARK minimizedRMSD -1
REMARK  0 active torsions:
REMARK  status: ('A' for Active; 'I' for Inactive)
ROOT
ATOM      1  C   UNL d   1      -2.519  -3.125  -4.425  0.00  0.00     0.078 C 
ATOM      2  C1  UNL d   1      -3.730  -3.826  -4.965  0.00  0.00    -0.077 A 
ATOM      3  C2  UNL d   1      -3.797  -5.224  -5.003  0.00  0.00    -0.001 A 
ATOM      4  C3  UNL d   1      -4.926  -5.862  -5.517  0.00  0.00     0.003 A 
ATOM      5  C4  UNL d   1      -5.997  -5.111  -5.999  0.00  0.00    -0.005 A 
ATOM      6  C5  UNL d   1      -5.938  -3.720  -5.967  0.00  0.00     0.003 A 
ATOM      7  C6  UNL d   1      -4.810  -3.079  -5.453  0.00  0.00    -0.001 A 
ENDROOT
TORSDOF 0
ENDMDL
