MODEL 1
REMARK minimizedAffinity -0.77324003
REMARK minimizedRMSD -1
REMARK  0 active torsions:
REMARK  status: ('A' for Active; 'I' for Inactive)
ROOT
ATOM      1  C   UNL d   1      -0.380  -4.498  -3.749  0.00  0.00     0.078 C 
ATOM      2  C1  UNL d   1      -1.783  -4.272  -4.228  0.00  0.00    -0.077 A 
ATOM      3  C2  UNL d   1      -2.047  -3.970  -5.569  0.00  0.00    -0.001 A 
ATOM      4  C3  UNL d   1      -3.357  -3.752  -5.999  0.00  0.00     0.003 A 
ATOM      5  C4  UNL d   1      -4.413  -3.832  -5.094  0.00  0.00    -0.005 A 
ATOM      6  C5  UNL d   1      -4.160  -4.130  -3.757  0.00  0.00     0.003 A 
ATOM      7  C6  UNL d   1      -2.851  -4.348  -3.325  0.00  0.00    -0.001 A 
ENDROOT
TORSDOF 0
ENDMDL
