MODEL 1
REMARK minimizedAffinity 10.0872793
REMARK minimizedRMSD -1
REMARK  0 active torsions:
REMARK  status: ('A' for Active; 'I' for Inactive)
ROOT
ATOM      1  C   UNL d   1       0.375   0.172   2.036  0.00  0.00     0.078 C 
ATOM      2  C1  UNL d   1       0.340   0.749   3.419  0.00  0.00    -0.077 A 
ATOM      3  C2  UNL d   1       0.677  -0.030   4.534  0.00  0.00    -0.001 A 
ATOM      4  C3  UNL d   1       0.630   0.518   5.817  0.00  0.00     0.003 A 
ATOM      5  C4  UNL d   1       0.247   1.845   5.998  0.00  0.00    -0.005 A 
ATOM      6  C5  UNL d   1      -0.091   2.627   4.895  0.00  0.00     0.003 A 
ATOM      7  C6  UNL d   1      -0.046   2.081   3.611  0.00  0.00    -0.001 A 
ENDROOT
TORSDOF 0
ENDMDL
