MODEL 1
REMARK minimizedAffinity 1.99251652
REMARK minimizedRMSD -1
REMARK  0 active torsions:
REMARK  status: ('A' for Active; 'I' for Inactive)
ROOT
ATOM      1  C   UNL d   1      -4.106  -3.559  -4.969  0.00  0.00     0.078 C 
ATOM      2  C1  UNL d   1      -2.935  -4.049  -4.172  0.00  0.00    -0.077 A 
ATOM      3  C2  UNL d   1      -1.640  -3.583  -4.431  0.00  0.00    -0.001 A 
ATOM      4  C3  UNL d   1      -0.558  -4.055  -3.687  0.00  0.00     0.003 A 
ATOM      5  C4  UNL d   1      -0.758  -4.997  -2.679  0.00  0.00    -0.005 A 
ATOM      6  C5  UNL d   1      -2.043  -5.468  -2.416  0.00  0.00     0.003 A 
ATOM      7  C6  UNL d   1      -3.126  -4.998  -3.159  0.00  0.00    -0.001 A 
ENDROOT
TORSDOF 0
ENDMDL
