MODEL 1
REMARK minimizedAffinity -1.85503054
REMARK minimizedRMSD -1
REMARK  0 active torsions:
REMARK  status: ('A' for Active; 'I' for Inactive)
ROOT
ATOM      1  C   UNL d   1      -0.026  -4.452  -3.567  0.00  0.00     0.078 C 
ATOM      2  C1  UNL d   1      -1.480  -4.464  -3.936  0.00  0.00    -0.077 A 
ATOM      3  C2  UNL d   1      -2.439  -5.004  -3.070  0.00  0.00    -0.001 A 
ATOM      4  C3  UNL d   1      -3.787  -5.017  -3.431  0.00  0.00     0.003 A 
ATOM      5  C4  UNL d   1      -4.188  -4.492  -4.658  0.00  0.00    -0.005 A 
ATOM      6  C5  UNL d   1      -3.241  -3.955  -5.527  0.00  0.00     0.003 A 
ATOM      7  C6  UNL d   1      -1.892  -3.941  -5.168  0.00  0.00    -0.001 A 
ENDROOT
TORSDOF 0
ENDMDL
