MODEL 1
REMARK minimizedAffinity 5.11379576
REMARK minimizedRMSD -1
REMARK  0 active torsions:
REMARK  status: ('A' for Active; 'I' for Inactive)
ROOT
ATOM      1  C   UNL d   1      -5.069  -3.331  -4.817  0.00  0.00     0.078 C 
ATOM      2  C1  UNL d   1      -3.802  -3.675  -4.093  0.00  0.00    -0.077 A 
ATOM      3  C2  UNL d   1      -2.684  -2.834  -4.157  0.00  0.00    -0.001 A 
ATOM      4  C3  UNL d   1      -1.508  -3.172  -3.486  0.00  0.00     0.003 A 
ATOM      5  C4  UNL d   1      -1.438  -4.351  -2.746  0.00  0.00    -0.005 A 
ATOM      6  C5  UNL d   1      -2.545  -5.195  -2.679  0.00  0.00     0.003 A 
ATOM      7  C6  UNL d   1      -3.722  -4.859  -3.349  0.00  0.00    -0.001 A 
ENDROOT
TORSDOF 0
ENDMDL
