MODEL 1
REMARK minimizedAffinity -0.817502499
REMARK minimizedRMSD -1
REMARK  0 active torsions:
REMARK  status: ('A' for Active; 'I' for Inactive)
ROOT
ATOM      1  C   UNL d   1       1.088  -4.895  -3.318  0.00  0.00     0.078 C 
ATOM      2  C1  UNL d   1       1.905  -4.101  -2.343  0.00  0.00    -0.077 A 
ATOM      3  C2  UNL d   1       3.152  -4.562  -1.903  0.00  0.00    -0.001 A 
ATOM      4  C3  UNL d   1       3.898  -3.817  -0.988  0.00  0.00     0.003 A 
ATOM      5  C4  UNL d   1       3.404  -2.608  -0.504  0.00  0.00    -0.005 A 
ATOM      6  C5  UNL d   1       2.163  -2.142  -0.933  0.00  0.00     0.003 A 
ATOM      7  C6  UNL d   1       1.416  -2.885  -1.849  0.00  0.00    -0.001 A 
ENDROOT
TORSDOF 0
ENDMDL
