MODEL 1
REMARK minimizedAffinity -3.16600037
REMARK minimizedRMSD -1
REMARK  0 active torsions:
REMARK  status: ('A' for Active; 'I' for Inactive)
ROOT
ATOM      1  C   UNL d   1       0.210  -2.929  -0.964  0.00  0.00     0.124 A 
ATOM      2  C1  UNL d   1       0.364  -2.415   0.316  0.00  0.00     0.062 A 
ATOM      3  C2  UNL d   1       0.579  -1.052   0.502  0.00  0.00     0.162 A 
ATOM      4  C3  UNL d   1       0.641  -0.194  -0.596  0.00  0.00    -0.034 A 
ATOM      5  C4  UNL d   1       0.486  -0.719  -1.880  0.00  0.00     0.162 A 
ATOM      6  C5  UNL d   1       0.271  -2.081  -2.061  0.00  0.00     0.062 A 
ATOM      7  F   UNL d   1       0.123  -2.576  -3.298  0.00  0.00    -0.097 F 
ATOM      8  F1  UNL d   1       0.540   0.079  -2.958  0.00  0.00    -0.096 F 
ATOM      9  I   UNL d   1       0.962   1.844  -0.323  0.00  0.00    -0.060 I 
ATOM     10  F2  UNL d   1       0.725  -0.583   1.750  0.00  0.00    -0.096 F 
ATOM     11  F3  UNL d   1       0.307  -3.233   1.377  0.00  0.00    -0.097 F 
ATOM     12  F4  UNL d   1       0.005  -4.241  -1.140  0.00  0.00    -0.092 F 
ENDROOT
TORSDOF 0
ENDMDL
