MODEL 1
REMARK minimizedAffinity -4.14527941
REMARK minimizedRMSD -1
REMARK  0 active torsions:
REMARK  status: ('A' for Active; 'I' for Inactive)
ROOT
ATOM      1  C   UNL d   1      -0.419  -3.086  -0.931  0.00  0.00     0.124 A 
ATOM      2  C1  UNL d   1      -0.672  -2.421   0.260  0.00  0.00     0.062 A 
ATOM      3  C2  UNL d   1      -0.664  -1.029   0.301  0.00  0.00     0.162 A 
ATOM      4  C3  UNL d   1      -0.403  -0.293  -0.855  0.00  0.00    -0.034 A 
ATOM      5  C4  UNL d   1      -0.149  -0.969  -2.050  0.00  0.00     0.162 A 
ATOM      6  C5  UNL d   1      -0.158  -2.360  -2.085  0.00  0.00     0.062 A 
ATOM      7  F   UNL d   1       0.087  -3.001  -3.237  0.00  0.00    -0.097 F 
ATOM      8  F1  UNL d   1       0.106  -0.292  -3.179  0.00  0.00    -0.096 F 
ATOM      9  I   UNL d   1      -0.390   1.787  -0.799  0.00  0.00    -0.060 I 
ATOM     10  F2  UNL d   1      -0.911  -0.413   1.466  0.00  0.00    -0.096 F 
ATOM     11  F3  UNL d   1      -0.923  -3.120   1.376  0.00  0.00    -0.097 F 
ATOM     12  F4  UNL d   1      -0.426  -4.424  -0.967  0.00  0.00    -0.092 F 
ENDROOT
TORSDOF 0
ENDMDL
