MODEL 1
REMARK minimizedAffinity -1.69636834
REMARK minimizedRMSD -1
REMARK  0 active torsions:
REMARK  status: ('A' for Active; 'I' for Inactive)
ROOT
ATOM      1  C   UNL d   1      -0.915  -2.860  -0.221  0.00  0.00     0.124 A 
ATOM      2  C1  UNL d   1      -1.656  -2.033   0.612  0.00  0.00     0.062 A 
ATOM      3  C2  UNL d   1      -1.265  -0.713   0.816  0.00  0.00     0.162 A 
ATOM      4  C3  UNL d   1      -0.127  -0.210   0.185  0.00  0.00    -0.034 A 
ATOM      5  C4  UNL d   1       0.614  -1.048  -0.650  0.00  0.00     0.162 A 
ATOM      6  C5  UNL d   1       0.219  -2.367  -0.851  0.00  0.00     0.062 A 
ATOM      7  F   UNL d   1       0.937  -3.164  -1.656  0.00  0.00    -0.097 F 
ATOM      8  F1  UNL d   1       1.713  -0.597  -1.273  0.00  0.00    -0.096 F 
ATOM      9  I   UNL d   1       0.461   1.763   0.487  0.00  0.00    -0.060 I 
ATOM     10  F2  UNL d   1      -2.000   0.064   1.626  0.00  0.00    -0.096 F 
ATOM     11  F3  UNL d   1      -2.751  -2.507   1.223  0.00  0.00    -0.097 F 
ATOM     12  F4  UNL d   1      -1.293  -4.130  -0.414  0.00  0.00    -0.092 F 
ENDROOT
TORSDOF 0
ENDMDL
