MODEL 1
REMARK minimizedAffinity -1.64213276
REMARK minimizedRMSD -1
REMARK  0 active torsions:
REMARK  status: ('A' for Active; 'I' for Inactive)
ROOT
ATOM      1  C   UNL d   1       0.148  -2.978  -0.543  0.00  0.00     0.124 A 
ATOM      2  C1  UNL d   1       0.496  -2.134  -1.588  0.00  0.00     0.062 A 
ATOM      3  C2  UNL d   1       0.375  -0.755  -1.445  0.00  0.00     0.162 A 
ATOM      4  C3  UNL d   1      -0.095  -0.211  -0.250  0.00  0.00    -0.034 A 
ATOM      5  C4  UNL d   1      -0.444  -1.066   0.797  0.00  0.00     0.162 A 
ATOM      6  C5  UNL d   1      -0.322  -2.444   0.648  0.00  0.00     0.062 A 
ATOM      7  F   UNL d   1      -0.659  -3.258   1.659  0.00  0.00    -0.097 F 
ATOM      8  F1  UNL d   1      -0.900  -0.576   1.960  0.00  0.00    -0.096 F 
ATOM      9  I   UNL d   1      -0.277   1.851  -0.030  0.00  0.00    -0.060 I 
ATOM     10  F2  UNL d   1       0.719   0.037  -2.471  0.00  0.00    -0.096 F 
ATOM     11  F3  UNL d   1       0.949  -2.648  -2.741  0.00  0.00    -0.097 F 
ATOM     12  F4  UNL d   1       0.264  -4.305  -0.684  0.00  0.00    -0.092 F 
ENDROOT
TORSDOF 0
ENDMDL
