MODEL 1
REMARK minimizedAffinity -0.39274168
REMARK minimizedRMSD -1
REMARK  0 active torsions:
REMARK  status: ('A' for Active; 'I' for Inactive)
ROOT
ATOM      1  C   UNL d   1      -0.070  -2.221  -0.860  0.00  0.00     0.124 A 
ATOM      2  C1  UNL d   1      -0.033  -1.262  -1.862  0.00  0.00     0.062 A 
ATOM      3  C2  UNL d   1       0.131   0.082  -1.539  0.00  0.00     0.162 A 
ATOM      4  C3  UNL d   1       0.262   0.475  -0.207  0.00  0.00    -0.034 A 
ATOM      5  C4  UNL d   1       0.224  -0.496   0.796  0.00  0.00     0.162 A 
ATOM      6  C5  UNL d   1       0.059  -1.838   0.468  0.00  0.00     0.062 A 
ATOM      7  F   UNL d   1       0.024  -2.764   1.437  0.00  0.00    -0.097 F 
ATOM      8  F1  UNL d   1       0.346  -0.154   2.087  0.00  0.00    -0.096 F 
ATOM      9  I   UNL d   1       0.509   2.483   0.281  0.00  0.00    -0.060 I 
ATOM     10  F2  UNL d   1       0.163   0.988  -2.528  0.00  0.00    -0.096 F 
ATOM     11  F3  UNL d   1      -0.158  -1.629  -3.145  0.00  0.00    -0.097 F 
ATOM     12  F4  UNL d   1      -0.229  -3.513  -1.174  0.00  0.00    -0.092 F 
ENDROOT
TORSDOF 0
ENDMDL
