MODEL 1
REMARK minimizedAffinity -1.23759162
REMARK minimizedRMSD -1
REMARK  0 active torsions:
REMARK  status: ('A' for Active; 'I' for Inactive)
ROOT
ATOM      1  C   UNL d   1      -0.364  -2.801  -0.883  0.00  0.00     0.124 A 
ATOM      2  C1  UNL d   1       0.023  -2.031  -1.971  0.00  0.00     0.062 A 
ATOM      3  C2  UNL d   1       0.134  -0.650  -1.847  0.00  0.00     0.162 A 
ATOM      4  C3  UNL d   1      -0.142  -0.028  -0.630  0.00  0.00    -0.034 A 
ATOM      5  C4  UNL d   1      -0.532  -0.808   0.460  0.00  0.00     0.162 A 
ATOM      6  C5  UNL d   1      -0.641  -2.189   0.332  0.00  0.00     0.062 A 
ATOM      7  F   UNL d   1      -1.015  -2.931   1.384  0.00  0.00    -0.097 F 
ATOM      8  F1  UNL d   1      -0.804  -0.243   1.646  0.00  0.00    -0.096 F 
ATOM      9  I   UNL d   1       0.023   2.038  -0.441  0.00  0.00    -0.060 I 
ATOM     10  F2  UNL d   1       0.510   0.069  -2.916  0.00  0.00    -0.096 F 
ATOM     11  F3  UNL d   1       0.291  -2.620  -3.146  0.00  0.00    -0.097 F 
ATOM     12  F4  UNL d   1      -0.470  -4.130  -1.005  0.00  0.00    -0.092 F 
ENDROOT
TORSDOF 0
ENDMDL
