MODEL 1
REMARK minimizedAffinity -1.30213249
REMARK minimizedRMSD -1
REMARK  0 active torsions:
REMARK  status: ('A' for Active; 'I' for Inactive)
ROOT
ATOM      1  C   UNL d   1      -0.718  -1.530  -0.200  0.00  0.00     0.124 A 
ATOM      2  C1  UNL d   1      -0.323  -0.776  -1.296  0.00  0.00     0.062 A 
ATOM      3  C2  UNL d   1       0.020   0.564  -1.137  0.00  0.00     0.162 A 
ATOM      4  C3  UNL d   1      -0.030   1.158   0.124  0.00  0.00    -0.034 A 
ATOM      5  C4  UNL d   1      -0.429   0.393   1.221  0.00  0.00     0.162 A 
ATOM      6  C5  UNL d   1      -0.770  -0.946   1.057  0.00  0.00     0.062 A 
ATOM      7  F   UNL d   1      -1.152  -1.673   2.117  0.00  0.00    -0.097 F 
ATOM      8  F1  UNL d   1      -0.488   0.933   2.448  0.00  0.00    -0.096 F 
ATOM      9  I   UNL d   1       0.482   3.161   0.366  0.00  0.00    -0.060 I 
ATOM     10  F2  UNL d   1       0.398   1.269  -2.214  0.00  0.00    -0.096 F 
ATOM     11  F3  UNL d   1      -0.272  -1.339  -2.512  0.00  0.00    -0.097 F 
ATOM     12  F4  UNL d   1      -1.048  -2.819  -0.356  0.00  0.00    -0.092 F 
ENDROOT
TORSDOF 0
ENDMDL
