MODEL 1
REMARK minimizedAffinity -2.54375291
REMARK minimizedRMSD -1
REMARK  0 active torsions:
REMARK  status: ('A' for Active; 'I' for Inactive)
ROOT
ATOM      1  C   UNL d   1      -0.685   0.822   0.451  0.00  0.00     0.124 A 
ATOM      2  C1  UNL d   1      -1.079  -0.283   1.192  0.00  0.00     0.062 A 
ATOM      3  C2  UNL d   1      -0.985  -1.561   0.648  0.00  0.00     0.162 A 
ATOM      4  C3  UNL d   1      -0.495  -1.741  -0.646  0.00  0.00    -0.034 A 
ATOM      5  C4  UNL d   1      -0.101  -0.624  -1.385  0.00  0.00     0.162 A 
ATOM      6  C5  UNL d   1      -0.196   0.651  -0.837  0.00  0.00     0.062 A 
ATOM      7  F   UNL d   1       0.185   1.718  -1.554  0.00  0.00    -0.097 F 
ATOM      8  F1  UNL d   1       0.375  -0.761  -2.632  0.00  0.00    -0.096 F 
ATOM      9  I   UNL d   1      -0.353  -3.649  -1.463  0.00  0.00    -0.060 I 
ATOM     10  F2  UNL d   1      -1.373  -2.611   1.387  0.00  0.00    -0.096 F 
ATOM     11  F3  UNL d   1      -1.552  -0.121   2.436  0.00  0.00    -0.097 F 
ATOM     12  F4  UNL d   1      -0.777   2.050   0.977  0.00  0.00    -0.092 F 
ENDROOT
TORSDOF 0
ENDMDL
