MODEL 1
REMARK minimizedAffinity -4.41077089
REMARK minimizedRMSD -1
REMARK  0 active torsions:
REMARK  status: ('A' for Active; 'I' for Inactive)
ROOT
ATOM      1  C   UNL d   1      -0.141  -2.628  -0.790  0.00  0.00     0.124 A 
ATOM      2  C1  UNL d   1      -0.014  -1.733  -1.844  0.00  0.00     0.062 A 
ATOM      3  C2  UNL d   1      -0.019  -0.363  -1.603  0.00  0.00     0.162 A 
ATOM      4  C3  UNL d   1      -0.149   0.123  -0.301  0.00  0.00    -0.034 A 
ATOM      5  C4  UNL d   1      -0.277  -0.783   0.753  0.00  0.00     0.162 A 
ATOM      6  C5  UNL d   1      -0.272  -2.152   0.507  0.00  0.00     0.062 A 
ATOM      7  F   UNL d   1      -0.395  -3.015   1.526  0.00  0.00    -0.097 F 
ATOM      8  F1  UNL d   1      -0.404  -0.351   2.017  0.00  0.00    -0.096 F 
ATOM      9  I   UNL d   1      -0.156   2.171   0.064  0.00  0.00    -0.060 I 
ATOM     10  F2  UNL d   1       0.106   0.479  -2.640  0.00  0.00    -0.096 F 
ATOM     11  F3  UNL d   1       0.111  -2.191  -3.098  0.00  0.00    -0.097 F 
ATOM     12  F4  UNL d   1      -0.138  -3.946  -1.025  0.00  0.00    -0.092 F 
ENDROOT
TORSDOF 0
ENDMDL
