MODEL 1
REMARK minimizedAffinity -4.12244034
REMARK minimizedRMSD -1
REMARK  0 active torsions:
REMARK  status: ('A' for Active; 'I' for Inactive)
ROOT
ATOM      1  C   UNL d   1       0.020  -3.074  -0.803  0.00  0.00     0.124 A 
ATOM      2  C1  UNL d   1      -0.068  -2.559   0.483  0.00  0.00     0.062 A 
ATOM      3  C2  UNL d   1      -0.000  -1.185   0.693  0.00  0.00     0.162 A 
ATOM      4  C3  UNL d   1       0.155  -0.315  -0.387  0.00  0.00    -0.034 A 
ATOM      5  C4  UNL d   1       0.243  -0.841  -1.677  0.00  0.00     0.162 A 
ATOM      6  C5  UNL d   1       0.175  -2.215  -1.882  0.00  0.00     0.062 A 
ATOM      7  F   UNL d   1       0.259  -2.711  -3.125  0.00  0.00    -0.097 F 
ATOM      8  F1  UNL d   1       0.392  -0.033  -2.738  0.00  0.00    -0.096 F 
ATOM      9  I   UNL d   1       0.256   1.740  -0.078  0.00  0.00    -0.060 I 
ATOM     10  F2  UNL d   1      -0.087  -0.715   1.946  0.00  0.00    -0.096 F 
ATOM     11  F3  UNL d   1      -0.217  -3.388   1.527  0.00  0.00    -0.097 F 
ATOM     12  F4  UNL d   1      -0.045  -4.397  -1.002  0.00  0.00    -0.092 F 
ENDROOT
TORSDOF 0
ENDMDL
