MODEL 1
REMARK minimizedAffinity -5.94689655
REMARK minimizedRMSD -1
REMARK  0 active torsions:
REMARK  status: ('A' for Active; 'I' for Inactive)
ROOT
ATOM      1  C   UNL d   1       0.025  -3.356  -0.897  0.00  0.00     0.124 A 
ATOM      2  C1  UNL d   1      -0.028  -2.845   0.392  0.00  0.00     0.062 A 
ATOM      3  C2  UNL d   1      -0.041  -1.468   0.599  0.00  0.00     0.162 A 
ATOM      4  C3  UNL d   1      -0.001  -0.593  -0.487  0.00  0.00    -0.034 A 
ATOM      5  C4  UNL d   1       0.053  -1.115  -1.780  0.00  0.00     0.162 A 
ATOM      6  C5  UNL d   1       0.065  -2.491  -1.982  0.00  0.00     0.062 A 
ATOM      7  F   UNL d   1       0.116  -2.984  -3.228  0.00  0.00    -0.097 F 
ATOM      8  F1  UNL d   1       0.091  -0.302  -2.847  0.00  0.00    -0.096 F 
ATOM      9  I   UNL d   1      -0.020   1.466  -0.182  0.00  0.00    -0.060 I 
ATOM     10  F2  UNL d   1      -0.092  -1.002   1.855  0.00  0.00    -0.096 F 
ATOM     11  F3  UNL d   1      -0.066  -3.678   1.441  0.00  0.00    -0.097 F 
ATOM     12  F4  UNL d   1       0.038  -4.681  -1.094  0.00  0.00    -0.092 F 
ENDROOT
TORSDOF 0
ENDMDL
