MODEL 1
REMARK minimizedAffinity 1.94783354
REMARK minimizedRMSD -1
REMARK  0 active torsions:
REMARK  status: ('A' for Active; 'I' for Inactive)
ROOT
ATOM      1  C   UNL d   1       1.725   2.674   0.023  0.00  0.00     0.124 A 
ATOM      2  C1  UNL d   1       1.351   2.292   1.304  0.00  0.00     0.062 A 
ATOM      3  C2  UNL d   1       0.574   1.154   1.496  0.00  0.00     0.162 A 
ATOM      4  C3  UNL d   1       0.167   0.387   0.404  0.00  0.00    -0.034 A 
ATOM      5  C4  UNL d   1       0.546   0.778  -0.881  0.00  0.00     0.162 A 
ATOM      6  C5  UNL d   1       1.323   1.916  -1.068  0.00  0.00     0.062 A 
ATOM      7  F   UNL d   1       1.683   2.283  -2.307  0.00  0.00    -0.097 F 
ATOM      8  F1  UNL d   1       0.172   0.063  -1.953  0.00  0.00    -0.096 F 
ATOM      9  I   UNL d   1      -0.995  -1.316   0.688  0.00  0.00    -0.060 I 
ATOM     10  F2  UNL d   1       0.227   0.809   2.745  0.00  0.00    -0.096 F 
ATOM     11  F3  UNL d   1       1.738   3.023   2.359  0.00  0.00    -0.097 F 
ATOM     12  F4  UNL d   1       2.472   3.771  -0.160  0.00  0.00    -0.092 F 
ENDROOT
TORSDOF 0
ENDMDL
