MODEL 1
REMARK minimizedAffinity -3.84169817
REMARK minimizedRMSD -1
REMARK  0 active torsions:
REMARK  status: ('A' for Active; 'I' for Inactive)
ROOT
ATOM      1  C   UNL d   1       0.189  -2.950  -0.739  0.00  0.00     0.124 A 
ATOM      2  C1  UNL d   1       0.462  -2.075  -1.782  0.00  0.00     0.062 A 
ATOM      3  C2  UNL d   1       0.481  -0.702  -1.558  0.00  0.00     0.162 A 
ATOM      4  C3  UNL d   1       0.226  -0.193  -0.284  0.00  0.00    -0.034 A 
ATOM      5  C4  UNL d   1      -0.049  -1.079   0.760  0.00  0.00     0.162 A 
ATOM      6  C5  UNL d   1      -0.066  -2.451   0.530  0.00  0.00     0.062 A 
ATOM      7  F   UNL d   1      -0.330  -3.294   1.539  0.00  0.00    -0.097 F 
ATOM      8  F1  UNL d   1      -0.298  -0.624   1.997  0.00  0.00    -0.096 F 
ATOM      9  I   UNL d   1       0.253   1.860   0.056  0.00  0.00    -0.060 I 
ATOM     10  F2  UNL d   1       0.748   0.120  -2.584  0.00  0.00    -0.096 F 
ATOM     11  F3  UNL d   1       0.709  -2.555  -3.010  0.00  0.00    -0.097 F 
ATOM     12  F4  UNL d   1       0.171  -4.271  -0.958  0.00  0.00    -0.092 F 
ENDROOT
TORSDOF 0
ENDMDL
