MODEL 1
REMARK minimizedAffinity -1.81569135
REMARK minimizedRMSD -1
REMARK  0 active torsions:
REMARK  status: ('A' for Active; 'I' for Inactive)
ROOT
ATOM      1  C   UNL d   1      -0.254  -2.222  -1.085  0.00  0.00     0.124 A 
ATOM      2  C1  UNL d   1       0.159  -1.917   0.205  0.00  0.00     0.062 A 
ATOM      3  C2  UNL d   1       0.316  -0.589   0.594  0.00  0.00     0.162 A 
ATOM      4  C3  UNL d   1       0.059   0.443  -0.308  0.00  0.00    -0.034 A 
ATOM      5  C4  UNL d   1      -0.355   0.129  -1.603  0.00  0.00     0.162 A 
ATOM      6  C5  UNL d   1      -0.510  -1.199  -1.987  0.00  0.00     0.062 A 
ATOM      7  F   UNL d   1      -0.909  -1.492  -3.234  0.00  0.00    -0.097 F 
ATOM      8  F1  UNL d   1      -0.611   1.097  -2.495  0.00  0.00    -0.096 F 
ATOM      9  I   UNL d   1       0.292   2.429   0.271  0.00  0.00    -0.060 I 
ATOM     10  F2  UNL d   1       0.716  -0.324   1.846  0.00  0.00    -0.096 F 
ATOM     11  F3  UNL d   1       0.409  -2.903   1.078  0.00  0.00    -0.097 F 
ATOM     12  F4  UNL d   1      -0.403  -3.499  -1.457  0.00  0.00    -0.092 F 
ENDROOT
TORSDOF 0
ENDMDL
