MODEL 1
REMARK minimizedAffinity -0.887379289
REMARK minimizedRMSD -1
REMARK  0 active torsions:
REMARK  status: ('A' for Active; 'I' for Inactive)
ROOT
ATOM      1  C   UNL d   1      -0.446  -2.691  -0.875  0.00  0.00     0.124 A 
ATOM      2  C1  UNL d   1      -0.180  -1.843  -1.941  0.00  0.00     0.062 A 
ATOM      3  C2  UNL d   1       0.079  -0.495  -1.715  0.00  0.00     0.162 A 
ATOM      4  C3  UNL d   1       0.074   0.015  -0.416  0.00  0.00    -0.034 A 
ATOM      5  C4  UNL d   1      -0.196  -0.844   0.651  0.00  0.00     0.162 A 
ATOM      6  C5  UNL d   1      -0.454  -2.191   0.419  0.00  0.00     0.062 A 
ATOM      7  F   UNL d   1      -0.711  -3.009   1.451  0.00  0.00    -0.097 F 
ATOM      8  F1  UNL d   1      -0.209  -0.387   1.912  0.00  0.00    -0.096 F 
ATOM      9  I   UNL d   1       0.461   2.031  -0.074  0.00  0.00    -0.060 I 
ATOM     10  F2  UNL d   1       0.333   0.302  -2.764  0.00  0.00    -0.096 F 
ATOM     11  F3  UNL d   1      -0.173  -2.324  -3.193  0.00  0.00    -0.097 F 
ATOM     12  F4  UNL d   1      -0.696  -3.988  -1.096  0.00  0.00    -0.092 F 
ENDROOT
TORSDOF 0
ENDMDL
