MODEL 1
REMARK minimizedAffinity -1.97793448
REMARK minimizedRMSD -1
REMARK  0 active torsions:
REMARK  status: ('A' for Active; 'I' for Inactive)
ROOT
ATOM      1  C   UNL d   1      -0.957   0.302   0.888  0.00  0.00     0.124 A 
ATOM      2  C1  UNL d   1      -0.780   0.901  -0.351  0.00  0.00     0.062 A 
ATOM      3  C2  UNL d   1      -0.433   0.131  -1.458  0.00  0.00     0.162 A 
ATOM      4  C3  UNL d   1      -0.261  -1.247  -1.330  0.00  0.00    -0.034 A 
ATOM      5  C4  UNL d   1      -0.439  -1.842  -0.080  0.00  0.00     0.162 A 
ATOM      6  C5  UNL d   1      -0.787  -1.069   1.023  0.00  0.00     0.062 A 
ATOM      7  F   UNL d   1      -0.957  -1.649   2.220  0.00  0.00    -0.097 F 
ATOM      8  F1  UNL d   1      -0.282  -3.165   0.078  0.00  0.00    -0.096 F 
ATOM      9  I   UNL d   1       0.259  -2.402  -2.982  0.00  0.00    -0.060 I 
ATOM     10  F2  UNL d   1      -0.268   0.737  -2.643  0.00  0.00    -0.096 F 
ATOM     11  F3  UNL d   1      -0.944   2.225  -0.484  0.00  0.00    -0.097 F 
ATOM     12  F4  UNL d   1      -1.291   1.045   1.951  0.00  0.00    -0.092 F 
ENDROOT
TORSDOF 0
ENDMDL
