MODEL 1
REMARK minimizedAffinity 2.68316841
REMARK minimizedRMSD -1
REMARK  0 active torsions:
REMARK  status: ('A' for Active; 'I' for Inactive)
ROOT
ATOM      1  C   UNL d   1      -0.771   0.636  -1.030  0.00  0.00     0.124 A 
ATOM      2  C1  UNL d   1      -1.242   0.131   0.175  0.00  0.00     0.062 A 
ATOM      3  C2  UNL d   1      -0.930  -1.170   0.558  0.00  0.00     0.162 A 
ATOM      4  C3  UNL d   1      -0.142  -1.976  -0.264  0.00  0.00    -0.034 A 
ATOM      5  C4  UNL d   1       0.326  -1.462  -1.474  0.00  0.00     0.162 A 
ATOM      6  C5  UNL d   1       0.012  -0.161  -1.853  0.00  0.00     0.062 A 
ATOM      7  F   UNL d   1       0.467   0.325  -3.017  0.00  0.00    -0.097 F 
ATOM      8  F1  UNL d   1       1.086  -2.210  -2.289  0.00  0.00    -0.096 F 
ATOM      9  I   UNL d   1       0.326  -3.923   0.305  0.00  0.00    -0.060 I 
ATOM     10  F2  UNL d   1      -1.398  -1.632   1.727  0.00  0.00    -0.096 F 
ATOM     11  F3  UNL d   1      -1.999   0.898   0.972  0.00  0.00    -0.097 F 
ATOM     12  F4  UNL d   1      -1.074   1.888  -1.396  0.00  0.00    -0.092 F 
ENDROOT
TORSDOF 0
ENDMDL
