MODEL 1
REMARK minimizedAffinity -4.03190374
REMARK minimizedRMSD -1
REMARK  0 active torsions:
REMARK  status: ('A' for Active; 'I' for Inactive)
ROOT
ATOM      1  C   UNL d   1      -0.429   1.009  -0.397  0.00  0.00     0.078 C 
ATOM      2  C1  UNL d   1       0.188  -0.318  -0.068  0.00  0.00    -0.077 A 
ATOM      3  C2  UNL d   1      -0.455  -1.515  -0.404  0.00  0.00    -0.001 A 
ATOM      4  C3  UNL d   1       0.126  -2.743  -0.082  0.00  0.00     0.003 A 
ATOM      5  C4  UNL d   1       1.353  -2.785   0.577  0.00  0.00    -0.005 A 
ATOM      6  C5  UNL d   1       1.999  -1.598   0.917  0.00  0.00     0.003 A 
ATOM      7  C6  UNL d   1       1.420  -0.370   0.597  0.00  0.00    -0.001 A 
ENDROOT
TORSDOF 0
ENDMDL
