MODEL 1
REMARK minimizedAffinity -4.41949272
REMARK minimizedRMSD -1
REMARK  0 active torsions:
REMARK  status: ('A' for Active; 'I' for Inactive)
ROOT
ATOM      1  C   UNL d   1      -0.939   0.905  -0.967  0.00  0.00     0.078 C 
ATOM      2  C1  UNL d   1      -0.053  -0.132  -0.345  0.00  0.00    -0.077 A 
ATOM      3  C2  UNL d   1      -0.563  -1.375   0.050  0.00  0.00    -0.001 A 
ATOM      4  C3  UNL d   1       0.272  -2.327   0.637  0.00  0.00     0.003 A 
ATOM      5  C4  UNL d   1       1.622  -2.046   0.836  0.00  0.00    -0.005 A 
ATOM      6  C5  UNL d   1       2.139  -0.811   0.449  0.00  0.00     0.003 A 
ATOM      7  C6  UNL d   1       1.305   0.142  -0.138  0.00  0.00    -0.001 A 
ENDROOT
TORSDOF 0
ENDMDL
