MODEL 1
REMARK minimizedAffinity -5.74191856
REMARK minimizedRMSD -1
REMARK  0 active torsions:
REMARK  status: ('A' for Active; 'I' for Inactive)
ROOT
ATOM      1  C   UNL d   1      -0.419   0.964  -0.292  0.00  0.00     0.078 C 
ATOM      2  C1  UNL d   1       0.128  -0.220   0.447  0.00  0.00    -0.077 A 
ATOM      3  C2  UNL d   1      -0.678  -0.963   1.318  0.00  0.00    -0.001 A 
ATOM      4  C3  UNL d   1      -0.152  -2.057   2.007  0.00  0.00     0.003 A 
ATOM      5  C4  UNL d   1       1.183  -2.418   1.832  0.00  0.00    -0.005 A 
ATOM      6  C5  UNL d   1       1.993  -1.684   0.969  0.00  0.00     0.003 A 
ATOM      7  C6  UNL d   1       1.469  -0.589   0.280  0.00  0.00    -0.001 A 
ENDROOT
TORSDOF 0
ENDMDL
