MODEL 1
REMARK minimizedAffinity -2.11825204
REMARK minimizedRMSD -1
REMARK  0 active torsions:
REMARK  status: ('A' for Active; 'I' for Inactive)
ROOT
ATOM      1  C   UNL d   1       2.189  -2.009   0.905  0.00  0.00     0.078 C 
ATOM      2  C1  UNL d   1       1.126  -0.989   0.629  0.00  0.00    -0.077 A 
ATOM      3  C2  UNL d   1       1.440   0.235   0.025  0.00  0.00    -0.001 A 
ATOM      4  C3  UNL d   1       0.442   1.180  -0.217  0.00  0.00     0.003 A 
ATOM      5  C4  UNL d   1      -0.878   0.911   0.141  0.00  0.00    -0.005 A 
ATOM      6  C5  UNL d   1      -1.200  -0.303   0.744  0.00  0.00     0.003 A 
ATOM      7  C6  UNL d   1      -0.203  -1.249   0.987  0.00  0.00    -0.001 A 
ENDROOT
TORSDOF 0
ENDMDL
