MODEL 1
REMARK minimizedAffinity -5.84009314
REMARK minimizedRMSD -1
REMARK  0 active torsions:
REMARK  status: ('A' for Active; 'I' for Inactive)
ROOT
ATOM      1  C   UNL d   1      -0.351   0.583  -0.209  0.00  0.00     0.078 C 
ATOM      2  C1  UNL d   1       0.097  -0.548   0.668  0.00  0.00    -0.077 A 
ATOM      3  C2  UNL d   1      -0.669  -0.955   1.768  0.00  0.00    -0.001 A 
ATOM      4  C3  UNL d   1      -0.235  -2.002   2.581  0.00  0.00     0.003 A 
ATOM      5  C4  UNL d   1       0.967  -2.652   2.305  0.00  0.00    -0.005 A 
ATOM      6  C5  UNL d   1       1.737  -2.253   1.214  0.00  0.00     0.003 A 
ATOM      7  C6  UNL d   1       1.304  -1.205   0.399  0.00  0.00    -0.001 A 
ENDROOT
TORSDOF 0
ENDMDL
