MODEL 1
REMARK minimizedAffinity -5.51560259
REMARK minimizedRMSD -1
REMARK  0 active torsions:
REMARK  status: ('A' for Active; 'I' for Inactive)
ROOT
ATOM      1  C   UNL d   1       1.258  -3.093   1.037  0.00  0.00     0.078 C 
ATOM      2  C1  UNL d   1       0.914  -1.723   0.535  0.00  0.00    -0.077 A 
ATOM      3  C2  UNL d   1      -0.296  -1.110   0.881  0.00  0.00    -0.001 A 
ATOM      4  C3  UNL d   1      -0.607   0.162   0.398  0.00  0.00     0.003 A 
ATOM      5  C4  UNL d   1       0.287   0.832  -0.435  0.00  0.00    -0.005 A 
ATOM      6  C5  UNL d   1       1.493   0.229  -0.787  0.00  0.00     0.003 A 
ATOM      7  C6  UNL d   1       1.806  -1.043  -0.305  0.00  0.00    -0.001 A 
ENDROOT
TORSDOF 0
ENDMDL
