MODEL 1
REMARK minimizedAffinity -5.00127506
REMARK minimizedRMSD -1
REMARK  0 active torsions:
REMARK  status: ('A' for Active; 'I' for Inactive)
ROOT
ATOM      1  C   UNL d   1      -0.285   0.626  -0.706  0.00  0.00     0.078 C 
ATOM      2  C1  UNL d   1       0.492  -0.509  -0.109  0.00  0.00    -0.077 A 
ATOM      3  C2  UNL d   1      -0.055  -1.302   0.907  0.00  0.00    -0.001 A 
ATOM      4  C3  UNL d   1       0.683  -2.349   1.460  0.00  0.00     0.003 A 
ATOM      5  C4  UNL d   1       1.973  -2.613   1.003  0.00  0.00    -0.005 A 
ATOM      6  C5  UNL d   1       2.527  -1.829  -0.006  0.00  0.00     0.003 A 
ATOM      7  C6  UNL d   1       1.790  -0.781  -0.560  0.00  0.00    -0.001 A 
ENDROOT
TORSDOF 0
ENDMDL
