MODEL 1
REMARK minimizedAffinity -1.73168659
REMARK minimizedRMSD -1
REMARK  0 active torsions:
REMARK  status: ('A' for Active; 'I' for Inactive)
ROOT
ATOM      1  C   UNL d   1       2.263  -1.827   0.729  0.00  0.00     0.078 C 
ATOM      2  C1  UNL d   1       1.168  -0.817   0.555  0.00  0.00    -0.077 A 
ATOM      3  C2  UNL d   1       1.326   0.277  -0.305  0.00  0.00    -0.001 A 
ATOM      4  C3  UNL d   1       0.302   1.214  -0.450  0.00  0.00     0.003 A 
ATOM      5  C4  UNL d   1      -0.887   1.067   0.262  0.00  0.00    -0.005 A 
ATOM      6  C5  UNL d   1      -1.052  -0.017   1.122  0.00  0.00     0.003 A 
ATOM      7  C6  UNL d   1      -0.029  -0.955   1.268  0.00  0.00    -0.001 A 
ENDROOT
TORSDOF 0
ENDMDL
