MODEL 1
REMARK minimizedAffinity -4.40922594
REMARK minimizedRMSD -1
REMARK  0 active torsions:
REMARK  status: ('A' for Active; 'I' for Inactive)
ROOT
ATOM      1  C   UNL d   1      -0.556   1.027   0.157  0.00  0.00     0.078 C 
ATOM      2  C1  UNL d   1      -0.191  -0.171   0.981  0.00  0.00    -0.077 A 
ATOM      3  C2  UNL d   1      -0.957  -0.544   2.092  0.00  0.00    -0.001 A 
ATOM      4  C3  UNL d   1      -0.600  -1.657   2.855  0.00  0.00     0.003 A 
ATOM      5  C4  UNL d   1       0.526  -2.405   2.517  0.00  0.00    -0.005 A 
ATOM      6  C5  UNL d   1       1.297  -2.040   1.415  0.00  0.00     0.003 A 
ATOM      7  C6  UNL d   1       0.941  -0.928   0.650  0.00  0.00    -0.001 A 
ENDROOT
TORSDOF 0
ENDMDL
