MODEL 1
REMARK minimizedAffinity -4.0896039
REMARK minimizedRMSD -1
REMARK  0 active torsions:
REMARK  status: ('A' for Active; 'I' for Inactive)
ROOT
ATOM      1  C   UNL d   1      -1.147  -1.540   2.691  0.00  0.00     0.078 C 
ATOM      2  C1  UNL d   1      -0.105  -1.263   1.650  0.00  0.00    -0.077 A 
ATOM      3  C2  UNL d   1       1.090  -1.992   1.613  0.00  0.00    -0.001 A 
ATOM      4  C3  UNL d   1       2.056  -1.716   0.644  0.00  0.00     0.003 A 
ATOM      5  C4  UNL d   1       1.837  -0.711  -0.296  0.00  0.00    -0.005 A 
ATOM      6  C5  UNL d   1       0.652   0.021  -0.266  0.00  0.00     0.003 A 
ATOM      7  C6  UNL d   1      -0.315  -0.253   0.702  0.00  0.00    -0.001 A 
ENDROOT
TORSDOF 0
ENDMDL
