MODEL 1
REMARK minimizedAffinity -4.00519848
REMARK minimizedRMSD -1
REMARK  0 active torsions:
REMARK  status: ('A' for Active; 'I' for Inactive)
ROOT
ATOM      1  C   UNL d   1       1.439  -2.601   1.249  0.00  0.00     0.078 C 
ATOM      2  C1  UNL d   1       0.790  -1.341   0.758  0.00  0.00    -0.077 A 
ATOM      3  C2  UNL d   1      -0.512  -1.002   1.147  0.00  0.00    -0.001 A 
ATOM      4  C3  UNL d   1      -1.107   0.169   0.674  0.00  0.00     0.003 A 
ATOM      5  C4  UNL d   1      -0.408   1.009  -0.191  0.00  0.00    -0.005 A 
ATOM      6  C5  UNL d   1       0.886   0.678  -0.585  0.00  0.00     0.003 A 
ATOM      7  C6  UNL d   1       1.483  -0.492  -0.113  0.00  0.00    -0.001 A 
ENDROOT
TORSDOF 0
ENDMDL
