MODEL 1
REMARK minimizedAffinity -5.46485424
REMARK minimizedRMSD -1
REMARK  0 active torsions:
REMARK  status: ('A' for Active; 'I' for Inactive)
ROOT
ATOM      1  C   UNL d   1      -0.498   0.636  -0.425  0.00  0.00     0.078 C 
ATOM      2  C1  UNL d   1       0.015  -0.528   0.368  0.00  0.00    -0.077 A 
ATOM      3  C2  UNL d   1      -0.646  -0.961   1.524  0.00  0.00    -0.001 A 
ATOM      4  C3  UNL d   1      -0.152  -2.040   2.258  0.00  0.00     0.003 A 
ATOM      5  C4  UNL d   1       1.007  -2.695   1.846  0.00  0.00    -0.005 A 
ATOM      6  C5  UNL d   1       1.673  -2.270   0.698  0.00  0.00     0.003 A 
ATOM      7  C6  UNL d   1       1.180  -1.191  -0.037  0.00  0.00    -0.001 A 
ENDROOT
TORSDOF 0
ENDMDL
