MODEL 1
REMARK minimizedAffinity -4.05814028
REMARK minimizedRMSD -1
REMARK  0 active torsions:
REMARK  status: ('A' for Active; 'I' for Inactive)
ROOT
ATOM      1  C   UNL d   1       1.200  -3.261   0.930  0.00  0.00     0.078 C 
ATOM      2  C1  UNL d   1       0.870  -1.826   0.650  0.00  0.00    -0.077 A 
ATOM      3  C2  UNL d   1      -0.407  -1.314   0.915  0.00  0.00    -0.001 A 
ATOM      4  C3  UNL d   1      -0.703   0.022   0.641  0.00  0.00     0.003 A 
ATOM      5  C4  UNL d   1       0.272   0.858   0.099  0.00  0.00    -0.005 A 
ATOM      6  C5  UNL d   1       1.544   0.357  -0.170  0.00  0.00     0.003 A 
ATOM      7  C6  UNL d   1       1.842  -0.979   0.104  0.00  0.00    -0.001 A 
ENDROOT
TORSDOF 0
ENDMDL
