MODEL 1
REMARK minimizedAffinity -5.04345846
REMARK minimizedRMSD -1
REMARK  0 active torsions:
REMARK  status: ('A' for Active; 'I' for Inactive)
ROOT
ATOM      1  C   UNL d   1      -0.870   0.863  -0.409  0.00  0.00     0.078 C 
ATOM      2  C1  UNL d   1       0.028  -0.267  -0.001  0.00  0.00    -0.077 A 
ATOM      3  C2  UNL d   1       1.414  -0.187  -0.180  0.00  0.00    -0.001 A 
ATOM      4  C3  UNL d   1       2.237  -1.250   0.196  0.00  0.00     0.003 A 
ATOM      5  C4  UNL d   1       1.683  -2.401   0.752  0.00  0.00    -0.005 A 
ATOM      6  C5  UNL d   1       0.304  -2.491   0.932  0.00  0.00     0.003 A 
ATOM      7  C6  UNL d   1      -0.520  -1.429   0.557  0.00  0.00    -0.001 A 
ENDROOT
TORSDOF 0
ENDMDL
