MODEL 1
REMARK minimizedAffinity -0.372056484
REMARK minimizedRMSD -1
REMARK  1 active torsions:
REMARK  status: ('A' for Active; 'I' for Inactive)
REMARK    1  A    between atoms: N_2  and  C1_3 
ROOT
ATOM      1  C1  UNL d   1       0.304  -2.155   1.963  0.00  0.00     0.143 A 
ATOM      2  C2  UNL d   1      -0.482  -1.080   1.535  0.00  0.00    -0.057 A 
ATOM      3  C3  UNL d   1      -0.122  -0.316   0.419  0.00  0.00     0.033 A 
ATOM      4  C4  UNL d   1       1.051  -0.597  -0.274  0.00  0.00    -0.042 A 
ATOM      5  C5  UNL d   1       1.861  -1.646   0.148  0.00  0.00     0.033 A 
ATOM      6  C6  UNL d   1       1.492  -2.409   1.260  0.00  0.00    -0.057 A 
ENDROOT
BRANCH   1   7
ATOM      7  N   UNL d   1       0.050  -2.890   3.124  0.00  0.00    -0.732 N 
ATOM      8  C   UNL d   1       1.141  -3.427   3.910  0.00  0.00     0.284 C 
ATOM      9  H3  UNL d   1      -0.705  -2.493   3.678  0.00  0.00     0.395 HD
ENDBRANCH   1   7
TORSDOF 1
ENDMDL
