MODEL 1
REMARK minimizedAffinity 3.12523556
REMARK minimizedRMSD -1
REMARK  1 active torsions:
REMARK  status: ('A' for Active; 'I' for Inactive)
REMARK    1  A    between atoms: N_2  and  C1_3 
ROOT
ATOM      1  C1  UNL d   1       2.496  -1.478   0.668  0.00  0.00     0.143 A 
ATOM      2  C2  UNL d   1       3.300  -2.600   0.442  0.00  0.00    -0.057 A 
ATOM      3  C3  UNL d   1       4.662  -2.594   0.763  0.00  0.00     0.033 A 
ATOM      4  C4  UNL d   1       5.253  -1.451   1.291  0.00  0.00    -0.042 A 
ATOM      5  C5  UNL d   1       4.479  -0.316   1.502  0.00  0.00     0.033 A 
ATOM      6  C6  UNL d   1       3.117  -0.330   1.185  0.00  0.00    -0.057 A 
ENDROOT
BRANCH   1   7
ATOM      7  N   UNL d   1       1.157  -1.389   0.279  0.00  0.00    -0.732 N 
ATOM      8  C   UNL d   1       0.347  -0.259   0.680  0.00  0.00     0.284 C 
ATOM      9  H3  UNL d   1       1.012  -1.684  -0.683  0.00  0.00     0.395 HD
ENDBRANCH   1   7
TORSDOF 1
ENDMDL
