MODEL 1
REMARK minimizedAffinity 0.570298433
REMARK minimizedRMSD -1
REMARK  1 active torsions:
REMARK  status: ('A' for Active; 'I' for Inactive)
REMARK    1  A    between atoms: N_2  and  C1_3 
ROOT
ATOM      1  C1  UNL d   1      -3.640  -3.576  -5.658  0.00  0.00     0.143 A 
ATOM      2  C2  UNL d   1      -4.300  -4.787  -5.892  0.00  0.00    -0.057 A 
ATOM      3  C3  UNL d   1      -3.593  -5.991  -5.999  0.00  0.00     0.033 A 
ATOM      4  C4  UNL d   1      -2.205  -6.000  -5.903  0.00  0.00    -0.042 A 
ATOM      5  C5  UNL d   1      -1.526  -4.804  -5.695  0.00  0.00     0.033 A 
ATOM      6  C6  UNL d   1      -2.239  -3.607  -5.582  0.00  0.00    -0.057 A 
ENDROOT
BRANCH   1   7
ATOM      7  N   UNL d   1      -4.279  -2.334  -5.640  0.00  0.00    -0.732 N 
ATOM      8  C   UNL d   1      -4.227  -1.495  -4.461  0.00  0.00     0.284 C 
ATOM      9  H3  UNL d   1      -4.168  -1.827  -6.515  0.00  0.00     0.395 HD
ENDBRANCH   1   7
TORSDOF 1
ENDMDL
