MODEL 1
REMARK minimizedAffinity -1.34543717
REMARK minimizedRMSD -1
REMARK  1 active torsions:
REMARK  status: ('A' for Active; 'I' for Inactive)
REMARK    1  A    between atoms: N_2  and  C1_3 
ROOT
ATOM      1  C1  UNL d   1      -2.798  -5.221  -5.449  0.00  0.00     0.143 A 
ATOM      2  C2  UNL d   1      -1.618  -4.707  -5.999  0.00  0.00    -0.057 A 
ATOM      3  C3  UNL d   1      -0.388  -4.859  -5.348  0.00  0.00     0.033 A 
ATOM      4  C4  UNL d   1      -0.321  -5.504  -4.117  0.00  0.00    -0.042 A 
ATOM      5  C5  UNL d   1      -1.484  -6.000  -3.540  0.00  0.00     0.033 A 
ATOM      6  C6  UNL d   1      -2.709  -5.851  -4.199  0.00  0.00    -0.057 A 
ENDROOT
BRANCH   1   7
ATOM      7  N   UNL d   1      -4.066  -5.016  -6.000  0.00  0.00    -0.732 N 
ATOM      8  C   UNL d   1      -5.113  -5.999  -5.824  0.00  0.00     0.284 C 
ATOM      9  H3  UNL d   1      -4.380  -4.053  -5.906  0.00  0.00     0.395 HD
ENDBRANCH   1   7
TORSDOF 1
ENDMDL
