MODEL 1
REMARK minimizedAffinity 0.8352108
REMARK minimizedRMSD -1
REMARK  1 active torsions:
REMARK  status: ('A' for Active; 'I' for Inactive)
REMARK    1  A    between atoms: N_2  and  C1_3 
ROOT
ATOM      1  C1  UNL d   1      -1.610  -0.690  -0.318  0.00  0.00     0.143 A 
ATOM      2  C2  UNL d   1      -2.767   0.075  -0.507  0.00  0.00    -0.057 A 
ATOM      3  C3  UNL d   1      -3.823  -0.391  -1.300  0.00  0.00     0.033 A 
ATOM      4  C4  UNL d   1      -3.728  -1.620  -1.944  0.00  0.00    -0.042 A 
ATOM      5  C5  UNL d   1      -2.577  -2.386  -1.790  0.00  0.00     0.033 A 
ATOM      6  C6  UNL d   1      -1.529  -1.919  -0.991  0.00  0.00    -0.057 A 
ENDROOT
BRANCH   1   7
ATOM      7  N   UNL d   1      -0.486  -0.239   0.379  0.00  0.00    -0.732 N 
ATOM      8  C   UNL d   1       0.817  -0.815   0.125  0.00  0.00     0.284 C 
ATOM      9  H3  UNL d   1      -0.479   0.771   0.493  0.00  0.00     0.395 HD
ENDBRANCH   1   7
TORSDOF 1
ENDMDL
