MODEL 1
REMARK minimizedAffinity 2.22050524
REMARK minimizedRMSD -1
REMARK  1 active torsions:
REMARK  status: ('A' for Active; 'I' for Inactive)
REMARK    1  A    between atoms: N_2  and  C1_3 
ROOT
ATOM      1  C1  UNL d   1      -1.297  -1.607  -0.223  0.00  0.00     0.143 A 
ATOM      2  C2  UNL d   1      -0.109  -2.344  -0.166  0.00  0.00    -0.057 A 
ATOM      3  C3  UNL d   1       1.053  -1.806   0.401  0.00  0.00     0.033 A 
ATOM      4  C4  UNL d   1       1.055  -0.506   0.895  0.00  0.00    -0.042 A 
ATOM      5  C5  UNL d   1      -0.107   0.254   0.825  0.00  0.00     0.033 A 
ATOM      6  C6  UNL d   1      -1.266  -0.291   0.265  0.00  0.00    -0.057 A 
ENDROOT
BRANCH   1   7
ATOM      7  N   UNL d   1      -2.457  -2.050  -0.863  0.00  0.00    -0.732 N 
ATOM      8  C   UNL d   1      -3.649  -1.229  -0.880  0.00  0.00     0.284 C 
ATOM      9  H3  UNL d   1      -2.261  -2.516  -1.745  0.00  0.00     0.395 HD
ENDBRANCH   1   7
TORSDOF 1
ENDMDL
