MODEL 1
REMARK minimizedAffinity 7.11911058
REMARK minimizedRMSD -1
REMARK  1 active torsions:
REMARK  status: ('A' for Active; 'I' for Inactive)
REMARK    1  A    between atoms: N_2  and  C1_3 
ROOT
ATOM      1  C1  UNL d   1       0.002  -2.412   2.494  0.00  0.00     0.143 A 
ATOM      2  C2  UNL d   1       1.295  -2.933   2.619  0.00  0.00    -0.057 A 
ATOM      3  C3  UNL d   1       1.744  -3.480   3.827  0.00  0.00     0.033 A 
ATOM      4  C4  UNL d   1       0.915  -3.489   4.944  0.00  0.00    -0.042 A 
ATOM      5  C5  UNL d   1      -0.365  -2.954   4.850  0.00  0.00     0.033 A 
ATOM      6  C6  UNL d   1      -0.810  -2.415   3.639  0.00  0.00    -0.057 A 
ENDROOT
BRANCH   1   7
ATOM      7  N   UNL d   1      -0.468  -1.765   1.348  0.00  0.00    -0.732 N 
ATOM      8  C   UNL d   1       0.446  -1.079   0.461  0.00  0.00     0.284 C 
ATOM      9  H3  UNL d   1      -1.190  -2.300   0.870  0.00  0.00     0.395 HD
ENDBRANCH   1   7
TORSDOF 1
ENDMDL
