MODEL 1
REMARK minimizedAffinity 2.47641325
REMARK minimizedRMSD -1
REMARK  1 active torsions:
REMARK  status: ('A' for Active; 'I' for Inactive)
REMARK    1  A    between atoms: N_2  and  C1_3 
ROOT
ATOM      1  C1  UNL d   1       1.924   2.097  -2.950  0.00  0.00     0.143 A 
ATOM      2  C2  UNL d   1       2.491   1.185  -3.847  0.00  0.00    -0.057 A 
ATOM      3  C3  UNL d   1       3.876   1.125  -4.043  0.00  0.00     0.033 A 
ATOM      4  C4  UNL d   1       4.719   1.998  -3.364  0.00  0.00    -0.042 A 
ATOM      5  C5  UNL d   1       4.176   2.929  -2.486  0.00  0.00     0.033 A 
ATOM      6  C6  UNL d   1       2.793   2.980  -2.290  0.00  0.00    -0.057 A 
ENDROOT
BRANCH   1   7
ATOM      7  N   UNL d   1       0.548   2.272  -2.785  0.00  0.00    -0.732 N 
ATOM      8  C   UNL d   1      -0.248   2.882  -3.829  0.00  0.00     0.284 C 
ATOM      9  H3  UNL d   1       0.105   1.472  -2.338  0.00  0.00     0.395 HD
ENDBRANCH   1   7
TORSDOF 1
ENDMDL
