MODEL 1
REMARK minimizedAffinity 4.20534515
REMARK minimizedRMSD -1
REMARK  1 active torsions:
REMARK  status: ('A' for Active; 'I' for Inactive)
REMARK    1  A    between atoms: N_2  and  C1_3 
ROOT
ATOM      1  C1  UNL d   1       0.378  -2.156   2.181  0.00  0.00     0.143 A 
ATOM      2  C2  UNL d   1       1.455  -2.929   2.626  0.00  0.00    -0.057 A 
ATOM      3  C3  UNL d   1       1.468  -3.485   3.912  0.00  0.00     0.033 A 
ATOM      4  C4  UNL d   1       0.412  -3.251   4.787  0.00  0.00    -0.042 A 
ATOM      5  C5  UNL d   1      -0.657  -2.465   4.374  0.00  0.00     0.033 A 
ATOM      6  C6  UNL d   1      -0.667  -1.918   3.087  0.00  0.00    -0.057 A 
ENDROOT
BRANCH   1   7
ATOM      7  N   UNL d   1       0.352  -1.495   0.950  0.00  0.00    -0.732 N 
ATOM      8  C   UNL d   1      -0.306  -0.213   0.816  0.00  0.00     0.284 C 
ATOM      9  H3  UNL d   1       1.238  -1.561   0.455  0.00  0.00     0.395 HD
ENDBRANCH   1   7
TORSDOF 1
ENDMDL
