MODEL 1
REMARK minimizedAffinity 6.07638884
REMARK minimizedRMSD -1
REMARK  1 active torsions:
REMARK  status: ('A' for Active; 'I' for Inactive)
REMARK    1  A    between atoms: N_2  and  C1_3 
ROOT
ATOM      1  C1  UNL d   1      -0.163  -2.351   2.305  0.00  0.00     0.143 A 
ATOM      2  C2  UNL d   1      -1.306  -2.729   1.592  0.00  0.00    -0.057 A 
ATOM      3  C3  UNL d   1      -1.603  -2.163   0.346  0.00  0.00     0.033 A 
ATOM      4  C4  UNL d   1      -0.775  -1.187  -0.197  0.00  0.00    -0.042 A 
ATOM      5  C5  UNL d   1       0.353  -0.778   0.506  0.00  0.00     0.033 A 
ATOM      6  C6  UNL d   1       0.648  -1.351   1.746  0.00  0.00    -0.057 A 
ENDROOT
BRANCH   1   7
ATOM      7  N   UNL d   1       0.135  -2.804   3.593  0.00  0.00    -0.732 N 
ATOM      8  C   UNL d   1       1.432  -3.372   3.893  0.00  0.00     0.284 C 
ATOM      9  H3  UNL d   1      -0.225  -2.185   4.315  0.00  0.00     0.395 HD
ENDBRANCH   1   7
TORSDOF 1
ENDMDL
