MODEL 1
REMARK minimizedAffinity 9.89683723
REMARK minimizedRMSD -1
REMARK  1 active torsions:
REMARK  status: ('A' for Active; 'I' for Inactive)
REMARK    1  A    between atoms: N_2  and  C1_3 
ROOT
ATOM      1  C1  UNL d   1      -3.303   3.943  -1.966  0.00  0.00     0.143 A 
ATOM      2  C2  UNL d   1      -2.237   3.114  -1.601  0.00  0.00    -0.057 A 
ATOM      3  C3  UNL d   1      -1.403   2.535  -2.566  0.00  0.00     0.033 A 
ATOM      4  C4  UNL d   1      -1.640   2.753  -3.919  0.00  0.00    -0.042 A 
ATOM      5  C5  UNL d   1      -2.710   3.554  -4.306  0.00  0.00     0.033 A 
ATOM      6  C6  UNL d   1      -3.534   4.134  -3.337  0.00  0.00    -0.057 A 
ENDROOT
BRANCH   1   7
ATOM      7  N   UNL d   1      -4.227   4.467  -1.059  0.00  0.00    -0.732 N 
ATOM      8  C   UNL d   1      -5.576   3.948  -0.997  0.00  0.00     0.284 C 
ATOM      9  H3  UNL d   1      -3.813   4.657  -0.149  0.00  0.00     0.395 HD
ENDBRANCH   1   7
TORSDOF 1
ENDMDL
