MODEL 1
REMARK minimizedAffinity -1.40923047
REMARK minimizedRMSD -1
REMARK  1 active torsions:
REMARK  status: ('A' for Active; 'I' for Inactive)
REMARK    1  A    between atoms: N_2  and  C1_3 
ROOT
ATOM      1  C1  UNL d   1       1.379   2.657  -3.743  0.00  0.00     0.143 A 
ATOM      2  C2  UNL d   1       1.338   1.504  -2.952  0.00  0.00    -0.057 A 
ATOM      3  C3  UNL d   1       2.501   0.972  -2.382  0.00  0.00     0.033 A 
ATOM      4  C4  UNL d   1       3.735   1.570  -2.619  0.00  0.00    -0.042 A 
ATOM      5  C5  UNL d   1       3.803   2.702  -3.423  0.00  0.00     0.033 A 
ATOM      6  C6  UNL d   1       2.637   3.232  -3.983  0.00  0.00    -0.057 A 
ENDROOT
BRANCH   1   7
ATOM      7  N   UNL d   1       0.272   3.177  -4.418  0.00  0.00    -0.732 N 
ATOM      8  C   UNL d   1      -0.997   3.332  -3.741  0.00  0.00     0.284 C 
ATOM      9  H3  UNL d   1       0.518   3.957  -5.024  0.00  0.00     0.395 HD
ENDBRANCH   1   7
TORSDOF 1
ENDMDL
