MODEL 1
REMARK minimizedAffinity 5.97997808
REMARK minimizedRMSD -1
REMARK  1 active torsions:
REMARK  status: ('A' for Active; 'I' for Inactive)
REMARK    1  A    between atoms: N_2  and  C1_3 
ROOT
ATOM      1  C1  UNL d   1       1.983   0.374  -1.269  0.00  0.00     0.143 A 
ATOM      2  C2  UNL d   1       2.075   1.213  -0.153  0.00  0.00    -0.057 A 
ATOM      3  C3  UNL d   1       1.319   0.971   1.001  0.00  0.00     0.033 A 
ATOM      4  C4  UNL d   1       0.433  -0.101   1.048  0.00  0.00    -0.042 A 
ATOM      5  C5  UNL d   1       0.307  -0.932  -0.059  0.00  0.00     0.033 A 
ATOM      6  C6  UNL d   1       1.070  -0.690  -1.206  0.00  0.00    -0.057 A 
ENDROOT
BRANCH   1   7
ATOM      7  N   UNL d   1       2.634   0.618  -2.481  0.00  0.00    -0.732 N 
ATOM      8  C   UNL d   1       3.792   1.485  -2.534  0.00  0.00     0.284 C 
ATOM      9  H3  UNL d   1       2.714  -0.218  -3.054  0.00  0.00     0.395 HD
ENDBRANCH   1   7
TORSDOF 1
ENDMDL
