MODEL 1
REMARK minimizedAffinity -2.86192918
REMARK minimizedRMSD -1
REMARK  1 active torsions:
REMARK  status: ('A' for Active; 'I' for Inactive)
REMARK    1  A    between atoms: N_2  and  C1_3 
ROOT
ATOM      1  C1  UNL d   1      -4.100  -3.568  -5.884  0.00  0.00     0.143 A 
ATOM      2  C2  UNL d   1      -4.698  -4.827  -6.000  0.00  0.00    -0.057 A 
ATOM      3  C3  UNL d   1      -3.934  -6.000  -5.977  0.00  0.00     0.033 A 
ATOM      4  C4  UNL d   1      -2.549  -5.932  -5.867  0.00  0.00    -0.042 A 
ATOM      5  C5  UNL d   1      -1.930  -4.691  -5.775  0.00  0.00     0.033 A 
ATOM      6  C6  UNL d   1      -2.700  -3.523  -5.791  0.00  0.00    -0.057 A 
ENDROOT
BRANCH   1   7
ATOM      7  N   UNL d   1      -4.796  -2.362  -5.998  0.00  0.00    -0.732 N 
ATOM      8  C   UNL d   1      -4.165  -1.110  -5.639  0.00  0.00     0.284 C 
ATOM      9  H3  UNL d   1      -5.357  -2.317  -6.845  0.00  0.00     0.395 HD
ENDBRANCH   1   7
TORSDOF 1
ENDMDL
