MODEL 1
REMARK minimizedAffinity -0.726149738
REMARK minimizedRMSD -1
REMARK  1 active torsions:
REMARK  status: ('A' for Active; 'I' for Inactive)
REMARK    1  A    between atoms: N_2  and  C1_3 
ROOT
ATOM      1  C1  UNL d   1       0.214  -1.973   2.171  0.00  0.00     0.143 A 
ATOM      2  C2  UNL d   1       1.409  -2.667   2.391  0.00  0.00    -0.057 A 
ATOM      3  C3  UNL d   1       1.672  -3.289   3.617  0.00  0.00     0.033 A 
ATOM      4  C4  UNL d   1       0.755  -3.202   4.659  0.00  0.00    -0.042 A 
ATOM      5  C5  UNL d   1      -0.428  -2.496   4.472  0.00  0.00     0.033 A 
ATOM      6  C6  UNL d   1      -0.689  -1.883   3.242  0.00  0.00    -0.057 A 
ENDROOT
BRANCH   1   7
ATOM      7  N   UNL d   1      -0.063  -1.251   1.008  0.00  0.00    -0.732 N 
ATOM      8  C   UNL d   1       0.701  -0.069   0.674  0.00  0.00     0.284 C 
ATOM      9  H3  UNL d   1      -0.262  -1.855   0.214  0.00  0.00     0.395 HD
ENDBRANCH   1   7
TORSDOF 1
ENDMDL
