MODEL 1
REMARK minimizedAffinity -2.21345067
REMARK minimizedRMSD -1
REMARK  1 active torsions:
REMARK  status: ('A' for Active; 'I' for Inactive)
REMARK    1  A    between atoms: N_2  and  C1_3 
ROOT
ATOM      1  C1  UNL d   1       2.428   3.873  -5.202  0.00  0.00     0.143 A 
ATOM      2  C2  UNL d   1       2.826   2.532  -5.246  0.00  0.00    -0.057 A 
ATOM      3  C3  UNL d   1       4.124   2.172  -5.627  0.00  0.00     0.033 A 
ATOM      4  C4  UNL d   1       5.043   3.148  -5.999  0.00  0.00    -0.042 A 
ATOM      5  C5  UNL d   1       4.662   4.485  -5.987  0.00  0.00     0.033 A 
ATOM      6  C6  UNL d   1       3.366   4.839  -5.599  0.00  0.00    -0.057 A 
ENDROOT
BRANCH   1   7
ATOM      7  N   UNL d   1       1.123   4.288  -4.927  0.00  0.00    -0.732 N 
ATOM      8  C   UNL d   1       0.174   4.496  -6.000  0.00  0.00     0.284 C 
ATOM      9  H3  UNL d   1       0.732   3.825  -4.110  0.00  0.00     0.395 HD
ENDBRANCH   1   7
TORSDOF 1
ENDMDL
