MODEL 1
REMARK minimizedAffinity -3.14203
REMARK minimizedRMSD -1
REMARK  1 active torsions:
REMARK  status: ('A' for Active; 'I' for Inactive)
REMARK    1  A    between atoms: N_2  and  C1_3 
ROOT
ATOM      1  C1  UNL d   1       3.023   3.611  -5.651  0.00  0.00     0.143 A 
ATOM      2  C2  UNL d   1       3.649   4.814  -5.996  0.00  0.00    -0.057 A 
ATOM      3  C3  UNL d   1       5.044   4.932  -5.998  0.00  0.00     0.033 A 
ATOM      4  C4  UNL d   1       5.840   3.853  -5.626  0.00  0.00    -0.042 A 
ATOM      5  C5  UNL d   1       5.239   2.655  -5.255  0.00  0.00     0.033 A 
ATOM      6  C6  UNL d   1       3.845   2.542  -5.262  0.00  0.00    -0.057 A 
ENDROOT
BRANCH   1   7
ATOM      7  N   UNL d   1       1.639   3.460  -5.535  0.00  0.00    -0.732 N 
ATOM      8  C   UNL d   1       0.743   4.501  -5.990  0.00  0.00     0.284 C 
ATOM      9  H3  UNL d   1       1.331   2.517  -5.763  0.00  0.00     0.395 HD
ENDBRANCH   1   7
TORSDOF 1
ENDMDL
