MODEL 1
REMARK minimizedAffinity 2.09972835
REMARK minimizedRMSD -1
REMARK  1 active torsions:
REMARK  status: ('A' for Active; 'I' for Inactive)
REMARK    1  A    between atoms: N_2  and  C1_3 
ROOT
ATOM      1  C1  UNL d   1       3.274   0.752   0.812  0.00  0.00     0.143 A 
ATOM      2  C2  UNL d   1       4.346   0.131   1.463  0.00  0.00    -0.057 A 
ATOM      3  C3  UNL d   1       5.486   0.854   1.836  0.00  0.00     0.033 A 
ATOM      4  C4  UNL d   1       5.586   2.209   1.538  0.00  0.00    -0.042 A 
ATOM      5  C5  UNL d   1       4.544   2.841   0.870  0.00  0.00     0.033 A 
ATOM      6  C6  UNL d   1       3.405   2.115   0.506  0.00  0.00    -0.057 A 
ENDROOT
BRANCH   1   7
ATOM      7  N   UNL d   1       2.157   0.068   0.328  0.00  0.00    -0.732 N 
ATOM      8  C   UNL d   1       2.314  -1.129  -0.471  0.00  0.00     0.284 C 
ATOM      9  H3  UNL d   1       1.407   0.014   1.014  0.00  0.00     0.395 HD
ENDBRANCH   1   7
TORSDOF 1
ENDMDL
