MODEL 1
REMARK minimizedAffinity -1.18508029
REMARK minimizedRMSD -1
REMARK  1 active torsions:
REMARK  status: ('A' for Active; 'I' for Inactive)
REMARK    1  A    between atoms: N_2  and  C1_3 
ROOT
ATOM      1  C1  UNL d   1       2.495   4.001  -5.238  0.00  0.00     0.143 A 
ATOM      2  C2  UNL d   1       3.498   4.762  -5.849  0.00  0.00    -0.057 A 
ATOM      3  C3  UNL d   1       4.798   4.263  -5.999  0.00  0.00     0.033 A 
ATOM      4  C4  UNL d   1       5.126   3.001  -5.514  0.00  0.00    -0.042 A 
ATOM      5  C5  UNL d   1       4.151   2.237  -4.882  0.00  0.00     0.033 A 
ATOM      6  C6  UNL d   1       2.853   2.738  -4.741  0.00  0.00    -0.057 A 
ENDROOT
BRANCH   1   7
ATOM      7  N   UNL d   1       1.210   4.478  -4.971  0.00  0.00    -0.732 N 
ATOM      8  C   UNL d   1       0.192   4.470  -5.999  0.00  0.00     0.284 C 
ATOM      9  H3  UNL d   1       0.875   4.199  -4.052  0.00  0.00     0.395 HD
ENDBRANCH   1   7
TORSDOF 1
ENDMDL
