MODEL 1
REMARK minimizedAffinity -3.85886621
REMARK minimizedRMSD -1
REMARK  1 active torsions:
REMARK  status: ('A' for Active; 'I' for Inactive)
REMARK    1  A    between atoms: N_2  and  C1_3 
ROOT
ATOM      1  C1  UNL d   1       3.645   4.036  -5.417  0.00  0.00     0.143 A 
ATOM      2  C2  UNL d   1       3.274   5.360  -5.160  0.00  0.00    -0.057 A 
ATOM      3  C3  UNL d   1       1.927   5.732  -5.070  0.00  0.00     0.033 A 
ATOM      4  C4  UNL d   1       0.924   4.788  -5.265  0.00  0.00    -0.042 A 
ATOM      5  C5  UNL d   1       1.269   3.471  -5.546  0.00  0.00     0.033 A 
ATOM      6  C6  UNL d   1       2.616   3.105  -5.628  0.00  0.00    -0.057 A 
ENDROOT
BRANCH   1   7
ATOM      7  N   UNL d   1       4.965   3.622  -5.616  0.00  0.00    -0.732 N 
ATOM      8  C   UNL d   1       5.985   4.574  -5.999  0.00  0.00     0.284 C 
ATOM      9  H3  UNL d   1       5.268   2.945  -4.921  0.00  0.00     0.395 HD
ENDBRANCH   1   7
TORSDOF 1
ENDMDL
