MODEL 1
REMARK minimizedAffinity -2.92489934
REMARK minimizedRMSD -1
REMARK  1 active torsions:
REMARK  status: ('A' for Active; 'I' for Inactive)
REMARK    1  A    between atoms: N_2  and  C1_3 
ROOT
ATOM      1  C1  UNL d   1       2.672   4.509  -5.207  0.00  0.00     0.143 A 
ATOM      2  C2  UNL d   1       3.041   3.160  -5.221  0.00  0.00    -0.057 A 
ATOM      3  C3  UNL d   1       4.332   2.764  -5.591  0.00  0.00     0.033 A 
ATOM      4  C4  UNL d   1       5.271   3.712  -5.982  0.00  0.00    -0.042 A 
ATOM      5  C5  UNL d   1       4.919   5.057  -6.000  0.00  0.00     0.033 A 
ATOM      6  C6  UNL d   1       3.630   5.447  -5.623  0.00  0.00    -0.057 A 
ENDROOT
BRANCH   1   7
ATOM      7  N   UNL d   1       1.375   4.958  -4.944  0.00  0.00    -0.732 N 
ATOM      8  C   UNL d   1       0.387   5.014  -6.000  0.00  0.00     0.284 C 
ATOM      9  H3  UNL d   1       1.017   4.613  -4.057  0.00  0.00     0.395 HD
ENDBRANCH   1   7
TORSDOF 1
ENDMDL
