MODEL 1
REMARK minimizedAffinity -1.05346501
REMARK minimizedRMSD -1
REMARK  1 active torsions:
REMARK  status: ('A' for Active; 'I' for Inactive)
REMARK    1  A    between atoms: N_2  and  C1_3 
ROOT
ATOM      1  C1  UNL d   1       2.424   3.712  -5.212  0.00  0.00     0.143 A 
ATOM      2  C2  UNL d   1       2.848   2.379  -5.248  0.00  0.00    -0.057 A 
ATOM      3  C3  UNL d   1       4.154   2.043  -5.624  0.00  0.00     0.033 A 
ATOM      4  C4  UNL d   1       5.053   3.035  -6.000  0.00  0.00    -0.042 A 
ATOM      5  C5  UNL d   1       4.646   4.364  -5.996  0.00  0.00     0.033 A 
ATOM      6  C6  UNL d   1       3.343   4.695  -5.612  0.00  0.00    -0.057 A 
ENDROOT
BRANCH   1   7
ATOM      7  N   UNL d   1       1.110   4.103  -4.942  0.00  0.00    -0.732 N 
ATOM      8  C   UNL d   1       0.125   4.157  -6.000  0.00  0.00     0.284 C 
ATOM      9  H3  UNL d   1       0.762   3.716  -4.068  0.00  0.00     0.395 HD
ENDBRANCH   1   7
TORSDOF 1
ENDMDL
