MODEL 1
REMARK minimizedAffinity -1.03619027
REMARK minimizedRMSD -1
REMARK  1 active torsions:
REMARK  status: ('A' for Active; 'I' for Inactive)
REMARK    1  A    between atoms: N_2  and  C1_3 
ROOT
ATOM      1  C1  UNL d   1       3.424   3.625  -5.642  0.00  0.00     0.143 A 
ATOM      2  C2  UNL d   1       2.066   3.434  -5.365  0.00  0.00    -0.057 A 
ATOM      3  C3  UNL d   1       1.156   4.495  -5.430  0.00  0.00     0.033 A 
ATOM      4  C4  UNL d   1       1.593   5.777  -5.745  0.00  0.00    -0.042 A 
ATOM      5  C5  UNL d   1       2.942   5.995  -6.000  0.00  0.00     0.033 A 
ATOM      6  C6  UNL d   1       3.846   4.930  -5.941  0.00  0.00    -0.057 A 
ENDROOT
BRANCH   1   7
ATOM      7  N   UNL d   1       4.395   2.631  -5.499  0.00  0.00    -0.732 N 
ATOM      8  C   UNL d   1       4.249   1.597  -4.497  0.00  0.00     0.284 C 
ATOM      9  H3  UNL d   1       4.743   2.296  -6.395  0.00  0.00     0.395 HD
ENDBRANCH   1   7
TORSDOF 1
ENDMDL
