MODEL 1
REMARK minimizedAffinity 6.46417332
REMARK minimizedRMSD -1
REMARK  1 active torsions:
REMARK  status: ('A' for Active; 'I' for Inactive)
REMARK    1  A    between atoms: N_2  and  C1_3 
ROOT
ATOM      1  C1  UNL d   1       3.664   1.490   0.965  0.00  0.00     0.143 A 
ATOM      2  C2  UNL d   1       3.300   0.311   1.624  0.00  0.00    -0.057 A 
ATOM      3  C3  UNL d   1       4.262  -0.518   2.213  0.00  0.00     0.033 A 
ATOM      4  C4  UNL d   1       5.613  -0.196   2.127  0.00  0.00    -0.042 A 
ATOM      5  C5  UNL d   1       5.999   0.958   1.454  0.00  0.00     0.033 A 
ATOM      6  C6  UNL d   1       5.033   1.785   0.874  0.00  0.00    -0.057 A 
ENDROOT
BRANCH   1   7
ATOM      7  N   UNL d   1       2.763   2.305   0.274  0.00  0.00    -0.732 N 
ATOM      8  C   UNL d   1       1.382   2.402   0.698  0.00  0.00     0.284 C 
ATOM      9  H3  UNL d   1       3.176   3.192  -0.003  0.00  0.00     0.395 HD
ENDBRANCH   1   7
TORSDOF 1
ENDMDL
