MODEL 1
REMARK minimizedAffinity -1.28797734
REMARK minimizedRMSD -1
REMARK  1 active torsions:
REMARK  status: ('A' for Active; 'I' for Inactive)
REMARK    1  A    between atoms: N_2  and  C1_3 
ROOT
ATOM      1  C1  UNL d   1       2.023   4.493  -4.792  0.00  0.00     0.143 A 
ATOM      2  C2  UNL d   1       2.477   3.917  -3.601  0.00  0.00    -0.057 A 
ATOM      3  C3  UNL d   1       3.506   2.968  -3.599  0.00  0.00     0.033 A 
ATOM      4  C4  UNL d   1       4.081   2.554  -4.796  0.00  0.00    -0.042 A 
ATOM      5  C5  UNL d   1       3.628   3.094  -5.995  0.00  0.00     0.033 A 
ATOM      6  C6  UNL d   1       2.605   4.047  -5.989  0.00  0.00    -0.057 A 
ENDROOT
BRANCH   1   7
ATOM      7  N   UNL d   1       0.938   5.369  -4.869  0.00  0.00    -0.732 N 
ATOM      8  C   UNL d   1       0.029   5.320  -5.994  0.00  0.00     0.284 C 
ATOM      9  H3  UNL d   1       0.479   5.498  -3.970  0.00  0.00     0.395 HD
ENDBRANCH   1   7
TORSDOF 1
ENDMDL
