MODEL 1
REMARK minimizedAffinity -2.52751684
REMARK minimizedRMSD -1
REMARK  1 active torsions:
REMARK  status: ('A' for Active; 'I' for Inactive)
REMARK    1  A    between atoms: N_2  and  C1_3 
ROOT
ATOM      1  C1  UNL d   1       4.008   4.550  -5.810  0.00  0.00     0.143 A 
ATOM      2  C2  UNL d   1       3.119   5.628  -5.752  0.00  0.00    -0.057 A 
ATOM      3  C3  UNL d   1       1.735   5.425  -5.693  0.00  0.00     0.033 A 
ATOM      4  C4  UNL d   1       1.213   4.136  -5.721  0.00  0.00    -0.042 A 
ATOM      5  C5  UNL d   1       2.077   3.050  -5.804  0.00  0.00     0.033 A 
ATOM      6  C6  UNL d   1       3.459   3.259  -5.856  0.00  0.00    -0.057 A 
ENDROOT
BRANCH   1   7
ATOM      7  N   UNL d   1       5.389   4.688  -5.970  0.00  0.00    -0.732 N 
ATOM      8  C   UNL d   1       6.000   6.000  -6.000  0.00  0.00     0.284 C 
ATOM      9  H3  UNL d   1       5.913   3.998  -5.437  0.00  0.00     0.395 HD
ENDBRANCH   1   7
TORSDOF 1
ENDMDL
