MODEL 1
REMARK minimizedAffinity -2.68082404
REMARK minimizedRMSD -1
REMARK  1 active torsions:
REMARK  status: ('A' for Active; 'I' for Inactive)
REMARK    1  A    between atoms: N_2  and  C1_3 
ROOT
ATOM      1  C1  UNL d   1       3.377   3.552  -5.830  0.00  0.00     0.143 A 
ATOM      2  C2  UNL d   1       4.034   4.775  -6.000  0.00  0.00    -0.057 A 
ATOM      3  C3  UNL d   1       3.340   5.989  -5.927  0.00  0.00     0.033 A 
ATOM      4  C4  UNL d   1       1.966   6.000  -5.712  0.00  0.00    -0.042 A 
ATOM      5  C5  UNL d   1       1.288   4.795  -5.565  0.00  0.00     0.033 A 
ATOM      6  C6  UNL d   1       1.987   3.586  -5.632  0.00  0.00    -0.057 A 
ENDROOT
BRANCH   1   7
ATOM      7  N   UNL d   1       3.993   2.309  -5.988  0.00  0.00    -0.732 N 
ATOM      8  C   UNL d   1       4.050   1.369  -4.890  0.00  0.00     0.284 C 
ATOM      9  H3  UNL d   1       3.784   1.884  -6.889  0.00  0.00     0.395 HD
ENDBRANCH   1   7
TORSDOF 1
ENDMDL
