MODEL 1
REMARK minimizedAffinity -1.92896903
REMARK minimizedRMSD -1
REMARK  1 active torsions:
REMARK  status: ('A' for Active; 'I' for Inactive)
REMARK    1  A    between atoms: N_2  and  C1_3 
ROOT
ATOM      1  C1  UNL d   1       2.496   4.108  -5.429  0.00  0.00     0.143 A 
ATOM      2  C2  UNL d   1       3.254   2.985  -5.080  0.00  0.00    -0.057 A 
ATOM      3  C3  UNL d   1       4.651   2.998  -5.162  0.00  0.00     0.033 A 
ATOM      4  C4  UNL d   1       5.316   4.130  -5.623  0.00  0.00    -0.042 A 
ATOM      5  C5  UNL d   1       4.582   5.249  -5.999  0.00  0.00     0.033 A 
ATOM      6  C6  UNL d   1       3.187   5.232  -5.909  0.00  0.00    -0.057 A 
ENDROOT
BRANCH   1   7
ATOM      7  N   UNL d   1       1.099   4.124  -5.463  0.00  0.00    -0.732 N 
ATOM      8  C   UNL d   1       0.388   5.264  -6.000  0.00  0.00     0.284 C 
ATOM      9  H3  UNL d   1       0.707   3.225  -5.733  0.00  0.00     0.395 HD
ENDBRANCH   1   7
TORSDOF 1
ENDMDL
