MODEL 1
REMARK minimizedAffinity 11.1076012
REMARK minimizedRMSD -1
REMARK  2 active torsions:
REMARK  status: ('A' for Active; 'I' for Inactive)
REMARK    1  A    between atoms: C2'_3  and  C1'_4 
REMARK    2  A    between atoms: C1'_4  and  C1_5 
ROOT
ATOM      1  C1  I4B d   1      -5.476   4.508   1.115  0.00  0.00    -0.075 A 
ATOM      2  C2  I4B d   1      -4.535   3.732   0.486  0.00  0.00     0.003 A 
ATOM      3  C3  I4B d   1      -4.086   4.069  -0.814  0.00  0.00     0.002 A 
ATOM      4  C4  I4B d   1      -4.639   5.154  -1.464  0.00  0.00    -0.004 A 
ATOM      5  C5  I4B d   1      -5.576   5.953  -0.815  0.00  0.00     0.002 A 
ATOM      6  C6  I4B d   1      -5.989   5.635   0.487  0.00  0.00     0.003 A 
ENDROOT
BRANCH   1   7
ATOM      7  C1' I4B d   1      -5.952   4.104   2.474  0.00  0.00     0.060 C 
BRANCH   7   8
ATOM      8  C2' I4B d   1      -5.158   4.889   3.499  0.00  0.00    -0.013 C 
ATOM      9  C4' I4B d   1      -5.986   5.995   4.099  0.00  0.00     0.013 C 
ATOM     10  C3' I4B d   1      -4.688   3.931   4.553  0.00  0.00     0.013 C 
ENDBRANCH   7   8
ENDBRANCH   1   7
TORSDOF 2
ENDMDL
