MODEL 1
REMARK minimizedAffinity 9.36578655
REMARK minimizedRMSD -1
REMARK  2 active torsions:
REMARK  status: ('A' for Active; 'I' for Inactive)
REMARK    1  A    between atoms: C2'_3  and  C1'_4 
REMARK    2  A    between atoms: C1'_4  and  C1_5 
ROOT
ATOM      1  C1  I4B d   1       3.924   4.005   2.237  0.00  0.00    -0.075 A 
ATOM      2  C2  I4B d   1       4.121   5.357   2.104  0.00  0.00     0.003 A 
ATOM      3  C3  I4B d   1       5.162   5.999   2.817  0.00  0.00     0.002 A 
ATOM      4  C4  I4B d   1       5.946   5.265   3.684  0.00  0.00    -0.004 A 
ATOM      5  C5  I4B d   1       5.760   3.891   3.800  0.00  0.00     0.002 A 
ATOM      6  C6  I4B d   1       4.751   3.254   3.063  0.00  0.00     0.003 A 
ENDROOT
BRANCH   1   7
ATOM      7  C1' I4B d   1       2.794   3.365   1.495  0.00  0.00     0.060 C 
BRANCH   7   8
ATOM      8  C2' I4B d   1       2.659   1.939   1.990  0.00  0.00    -0.013 C 
ATOM      9  C4' I4B d   1       1.256   1.656   2.459  0.00  0.00     0.013 C 
ATOM     10  C3' I4B d   1       3.051   1.021   0.871  0.00  0.00     0.013 C 
ENDBRANCH   7   8
ENDBRANCH   1   7
TORSDOF 2
ENDMDL
