MODEL 1
REMARK minimizedAffinity 23.6384563
REMARK minimizedRMSD -1
REMARK  2 active torsions:
REMARK  status: ('A' for Active; 'I' for Inactive)
REMARK    1  A    between atoms: C2'_3  and  C1'_4 
REMARK    2  A    between atoms: C1'_4  and  C1_5 
ROOT
ATOM      1  C1  I4B d   1      -1.972   0.490   3.340  0.00  0.00    -0.075 A 
ATOM      2  C2  I4B d   1      -1.980   1.862   3.343  0.00  0.00     0.003 A 
ATOM      3  C3  I4B d   1      -3.175   2.569   3.060  0.00  0.00     0.002 A 
ATOM      4  C4  I4B d   1      -4.317   1.867   2.733  0.00  0.00    -0.004 A 
ATOM      5  C5  I4B d   1      -4.313   0.476   2.753  0.00  0.00     0.002 A 
ATOM      6  C6  I4B d   1      -3.136  -0.218   3.071  0.00  0.00     0.003 A 
ENDROOT
BRANCH   1   7
ATOM      7  C1' I4B d   1      -0.685  -0.223   3.611  0.00  0.00     0.060 C 
BRANCH   7   8
ATOM      8  C2' I4B d   1       0.359   0.816   3.965  0.00  0.00    -0.013 C 
ATOM      9  C4' I4B d   1       0.922   0.575   5.341  0.00  0.00     0.013 C 
ATOM     10  C3' I4B d   1       1.435   0.764   2.922  0.00  0.00     0.013 C 
ENDBRANCH   7   8
ENDBRANCH   1   7
TORSDOF 2
ENDMDL
