MODEL 1
REMARK minimizedAffinity 11.3349609
REMARK minimizedRMSD -1
REMARK  2 active torsions:
REMARK  status: ('A' for Active; 'I' for Inactive)
REMARK    1  A    between atoms: C2'_3  and  C1'_4 
REMARK    2  A    between atoms: C1'_4  and  C1_5 
ROOT
ATOM      1  C1  I4B d   1      -3.393  -3.421  -2.021  0.00  0.00    -0.075 A 
ATOM      2  C2  I4B d   1      -2.722  -4.610  -2.162  0.00  0.00     0.003 A 
ATOM      3  C3  I4B d   1      -3.232  -5.619  -3.015  0.00  0.00     0.002 A 
ATOM      4  C4  I4B d   1      -4.433  -5.418  -3.663  0.00  0.00    -0.004 A 
ATOM      5  C5  I4B d   1      -5.100  -4.202  -3.537  0.00  0.00     0.002 A 
ATOM      6  C6  I4B d   1      -4.571  -3.193  -2.720  0.00  0.00     0.003 A 
ENDROOT
BRANCH   1   7
ATOM      7  C1' I4B d   1      -2.843  -2.390  -1.086  0.00  0.00     0.060 C 
BRANCH   7   8
ATOM      8  C2' I4B d   1      -2.337  -3.104   0.151  0.00  0.00    -0.013 C 
ATOM      9  C4' I4B d   1      -1.252  -2.313   0.832  0.00  0.00     0.013 C 
ATOM     10  C3' I4B d   1      -3.503  -3.324   1.068  0.00  0.00     0.013 C 
ENDBRANCH   7   8
ENDBRANCH   1   7
TORSDOF 2
ENDMDL
