MODEL 1
REMARK minimizedAffinity 2.93061328
REMARK minimizedRMSD -1
REMARK  2 active torsions:
REMARK  status: ('A' for Active; 'I' for Inactive)
REMARK    1  A    between atoms: C2'_3  and  C1'_4 
REMARK    2  A    between atoms: C1'_4  and  C1_5 
ROOT
ATOM      1  C1  I4B d   1       3.623   3.839  -4.930  0.00  0.00    -0.075 A 
ATOM      2  C2  I4B d   1       2.254   3.809  -4.832  0.00  0.00     0.003 A 
ATOM      3  C3  I4B d   1       1.480   4.883  -5.335  0.00  0.00     0.002 A 
ATOM      4  C4  I4B d   1       2.113   5.981  -5.879  0.00  0.00    -0.004 A 
ATOM      5  C5  I4B d   1       3.500   6.000  -5.999  0.00  0.00     0.002 A 
ATOM      6  C6  I4B d   1       4.260   4.917  -5.532  0.00  0.00     0.003 A 
ENDROOT
BRANCH   1   7
ATOM      7  C1' I4B d   1       4.412   2.704  -4.359  0.00  0.00     0.060 C 
BRANCH   7   8
ATOM      8  C2' I4B d   1       5.445   3.282  -3.414  0.00  0.00    -0.013 C 
ATOM      9  C4' I4B d   1       5.063   4.671  -2.972  0.00  0.00     0.013 C 
ATOM     10  C3' I4B d   1       5.570   2.356  -2.241  0.00  0.00     0.013 C 
ENDBRANCH   7   8
ENDBRANCH   1   7
TORSDOF 2
ENDMDL
