MODEL 1
REMARK minimizedAffinity 11.1784277
REMARK minimizedRMSD -1
REMARK  2 active torsions:
REMARK  status: ('A' for Active; 'I' for Inactive)
REMARK    1  A    between atoms: C2'_3  and  C1'_4 
REMARK    2  A    between atoms: C1'_4  and  C1_5 
ROOT
ATOM      1  C1  I4B d   1       1.618   0.869   2.272  0.00  0.00    -0.075 A 
ATOM      2  C2  I4B d   1       2.730   0.156   2.644  0.00  0.00     0.003 A 
ATOM      3  C3  I4B d   1       3.680  -0.242   1.672  0.00  0.00     0.002 A 
ATOM      4  C4  I4B d   1       3.454   0.048   0.343  0.00  0.00    -0.004 A 
ATOM      5  C5  I4B d   1       2.338   0.791  -0.030  0.00  0.00     0.002 A 
ATOM      6  C6  I4B d   1       1.420   1.215   0.941  0.00  0.00     0.003 A 
ENDROOT
BRANCH   1   7
ATOM      7  C1' I4B d   1       0.618   1.245   3.319  0.00  0.00     0.060 C 
BRANCH   7   8
ATOM      8  C2' I4B d   1       0.664   0.192   4.407  0.00  0.00    -0.013 C 
ATOM      9  C4' I4B d   1       0.607   0.818   5.776  0.00  0.00     0.013 C 
ATOM     10  C3' I4B d   1      -0.487  -0.746   4.193  0.00  0.00     0.013 C 
ENDBRANCH   7   8
ENDBRANCH   1   7
TORSDOF 2
ENDMDL
