MODEL 1
REMARK minimizedAffinity 5.63417196
REMARK minimizedRMSD -1
REMARK  2 active torsions:
REMARK  status: ('A' for Active; 'I' for Inactive)
REMARK    1  A    between atoms: C2'_3  and  C1'_4 
REMARK    2  A    between atoms: C1'_4  and  C1_5 
ROOT
ATOM      1  C1  I4B d   1      -1.494  -2.723  -2.383  0.00  0.00    -0.075 A 
ATOM      2  C2  I4B d   1      -1.574  -1.957  -1.247  0.00  0.00     0.003 A 
ATOM      3  C3  I4B d   1      -0.503  -1.942  -0.321  0.00  0.00     0.002 A 
ATOM      4  C4  I4B d   1       0.599  -2.741  -0.543  0.00  0.00    -0.004 A 
ATOM      5  C5  I4B d   1       0.689  -3.500  -1.707  0.00  0.00     0.002 A 
ATOM      6  C6  I4B d   1      -0.359  -3.482  -2.639  0.00  0.00     0.003 A 
ENDROOT
BRANCH   1   7
ATOM      7  C1' I4B d   1      -2.656  -2.741  -3.324  0.00  0.00     0.060 C 
BRANCH   7   8
ATOM      8  C2' I4B d   1      -3.864  -3.249  -2.564  0.00  0.00    -0.013 C 
ATOM      9  C4' I4B d   1      -5.073  -3.338  -3.458  0.00  0.00     0.013 C 
ATOM     10  C3' I4B d   1      -3.518  -4.589  -1.986  0.00  0.00     0.013 C 
ENDBRANCH   7   8
ENDBRANCH   1   7
TORSDOF 2
ENDMDL
