MODEL 1
REMARK minimizedAffinity 19.651844
REMARK minimizedRMSD -1
REMARK  2 active torsions:
REMARK  status: ('A' for Active; 'I' for Inactive)
REMARK    1  A    between atoms: C2'_3  and  C1'_4 
REMARK    2  A    between atoms: C1'_4  and  C1_5 
ROOT
ATOM      1  C1  I4B d   1      -4.702   0.015   3.833  0.00  0.00    -0.075 A 
ATOM      2  C2  I4B d   1      -4.952  -1.334   3.783  0.00  0.00     0.003 A 
ATOM      3  C3  I4B d   1      -5.634  -1.972   4.848  0.00  0.00     0.002 A 
ATOM      4  C4  I4B d   1      -5.999  -1.238   5.958  0.00  0.00    -0.004 A 
ATOM      5  C5  I4B d   1      -5.764   0.134   5.996  0.00  0.00     0.002 A 
ATOM      6  C6  I4B d   1      -5.122   0.767   4.922  0.00  0.00     0.003 A 
ENDROOT
BRANCH   1   7
ATOM      7  C1' I4B d   1      -3.951   0.650   2.705  0.00  0.00     0.060 C 
BRANCH   7   8
ATOM      8  C2' I4B d   1      -3.418   1.982   3.192  0.00  0.00    -0.013 C 
ATOM      9  C4' I4B d   1      -1.933   2.092   2.963  0.00  0.00     0.013 C 
ATOM     10  C3' I4B d   1      -4.158   3.068   2.471  0.00  0.00     0.013 C 
ENDBRANCH   7   8
ENDBRANCH   1   7
TORSDOF 2
ENDMDL
