MODEL 1
REMARK minimizedAffinity 12.5441179
REMARK minimizedRMSD -1
REMARK  2 active torsions:
REMARK  status: ('A' for Active; 'I' for Inactive)
REMARK    1  A    between atoms: C2'_3  and  C1'_4 
REMARK    2  A    between atoms: C1'_4  and  C1_5 
ROOT
ATOM      1  C1  I4B d   1      -2.299  -3.011  -3.676  0.00  0.00    -0.075 A 
ATOM      2  C2  I4B d   1      -2.532  -3.708  -4.835  0.00  0.00     0.003 A 
ATOM      3  C3  I4B d   1      -1.757  -3.447  -5.992  0.00  0.00     0.002 A 
ATOM      4  C4  I4B d   1      -0.801  -2.453  -5.959  0.00  0.00    -0.004 A 
ATOM      5  C5  I4B d   1      -0.551  -1.763  -4.776  0.00  0.00     0.002 A 
ATOM      6  C6  I4B d   1      -1.296  -2.052  -3.624  0.00  0.00     0.003 A 
ENDROOT
BRANCH   1   7
ATOM      7  C1' I4B d   1      -3.158  -3.289  -2.483  0.00  0.00     0.060 C 
BRANCH   7   8
ATOM      8  C2' I4B d   1      -4.119  -4.402  -2.849  0.00  0.00    -0.013 C 
ATOM      9  C4' I4B d   1      -4.082  -5.511  -1.831  0.00  0.00     0.013 C 
ATOM     10  C3' I4B d   1      -5.493  -3.810  -2.956  0.00  0.00     0.013 C 
ENDBRANCH   7   8
ENDBRANCH   1   7
TORSDOF 2
ENDMDL
