MODEL 1
REMARK minimizedAffinity 12.6655293
REMARK minimizedRMSD -1
REMARK  2 active torsions:
REMARK  status: ('A' for Active; 'I' for Inactive)
REMARK    1  A    between atoms: C2'_3  and  C1'_4 
REMARK    2  A    between atoms: C1'_4  and  C1_5 
ROOT
ATOM      1  C1  I4B d   1      -3.459  -3.192  -2.373  0.00  0.00    -0.075 A 
ATOM      2  C2  I4B d   1      -2.897  -3.035  -3.615  0.00  0.00     0.003 A 
ATOM      3  C3  I4B d   1      -1.652  -2.376  -3.756  0.00  0.00     0.002 A 
ATOM      4  C4  I4B d   1      -1.032  -1.850  -2.641  0.00  0.00    -0.004 A 
ATOM      5  C5  I4B d   1      -1.592  -2.031  -1.380  0.00  0.00     0.002 A 
ATOM      6  C6  I4B d   1      -2.807  -2.717  -1.243  0.00  0.00     0.003 A 
ENDROOT
BRANCH   1   7
ATOM      7  C1' I4B d   1      -4.792  -3.863  -2.265  0.00  0.00     0.060 C 
BRANCH   7   8
ATOM      8  C2' I4B d   1      -4.590  -5.344  -2.516  0.00  0.00    -0.013 C 
ATOM      9  C4' I4B d   1      -3.846  -5.994  -1.379  0.00  0.00     0.013 C 
ATOM     10  C3' I4B d   1      -5.940  -5.969  -2.707  0.00  0.00     0.013 C 
ENDBRANCH   7   8
ENDBRANCH   1   7
TORSDOF 2
ENDMDL
