MODEL 1
REMARK minimizedAffinity -2.3243022
REMARK minimizedRMSD -1
REMARK  2 active torsions:
REMARK  status: ('A' for Active; 'I' for Inactive)
REMARK    1  A    between atoms: C1_2  and  C2_3 
REMARK    2  A    between atoms: C2_3  and  C3_4 
ROOT
ATOM      1  C3  UNL d   1      -0.547   0.740  -0.353  0.00  0.00    -0.075 A 
ATOM      2  C4  UNL d   1       0.423  -0.217  -0.021  0.00  0.00     0.002 A 
ATOM      3  C5  UNL d   1       0.047  -1.515   0.327  0.00  0.00     0.002 A 
ATOM      4  C6  UNL d   1      -1.300  -1.868   0.357  0.00  0.00    -0.004 A 
ATOM      5  C7  UNL d   1      -2.273  -0.921   0.045  0.00  0.00     0.002 A 
ATOM      6  C8  UNL d   1      -1.899   0.377  -0.308  0.00  0.00     0.002 A 
ENDROOT
BRANCH   1   7
ATOM      7  C2  UNL d   1      -0.145   2.138  -0.759  0.00  0.00     0.056 C 
BRANCH   7   8
ATOM      8  C1  UNL d   1       0.685   2.200  -2.046  0.00  0.00     0.007 C 
ATOM      9  C   UNL d   1      -0.149   2.021  -3.308  0.00  0.00     0.009 C 
ENDBRANCH   7   8
ENDBRANCH   1   7
TORSDOF 2
ENDMDL
