MODEL 1
REMARK minimizedAffinity -0.514820576
REMARK minimizedRMSD -1
REMARK  2 active torsions:
REMARK  status: ('A' for Active; 'I' for Inactive)
REMARK    1  A    between atoms: C1_2  and  C2_3 
REMARK    2  A    between atoms: C2_3  and  C3_4 
ROOT
ATOM      1  C3  UNL d   1       1.555   0.063   0.768  0.00  0.00    -0.075 A 
ATOM      2  C4  UNL d   1       2.030  -1.255   0.825  0.00  0.00     0.002 A 
ATOM      3  C5  UNL d   1       3.360  -1.514   1.159  0.00  0.00     0.002 A 
ATOM      4  C6  UNL d   1       4.231  -0.462   1.429  0.00  0.00    -0.004 A 
ATOM      5  C7  UNL d   1       3.774   0.852   1.359  0.00  0.00     0.002 A 
ATOM      6  C8  UNL d   1       2.443   1.115   1.029  0.00  0.00     0.002 A 
ENDROOT
BRANCH   1   7
ATOM      7  C2  UNL d   1       0.109   0.349   0.436  0.00  0.00     0.056 C 
BRANCH   7   8
ATOM      8  C1  UNL d   1      -0.563  -0.737  -0.411  0.00  0.00     0.007 C 
ATOM      9  C   UNL d   1      -0.389  -0.523  -1.909  0.00  0.00     0.009 C 
ENDBRANCH   7   8
ENDBRANCH   1   7
TORSDOF 2
ENDMDL
