MODEL 1
REMARK minimizedAffinity -4.10764456
REMARK minimizedRMSD -1
REMARK  2 active torsions:
REMARK  status: ('A' for Active; 'I' for Inactive)
REMARK    1  A    between atoms: C1_2  and  C2_3 
REMARK    2  A    between atoms: C2_3  and  C3_4 
ROOT
ATOM      1  C3  UNL d   1      -0.131  -0.536  -0.325  0.00  0.00    -0.075 A 
ATOM      2  C4  UNL d   1      -1.183  -1.014  -1.121  0.00  0.00     0.002 A 
ATOM      3  C5  UNL d   1      -2.019  -2.030  -0.655  0.00  0.00     0.002 A 
ATOM      4  C6  UNL d   1      -1.808  -2.587   0.605  0.00  0.00    -0.004 A 
ATOM      5  C7  UNL d   1      -0.756  -2.131   1.396  0.00  0.00     0.002 A 
ATOM      6  C8  UNL d   1       0.079  -1.112   0.935  0.00  0.00     0.002 A 
ENDROOT
BRANCH   1   7
ATOM      7  C2  UNL d   1       0.758   0.583  -0.812  0.00  0.00     0.056 C 
BRANCH   7   8
ATOM      8  C1  UNL d   1       0.302   1.214  -2.131  0.00  0.00     0.007 C 
ATOM      9  C   UNL d   1       1.444   1.453  -3.109  0.00  0.00     0.009 C 
ENDBRANCH   7   8
ENDBRANCH   1   7
TORSDOF 2
ENDMDL
