MODEL 1
REMARK minimizedAffinity -5.4649601
REMARK minimizedRMSD -1
REMARK  2 active torsions:
REMARK  status: ('A' for Active; 'I' for Inactive)
REMARK    1  A    between atoms: C1_2  and  C2_3 
REMARK    2  A    between atoms: C2_3  and  C3_4 
ROOT
ATOM      1  C3  UNL d   1       0.428  -1.431   0.659  0.00  0.00    -0.075 A 
ATOM      2  C4  UNL d   1      -0.109  -2.527   1.350  0.00  0.00     0.002 A 
ATOM      3  C5  UNL d   1      -1.488  -2.735   1.388  0.00  0.00     0.002 A 
ATOM      4  C6  UNL d   1      -2.347  -1.846   0.746  0.00  0.00    -0.004 A 
ATOM      5  C7  UNL d   1      -1.826  -0.745   0.070  0.00  0.00     0.002 A 
ATOM      6  C8  UNL d   1      -0.446  -0.537   0.027  0.00  0.00     0.002 A 
ENDROOT
BRANCH   1   7
ATOM      7  C2  UNL d   1       1.921  -1.217   0.589  0.00  0.00     0.056 C 
BRANCH   7   8
ATOM      8  C1  UNL d   1       2.385   0.131   1.150  0.00  0.00     0.007 C 
ATOM      9  C   UNL d   1       3.870   0.164   1.483  0.00  0.00     0.009 C 
ENDBRANCH   7   8
ENDBRANCH   1   7
TORSDOF 2
ENDMDL
