MODEL 1
REMARK minimizedAffinity -4.75749969
REMARK minimizedRMSD -1
REMARK  2 active torsions:
REMARK  status: ('A' for Active; 'I' for Inactive)
REMARK    1  A    between atoms: C1_2  and  C2_3 
REMARK    2  A    between atoms: C2_3  and  C3_4 
ROOT
ATOM      1  C3  UNL d   1       0.722  -1.141   0.675  0.00  0.00    -0.075 A 
ATOM      2  C4  UNL d   1      -0.096  -0.002   0.678  0.00  0.00     0.002 A 
ATOM      3  C5  UNL d   1      -1.485  -0.129   0.666  0.00  0.00     0.002 A 
ATOM      4  C6  UNL d   1      -2.073  -1.391   0.641  0.00  0.00    -0.004 A 
ATOM      5  C7  UNL d   1      -1.270  -2.529   0.622  0.00  0.00     0.002 A 
ATOM      6  C8  UNL d   1       0.121  -2.406   0.638  0.00  0.00     0.002 A 
ENDROOT
BRANCH   1   7
ATOM      7  C2  UNL d   1       2.226  -1.012   0.718  0.00  0.00     0.056 C 
BRANCH   7   8
ATOM      8  C1  UNL d   1       2.721   0.342   1.237  0.00  0.00     0.007 C 
ATOM      9  C   UNL d   1       4.035   0.247   2.003  0.00  0.00     0.009 C 
ENDBRANCH   7   8
ENDBRANCH   1   7
TORSDOF 2
ENDMDL
