MODEL 1
REMARK minimizedAffinity -3.8783741
REMARK minimizedRMSD -1
REMARK  2 active torsions:
REMARK  status: ('A' for Active; 'I' for Inactive)
REMARK    1  A    between atoms: C1_2  and  C2_3 
REMARK    2  A    between atoms: C2_3  and  C3_4 
ROOT
ATOM      1  C3  UNL d   1       0.282  -0.045  -0.211  0.00  0.00    -0.075 A 
ATOM      2  C4  UNL d   1       0.741  -1.367  -0.119  0.00  0.00     0.002 A 
ATOM      3  C5  UNL d   1       0.113  -2.277   0.732  0.00  0.00     0.002 A 
ATOM      4  C6  UNL d   1      -0.972  -1.876   1.507  0.00  0.00    -0.004 A 
ATOM      5  C7  UNL d   1      -1.426  -0.561   1.437  0.00  0.00     0.002 A 
ATOM      6  C8  UNL d   1      -0.803   0.351   0.583  0.00  0.00     0.002 A 
ENDROOT
BRANCH   1   7
ATOM      7  C2  UNL d   1       0.939   0.937  -1.151  0.00  0.00     0.056 C 
BRANCH   7   8
ATOM      8  C1  UNL d   1      -0.036   1.920  -1.807  0.00  0.00     0.007 C 
ATOM      9  C   UNL d   1       0.150   2.036  -3.314  0.00  0.00     0.009 C 
ENDBRANCH   7   8
ENDBRANCH   1   7
TORSDOF 2
ENDMDL
