MODEL 1
REMARK minimizedAffinity -0.0661677867
REMARK minimizedRMSD -1
REMARK  2 active torsions:
REMARK  status: ('A' for Active; 'I' for Inactive)
REMARK    1  A    between atoms: C1_2  and  C2_3 
REMARK    2  A    between atoms: C2_3  and  C3_4 
ROOT
ATOM      1  C3  UNL d   1      -1.505   0.032   0.369  0.00  0.00    -0.075 A 
ATOM      2  C4  UNL d   1      -0.728  -1.051  -0.066  0.00  0.00     0.002 A 
ATOM      3  C5  UNL d   1      -0.500  -2.142   0.775  0.00  0.00     0.002 A 
ATOM      4  C6  UNL d   1      -1.037  -2.158   2.060  0.00  0.00    -0.004 A 
ATOM      5  C7  UNL d   1      -1.797  -1.080   2.508  0.00  0.00     0.002 A 
ATOM      6  C8  UNL d   1      -2.030   0.011   1.668  0.00  0.00     0.002 A 
ENDROOT
BRANCH   1   7
ATOM      7  C2  UNL d   1      -1.779   1.202  -0.546  0.00  0.00     0.056 C 
BRANCH   7   8
ATOM      8  C1  UNL d   1      -0.785   1.335  -1.704  0.00  0.00     0.007 C 
ATOM      9  C   UNL d   1      -0.903   2.658  -2.448  0.00  0.00     0.009 C 
ENDBRANCH   7   8
ENDBRANCH   1   7
TORSDOF 2
ENDMDL
