MODEL 1
REMARK minimizedAffinity -3.29088068
REMARK minimizedRMSD -1
REMARK  2 active torsions:
REMARK  status: ('A' for Active; 'I' for Inactive)
REMARK    1  A    between atoms: C1_2  and  C2_3 
REMARK    2  A    between atoms: C2_3  and  C3_4 
ROOT
ATOM      1  C3  UNL d   1       0.026  -2.063   1.607  0.00  0.00    -0.075 A 
ATOM      2  C4  UNL d   1       1.018  -2.088   0.616  0.00  0.00     0.002 A 
ATOM      3  C5  UNL d   1       1.315  -0.939  -0.118  0.00  0.00     0.002 A 
ATOM      4  C6  UNL d   1       0.619   0.243   0.122  0.00  0.00    -0.004 A 
ATOM      5  C7  UNL d   1      -0.380   0.276   1.092  0.00  0.00     0.002 A 
ATOM      6  C8  UNL d   1      -0.676  -0.871   1.831  0.00  0.00     0.002 A 
ENDROOT
BRANCH   1   7
ATOM      7  C2  UNL d   1      -0.280  -3.294   2.426  0.00  0.00     0.056 C 
BRANCH   7   8
ATOM      8  C1  UNL d   1      -0.799  -2.993   3.836  0.00  0.00     0.007 C 
ATOM      9  C   UNL d   1       0.313  -2.715   4.838  0.00  0.00     0.009 C 
ENDBRANCH   7   8
ENDBRANCH   1   7
TORSDOF 2
ENDMDL
