MODEL 1
REMARK minimizedAffinity -2.45780492
REMARK minimizedRMSD -1
REMARK  2 active torsions:
REMARK  status: ('A' for Active; 'I' for Inactive)
REMARK    1  A    between atoms: C1_2  and  C2_3 
REMARK    2  A    between atoms: C2_3  and  C3_4 
ROOT
ATOM      1  C3  UNL d   1      -0.433  -1.688   2.020  0.00  0.00    -0.075 A 
ATOM      2  C4  UNL d   1      -0.977  -2.970   2.190  0.00  0.00     0.002 A 
ATOM      3  C5  UNL d   1      -1.808  -3.248   3.275  0.00  0.00     0.002 A 
ATOM      4  C6  UNL d   1      -2.096  -2.255   4.208  0.00  0.00    -0.004 A 
ATOM      5  C7  UNL d   1      -1.548  -0.983   4.058  0.00  0.00     0.002 A 
ATOM      6  C8  UNL d   1      -0.720  -0.700   2.971  0.00  0.00     0.002 A 
ENDROOT
BRANCH   1   7
ATOM      7  C2  UNL d   1       0.444  -1.372   0.831  0.00  0.00     0.056 C 
BRANCH   7   8
ATOM      8  C1  UNL d   1       1.074   0.024   0.874  0.00  0.00     0.007 C 
ATOM      9  C   UNL d   1       2.591  -0.007   1.007  0.00  0.00     0.009 C 
ENDBRANCH   7   8
ENDBRANCH   1   7
TORSDOF 2
ENDMDL
