MODEL 1
REMARK minimizedAffinity -1.04442549
REMARK minimizedRMSD -1
REMARK  2 active torsions:
REMARK  status: ('A' for Active; 'I' for Inactive)
REMARK    1  A    between atoms: C1_2  and  C2_3 
REMARK    2  A    between atoms: C2_3  and  C3_4 
ROOT
ATOM      1  C3  UNL d   1      -1.018  -0.037  -0.675  0.00  0.00    -0.075 A 
ATOM      2  C4  UNL d   1      -1.410  -0.747   0.469  0.00  0.00     0.002 A 
ATOM      3  C5  UNL d   1      -0.465  -1.420   1.243  0.00  0.00     0.002 A 
ATOM      4  C6  UNL d   1       0.880  -1.401   0.879  0.00  0.00    -0.004 A 
ATOM      5  C7  UNL d   1       1.279  -0.712  -0.264  0.00  0.00     0.002 A 
ATOM      6  C8  UNL d   1       0.336  -0.034  -1.038  0.00  0.00     0.002 A 
ENDROOT
BRANCH   1   7
ATOM      7  C2  UNL d   1      -2.032   0.718  -1.501  0.00  0.00     0.056 C 
BRANCH   7   8
ATOM      8  C1  UNL d   1      -1.607   2.147  -1.857  0.00  0.00     0.007 C 
ATOM      9  C   UNL d   1      -2.002   2.556  -3.270  0.00  0.00     0.009 C 
ENDBRANCH   7   8
ENDBRANCH   1   7
TORSDOF 2
ENDMDL
