MODEL 1
REMARK minimizedAffinity 4.35957336
REMARK minimizedRMSD -1
REMARK  2 active torsions:
REMARK  status: ('A' for Active; 'I' for Inactive)
REMARK    1  A    between atoms: C1_2  and  C2_3 
REMARK    2  A    between atoms: C2_3  and  C3_4 
ROOT
ATOM      1  C3  UNL d   1      -1.867   2.358  -2.117  0.00  0.00    -0.075 A 
ATOM      2  C4  UNL d   1      -0.848   2.666  -3.031  0.00  0.00     0.002 A 
ATOM      3  C5  UNL d   1      -0.965   3.770  -3.875  0.00  0.00     0.002 A 
ATOM      4  C6  UNL d   1      -2.103   4.573  -3.825  0.00  0.00    -0.004 A 
ATOM      5  C7  UNL d   1      -3.128   4.266  -2.933  0.00  0.00     0.002 A 
ATOM      6  C8  UNL d   1      -3.012   3.164  -2.083  0.00  0.00     0.002 A 
ENDROOT
BRANCH   1   7
ATOM      7  C2  UNL d   1      -1.734   1.181  -1.180  0.00  0.00     0.056 C 
BRANCH   7   8
ATOM      8  C1  UNL d   1      -0.288   0.854  -0.792  0.00  0.00     0.007 C 
ATOM      9  C   UNL d   1      -0.181   0.032   0.486  0.00  0.00     0.009 C 
ENDBRANCH   7   8
ENDBRANCH   1   7
TORSDOF 2
ENDMDL
