MODEL 1
REMARK minimizedAffinity 3.94897437
REMARK minimizedRMSD -1
REMARK  2 active torsions:
REMARK  status: ('A' for Active; 'I' for Inactive)
REMARK    1  A    between atoms: C1_2  and  C2_3 
REMARK    2  A    between atoms: C2_3  and  C3_4 
ROOT
ATOM      1  C3  UNL d   1       0.086  -2.382   2.789  0.00  0.00    -0.075 A 
ATOM      2  C4  UNL d   1      -0.805  -2.637   3.841  0.00  0.00     0.002 A 
ATOM      3  C5  UNL d   1      -0.413  -3.423   4.926  0.00  0.00     0.002 A 
ATOM      4  C6  UNL d   1       0.867  -3.970   4.968  0.00  0.00    -0.004 A 
ATOM      5  C7  UNL d   1       1.755  -3.736   3.920  0.00  0.00     0.002 A 
ATOM      6  C8  UNL d   1       1.368  -2.948   2.835  0.00  0.00     0.002 A 
ENDROOT
BRANCH   1   7
ATOM      7  C2  UNL d   1      -0.321  -1.509   1.626  0.00  0.00     0.056 C 
BRANCH   7   8
ATOM      8  C1  UNL d   1       0.853  -1.020   0.772  0.00  0.00     0.007 C 
ATOM      9  C   UNL d   1       0.536   0.242  -0.019  0.00  0.00     0.009 C 
ENDBRANCH   7   8
ENDBRANCH   1   7
TORSDOF 2
ENDMDL
