MODEL 1
REMARK minimizedAffinity 5.08979988
REMARK minimizedRMSD -1
REMARK  2 active torsions:
REMARK  status: ('A' for Active; 'I' for Inactive)
REMARK    1  A    between atoms: C1_2  and  C2_3 
REMARK    2  A    between atoms: C2_3  and  C3_4 
ROOT
ATOM      1  C3  UNL d   1       0.109  -2.173   2.048  0.00  0.00    -0.075 A 
ATOM      2  C4  UNL d   1      -0.776  -1.687   3.022  0.00  0.00     0.002 A 
ATOM      3  C5  UNL d   1      -0.687  -2.129   4.342  0.00  0.00     0.002 A 
ATOM      4  C6  UNL d   1       0.277  -3.067   4.703  0.00  0.00    -0.004 A 
ATOM      5  C7  UNL d   1       1.150  -3.569   3.741  0.00  0.00     0.002 A 
ATOM      6  C8  UNL d   1       1.067  -3.126   2.419  0.00  0.00     0.002 A 
ENDROOT
BRANCH   1   7
ATOM      7  C2  UNL d   1       0.037  -1.677   0.623  0.00  0.00     0.056 C 
BRANCH   7   8
ATOM      8  C1  UNL d   1      -0.643  -0.313   0.471  0.00  0.00     0.007 C 
ATOM      9  C   UNL d   1       0.278   0.856   0.791  0.00  0.00     0.009 C 
ENDBRANCH   7   8
ENDBRANCH   1   7
TORSDOF 2
ENDMDL
