MODEL 1
REMARK minimizedAffinity 5.89953327
REMARK minimizedRMSD -1
REMARK  2 active torsions:
REMARK  status: ('A' for Active; 'I' for Inactive)
REMARK    1  A    between atoms: C1_2  and  C2_3 
REMARK    2  A    between atoms: C2_3  and  C3_4 
ROOT
ATOM      1  C3  UNL d   1       2.627  -0.569   1.229  0.00  0.00    -0.075 A 
ATOM      2  C4  UNL d   1       1.598   0.329   0.909  0.00  0.00     0.002 A 
ATOM      3  C5  UNL d   1       0.361  -0.141   0.465  0.00  0.00     0.002 A 
ATOM      4  C6  UNL d   1       0.141  -1.509   0.327  0.00  0.00    -0.004 A 
ATOM      5  C7  UNL d   1       1.161  -2.409   0.626  0.00  0.00     0.002 A 
ATOM      6  C8  UNL d   1       2.398  -1.943   1.074  0.00  0.00     0.002 A 
ENDROOT
BRANCH   1   7
ATOM      7  C2  UNL d   1       3.958  -0.069   1.738  0.00  0.00     0.056 C 
BRANCH   7   8
ATOM      8  C1  UNL d   1       4.686  -1.056   2.655  0.00  0.00     0.007 C 
ATOM      9  C   UNL d   1       6.000  -1.559   2.073  0.00  0.00     0.009 C 
ENDBRANCH   7   8
ENDBRANCH   1   7
TORSDOF 2
ENDMDL
