MODEL 1
REMARK minimizedAffinity 2.05092072
REMARK minimizedRMSD -1
REMARK  2 active torsions:
REMARK  status: ('A' for Active; 'I' for Inactive)
REMARK    1  A    between atoms: C1_2  and  C2_3 
REMARK    2  A    between atoms: C2_3  and  C3_4 
ROOT
ATOM      1  C3  UNL d   1       0.385  -2.042   1.219  0.00  0.00    -0.075 A 
ATOM      2  C4  UNL d   1       0.865  -2.171  -0.092  0.00  0.00     0.002 A 
ATOM      3  C5  UNL d   1       0.513  -1.239  -1.069  0.00  0.00     0.002 A 
ATOM      4  C6  UNL d   1      -0.330  -0.177  -0.752  0.00  0.00    -0.004 A 
ATOM      5  C7  UNL d   1      -0.827  -0.049   0.543  0.00  0.00     0.002 A 
ATOM      6  C8  UNL d   1      -0.473  -0.977   1.524  0.00  0.00     0.002 A 
ENDROOT
BRANCH   1   7
ATOM      7  C2  UNL d   1       0.785  -3.030   2.289  0.00  0.00     0.056 C 
BRANCH   7   8
ATOM      8  C1  UNL d   1       0.141  -2.767   3.654  0.00  0.00     0.007 C 
ATOM      9  C   UNL d   1       1.032  -3.161   4.825  0.00  0.00     0.009 C 
ENDBRANCH   7   8
ENDBRANCH   1   7
TORSDOF 2
ENDMDL
