MODEL 1
REMARK minimizedAffinity -1.71351755
REMARK minimizedRMSD -1
REMARK  2 active torsions:
REMARK  status: ('A' for Active; 'I' for Inactive)
REMARK    1  A    between atoms: C1_2  and  C2_3 
REMARK    2  A    between atoms: C2_3  and  C3_4 
ROOT
ATOM      1  C3  UNL d   1      -3.167  -3.583  -4.842  0.00  0.00    -0.075 A 
ATOM      2  C4  UNL d   1      -4.441  -3.691  -5.418  0.00  0.00     0.002 A 
ATOM      3  C5  UNL d   1      -4.862  -4.893  -5.987  0.00  0.00     0.002 A 
ATOM      4  C6  UNL d   1      -4.013  -5.997  -5.996  0.00  0.00    -0.004 A 
ATOM      5  C7  UNL d   1      -2.739  -5.897  -5.442  0.00  0.00     0.002 A 
ATOM      6  C8  UNL d   1      -2.317  -4.697  -4.868  0.00  0.00     0.002 A 
ENDROOT
BRANCH   1   7
ATOM      7  C2  UNL d   1      -2.717  -2.293  -4.199  0.00  0.00     0.056 C 
BRANCH   7   8
ATOM      8  C1  UNL d   1      -2.275  -2.445  -2.739  0.00  0.00     0.007 C 
ATOM      9  C   UNL d   1      -3.031  -1.530  -1.785  0.00  0.00     0.009 C 
ENDBRANCH   7   8
ENDBRANCH   1   7
TORSDOF 2
ENDMDL
