MODEL 1
REMARK minimizedAffinity 1.3246057
REMARK minimizedRMSD -1
REMARK  2 active torsions:
REMARK  status: ('A' for Active; 'I' for Inactive)
REMARK    1  A    between atoms: C1_2  and  C2_3 
REMARK    2  A    between atoms: C2_3  and  C3_4 
ROOT
ATOM      1  C3  UNL d   1       0.169  -2.389   2.194  0.00  0.00    -0.075 A 
ATOM      2  C4  UNL d   1      -0.793  -1.872   3.074  0.00  0.00     0.002 A 
ATOM      3  C5  UNL d   1      -0.717  -2.135   4.442  0.00  0.00     0.002 A 
ATOM      4  C6  UNL d   1       0.314  -2.925   4.946  0.00  0.00    -0.004 A 
ATOM      5  C7  UNL d   1       1.266  -3.458   4.079  0.00  0.00     0.002 A 
ATOM      6  C8  UNL d   1       1.194  -3.192   2.710  0.00  0.00     0.002 A 
ENDROOT
BRANCH   1   7
ATOM      7  C2  UNL d   1       0.109  -2.083   0.717  0.00  0.00     0.056 C 
BRANCH   7   8
ATOM      8  C1  UNL d   1       1.178  -1.094   0.240  0.00  0.00     0.007 C 
ATOM      9  C   UNL d   1       2.280  -1.751  -0.581  0.00  0.00     0.009 C 
ENDBRANCH   7   8
ENDBRANCH   1   7
TORSDOF 2
ENDMDL
