MODEL 1
REMARK minimizedAffinity 5.25909281
REMARK minimizedRMSD -1
REMARK  0 active torsions:
REMARK  status: ('A' for Active; 'I' for Inactive)
ROOT
ATOM      1  C   UNL d   1       0.028  -1.024   3.081  0.00  0.00     0.023 A 
ATOM      2  C1  UNL d   1       0.710  -1.427   1.933  0.00  0.00     0.003 A 
ATOM      3  C2  UNL d   1       0.440  -0.815   0.708  0.00  0.00     0.048 A 
ATOM      4  C3  UNL d   1      -0.514   0.200   0.637  0.00  0.00     0.023 A 
ATOM      5  C4  UNL d   1      -1.199   0.607   1.784  0.00  0.00     0.048 A 
ATOM      6  C5  UNL d   1      -0.925  -0.009   3.006  0.00  0.00     0.003 A 
ATOM      7  I   UNL d   1      -0.918   1.113  -1.186  0.00  0.00    -0.146 I 
ENDROOT
TORSDOF 0
ENDMDL
