MODEL 1
REMARK minimizedAffinity -3.3152535
REMARK minimizedRMSD -1
REMARK  0 active torsions:
REMARK  status: ('A' for Active; 'I' for Inactive)
ROOT
ATOM      1  C   UNL d   1       0.452  -0.790   0.990  0.00  0.00     0.023 A 
ATOM      2  C1  UNL d   1      -0.790  -0.166   1.099  0.00  0.00     0.003 A 
ATOM      3  C2  UNL d   1      -1.257   0.649   0.066  0.00  0.00     0.048 A 
ATOM      4  C3  UNL d   1      -0.476   0.835  -1.075  0.00  0.00     0.023 A 
ATOM      5  C4  UNL d   1       0.767   0.212  -1.189  0.00  0.00     0.048 A 
ATOM      6  C5  UNL d   1       1.230  -0.601  -0.153  0.00  0.00     0.003 A 
ATOM      7  I   UNL d   1      -1.169   2.048  -2.614  0.00  0.00    -0.146 I 
ENDROOT
TORSDOF 0
ENDMDL
