MODEL 1
REMARK minimizedAffinity 0.0884664804
REMARK minimizedRMSD -1
REMARK  0 active torsions:
REMARK  status: ('A' for Active; 'I' for Inactive)
ROOT
ATOM      1  C   UNL d   1       1.142  -0.951   0.567  0.00  0.00     0.023 A 
ATOM      2  C1  UNL d   1      -0.086  -0.402   0.939  0.00  0.00     0.003 A 
ATOM      3  C2  UNL d   1      -0.823   0.349   0.021  0.00  0.00     0.048 A 
ATOM      4  C3  UNL d   1      -0.327   0.545  -1.268  0.00  0.00     0.023 A 
ATOM      5  C4  UNL d   1       0.900  -0.003  -1.644  0.00  0.00     0.048 A 
ATOM      6  C5  UNL d   1       1.634  -0.752  -0.723  0.00  0.00     0.003 A 
ATOM      7  I   UNL d   1      -1.422   1.662  -2.636  0.00  0.00    -0.146 I 
ENDROOT
TORSDOF 0
ENDMDL
