MODEL 1
REMARK minimizedAffinity -2.99940348
REMARK minimizedRMSD -1
REMARK  0 active torsions:
REMARK  status: ('A' for Active; 'I' for Inactive)
ROOT
ATOM      1  C   UNL d   1       1.087  -1.189   3.207  0.00  0.00     0.023 A 
ATOM      2  C1  UNL d   1       1.865  -0.324   2.437  0.00  0.00     0.003 A 
ATOM      3  C2  UNL d   1       1.387   0.141   1.210  0.00  0.00     0.048 A 
ATOM      4  C3  UNL d   1       0.130  -0.262   0.760  0.00  0.00     0.023 A 
ATOM      5  C4  UNL d   1      -0.652  -1.127   1.528  0.00  0.00     0.048 A 
ATOM      6  C5  UNL d   1      -0.169  -1.590   2.753  0.00  0.00     0.003 A 
ATOM      7  I   UNL d   1      -0.584   0.429  -1.065  0.00  0.00    -0.146 I 
ENDROOT
TORSDOF 0
ENDMDL
