MODEL 1
REMARK minimizedAffinity -0.803457975
REMARK minimizedRMSD -1
REMARK  0 active torsions:
REMARK  status: ('A' for Active; 'I' for Inactive)
ROOT
ATOM      1  C   UNL d   1      -0.788  -0.489   0.627  0.00  0.00     0.023 A 
ATOM      2  C1  UNL d   1       0.425   0.175   0.444  0.00  0.00     0.003 A 
ATOM      3  C2  UNL d   1       0.555   1.129  -0.567  0.00  0.00     0.048 A 
ATOM      4  C3  UNL d   1      -0.532   1.415  -1.392  0.00  0.00     0.023 A 
ATOM      5  C4  UNL d   1      -1.749   0.754  -1.212  0.00  0.00     0.048 A 
ATOM      6  C5  UNL d   1      -1.874  -0.200  -0.200  0.00  0.00     0.003 A 
ATOM      7  I   UNL d   1      -0.341   2.835  -2.897  0.00  0.00    -0.146 I 
ENDROOT
TORSDOF 0
ENDMDL
