MODEL 1
REMARK minimizedAffinity -1.83694899
REMARK minimizedRMSD -1
REMARK  0 active torsions:
REMARK  status: ('A' for Active; 'I' for Inactive)
ROOT
ATOM      1  C   UNL d   1       1.375  -1.090   2.527  0.00  0.00     0.023 A 
ATOM      2  C1  UNL d   1      -0.006  -0.932   2.417  0.00  0.00     0.003 A 
ATOM      3  C2  UNL d   1      -0.552  -0.319   1.287  0.00  0.00     0.048 A 
ATOM      4  C3  UNL d   1       0.289   0.132   0.271  0.00  0.00     0.023 A 
ATOM      5  C4  UNL d   1       1.672  -0.024   0.376  0.00  0.00     0.048 A 
ATOM      6  C5  UNL d   1       2.213  -0.637   1.508  0.00  0.00     0.003 A 
ATOM      7  I   UNL d   1      -0.521   1.045  -1.412  0.00  0.00    -0.146 I 
ENDROOT
TORSDOF 0
ENDMDL
