MODEL 1
REMARK minimizedAffinity -2.11422777
REMARK minimizedRMSD -1
REMARK  0 active torsions:
REMARK  status: ('A' for Active; 'I' for Inactive)
ROOT
ATOM      1  C   UNL d   1       1.869  -1.023  -0.003  0.00  0.00     0.023 A 
ATOM      2  C1  UNL d   1       1.561  -1.274  -1.341  0.00  0.00     0.003 A 
ATOM      3  C2  UNL d   1       0.656  -0.453  -2.016  0.00  0.00     0.048 A 
ATOM      4  C3  UNL d   1       0.062   0.618  -1.348  0.00  0.00     0.023 A 
ATOM      5  C4  UNL d   1       0.368   0.874  -0.010  0.00  0.00     0.048 A 
ATOM      6  C5  UNL d   1       1.273   0.050   0.661  0.00  0.00     0.003 A 
ATOM      7  I   UNL d   1      -1.286   1.841  -2.351  0.00  0.00    -0.146 I 
ENDROOT
TORSDOF 0
ENDMDL
