MODEL 1
REMARK minimizedAffinity -5.13873863
REMARK minimizedRMSD -1
REMARK  0 active torsions:
REMARK  status: ('A' for Active; 'I' for Inactive)
ROOT
ATOM      1  C   UNL d   1       0.415  -0.738   2.620  0.00  0.00     0.023 A 
ATOM      2  C1  UNL d   1      -0.887  -0.530   2.163  0.00  0.00     0.003 A 
ATOM      3  C2  UNL d   1      -1.108   0.178   0.981  0.00  0.00     0.048 A 
ATOM      4  C3  UNL d   1      -0.024   0.675   0.259  0.00  0.00     0.023 A 
ATOM      5  C4  UNL d   1       1.280   0.469   0.711  0.00  0.00     0.048 A 
ATOM      6  C5  UNL d   1       1.497  -0.239   1.895  0.00  0.00     0.003 A 
ATOM      7  I   UNL d   1      -0.352   1.729  -1.502  0.00  0.00    -0.146 I 
ENDROOT
TORSDOF 0
ENDMDL
