MODEL 1
REMARK minimizedAffinity -1.32531083
REMARK minimizedRMSD -1
REMARK  0 active torsions:
REMARK  status: ('A' for Active; 'I' for Inactive)
ROOT
ATOM      1  C   UNL d   1       6.000   4.296   0.147  0.00  0.00     0.023 A 
ATOM      2  C1  UNL d   1       6.000   3.376   1.196  0.00  0.00     0.003 A 
ATOM      3  C2  UNL d   1       5.429   2.113   1.019  0.00  0.00     0.048 A 
ATOM      4  C3  UNL d   1       4.861   1.777  -0.209  0.00  0.00     0.023 A 
ATOM      5  C4  UNL d   1       4.859   2.694  -1.262  0.00  0.00     0.048 A 
ATOM      6  C5  UNL d   1       5.430   3.955  -1.080  0.00  0.00     0.003 A 
ATOM      7  I   UNL d   1       4.011  -0.101  -0.475  0.00  0.00    -0.146 I 
ENDROOT
TORSDOF 0
ENDMDL
