MODEL 1
REMARK minimizedAffinity 5.14797258
REMARK minimizedRMSD -1
REMARK  0 active torsions:
REMARK  status: ('A' for Active; 'I' for Inactive)
ROOT
ATOM      1  C   UNL d   1       4.690  -0.680  -0.273  0.00  0.00     0.023 A 
ATOM      2  C1  UNL d   1       5.917  -0.020  -0.196  0.00  0.00     0.003 A 
ATOM      3  C2  UNL d   1       5.994   1.347  -0.470  0.00  0.00     0.048 A 
ATOM      4  C3  UNL d   1       4.841   2.048  -0.821  0.00  0.00     0.023 A 
ATOM      5  C4  UNL d   1       3.611   1.392  -0.899  0.00  0.00     0.048 A 
ATOM      6  C5  UNL d   1       3.539   0.025  -0.624  0.00  0.00     0.003 A 
ATOM      7  I   UNL d   1       4.953   4.083  -1.230  0.00  0.00    -0.146 I 
ENDROOT
TORSDOF 0
ENDMDL
