MODEL 1
REMARK minimizedAffinity 14.4765272
REMARK minimizedRMSD -1
REMARK  0 active torsions:
REMARK  status: ('A' for Active; 'I' for Inactive)
ROOT
ATOM      1  C   UNL d   1      -1.171   1.860   0.913  0.00  0.00     0.023 A 
ATOM      2  C1  UNL d   1      -0.972   1.495  -0.419  0.00  0.00     0.003 A 
ATOM      3  C2  UNL d   1       0.206   0.847  -0.798  0.00  0.00     0.048 A 
ATOM      4  C3  UNL d   1       1.179   0.565   0.159  0.00  0.00     0.023 A 
ATOM      5  C4  UNL d   1       0.984   0.928   1.493  0.00  0.00     0.048 A 
ATOM      6  C5  UNL d   1      -0.194   1.576   1.867  0.00  0.00     0.003 A 
ATOM      7  I   UNL d   1       2.932  -0.399  -0.403  0.00  0.00    -0.146 I 
ENDROOT
TORSDOF 0
ENDMDL
