MODEL 1
REMARK minimizedAffinity 5.82491589
REMARK minimizedRMSD -1
REMARK  0 active torsions:
REMARK  status: ('A' for Active; 'I' for Inactive)
ROOT
ATOM      1  C   UNL d   1       3.553  -0.935  -0.446  0.00  0.00     0.023 A 
ATOM      2  C1  UNL d   1       2.677  -0.805  -1.523  0.00  0.00     0.003 A 
ATOM      3  C2  UNL d   1       1.707  -1.783  -1.757  0.00  0.00     0.048 A 
ATOM      4  C3  UNL d   1       1.619  -2.886  -0.909  0.00  0.00     0.023 A 
ATOM      5  C4  UNL d   1       2.493  -3.019   0.171  0.00  0.00     0.048 A 
ATOM      6  C5  UNL d   1       3.461  -2.040   0.400  0.00  0.00     0.003 A 
ATOM      7  I   UNL d   1       0.176  -4.341  -1.255  0.00  0.00    -0.146 I 
ENDROOT
TORSDOF 0
ENDMDL
