MODEL 1
REMARK minimizedAffinity 10.1188478
REMARK minimizedRMSD -1
REMARK  0 active torsions:
REMARK  status: ('A' for Active; 'I' for Inactive)
ROOT
ATOM      1  C   UNL d   1      -0.343   1.114   0.745  0.00  0.00     0.023 A 
ATOM      2  C1  UNL d   1       0.113   0.937  -0.562  0.00  0.00     0.003 A 
ATOM      3  C2  UNL d   1       1.462   0.670  -0.801  0.00  0.00     0.048 A 
ATOM      4  C3  UNL d   1       2.350   0.580   0.270  0.00  0.00     0.023 A 
ATOM      5  C4  UNL d   1       1.898   0.756   1.579  0.00  0.00     0.048 A 
ATOM      6  C5  UNL d   1       0.548   1.024   1.814  0.00  0.00     0.003 A 
ATOM      7  I   UNL d   1       4.359   0.183  -0.083  0.00  0.00    -0.146 I 
ENDROOT
TORSDOF 0
ENDMDL
