MODEL 1
REMARK minimizedAffinity 9.43694687
REMARK minimizedRMSD -1
REMARK  0 active torsions:
REMARK  status: ('A' for Active; 'I' for Inactive)
ROOT
ATOM      1  C   UNL d   1       6.000   3.147  -0.034  0.00  0.00     0.023 A 
ATOM      2  C1  UNL d   1       5.837   2.380   1.120  0.00  0.00     0.003 A 
ATOM      3  C2  UNL d   1       4.995   1.266   1.106  0.00  0.00     0.048 A 
ATOM      4  C3  UNL d   1       4.321   0.923  -0.065  0.00  0.00     0.023 A 
ATOM      5  C4  UNL d   1       4.482   1.687  -1.222  0.00  0.00     0.048 A 
ATOM      6  C5  UNL d   1       5.323   2.800  -1.204  0.00  0.00     0.003 A 
ATOM      7  I   UNL d   1       3.068  -0.735  -0.088  0.00  0.00    -0.146 I 
ENDROOT
TORSDOF 0
ENDMDL
