MODEL 1
REMARK minimizedAffinity 6.03859234
REMARK minimizedRMSD -1
REMARK  0 active torsions:
REMARK  status: ('A' for Active; 'I' for Inactive)
ROOT
ATOM      1  C2' OXE d   1       0.048  -1.897   1.132  0.00  0.00     0.078 C 
ATOM      2  C1' OXE d   1      -2.010  -0.956   2.792  0.00  0.00     0.078 C 
ATOM      3  C1  OXE d   1      -2.303  -1.095   1.319  0.00  0.00    -0.078 A 
ATOM      4  C2  OXE d   1      -1.276  -1.512   0.508  0.00  0.00    -0.078 A 
ATOM      5  C3  OXE d   1      -1.507  -1.710  -0.851  0.00  0.00     0.003 A 
ATOM      6  C4  OXE d   1      -2.731  -1.341  -1.422  0.00  0.00    -0.002 A 
ATOM      7  C5  OXE d   1      -3.778  -0.877  -0.619  0.00  0.00    -0.002 A 
ATOM      8  C6  OXE d   1      -3.595  -0.788   0.756  0.00  0.00     0.003 A 
ENDROOT
TORSDOF 0
ENDMDL
