MODEL 1
REMARK minimizedAffinity 10.4095345
REMARK minimizedRMSD -1
REMARK  0 active torsions:
REMARK  status: ('A' for Active; 'I' for Inactive)
ROOT
ATOM      1  C2' OXE d   1       2.381   0.319   3.111  0.00  0.00     0.078 C 
ATOM      2  C1' OXE d   1      -0.188   1.429   3.329  0.00  0.00     0.078 C 
ATOM      3  C1  OXE d   1      -0.061   0.067   2.692  0.00  0.00    -0.078 A 
ATOM      4  C2  OXE d   1       1.204  -0.448   2.547  0.00  0.00    -0.078 A 
ATOM      5  C3  OXE d   1       1.373  -1.723   2.016  0.00  0.00     0.003 A 
ATOM      6  C4  OXE d   1       0.280  -2.421   1.488  0.00  0.00    -0.002 A 
ATOM      7  C5  OXE d   1      -1.013  -1.898   1.590  0.00  0.00    -0.002 A 
ATOM      8  C6  OXE d   1      -1.205  -0.676   2.226  0.00  0.00     0.003 A 
ENDROOT
TORSDOF 0
ENDMDL
