MODEL 1
REMARK minimizedAffinity -1.47853374
REMARK minimizedRMSD -1
REMARK  0 active torsions:
REMARK  status: ('A' for Active; 'I' for Inactive)
ROOT
ATOM      1  C2' OXE d   1       3.205   2.012   5.999  0.00  0.00     0.078 C 
ATOM      2  C1' OXE d   1       5.998   2.290   5.965  0.00  0.00     0.078 C 
ATOM      3  C1  OXE d   1       5.166   3.548   5.970  0.00  0.00    -0.078 A 
ATOM      4  C2  OXE d   1       3.800   3.403   5.940  0.00  0.00    -0.078 A 
ATOM      5  C3  OXE d   1       2.986   4.530   5.998  0.00  0.00     0.003 A 
ATOM      6  C4  OXE d   1       3.544   5.812   5.932  0.00  0.00    -0.002 A 
ATOM      7  C5  OXE d   1       4.933   5.982   5.923  0.00  0.00    -0.002 A 
ATOM      8  C6  OXE d   1       5.757   4.863   5.984  0.00  0.00     0.003 A 
ENDROOT
TORSDOF 0
ENDMDL
