MODEL 1
REMARK minimizedAffinity -0.0608304702
REMARK minimizedRMSD -1
REMARK  0 active torsions:
REMARK  status: ('A' for Active; 'I' for Inactive)
ROOT
ATOM      1  C2' OXE d   1      -5.637   4.504   2.777  0.00  0.00     0.078 C 
ATOM      2  C1' OXE d   1      -3.112   3.662   1.884  0.00  0.00     0.078 C 
ATOM      3  C1  OXE d   1      -3.949   4.496   0.945  0.00  0.00    -0.078 A 
ATOM      4  C2  OXE d   1      -5.202   4.864   1.373  0.00  0.00    -0.078 A 
ATOM      5  C3  OXE d   1      -5.993   5.679   0.568  0.00  0.00     0.003 A 
ATOM      6  C4  OXE d   1      -5.587   5.999  -0.733  0.00  0.00    -0.002 A 
ATOM      7  C5  OXE d   1      -4.331   5.601  -1.203  0.00  0.00    -0.002 A 
ATOM      8  C6  OXE d   1      -3.484   4.887  -0.363  0.00  0.00     0.003 A 
ENDROOT
TORSDOF 0
ENDMDL
