MODEL 1
REMARK minimizedAffinity 3.41506243
REMARK minimizedRMSD -1
REMARK  0 active torsions:
REMARK  status: ('A' for Active; 'I' for Inactive)
ROOT
ATOM      1  C2' OXE d   1       5.932   5.928   5.061  0.00  0.00     0.078 C 
ATOM      2  C1' OXE d   1       5.997   3.212   5.766  0.00  0.00     0.078 C 
ATOM      3  C1  OXE d   1       4.653   3.894   5.718  0.00  0.00    -0.078 A 
ATOM      4  C2  OXE d   1       4.635   5.235   5.418  0.00  0.00    -0.078 A 
ATOM      5  C3  OXE d   1       3.417   5.901   5.307  0.00  0.00     0.003 A 
ATOM      6  C4  OXE d   1       2.223   5.255   5.649  0.00  0.00    -0.002 A 
ATOM      7  C5  OXE d   1       2.223   3.899   5.996  0.00  0.00    -0.002 A 
ATOM      8  C6  OXE d   1       3.422   3.196   5.994  0.00  0.00     0.003 A 
ENDROOT
TORSDOF 0
ENDMDL
