MODEL 1
REMARK minimizedAffinity 13.8041363
REMARK minimizedRMSD -1
REMARK  0 active torsions:
REMARK  status: ('A' for Active; 'I' for Inactive)
ROOT
ATOM      1  C2' OXE d   1      -3.074   2.722  -4.123  0.00  0.00     0.078 C 
ATOM      2  C1' OXE d   1      -5.024   1.969  -5.997  0.00  0.00     0.078 C 
ATOM      3  C1  OXE d   1      -5.029   3.397  -5.512  0.00  0.00    -0.078 A 
ATOM      4  C2  OXE d   1      -4.101   3.745  -4.561  0.00  0.00    -0.078 A 
ATOM      5  C3  OXE d   1      -4.027   5.063  -4.119  0.00  0.00     0.003 A 
ATOM      6  C4  OXE d   1      -4.987   6.000  -4.521  0.00  0.00    -0.002 A 
ATOM      7  C5  OXE d   1      -5.965   5.656  -5.460  0.00  0.00    -0.002 A 
ATOM      8  C6  OXE d   1      -5.974   4.373  -5.996  0.00  0.00     0.003 A 
ENDROOT
TORSDOF 0
ENDMDL
