MODEL 1
REMARK minimizedAffinity 16.4054012
REMARK minimizedRMSD -1
REMARK  0 active torsions:
REMARK  status: ('A' for Active; 'I' for Inactive)
ROOT
ATOM      1  C2' OXE d   1      -2.361  -1.821   1.150  0.00  0.00     0.078 C 
ATOM      2  C1' OXE d   1      -3.879   0.036  -0.308  0.00  0.00     0.078 C 
ATOM      3  C1  OXE d   1      -2.972  -0.891  -1.079  0.00  0.00    -0.078 A 
ATOM      4  C2  OXE d   1      -2.198  -1.765  -0.354  0.00  0.00    -0.078 A 
ATOM      5  C3  OXE d   1      -1.384  -2.678  -1.018  0.00  0.00     0.003 A 
ATOM      6  C4  OXE d   1      -1.232  -2.613  -2.408  0.00  0.00    -0.002 A 
ATOM      7  C5  OXE d   1      -1.981  -1.703  -3.162  0.00  0.00    -0.002 A 
ATOM      8  C6  OXE d   1      -2.885  -0.866  -2.518  0.00  0.00     0.003 A 
ENDROOT
TORSDOF 0
ENDMDL
