MODEL 1
REMARK minimizedAffinity 12.6078119
REMARK minimizedRMSD -1
REMARK  0 active torsions:
REMARK  status: ('A' for Active; 'I' for Inactive)
ROOT
ATOM      1  C2' OXE d   1       2.782  -0.633  -2.102  0.00  0.00     0.078 C 
ATOM      2  C1' OXE d   1       2.763   2.081  -2.822  0.00  0.00     0.078 C 
ATOM      3  C1  OXE d   1       3.901   1.228  -3.324  0.00  0.00    -0.078 A 
ATOM      4  C2  OXE d   1       3.927  -0.088  -2.929  0.00  0.00    -0.078 A 
ATOM      5  C3  OXE d   1       4.924  -0.932  -3.408  0.00  0.00     0.003 A 
ATOM      6  C4  OXE d   1       5.985  -0.418  -4.164  0.00  0.00    -0.002 A 
ATOM      7  C5  OXE d   1       5.999   0.928  -4.545  0.00  0.00    -0.002 A 
ATOM      8  C6  OXE d   1       4.944   1.753  -4.170  0.00  0.00     0.003 A 
ENDROOT
TORSDOF 0
ENDMDL
