MODEL 1
REMARK minimizedAffinity 11.9854002
REMARK minimizedRMSD -1
REMARK  0 active torsions:
REMARK  status: ('A' for Active; 'I' for Inactive)
ROOT
ATOM      1  C2' OXE d   1       0.005  -5.623   2.669  0.00  0.00     0.078 C 
ATOM      2  C1' OXE d   1      -1.431  -6.000   0.287  0.00  0.00     0.078 C 
ATOM      3  C1  OXE d   1      -1.047  -4.590   0.661  0.00  0.00    -0.078 A 
ATOM      4  C2  OXE d   1      -0.385  -4.410   1.852  0.00  0.00    -0.078 A 
ATOM      5  C3  OXE d   1       0.041  -3.137   2.218  0.00  0.00     0.003 A 
ATOM      6  C4  OXE d   1      -0.333  -2.019   1.462  0.00  0.00    -0.002 A 
ATOM      7  C5  OXE d   1      -1.042  -2.177   0.266  0.00  0.00    -0.002 A 
ATOM      8  C6  OXE d   1      -1.369  -3.456  -0.169  0.00  0.00     0.003 A 
ENDROOT
TORSDOF 0
ENDMDL
