MODEL 1
REMARK minimizedAffinity 7.05200481
REMARK minimizedRMSD -1
REMARK  0 active torsions:
REMARK  status: ('A' for Active; 'I' for Inactive)
ROOT
ATOM      1  C2' OXE d   1      -4.535   2.069  -6.000  0.00  0.00     0.078 C 
ATOM      2  C1' OXE d   1      -2.399   3.144  -4.528  0.00  0.00     0.078 C 
ATOM      3  C1  OXE d   1      -3.655   3.970  -4.652  0.00  0.00    -0.078 A 
ATOM      4  C2  OXE d   1      -4.677   3.457  -5.413  0.00  0.00    -0.078 A 
ATOM      5  C3  OXE d   1      -5.878   4.154  -5.515  0.00  0.00     0.003 A 
ATOM      6  C4  OXE d   1      -5.998   5.441  -4.978  0.00  0.00    -0.002 A 
ATOM      7  C5  OXE d   1      -4.954   6.000  -4.233  0.00  0.00    -0.002 A 
ATOM      8  C6  OXE d   1      -3.794   5.261  -4.025  0.00  0.00     0.003 A 
ENDROOT
TORSDOF 0
ENDMDL
