MODEL 1
REMARK minimizedAffinity 14.586709
REMARK minimizedRMSD -1
REMARK  0 active torsions:
REMARK  status: ('A' for Active; 'I' for Inactive)
ROOT
ATOM      1  C2' OXE d   1       5.999  -1.339  -4.140  0.00  0.00     0.078 C 
ATOM      2  C1' OXE d   1       6.000   1.468  -4.144  0.00  0.00     0.078 C 
ATOM      3  C1  OXE d   1       4.943   0.766  -3.328  0.00  0.00    -0.078 A 
ATOM      4  C2  OXE d   1       4.922  -0.607  -3.369  0.00  0.00    -0.078 A 
ATOM      5  C3  OXE d   1       4.002  -1.306  -2.591  0.00  0.00     0.003 A 
ATOM      6  C4  OXE d   1       3.003  -0.622  -1.889  0.00  0.00    -0.002 A 
ATOM      7  C5  OXE d   1       2.982   0.777  -1.866  0.00  0.00    -0.002 A 
ATOM      8  C6  OXE d   1       3.969   1.484  -2.544  0.00  0.00     0.003 A 
ENDROOT
TORSDOF 0
ENDMDL
