MODEL 1
REMARK minimizedAffinity 16.6096497
REMARK minimizedRMSD -1
REMARK  0 active torsions:
REMARK  status: ('A' for Active; 'I' for Inactive)
ROOT
ATOM      1  C2' OXE d   1      -0.733  -5.025  -0.203  0.00  0.00     0.078 C 
ATOM      2  C1' OXE d   1      -0.772  -3.338  -2.447  0.00  0.00     0.078 C 
ATOM      3  C1  OXE d   1      -1.063  -2.724  -1.100  0.00  0.00    -0.078 A 
ATOM      4  C2  OXE d   1      -1.088  -3.565  -0.014  0.00  0.00    -0.078 A 
ATOM      5  C3  OXE d   1      -1.298  -3.042   1.259  0.00  0.00     0.003 A 
ATOM      6  C4  OXE d   1      -1.635  -1.693   1.423  0.00  0.00    -0.002 A 
ATOM      7  C5  OXE d   1      -1.655  -0.827   0.325  0.00  0.00    -0.002 A 
ATOM      8  C6  OXE d   1      -1.330  -1.317  -0.935  0.00  0.00     0.003 A 
ENDROOT
TORSDOF 0
ENDMDL
