MODEL 1
REMARK minimizedAffinity 9.89004993
REMARK minimizedRMSD -1
REMARK  0 active torsions:
REMARK  status: ('A' for Active; 'I' for Inactive)
ROOT
ATOM      1  C2' OXE d   1      -4.136   0.110  -0.265  0.00  0.00     0.078 C 
ATOM      2  C1' OXE d   1      -1.988  -1.515   0.527  0.00  0.00     0.078 C 
ATOM      3  C1  OXE d   1      -3.384  -1.998   0.829  0.00  0.00    -0.078 A 
ATOM      4  C2  OXE d   1      -4.427  -1.174   0.480  0.00  0.00    -0.078 A 
ATOM      5  C3  OXE d   1      -5.738  -1.596   0.687  0.00  0.00     0.003 A 
ATOM      6  C4  OXE d   1      -5.999  -2.781   1.386  0.00  0.00    -0.002 A 
ATOM      7  C5  OXE d   1      -4.949  -3.616   1.786  0.00  0.00    -0.002 A 
ATOM      8  C6  OXE d   1      -3.641  -3.260   1.478  0.00  0.00     0.003 A 
ENDROOT
TORSDOF 0
ENDMDL
