MODEL 1
REMARK minimizedAffinity 17.1932812
REMARK minimizedRMSD -1
REMARK  0 active torsions:
REMARK  status: ('A' for Active; 'I' for Inactive)
ROOT
ATOM      1  C2' OXE d   1      -0.916  -3.969   0.188  0.00  0.00     0.078 C 
ATOM      2  C1' OXE d   1      -1.489  -1.361  -0.678  0.00  0.00     0.078 C 
ATOM      3  C1  OXE d   1      -1.383  -1.601   0.807  0.00  0.00    -0.078 A 
ATOM      4  C2  OXE d   1      -1.149  -2.889   1.224  0.00  0.00    -0.078 A 
ATOM      5  C3  OXE d   1      -0.988  -3.157   2.580  0.00  0.00     0.003 A 
ATOM      6  C4  OXE d   1      -1.215  -2.155   3.532  0.00  0.00    -0.002 A 
ATOM      7  C5  OXE d   1      -1.494  -0.844   3.130  0.00  0.00    -0.002 A 
ATOM      8  C6  OXE d   1      -1.539  -0.542   1.774  0.00  0.00     0.003 A 
ENDROOT
TORSDOF 0
ENDMDL
