MODEL 1
REMARK minimizedAffinity 16.2662373
REMARK minimizedRMSD -1
REMARK  0 active torsions:
REMARK  status: ('A' for Active; 'I' for Inactive)
ROOT
ATOM      1  C2' OXE d   1       3.163   5.955   5.350  0.00  0.00     0.078 C 
ATOM      2  C1' OXE d   1       5.967   5.945   5.495  0.00  0.00     0.078 C 
ATOM      3  C1  OXE d   1       5.250   4.625   5.634  0.00  0.00    -0.078 A 
ATOM      4  C2  OXE d   1       3.877   4.645   5.608  0.00  0.00    -0.078 A 
ATOM      5  C3  OXE d   1       3.168   3.449   5.677  0.00  0.00     0.003 A 
ATOM      6  C4  OXE d   1       3.835   2.244   5.925  0.00  0.00    -0.002 A 
ATOM      7  C5  OXE d   1       5.232   2.206   5.994  0.00  0.00    -0.002 A 
ATOM      8  C6  OXE d   1       5.955   3.379   5.808  0.00  0.00     0.003 A 
ENDROOT
TORSDOF 0
ENDMDL
