MODEL 1
REMARK minimizedAffinity 11.467968
REMARK minimizedRMSD -1
REMARK  0 active torsions:
REMARK  status: ('A' for Active; 'I' for Inactive)
ROOT
ATOM      1  C2' OXE d   1      -0.324  -0.692   5.612  0.00  0.00     0.078 C 
ATOM      2  C1' OXE d   1      -2.700   0.804   5.649  0.00  0.00     0.078 C 
ATOM      3  C1  OXE d   1      -2.810  -0.695   5.780  0.00  0.00    -0.078 A 
ATOM      4  C2  OXE d   1      -1.646  -1.422   5.713  0.00  0.00    -0.078 A 
ATOM      5  C3  OXE d   1      -1.686  -2.803   5.883  0.00  0.00     0.003 A 
ATOM      6  C4  OXE d   1      -2.913  -3.472   5.967  0.00  0.00    -0.002 A 
ATOM      7  C5  OXE d   1      -4.113  -2.753   5.996  0.00  0.00    -0.002 A 
ATOM      8  C6  OXE d   1      -4.076  -1.364   5.946  0.00  0.00     0.003 A 
ENDROOT
TORSDOF 0
ENDMDL
