MODEL 1
REMARK minimizedAffinity 13.5863409
REMARK minimizedRMSD -1
REMARK  0 active torsions:
REMARK  status: ('A' for Active; 'I' for Inactive)
ROOT
ATOM      1  C2' OXE d   1      -4.400  -3.382   5.530  0.00  0.00     0.078 C 
ATOM      2  C1' OXE d   1      -2.079  -4.889   5.999  0.00  0.00     0.078 C 
ATOM      3  C1  OXE d   1      -1.932  -3.394   5.867  0.00  0.00    -0.078 A 
ATOM      4  C2  OXE d   1      -3.067  -2.669   5.591  0.00  0.00    -0.078 A 
ATOM      5  C3  OXE d   1      -2.996  -1.281   5.514  0.00  0.00     0.003 A 
ATOM      6  C4  OXE d   1      -1.757  -0.631   5.562  0.00  0.00    -0.002 A 
ATOM      7  C5  OXE d   1      -0.584  -1.355   5.802  0.00  0.00    -0.002 A 
ATOM      8  C6  OXE d   1      -0.660  -2.729   5.999  0.00  0.00     0.003 A 
ENDROOT
TORSDOF 0
ENDMDL
