MODEL 1
REMARK minimizedAffinity 10.0412254
REMARK minimizedRMSD -1
REMARK  0 active torsions:
REMARK  status: ('A' for Active; 'I' for Inactive)
ROOT
ATOM      1  C2' OXE d   1      -1.840  -4.469   5.816  0.00  0.00     0.078 C 
ATOM      2  C1' OXE d   1      -4.347  -3.218   5.995  0.00  0.00     0.078 C 
ATOM      3  C1  OXE d   1      -3.123  -2.338   5.951  0.00  0.00    -0.078 A 
ATOM      4  C2  OXE d   1      -1.898  -2.959   5.911  0.00  0.00    -0.078 A 
ATOM      5  C3  OXE d   1      -0.739  -2.194   5.815  0.00  0.00     0.003 A 
ATOM      6  C4  OXE d   1      -0.801  -0.799   5.913  0.00  0.00    -0.002 A 
ATOM      7  C5  OXE d   1      -2.037  -0.147   5.995  0.00  0.00    -0.002 A 
ATOM      8  C6  OXE d   1      -3.206  -0.898   5.972  0.00  0.00     0.003 A 
ENDROOT
TORSDOF 0
ENDMDL
