MODEL 1
REMARK minimizedAffinity -2.96902657
REMARK minimizedRMSD -1
REMARK  0 active torsions:
REMARK  status: ('A' for Active; 'I' for Inactive)
ROOT
ATOM      1  C   UNL d   1       2.391  -1.358  -1.911  0.00  0.00     0.023 A 
ATOM      2  C1  UNL d   1       3.174  -0.751  -2.893  0.00  0.00     0.003 A 
ATOM      3  C2  UNL d   1       3.843   0.443  -2.617  0.00  0.00     0.048 A 
ATOM      4  C3  UNL d   1       3.725   1.025  -1.355  0.00  0.00     0.023 A 
ATOM      5  C4  UNL d   1       2.944   0.421  -0.368  0.00  0.00     0.048 A 
ATOM      6  C5  UNL d   1       2.276  -0.772  -0.650  0.00  0.00     0.003 A 
ATOM      7  I   UNL d   1       4.720   2.802  -0.941  0.00  0.00    -0.146 I 
ENDROOT
TORSDOF 0
ENDMDL
