MODEL 1
REMARK minimizedAffinity 2.26099086
REMARK minimizedRMSD -1
REMARK  0 active torsions:
REMARK  status: ('A' for Active; 'I' for Inactive)
ROOT
ATOM      1  C   UNL d   1      -4.428   5.483   2.544  0.00  0.00     0.023 A 
ATOM      2  C1  UNL d   1      -3.483   4.831   1.751  0.00  0.00     0.003 A 
ATOM      3  C2  UNL d   1      -3.791   3.602   1.165  0.00  0.00     0.048 A 
ATOM      4  C3  UNL d   1      -5.046   3.031   1.374  0.00  0.00     0.023 A 
ATOM      5  C4  UNL d   1      -5.995   3.680   2.165  0.00  0.00     0.048 A 
ATOM      6  C5  UNL d   1      -5.682   4.909   2.750  0.00  0.00     0.003 A 
ATOM      7  I   UNL d   1      -5.506   1.201   0.502  0.00  0.00    -0.146 I 
ENDROOT
TORSDOF 0
ENDMDL
