MODEL 1
REMARK minimizedAffinity 2.5192306
REMARK minimizedRMSD -1
REMARK  0 active torsions:
REMARK  status: ('A' for Active; 'I' for Inactive)
ROOT
ATOM      1  C   UNL d   1       5.999   2.060  -1.127  0.00  0.00     0.023 A 
ATOM      2  C1  UNL d   1       5.499   0.766  -1.271  0.00  0.00     0.003 A 
ATOM      3  C2  UNL d   1       4.262   0.428  -0.719  0.00  0.00     0.048 A 
ATOM      4  C3  UNL d   1       3.530   1.390  -0.024  0.00  0.00     0.023 A 
ATOM      5  C4  UNL d   1       4.026   2.687   0.122  0.00  0.00     0.048 A 
ATOM      6  C5  UNL d   1       5.264   3.019  -0.432  0.00  0.00     0.003 A 
ATOM      7  I   UNL d   1       1.688   0.890   0.800  0.00  0.00    -0.146 I 
ENDROOT
TORSDOF 0
ENDMDL
