MODEL 1
REMARK minimizedAffinity 0.327223569
REMARK minimizedRMSD -1
REMARK  0 active torsions:
REMARK  status: ('A' for Active; 'I' for Inactive)
ROOT
ATOM      1  C   UNL d   1      -5.869   2.631  -4.371  0.00  0.00     0.023 A 
ATOM      2  C1  UNL d   1      -4.899   3.126  -3.500  0.00  0.00     0.003 A 
ATOM      3  C2  UNL d   1      -3.817   2.325  -3.129  0.00  0.00     0.048 A 
ATOM      4  C3  UNL d   1      -3.712   1.029  -3.632  0.00  0.00     0.023 A 
ATOM      5  C4  UNL d   1      -4.681   0.529  -4.504  0.00  0.00     0.048 A 
ATOM      6  C5  UNL d   1      -5.760   1.333  -4.872  0.00  0.00     0.003 A 
ATOM      7  I   UNL d   1      -2.103  -0.166  -3.081  0.00  0.00    -0.146 I 
ENDROOT
TORSDOF 0
ENDMDL
