MODEL 1
REMARK minimizedAffinity -3.41300797
REMARK minimizedRMSD -1
REMARK  2 active torsions:
REMARK  status: ('A' for Active; 'I' for Inactive)
REMARK    1  A    between atoms: C1_2  and  C2_3 
REMARK    2  A    between atoms: C2_3  and  C3_4 
ROOT
ATOM      1  C3  UNL d   1       0.539   2.179  -1.914  0.00  0.00    -0.075 A 
ATOM      2  C4  UNL d   1      -0.272   3.146  -2.524  0.00  0.00     0.002 A 
ATOM      3  C5  UNL d   1       0.029   3.620  -3.801  0.00  0.00     0.002 A 
ATOM      4  C6  UNL d   1       1.148   3.142  -4.479  0.00  0.00    -0.004 A 
ATOM      5  C7  UNL d   1       1.971   2.193  -3.876  0.00  0.00     0.002 A 
ATOM      6  C8  UNL d   1       1.669   1.714  -2.600  0.00  0.00     0.002 A 
ENDROOT
BRANCH   1   7
ATOM      7  C2  UNL d   1       0.202   1.640  -0.544  0.00  0.00     0.056 C 
BRANCH   7   8
ATOM      8  C1  UNL d   1       0.061   0.115  -0.491  0.00  0.00     0.007 C 
ATOM      9  C   UNL d   1      -1.283  -0.344   0.060  0.00  0.00     0.009 C 
ENDBRANCH   7   8
ENDBRANCH   1   7
TORSDOF 2
ENDMDL
