MODEL 1
REMARK minimizedAffinity -3.02763557
REMARK minimizedRMSD -1
REMARK  2 active torsions:
REMARK  status: ('A' for Active; 'I' for Inactive)
REMARK    1  A    between atoms: C1_2  and  C2_3 
REMARK    2  A    between atoms: C2_3  and  C3_4 
ROOT
ATOM      1  C3  UNL d   1      -0.125   0.524  -0.445  0.00  0.00    -0.075 A 
ATOM      2  C4  UNL d   1       0.786  -0.521  -0.228  0.00  0.00     0.002 A 
ATOM      3  C5  UNL d   1       0.365  -1.717   0.354  0.00  0.00     0.002 A 
ATOM      4  C6  UNL d   1      -0.965  -1.881   0.733  0.00  0.00    -0.004 A 
ATOM      5  C7  UNL d   1      -1.875  -0.845   0.537  0.00  0.00     0.002 A 
ATOM      6  C8  UNL d   1      -1.458   0.352  -0.048  0.00  0.00     0.002 A 
ENDROOT
BRANCH   1   7
ATOM      7  C2  UNL d   1       0.317   1.810  -1.101  0.00  0.00     0.056 C 
BRANCH   7   8
ATOM      8  C1  UNL d   1       0.421   1.728  -2.627  0.00  0.00     0.007 C 
ATOM      9  C   UNL d   1       0.290   3.082  -3.312  0.00  0.00     0.009 C 
ENDBRANCH   7   8
ENDBRANCH   1   7
TORSDOF 2
ENDMDL
