MODEL 1
REMARK minimizedAffinity -4.47412872
REMARK minimizedRMSD -1
REMARK  2 active torsions:
REMARK  status: ('A' for Active; 'I' for Inactive)
REMARK    1  A    between atoms: C1_2  and  C2_3 
REMARK    2  A    between atoms: C2_3  and  C3_4 
ROOT
ATOM      1  C3  UNL d   1      -1.376  -0.814   0.387  0.00  0.00    -0.075 A 
ATOM      2  C4  UNL d   1      -2.000   0.293   0.981  0.00  0.00     0.002 A 
ATOM      3  C5  UNL d   1      -1.374   1.540   0.985  0.00  0.00     0.002 A 
ATOM      4  C6  UNL d   1      -0.116   1.694   0.407  0.00  0.00    -0.004 A 
ATOM      5  C7  UNL d   1       0.519   0.597  -0.171  0.00  0.00     0.002 A 
ATOM      6  C8  UNL d   1      -0.106  -0.651  -0.181  0.00  0.00     0.002 A 
ENDROOT
BRANCH   1   7
ATOM      7  C2  UNL d   1      -2.061  -2.160   0.353  0.00  0.00     0.056 C 
BRANCH   7   8
ATOM      8  C1  UNL d   1      -1.994  -2.927   1.678  0.00  0.00     0.007 C 
ATOM      9  C   UNL d   1      -0.699  -2.692   2.443  0.00  0.00     0.009 C 
ENDBRANCH   7   8
ENDBRANCH   1   7
TORSDOF 2
ENDMDL
