MODEL 1
REMARK minimizedAffinity -2.26594853
REMARK minimizedRMSD -1
REMARK  2 active torsions:
REMARK  status: ('A' for Active; 'I' for Inactive)
REMARK    1  A    between atoms: C1_2  and  C2_3 
REMARK    2  A    between atoms: C2_3  and  C3_4 
ROOT
ATOM      1  C3  UNL d   1       1.133   0.727   0.175  0.00  0.00    -0.075 A 
ATOM      2  C4  UNL d   1       1.571  -0.589   0.384  0.00  0.00     0.002 A 
ATOM      3  C5  UNL d   1       2.805  -0.837   0.986  0.00  0.00     0.002 A 
ATOM      4  C6  UNL d   1       3.619   0.224   1.376  0.00  0.00    -0.004 A 
ATOM      5  C7  UNL d   1       3.201   1.535   1.158  0.00  0.00     0.002 A 
ATOM      6  C8  UNL d   1       1.965   1.786   0.560  0.00  0.00     0.002 A 
ENDROOT
BRANCH   1   7
ATOM      7  C2  UNL d   1      -0.214   1.002  -0.449  0.00  0.00     0.056 C 
BRANCH   7   8
ATOM      8  C1  UNL d   1      -1.317   1.327   0.564  0.00  0.00     0.007 C 
ATOM      9  C   UNL d   1      -2.203   0.132   0.891  0.00  0.00     0.009 C 
ENDBRANCH   7   8
ENDBRANCH   1   7
TORSDOF 2
ENDMDL
