MODEL 1
REMARK minimizedAffinity -1.08891118
REMARK minimizedRMSD -1
REMARK  2 active torsions:
REMARK  status: ('A' for Active; 'I' for Inactive)
REMARK    1  A    between atoms: C1_2  and  C2_3 
REMARK    2  A    between atoms: C2_3  and  C3_4 
ROOT
ATOM      1  C3  UNL d   1       0.843   1.076   0.281  0.00  0.00    -0.075 A 
ATOM      2  C4  UNL d   1      -0.049   2.024   0.801  0.00  0.00     0.002 A 
ATOM      3  C5  UNL d   1      -1.375   1.680   1.065  0.00  0.00     0.002 A 
ATOM      4  C6  UNL d   1      -1.827   0.388   0.804  0.00  0.00    -0.004 A 
ATOM      5  C7  UNL d   1      -0.954  -0.558   0.271  0.00  0.00     0.002 A 
ATOM      6  C8  UNL d   1       0.374  -0.217   0.010  0.00  0.00     0.002 A 
ENDROOT
BRANCH   1   7
ATOM      7  C2  UNL d   1       2.287   1.434   0.020  0.00  0.00     0.056 C 
BRANCH   7   8
ATOM      8  C1  UNL d   1       3.155   1.481   1.282  0.00  0.00     0.007 C 
ATOM      9  C   UNL d   1       3.881   0.171   1.560  0.00  0.00     0.009 C 
ENDBRANCH   7   8
ENDBRANCH   1   7
TORSDOF 2
ENDMDL
