MODEL 1
REMARK minimizedAffinity -4.04483938
REMARK minimizedRMSD -1
REMARK  2 active torsions:
REMARK  status: ('A' for Active; 'I' for Inactive)
REMARK    1  A    between atoms: C1_2  and  C2_3 
REMARK    2  A    between atoms: C2_3  and  C3_4 
ROOT
ATOM      1  C3  UNL d   1      -1.089  -0.790   0.202  0.00  0.00    -0.075 A 
ATOM      2  C4  UNL d   1       0.191  -0.532  -0.309  0.00  0.00     0.002 A 
ATOM      3  C5  UNL d   1       0.695   0.769  -0.332  0.00  0.00     0.002 A 
ATOM      4  C6  UNL d   1      -0.077   1.827   0.143  0.00  0.00    -0.004 A 
ATOM      5  C7  UNL d   1      -1.356   1.584   0.637  0.00  0.00     0.002 A 
ATOM      6  C8  UNL d   1      -1.861   0.283   0.666  0.00  0.00     0.002 A 
ENDROOT
BRANCH   1   7
ATOM      7  C2  UNL d   1      -1.629  -2.200   0.258  0.00  0.00     0.056 C 
BRANCH   7   8
ATOM      8  C1  UNL d   1      -1.544  -2.845   1.645  0.00  0.00     0.007 C 
ATOM      9  C   UNL d   1      -0.236  -2.551   2.366  0.00  0.00     0.009 C 
ENDBRANCH   7   8
ENDBRANCH   1   7
TORSDOF 2
ENDMDL
