MODEL 1
REMARK minimizedAffinity -5.65429926
REMARK minimizedRMSD -1
REMARK  2 active torsions:
REMARK  status: ('A' for Active; 'I' for Inactive)
REMARK    1  A    between atoms: C1_2  and  C2_3 
REMARK    2  A    between atoms: C2_3  and  C3_4 
ROOT
ATOM      1  C3  UNL d   1       0.607  -0.483   0.793  0.00  0.00    -0.075 A 
ATOM      2  C4  UNL d   1      -0.681  -0.160   0.342  0.00  0.00     0.002 A 
ATOM      3  C5  UNL d   1      -1.698  -1.115   0.362  0.00  0.00     0.002 A 
ATOM      4  C6  UNL d   1      -1.439  -2.404   0.824  0.00  0.00    -0.004 A 
ATOM      5  C7  UNL d   1      -0.159  -2.740   1.259  0.00  0.00     0.002 A 
ATOM      6  C8  UNL d   1       0.859  -1.786   1.244  0.00  0.00     0.002 A 
ENDROOT
BRANCH   1   7
ATOM      7  C2  UNL d   1       1.705   0.554   0.801  0.00  0.00     0.056 C 
BRANCH   7   8
ATOM      8  C1  UNL d   1       2.911   0.179   1.670  0.00  0.00     0.007 C 
ATOM      9  C   UNL d   1       3.586   1.383   2.312  0.00  0.00     0.009 C 
ENDBRANCH   7   8
ENDBRANCH   1   7
TORSDOF 2
ENDMDL
