MODEL 1
REMARK minimizedAffinity -3.6434648
REMARK minimizedRMSD -1
REMARK  2 active torsions:
REMARK  status: ('A' for Active; 'I' for Inactive)
REMARK    1  A    between atoms: C1_2  and  C2_3 
REMARK    2  A    between atoms: C2_3  and  C3_4 
ROOT
ATOM      1  C3  UNL d   1       0.272  -0.401   0.475  0.00  0.00    -0.075 A 
ATOM      2  C4  UNL d   1      -1.119  -0.291   0.332  0.00  0.00     0.002 A 
ATOM      3  C5  UNL d   1      -1.928  -1.427   0.384  0.00  0.00     0.002 A 
ATOM      4  C6  UNL d   1      -1.357  -2.684   0.568  0.00  0.00    -0.004 A 
ATOM      5  C7  UNL d   1       0.025  -2.807   0.694  0.00  0.00     0.002 A 
ATOM      6  C8  UNL d   1       0.836  -1.672   0.647  0.00  0.00     0.002 A 
ENDROOT
BRANCH   1   7
ATOM      7  C2  UNL d   1       1.151   0.827   0.449  0.00  0.00     0.056 C 
BRANCH   7   8
ATOM      8  C1  UNL d   1       2.561   0.597   1.002  0.00  0.00     0.007 C 
ATOM      9  C   UNL d   1       3.185   1.852   1.596  0.00  0.00     0.009 C 
ENDBRANCH   7   8
ENDBRANCH   1   7
TORSDOF 2
ENDMDL
