MODEL 1
REMARK minimizedAffinity -2.47207427
REMARK minimizedRMSD -1
REMARK  0 active torsions:
REMARK  status: ('A' for Active; 'I' for Inactive)
ROOT
ATOM      1  C2' OXE d   1       4.167  -2.033   3.901  0.00  0.00     0.078 C 
ATOM      2  C1' OXE d   1       5.999  -2.379   6.000  0.00  0.00     0.078 C 
ATOM      3  C1  OXE d   1       5.288  -3.602   5.477  0.00  0.00    -0.078 A 
ATOM      4  C2  OXE d   1       4.359  -3.417   4.482  0.00  0.00    -0.078 A 
ATOM      5  C3  OXE d   1       3.715  -4.519   3.927  0.00  0.00     0.003 A 
ATOM      6  C4  OXE d   1       3.891  -5.794   4.476  0.00  0.00    -0.002 A 
ATOM      7  C5  OXE d   1       4.803  -5.999   5.517  0.00  0.00    -0.002 A 
ATOM      8  C6  OXE d   1       5.540  -4.923   5.999  0.00  0.00     0.003 A 
ENDROOT
TORSDOF 0
ENDMDL
