MODEL 1
REMARK minimizedAffinity 9.25103283
REMARK minimizedRMSD -1
REMARK  0 active torsions:
REMARK  status: ('A' for Active; 'I' for Inactive)
ROOT
ATOM      1  C2' OXE d   1      -5.415   5.301   3.352  0.00  0.00     0.078 C 
ATOM      2  C1' OXE d   1      -3.387   3.570   2.473  0.00  0.00     0.078 C 
ATOM      3  C1  OXE d   1      -3.128   4.383   3.716  0.00  0.00    -0.078 A 
ATOM      4  C2  OXE d   1      -4.107   5.262   4.113  0.00  0.00    -0.078 A 
ATOM      5  C3  OXE d   1      -3.941   5.996   5.284  0.00  0.00     0.003 A 
ATOM      6  C4  OXE d   1      -2.724   5.961   5.976  0.00  0.00    -0.002 A 
ATOM      7  C5  OXE d   1      -1.699   5.102   5.567  0.00  0.00    -0.002 A 
ATOM      8  C6  OXE d   1      -1.900   4.277   4.466  0.00  0.00     0.003 A 
ENDROOT
TORSDOF 0
ENDMDL
