MODEL 1
REMARK minimizedAffinity 8.8399353
REMARK minimizedRMSD -1
REMARK  0 active torsions:
REMARK  status: ('A' for Active; 'I' for Inactive)
ROOT
ATOM      1  C2' OXE d   1      -2.739   4.168   3.660  0.00  0.00     0.078 C 
ATOM      2  C1' OXE d   1      -5.081   3.890   2.138  0.00  0.00     0.078 C 
ATOM      3  C1  OXE d   1      -4.420   2.634   2.648  0.00  0.00    -0.078 A 
ATOM      4  C2  OXE d   1      -3.249   2.777   3.353  0.00  0.00    -0.078 A 
ATOM      5  C3  OXE d   1      -2.628   1.654   3.893  0.00  0.00     0.003 A 
ATOM      6  C4  OXE d   1      -3.101   0.371   3.596  0.00  0.00    -0.002 A 
ATOM      7  C5  OXE d   1      -4.270   0.201   2.847  0.00  0.00    -0.002 A 
ATOM      8  C6  OXE d   1      -4.964   1.321   2.402  0.00  0.00     0.003 A 
ENDROOT
TORSDOF 0
ENDMDL
