MODEL 1
REMARK minimizedAffinity 3.24113345
REMARK minimizedRMSD -1
REMARK  0 active torsions:
REMARK  status: ('A' for Active; 'I' for Inactive)
ROOT
ATOM      1  C2' OXE d   1       2.425   5.997  -0.151  0.00  0.00     0.078 C 
ATOM      2  C1' OXE d   1       4.841   5.200  -1.337  0.00  0.00     0.078 C 
ATOM      3  C1  OXE d   1       4.825   5.406   0.157  0.00  0.00    -0.078 A 
ATOM      4  C2  OXE d   1       3.651   5.841   0.723  0.00  0.00    -0.078 A 
ATOM      5  C3  OXE d   1       3.567   5.994   2.104  0.00  0.00     0.003 A 
ATOM      6  C4  OXE d   1       4.708   5.858   2.903  0.00  0.00    -0.002 A 
ATOM      7  C5  OXE d   1       5.924   5.453   2.342  0.00  0.00    -0.002 A 
ATOM      8  C6  OXE d   1       5.989   5.183   0.979  0.00  0.00     0.003 A 
ENDROOT
TORSDOF 0
ENDMDL
