MODEL 1
REMARK minimizedAffinity 24.1080322
REMARK minimizedRMSD -1
REMARK  0 active torsions:
REMARK  status: ('A' for Active; 'I' for Inactive)
ROOT
ATOM      1  C2' OXE d   1      -1.167   5.982   5.974  0.00  0.00     0.078 C 
ATOM      2  C1' OXE d   1      -0.888   5.861   3.183  0.00  0.00     0.078 C 
ATOM      3  C1  OXE d   1      -2.285   5.888   3.750  0.00  0.00    -0.078 A 
ATOM      4  C2  OXE d   1      -2.413   5.900   5.118  0.00  0.00    -0.078 A 
ATOM      5  C3  OXE d   1      -3.678   5.980   5.692  0.00  0.00     0.003 A 
ATOM      6  C4  OXE d   1      -4.825   5.893   4.894  0.00  0.00    -0.002 A 
ATOM      7  C5  OXE d   1      -4.718   5.840   3.500  0.00  0.00    -0.002 A 
ATOM      8  C6  OXE d   1      -3.459   5.880   2.912  0.00  0.00     0.003 A 
ENDROOT
TORSDOF 0
ENDMDL
