MODEL 1
REMARK minimizedAffinity 8.89156532
REMARK minimizedRMSD -1
REMARK  0 active torsions:
REMARK  status: ('A' for Active; 'I' for Inactive)
ROOT
ATOM      1  C2' OXE d   1      -2.546   0.819  -0.512  0.00  0.00     0.078 C 
ATOM      2  C1' OXE d   1      -2.716  -0.873   1.721  0.00  0.00     0.078 C 
ATOM      3  C1  OXE d   1      -2.718   0.616   1.964  0.00  0.00    -0.078 A 
ATOM      4  C2  OXE d   1      -2.587   1.435   0.869  0.00  0.00    -0.078 A 
ATOM      5  C3  OXE d   1      -2.638   2.817   1.032  0.00  0.00     0.003 A 
ATOM      6  C4  OXE d   1      -2.667   3.379   2.314  0.00  0.00    -0.002 A 
ATOM      7  C5  OXE d   1      -2.760   2.562   3.446  0.00  0.00    -0.002 A 
ATOM      8  C6  OXE d   1      -2.830   1.182   3.286  0.00  0.00     0.003 A 
ENDROOT
TORSDOF 0
ENDMDL
