MODEL 1
REMARK minimizedAffinity 13.1075611
REMARK minimizedRMSD -1
REMARK  0 active torsions:
REMARK  status: ('A' for Active; 'I' for Inactive)
ROOT
ATOM      1  C2' OXE d   1       1.645  -2.944  -1.924  0.00  0.00     0.078 C 
ATOM      2  C1' OXE d   1       3.567  -1.248  -0.780  0.00  0.00     0.078 C 
ATOM      3  C1  OXE d   1       2.444  -0.613  -1.561  0.00  0.00    -0.078 A 
ATOM      4  C2  OXE d   1       1.534  -1.453  -2.157  0.00  0.00    -0.078 A 
ATOM      5  C3  OXE d   1       0.447  -0.917  -2.843  0.00  0.00     0.003 A 
ATOM      6  C4  OXE d   1       0.358   0.463  -3.062  0.00  0.00    -0.002 A 
ATOM      7  C5  OXE d   1       1.296   1.334  -2.498  0.00  0.00    -0.002 A 
ATOM      8  C6  OXE d   1       2.319   0.816  -1.711  0.00  0.00     0.003 A 
ENDROOT
TORSDOF 0
ENDMDL
