MODEL 1
REMARK minimizedAffinity 9.58921146
REMARK minimizedRMSD -1
REMARK  0 active torsions:
REMARK  status: ('A' for Active; 'I' for Inactive)
ROOT
ATOM      1  C2' OXE d   1      -2.518  -0.908  -1.157  0.00  0.00     0.078 C 
ATOM      2  C1' OXE d   1      -0.975   1.352  -1.783  0.00  0.00     0.078 C 
ATOM      3  C1  OXE d   1      -0.289   0.009  -1.787  0.00  0.00    -0.078 A 
ATOM      4  C2  OXE d   1      -1.040  -1.086  -1.434  0.00  0.00    -0.078 A 
ATOM      5  C3  OXE d   1      -0.471  -2.355  -1.475  0.00  0.00     0.003 A 
ATOM      6  C4  OXE d   1       0.898  -2.510  -1.723  0.00  0.00    -0.002 A 
ATOM      7  C5  OXE d   1       1.691  -1.404  -2.046  0.00  0.00    -0.002 A 
ATOM      8  C6  OXE d   1       1.105  -0.145  -2.124  0.00  0.00     0.003 A 
ENDROOT
TORSDOF 0
ENDMDL
