MODEL 1
REMARK minimizedAffinity 7.69572639
REMARK minimizedRMSD -1
REMARK  0 active torsions:
REMARK  status: ('A' for Active; 'I' for Inactive)
ROOT
ATOM      1  C2' OXE d   1      -2.497  -0.355  -0.233  0.00  0.00     0.078 C 
ATOM      2  C1' OXE d   1      -2.486   2.163  -1.472  0.00  0.00     0.078 C 
ATOM      3  C1  OXE d   1      -1.404   1.186  -1.856  0.00  0.00    -0.078 A 
ATOM      4  C2  OXE d   1      -1.389  -0.027  -1.210  0.00  0.00    -0.078 A 
ATOM      5  C3  OXE d   1      -0.445  -0.986  -1.566  0.00  0.00     0.003 A 
ATOM      6  C4  OXE d   1       0.582  -0.670  -2.463  0.00  0.00    -0.002 A 
ATOM      7  C5  OXE d   1       0.609   0.573  -3.103  0.00  0.00    -0.002 A 
ATOM      8  C6  OXE d   1      -0.398   1.495  -2.843  0.00  0.00     0.003 A 
ENDROOT
TORSDOF 0
ENDMDL
