MODEL 1
REMARK minimizedAffinity 16.424614
REMARK minimizedRMSD -1
REMARK  0 active torsions:
REMARK  status: ('A' for Active; 'I' for Inactive)
ROOT
ATOM      1  C2' OXE d   1      -3.658  -1.104   5.999  0.00  0.00     0.078 C 
ATOM      2  C1' OXE d   1      -5.956  -0.928   4.397  0.00  0.00     0.078 C 
ATOM      3  C1  OXE d   1      -4.690  -0.288   3.884  0.00  0.00    -0.078 A 
ATOM      4  C2  OXE d   1      -3.582  -0.339   4.696  0.00  0.00    -0.078 A 
ATOM      5  C3  OXE d   1      -2.374   0.188   4.247  0.00  0.00     0.003 A 
ATOM      6  C4  OXE d   1      -2.316   0.902   3.044  0.00  0.00    -0.002 A 
ATOM      7  C5  OXE d   1      -3.442   1.000   2.221  0.00  0.00    -0.002 A 
ATOM      8  C6  OXE d   1      -4.624   0.375   2.605  0.00  0.00     0.003 A 
ENDROOT
TORSDOF 0
ENDMDL
