MODEL 1
REMARK minimizedAffinity 10.9557114
REMARK minimizedRMSD -1
REMARK  0 active torsions:
REMARK  status: ('A' for Active; 'I' for Inactive)
ROOT
ATOM      1  C2' OXE d   1      -2.649  -1.610  -0.347  0.00  0.00     0.078 C 
ATOM      2  C1' OXE d   1      -0.820   0.504  -0.604  0.00  0.00     0.078 C 
ATOM      3  C1  OXE d   1      -1.499   0.320   0.730  0.00  0.00    -0.078 A 
ATOM      4  C2  OXE d   1      -2.427  -0.688   0.833  0.00  0.00    -0.078 A 
ATOM      5  C3  OXE d   1      -3.042  -0.937   2.057  0.00  0.00     0.003 A 
ATOM      6  C4  OXE d   1      -2.838  -0.074   3.140  0.00  0.00    -0.002 A 
ATOM      7  C5  OXE d   1      -1.927   0.983   3.045  0.00  0.00    -0.002 A 
ATOM      8  C6  OXE d   1      -1.219   1.167   1.863  0.00  0.00     0.003 A 
ENDROOT
TORSDOF 0
ENDMDL
