MODEL 1
REMARK minimizedAffinity 9.53169632
REMARK minimizedRMSD -1
REMARK  0 active torsions:
REMARK  status: ('A' for Active; 'I' for Inactive)
ROOT
ATOM      1  C2' OXE d   1      -5.749   0.391   1.773  0.00  0.00     0.078 C 
ATOM      2  C1' OXE d   1      -4.727   2.968   2.211  0.00  0.00     0.078 C 
ATOM      3  C1  OXE d   1      -3.777   1.803   2.340  0.00  0.00    -0.078 A 
ATOM      4  C2  OXE d   1      -4.297   0.542   2.170  0.00  0.00    -0.078 A 
ATOM      5  C3  OXE d   1      -3.453  -0.564   2.224  0.00  0.00     0.003 A 
ATOM      6  C4  OXE d   1      -2.113  -0.415   2.602  0.00  0.00    -0.002 A 
ATOM      7  C5  OXE d   1      -1.573   0.857   2.819  0.00  0.00    -0.002 A 
ATOM      8  C6  OXE d   1      -2.380   1.977   2.651  0.00  0.00     0.003 A 
ENDROOT
TORSDOF 0
ENDMDL
