MODEL 1
REMARK minimizedAffinity 5.93903732
REMARK minimizedRMSD -1
REMARK  0 active torsions:
REMARK  status: ('A' for Active; 'I' for Inactive)
ROOT
ATOM      1  C2' OXE d   1      -2.602  -0.012   2.129  0.00  0.00     0.078 C 
ATOM      2  C1' OXE d   1      -2.217   0.467  -0.610  0.00  0.00     0.078 C 
ATOM      3  C1  OXE d   1      -3.563  -0.051  -0.169  0.00  0.00    -0.078 A 
ATOM      4  C2  OXE d   1      -3.728  -0.327   1.167  0.00  0.00    -0.078 A 
ATOM      5  C3  OXE d   1      -4.967  -0.755   1.636  0.00  0.00     0.003 A 
ATOM      6  C4  OXE d   1      -5.999  -1.054   0.738  0.00  0.00    -0.002 A 
ATOM      7  C5  OXE d   1      -5.840  -0.817  -0.631  0.00  0.00    -0.002 A 
ATOM      8  C6  OXE d   1      -4.645  -0.277  -1.095  0.00  0.00     0.003 A 
ENDROOT
TORSDOF 0
ENDMDL
