MODEL 1
REMARK minimizedAffinity 12.1733627
REMARK minimizedRMSD -1
REMARK  0 active torsions:
REMARK  status: ('A' for Active; 'I' for Inactive)
ROOT
ATOM      1  C2' OXE d   1       2.692   5.825   1.197  0.00  0.00     0.078 C 
ATOM      2  C1' OXE d   1       4.543   3.914   0.299  0.00  0.00     0.078 C 
ATOM      3  C1  OXE d   1       4.747   4.499   1.674  0.00  0.00    -0.078 A 
ATOM      4  C2  OXE d   1       3.863   5.467   2.087  0.00  0.00    -0.078 A 
ATOM      5  C3  OXE d   1       3.974   6.000   3.368  0.00  0.00     0.003 A 
ATOM      6  C4  OXE d   1       5.066   5.671   4.181  0.00  0.00    -0.002 A 
ATOM      7  C5  OXE d   1       5.999   4.717   3.763  0.00  0.00    -0.002 A 
ATOM      8  C6  OXE d   1       5.831   4.091   2.533  0.00  0.00     0.003 A 
ENDROOT
TORSDOF 0
ENDMDL
