MODEL 1
REMARK minimizedAffinity -1.43410003
REMARK minimizedRMSD -1
REMARK  0 active torsions:
REMARK  status: ('A' for Active; 'I' for Inactive)
ROOT
ATOM      1  C2' OXE d   1      -2.936  -1.204  -0.446  0.00  0.00     0.078 C 
ATOM      2  C1' OXE d   1      -0.593   0.259  -0.948  0.00  0.00     0.078 C 
ATOM      3  C1  OXE d   1      -1.208   0.366   0.425  0.00  0.00    -0.078 A 
ATOM      4  C2  OXE d   1      -2.380  -0.316   0.647  0.00  0.00    -0.078 A 
ATOM      5  C3  OXE d   1      -2.961  -0.296   1.912  0.00  0.00     0.003 A 
ATOM      6  C4  OXE d   1      -2.446   0.536   2.915  0.00  0.00    -0.002 A 
ATOM      7  C5  OXE d   1      -1.275   1.270   2.696  0.00  0.00    -0.002 A 
ATOM      8  C6  OXE d   1      -0.622   1.163   1.474  0.00  0.00     0.003 A 
ENDROOT
TORSDOF 0
ENDMDL
