MODEL 1
REMARK minimizedAffinity 5.82455063
REMARK minimizedRMSD -1
REMARK  0 active torsions:
REMARK  status: ('A' for Active; 'I' for Inactive)
ROOT
ATOM      1  C2' OXE d   1      -5.999  -0.989   5.138  0.00  0.00     0.078 C 
ATOM      2  C1' OXE d   1      -5.997  -0.601   2.358  0.00  0.00     0.078 C 
ATOM      3  C1  OXE d   1      -4.756  -0.214   3.123  0.00  0.00    -0.078 A 
ATOM      4  C2  OXE d   1      -4.783  -0.364   4.489  0.00  0.00    -0.078 A 
ATOM      5  C3  OXE d   1      -3.645  -0.073   5.236  0.00  0.00     0.003 A 
ATOM      6  C4  OXE d   1      -2.528   0.514   4.629  0.00  0.00    -0.002 A 
ATOM      7  C5  OXE d   1      -2.495   0.712   3.245  0.00  0.00    -0.002 A 
ATOM      8  C6  OXE d   1      -3.582   0.315   2.473  0.00  0.00     0.003 A 
ENDROOT
TORSDOF 0
ENDMDL
