MODEL 1
REMARK minimizedAffinity 12.7732458
REMARK minimizedRMSD -1
REMARK  0 active torsions:
REMARK  status: ('A' for Active; 'I' for Inactive)
ROOT
ATOM      1  C2' OXE d   1       0.620   5.984  -4.845  0.00  0.00     0.078 C 
ATOM      2  C1' OXE d   1       3.310   5.905  -4.047  0.00  0.00     0.078 C 
ATOM      3  C1  OXE d   1       2.256   5.912  -2.968  0.00  0.00    -0.078 A 
ATOM      4  C2  OXE d   1       0.944   5.998  -3.366  0.00  0.00    -0.078 A 
ATOM      5  C3  OXE d   1      -0.070   5.953  -2.414  0.00  0.00     0.003 A 
ATOM      6  C4  OXE d   1       0.238   5.975  -1.048  0.00  0.00    -0.002 A 
ATOM      7  C5  OXE d   1       1.569   5.928  -0.620  0.00  0.00    -0.002 A 
ATOM      8  C6  OXE d   1       2.587   5.854  -1.565  0.00  0.00     0.003 A 
ENDROOT
TORSDOF 0
ENDMDL
