MODEL 1
REMARK minimizedAffinity 5.82407379
REMARK minimizedRMSD -1
REMARK  0 active torsions:
REMARK  status: ('A' for Active; 'I' for Inactive)
ROOT
ATOM      1  C2' OXE d   1      -2.263   1.124   3.119  0.00  0.00     0.078 C 
ATOM      2  C1' OXE d   1      -4.677   2.247   2.230  0.00  0.00     0.078 C 
ATOM      3  C1  OXE d   1      -4.749   1.156   3.270  0.00  0.00    -0.078 A 
ATOM      4  C2  OXE d   1      -3.566   0.580   3.664  0.00  0.00    -0.078 A 
ATOM      5  C3  OXE d   1      -3.571  -0.392   4.660  0.00  0.00     0.003 A 
ATOM      6  C4  OXE d   1      -4.780  -0.897   5.152  0.00  0.00    -0.002 A 
ATOM      7  C5  OXE d   1      -5.999  -0.352   4.734  0.00  0.00    -0.002 A 
ATOM      8  C6  OXE d   1      -5.999   0.702   3.827  0.00  0.00     0.003 A 
ENDROOT
TORSDOF 0
ENDMDL
