MODEL 1
REMARK minimizedAffinity -4.68241692
REMARK minimizedRMSD -1
REMARK  0 active torsions:
REMARK  status: ('A' for Active; 'I' for Inactive)
ROOT
ATOM      1  O1  BZF d   1       0.700  -0.212  -0.594  0.00  0.00    -0.204 OA
ATOM      2  C2  BZF d   1       1.904  -0.524   0.008  0.00  0.00     0.174 A 
ATOM      3  C3  BZF d   1       1.809  -0.419   1.350  0.00  0.00    -0.012 A 
ATOM      4  C3A BZF d   1       0.437  -0.105   1.607  0.00  0.00    -0.107 A 
ATOM      5  C4  BZF d   1      -0.279   0.107   2.750  0.00  0.00     0.055 A 
ATOM      6  C5  BZF d   1      -1.586   0.466   2.654  0.00  0.00    -0.016 A 
ATOM      7  C6  BZF d   1      -2.206   0.626   1.432  0.00  0.00     0.022 A 
ATOM      8  C7  BZF d   1      -1.539   0.422   0.271  0.00  0.00     0.029 A 
ATOM      9  C7A BZF d   1      -0.226   0.027   0.365  0.00  0.00     0.058 A 
ENDROOT
TORSDOF 0
ENDMDL
