MODEL 1
REMARK minimizedAffinity -0.0691076815
REMARK minimizedRMSD -1
REMARK  0 active torsions:
REMARK  status: ('A' for Active; 'I' for Inactive)
ROOT
ATOM      1  O1  BZF d   1       0.656  -1.160   3.762  0.00  0.00    -0.204 OA
ATOM      2  C2  BZF d   1       0.963  -1.708   4.993  0.00  0.00     0.174 A 
ATOM      3  C3  BZF d   1      -0.154  -2.136   5.617  0.00  0.00    -0.012 A 
ATOM      4  C3A BZF d   1      -1.214  -1.921   4.681  0.00  0.00    -0.107 A 
ATOM      5  C4  BZF d   1      -2.558  -2.161   4.714  0.00  0.00     0.055 A 
ATOM      6  C5  BZF d   1      -3.325  -1.767   3.664  0.00  0.00    -0.016 A 
ATOM      7  C6  BZF d   1      -2.783  -1.128   2.568  0.00  0.00     0.022 A 
ATOM      8  C7  BZF d   1      -1.454  -0.873   2.488  0.00  0.00     0.029 A 
ATOM      9  C7A BZF d   1      -0.672  -1.299   3.533  0.00  0.00     0.058 A 
ENDROOT
TORSDOF 0
ENDMDL
