MODEL 1
REMARK minimizedAffinity 0.151328042
REMARK minimizedRMSD -1
REMARK  0 active torsions:
REMARK  status: ('A' for Active; 'I' for Inactive)
ROOT
ATOM      1  O1  BZF d   1      -1.832  -0.249   3.079  0.00  0.00    -0.204 OA
ATOM      2  C2  BZF d   1      -0.471  -0.040   3.188  0.00  0.00     0.174 A 
ATOM      3  C3  BZF d   1       0.097   0.063   1.969  0.00  0.00    -0.012 A 
ATOM      4  C3A BZF d   1      -0.990   0.001   1.041  0.00  0.00    -0.107 A 
ATOM      5  C4  BZF d   1      -1.067   0.065  -0.321  0.00  0.00     0.055 A 
ATOM      6  C5  BZF d   1      -2.274  -0.101  -0.923  0.00  0.00    -0.016 A 
ATOM      7  C6  BZF d   1      -3.422  -0.339  -0.195  0.00  0.00     0.022 A 
ATOM      8  C7  BZF d   1      -3.396  -0.406   1.158  0.00  0.00     0.029 A 
ATOM      9  C7A BZF d   1      -2.184  -0.205   1.771  0.00  0.00     0.058 A 
ENDROOT
TORSDOF 0
ENDMDL
