MODEL 1
REMARK minimizedAffinity 0.00936092623
REMARK minimizedRMSD -1
REMARK  0 active torsions:
REMARK  status: ('A' for Active; 'I' for Inactive)
ROOT
ATOM      1  O1  BZF d   1      -2.210   0.384   2.799  0.00  0.00    -0.204 OA
ATOM      2  C2  BZF d   1      -1.113   0.010   3.551  0.00  0.00     0.174 A 
ATOM      3  C3  BZF d   1      -0.137  -0.482   2.762  0.00  0.00    -0.012 A 
ATOM      4  C3A BZF d   1      -0.619  -0.324   1.424  0.00  0.00    -0.107 A 
ATOM      5  C4  BZF d   1      -0.094  -0.612   0.196  0.00  0.00     0.055 A 
ATOM      6  C5  BZF d   1      -0.853  -0.403  -0.912  0.00  0.00    -0.016 A 
ATOM      7  C6  BZF d   1      -2.140   0.086  -0.829  0.00  0.00     0.022 A 
ATOM      8  C7  BZF d   1      -2.702   0.391   0.366  0.00  0.00     0.029 A 
ATOM      9  C7A BZF d   1      -1.926   0.212   1.485  0.00  0.00     0.058 A 
ENDROOT
TORSDOF 0
ENDMDL
