MODEL 1
REMARK minimizedAffinity 11.0205917
REMARK minimizedRMSD -1
REMARK  0 active torsions:
REMARK  status: ('A' for Active; 'I' for Inactive)
ROOT
ATOM      1  O1  BZF d   1       3.895   4.607   1.825  0.00  0.00    -0.204 OA
ATOM      2  C2  BZF d   1       2.683   4.011   1.531  0.00  0.00     0.174 A 
ATOM      3  C3  BZF d   1       2.432   2.993   2.380  0.00  0.00    -0.012 A 
ATOM      4  C3A BZF d   1       3.514   3.009   3.316  0.00  0.00    -0.107 A 
ATOM      5  C4  BZF d   1       3.820   2.249   4.409  0.00  0.00     0.055 A 
ATOM      6  C5  BZF d   1       4.988   2.477   5.065  0.00  0.00    -0.016 A 
ATOM      7  C6  BZF d   1       5.875   3.450   4.653  0.00  0.00     0.022 A 
ATOM      8  C7  BZF d   1       5.612   4.232   3.577  0.00  0.00     0.029 A 
ATOM      9  C7A BZF d   1       4.417   4.027   2.932  0.00  0.00     0.058 A 
ENDROOT
TORSDOF 0
ENDMDL
