MODEL 1
REMARK minimizedAffinity -1.75482237
REMARK minimizedRMSD -1
REMARK  0 active torsions:
REMARK  status: ('A' for Active; 'I' for Inactive)
ROOT
ATOM      1  O1  BZF d   1      -1.561   0.233   2.643  0.00  0.00    -0.204 OA
ATOM      2  C2  BZF d   1      -0.435   0.150   3.440  0.00  0.00     0.174 A 
ATOM      3  C3  BZF d   1       0.529  -0.571   2.832  0.00  0.00    -0.012 A 
ATOM      4  C3A BZF d   1       0.005  -0.885   1.538  0.00  0.00    -0.107 A 
ATOM      5  C4  BZF d   1       0.501  -1.568   0.464  0.00  0.00     0.055 A 
ATOM      6  C5  BZF d   1      -0.294  -1.759  -0.622  0.00  0.00    -0.016 A 
ATOM      7  C6  BZF d   1      -1.588  -1.285  -0.666  0.00  0.00     0.022 A 
ATOM      8  C7  BZF d   1      -2.123  -0.597   0.372  0.00  0.00     0.029 A 
ATOM      9  C7A BZF d   1      -1.311  -0.374   1.458  0.00  0.00     0.058 A 
ENDROOT
TORSDOF 0
ENDMDL
