MODEL 1
REMARK minimizedAffinity -0.972669005
REMARK minimizedRMSD -1
REMARK  0 active torsions:
REMARK  status: ('A' for Active; 'I' for Inactive)
ROOT
ATOM      1  C   UNL d   1       0.403   0.174   2.976  0.00  0.00    -0.002 A 
ATOM      2  C1  UNL d   1      -0.980   0.124   3.074  0.00  0.00     0.010 A 
ATOM      3  C2  UNL d   1      -1.776   0.183   1.928  0.00  0.00     0.041 A 
ATOM      4  C3  UNL d   1      -1.152   0.290   0.670  0.00  0.00    -0.075 A 
ATOM      5  S   UNL d   1      -1.924   0.376  -0.869  0.00  0.00     0.015 SA
ATOM      6  C4  UNL d   1      -0.435   0.479  -1.693  0.00  0.00     0.022 A 
ATOM      7  C5  UNL d   1       0.635   0.450  -0.831  0.00  0.00     0.026 A 
ATOM      8  C6  UNL d   1       0.240   0.340   0.546  0.00  0.00    -0.082 A 
ATOM      9  C7  UNL d   1       1.019   0.280   1.726  0.00  0.00     0.045 A 
ENDROOT
TORSDOF 0
ENDMDL
