MODEL 1
REMARK minimizedAffinity -2.9499495
REMARK minimizedRMSD -1
REMARK  0 active torsions:
REMARK  status: ('A' for Active; 'I' for Inactive)
ROOT
ATOM      1  C   UNL d   1       0.360   1.095  -0.703  0.00  0.00    -0.002 A 
ATOM      2  C1  UNL d   1      -0.902   0.601  -0.999  0.00  0.00     0.010 A 
ATOM      3  C2  UNL d   1      -1.685   0.010  -0.006  0.00  0.00     0.041 A 
ATOM      4  C3  UNL d   1      -1.173  -0.075   1.304  0.00  0.00    -0.075 A 
ATOM      5  S   UNL d   1      -1.953  -0.757   2.682  0.00  0.00     0.015 SA
ATOM      6  C4  UNL d   1      -0.630  -0.408   3.697  0.00  0.00     0.022 A 
ATOM      7  C5  UNL d   1       0.391   0.213   3.018  0.00  0.00     0.026 A 
ATOM      8  C6  UNL d   1       0.095   0.416   1.627  0.00  0.00    -0.082 A 
ATOM      9  C7  UNL d   1       0.864   1.008   0.598  0.00  0.00     0.045 A 
ENDROOT
TORSDOF 0
ENDMDL
