MODEL 1
REMARK minimizedAffinity -2.39962721
REMARK minimizedRMSD -1
REMARK  0 active torsions:
REMARK  status: ('A' for Active; 'I' for Inactive)
ROOT
ATOM      1  C   UNL d   1       0.563  -0.093   3.054  0.00  0.00    -0.002 A 
ATOM      2  C1  UNL d   1       1.695   0.106   2.277  0.00  0.00     0.010 A 
ATOM      3  C2  UNL d   1       1.583   0.329   0.903  0.00  0.00     0.041 A 
ATOM      4  C3  UNL d   1       0.302   0.350   0.318  0.00  0.00    -0.075 A 
ATOM      5  S   UNL d   1      -0.078   0.605  -1.344  0.00  0.00     0.015 SA
ATOM      6  C4  UNL d   1      -1.752   0.457  -1.061  0.00  0.00     0.022 A 
ATOM      7  C5  UNL d   1      -2.032   0.218   0.263  0.00  0.00     0.026 A 
ATOM      8  C6  UNL d   1      -0.853   0.153   1.080  0.00  0.00    -0.082 A 
ATOM      9  C7  UNL d   1      -0.706  -0.071   2.470  0.00  0.00     0.045 A 
ENDROOT
TORSDOF 0
ENDMDL
