MODEL 1
REMARK minimizedAffinity -1.38952076
REMARK minimizedRMSD -1
REMARK  0 active torsions:
REMARK  status: ('A' for Active; 'I' for Inactive)
ROOT
ATOM      1  C   UNL d   1      -0.975  -0.639   3.155  0.00  0.00    -0.002 A 
ATOM      2  C1  UNL d   1       0.358  -0.676   2.771  0.00  0.00     0.010 A 
ATOM      3  C2  UNL d   1       0.732  -0.338   1.469  0.00  0.00     0.041 A 
ATOM      4  C3  UNL d   1      -0.265   0.045   0.551  0.00  0.00    -0.075 A 
ATOM      5  S   UNL d   1      -0.042   0.503  -1.096  0.00  0.00     0.015 SA
ATOM      6  C4  UNL d   1      -1.711   0.761  -1.329  0.00  0.00     0.022 A 
ATOM      7  C5  UNL d   1      -2.435   0.508  -0.188  0.00  0.00     0.026 A 
ATOM      8  C6  UNL d   1      -1.614   0.092   0.914  0.00  0.00    -0.082 A 
ATOM      9  C7  UNL d   1      -1.961  -0.258   2.241  0.00  0.00     0.045 A 
ENDROOT
TORSDOF 0
ENDMDL
