MODEL 1
REMARK minimizedAffinity -3.96750093
REMARK minimizedRMSD -1
REMARK  0 active torsions:
REMARK  status: ('A' for Active; 'I' for Inactive)
ROOT
ATOM      1  C   UNL d   1       0.220  -0.811   3.004  0.00  0.00    -0.002 A 
ATOM      2  C1  UNL d   1      -1.145  -1.056   2.969  0.00  0.00     0.010 A 
ATOM      3  C2  UNL d   1      -1.897  -0.731   1.839  0.00  0.00     0.041 A 
ATOM      4  C3  UNL d   1      -1.247  -0.151   0.732  0.00  0.00    -0.075 A 
ATOM      5  S   UNL d   1      -1.965   0.329  -0.761  0.00  0.00     0.015 SA
ATOM      6  C4  UNL d   1      -0.476   0.870  -1.388  0.00  0.00     0.022 A 
ATOM      7  C5  UNL d   1       0.554   0.697  -0.495  0.00  0.00     0.026 A 
ATOM      8  C6  UNL d   1       0.127   0.105   0.742  0.00  0.00    -0.082 A 
ATOM      9  C7  UNL d   1       0.861  -0.235   1.903  0.00  0.00     0.045 A 
ENDROOT
TORSDOF 0
ENDMDL
