MODEL 1
REMARK minimizedAffinity -4.20514441
REMARK minimizedRMSD -1
REMARK  0 active torsions:
REMARK  status: ('A' for Active; 'I' for Inactive)
ROOT
ATOM      1  C   UNL d   1      -1.268  -0.399   3.126  0.00  0.00    -0.002 A 
ATOM      2  C1  UNL d   1      -2.356  -0.514   2.272  0.00  0.00     0.010 A 
ATOM      3  C2  UNL d   1      -2.210  -0.287   0.902  0.00  0.00     0.041 A 
ATOM      4  C3  UNL d   1      -0.941   0.060   0.400  0.00  0.00    -0.075 A 
ATOM      5  S   UNL d   1      -0.526   0.384  -1.242  0.00  0.00     0.015 SA
ATOM      6  C4  UNL d   1       1.105   0.683  -0.849  0.00  0.00     0.022 A 
ATOM      7  C5  UNL d   1       1.345   0.544   0.498  0.00  0.00     0.026 A 
ATOM      8  C6  UNL d   1       0.170   0.182   1.240  0.00  0.00    -0.082 A 
ATOM      9  C7  UNL d   1      -0.010  -0.054   2.624  0.00  0.00     0.045 A 
ENDROOT
TORSDOF 0
ENDMDL
