MODEL 1
REMARK minimizedAffinity -1.97856569
REMARK minimizedRMSD -1
REMARK  0 active torsions:
REMARK  status: ('A' for Active; 'I' for Inactive)
ROOT
ATOM      1  C   UNL d   1      -1.245  -0.452   3.172  0.00  0.00    -0.002 A 
ATOM      2  C1  UNL d   1      -2.171  -0.576   2.146  0.00  0.00     0.010 A 
ATOM      3  C2  UNL d   1      -1.799  -0.344   0.821  0.00  0.00     0.041 A 
ATOM      4  C3  UNL d   1      -0.466   0.017   0.541  0.00  0.00    -0.075 A 
ATOM      5  S   UNL d   1       0.218   0.349  -1.006  0.00  0.00     0.015 SA
ATOM      6  C4  UNL d   1       1.756   0.664  -0.342  0.00  0.00     0.022 A 
ATOM      7  C5  UNL d   1       1.765   0.524   1.026  0.00  0.00     0.026 A 
ATOM      8  C6  UNL d   1       0.485   0.148   1.557  0.00  0.00    -0.082 A 
ATOM      9  C7  UNL d   1       0.076  -0.093   2.891  0.00  0.00     0.045 A 
ENDROOT
TORSDOF 0
ENDMDL
