MODEL 1
REMARK minimizedAffinity -3.4735148
REMARK minimizedRMSD -1
REMARK  0 active torsions:
REMARK  status: ('A' for Active; 'I' for Inactive)
ROOT
ATOM      1  C   UNL d   1      -1.591  -0.756   2.336  0.00  0.00    -0.002 A 
ATOM      2  C1  UNL d   1      -0.456  -0.544   3.105  0.00  0.00     0.010 A 
ATOM      3  C2  UNL d   1       0.732  -0.109   2.513  0.00  0.00     0.041 A 
ATOM      4  C3  UNL d   1       0.759   0.114   1.123  0.00  0.00    -0.075 A 
ATOM      5  S   UNL d   1       2.100   0.649   0.181  0.00  0.00     0.015 SA
ATOM      6  C4  UNL d   1       1.198   0.610  -1.264  0.00  0.00     0.022 A 
ATOM      7  C5  UNL d   1      -0.098   0.201  -1.052  0.00  0.00     0.026 A 
ATOM      8  C6  UNL d   1      -0.372  -0.091   0.327  0.00  0.00    -0.082 A 
ATOM      9  C7  UNL d   1      -1.561  -0.534   0.956  0.00  0.00     0.045 A 
ENDROOT
TORSDOF 0
ENDMDL
