MODEL 1
REMARK minimizedAffinity -6.45997334
REMARK minimizedRMSD -1
REMARK  0 active torsions:
REMARK  status: ('A' for Active; 'I' for Inactive)
ROOT
ATOM      1  O1  BZF d   1       0.114   0.454  -1.017  0.00  0.00    -0.204 OA
ATOM      2  C2  BZF d   1      -0.538   0.996   0.074  0.00  0.00     0.174 A 
ATOM      3  C3  BZF d   1      -1.074   0.025   0.842  0.00  0.00    -0.012 A 
ATOM      4  C3A BZF d   1      -0.656  -1.204   0.240  0.00  0.00    -0.107 A 
ATOM      5  C4  BZF d   1      -0.857  -2.518   0.552  0.00  0.00     0.055 A 
ATOM      6  C5  BZF d   1      -0.375  -3.476  -0.282  0.00  0.00    -0.016 A 
ATOM      7  C6  BZF d   1       0.307  -3.157  -1.437  0.00  0.00     0.022 A 
ATOM      8  C7  BZF d   1       0.536  -1.867  -1.787  0.00  0.00     0.029 A 
ATOM      9  C7A BZF d   1       0.078  -0.897  -0.929  0.00  0.00     0.058 A 
ENDROOT
TORSDOF 0
ENDMDL
