MODEL 1
REMARK minimizedAffinity -3.49099469
REMARK minimizedRMSD -1
REMARK  0 active torsions:
REMARK  status: ('A' for Active; 'I' for Inactive)
ROOT
ATOM      1  O1  BZF d   1       0.069   1.119   1.089  0.00  0.00    -0.204 OA
ATOM      2  C2  BZF d   1       0.113   2.340   0.444  0.00  0.00     0.174 A 
ATOM      3  C3  BZF d   1       0.225   2.173  -0.890  0.00  0.00    -0.012 A 
ATOM      4  C3A BZF d   1       0.159   0.759  -1.098  0.00  0.00    -0.107 A 
ATOM      5  C4  BZF d   1       0.198  -0.029  -2.213  0.00  0.00     0.055 A 
ATOM      6  C5  BZF d   1       0.183  -1.380  -2.068  0.00  0.00    -0.016 A 
ATOM      7  C6  BZF d   1       0.135  -1.977  -0.825  0.00  0.00     0.022 A 
ATOM      8  C7  BZF d   1       0.090  -1.237   0.309  0.00  0.00     0.029 A 
ATOM      9  C7A BZF d   1       0.071   0.129   0.165  0.00  0.00     0.058 A 
ENDROOT
TORSDOF 0
ENDMDL
