MODEL 1
REMARK minimizedAffinity -2.31026959
REMARK minimizedRMSD -1
REMARK  0 active torsions:
REMARK  status: ('A' for Active; 'I' for Inactive)
ROOT
ATOM      1  O1  BZF d   1      -1.031  -2.830   1.029  0.00  0.00    -0.204 OA
ATOM      2  C2  BZF d   1      -0.526  -3.576  -0.019  0.00  0.00     0.174 A 
ATOM      3  C3  BZF d   1       0.040  -2.776  -0.946  0.00  0.00    -0.012 A 
ATOM      4  C3A BZF d   1      -0.039  -1.455  -0.402  0.00  0.00    -0.107 A 
ATOM      5  C4  BZF d   1       0.369  -0.231  -0.848  0.00  0.00     0.055 A 
ATOM      6  C5  BZF d   1       0.075   0.872  -0.110  0.00  0.00    -0.016 A 
ATOM      7  C6  BZF d   1      -0.628   0.788   1.073  0.00  0.00     0.022 A 
ATOM      8  C7  BZF d   1      -1.049  -0.406   1.559  0.00  0.00     0.029 A 
ATOM      9  C7A BZF d   1      -0.725  -1.525   0.832  0.00  0.00     0.058 A 
ENDROOT
TORSDOF 0
ENDMDL
