MODEL 1
REMARK minimizedAffinity -4.56809187
REMARK minimizedRMSD -1
REMARK  0 active torsions:
REMARK  status: ('A' for Active; 'I' for Inactive)
ROOT
ATOM      1  O1  BZF d   1      -1.094   5.026   1.522  0.00  0.00    -0.204 OA
ATOM      2  C2  BZF d   1      -0.826   5.996   2.469  0.00  0.00     0.174 A 
ATOM      3  C3  BZF d   1       0.470   5.958   2.839  0.00  0.00    -0.012 A 
ATOM      4  C3A BZF d   1       1.069   4.958   2.009  0.00  0.00    -0.107 A 
ATOM      5  C4  BZF d   1       2.340   4.473   1.893  0.00  0.00     0.055 A 
ATOM      6  C5  BZF d   1       2.579   3.445   1.036  0.00  0.00    -0.016 A 
ATOM      7  C6  BZF d   1       1.571   2.877   0.285  0.00  0.00     0.022 A 
ATOM      8  C7  BZF d   1       0.296   3.328   0.362  0.00  0.00     0.029 A 
ATOM      9  C7A BZF d   1       0.057   4.388   1.202  0.00  0.00     0.058 A 
ENDROOT
TORSDOF 0
ENDMDL
