MODEL 1
REMARK minimizedAffinity -3.90091205
REMARK minimizedRMSD -1
REMARK  0 active torsions:
REMARK  status: ('A' for Active; 'I' for Inactive)
ROOT
ATOM      1  O1  BZF d   1      -0.429   1.122  -1.381  0.00  0.00    -0.204 OA
ATOM      2  C2  BZF d   1      -0.942   1.337  -0.117  0.00  0.00     0.174 A 
ATOM      3  C3  BZF d   1      -0.809   0.234   0.648  0.00  0.00    -0.012 A 
ATOM      4  C3A BZF d   1      -0.091  -0.701  -0.163  0.00  0.00    -0.107 A 
ATOM      5  C4  BZF d   1       0.358  -1.974   0.046  0.00  0.00     0.055 A 
ATOM      6  C5  BZF d   1       0.960  -2.638  -0.975  0.00  0.00    -0.016 A 
ATOM      7  C6  BZF d   1       1.126  -2.062  -2.218  0.00  0.00     0.022 A 
ATOM      8  C7  BZF d   1       0.701  -0.800  -2.471  0.00  0.00     0.029 A 
ATOM      9  C7A BZF d   1       0.121  -0.115  -1.432  0.00  0.00     0.058 A 
ENDROOT
TORSDOF 0
ENDMDL
