MODEL 1
REMARK minimizedAffinity -5.25603342
REMARK minimizedRMSD -1
REMARK  0 active torsions:
REMARK  status: ('A' for Active; 'I' for Inactive)
ROOT
ATOM      1  O1  BZF d   1      -1.258   0.716   0.600  0.00  0.00    -0.204 OA
ATOM      2  C2  BZF d   1      -0.591   1.552  -0.274  0.00  0.00     0.174 A 
ATOM      3  C3  BZF d   1       0.433   0.906  -0.867  0.00  0.00    -0.012 A 
ATOM      4  C3A BZF d   1       0.348  -0.443  -0.398  0.00  0.00    -0.107 A 
ATOM      5  C4  BZF d   1       1.081  -1.570  -0.642  0.00  0.00     0.055 A 
ATOM      6  C5  BZF d   1       0.782  -2.711   0.032  0.00  0.00    -0.016 A 
ATOM      7  C6  BZF d   1      -0.239  -2.760   0.959  0.00  0.00     0.022 A 
ATOM      8  C7  BZF d   1      -0.996  -1.670   1.231  0.00  0.00     0.029 A 
ATOM      9  C7A BZF d   1      -0.717  -0.524   0.527  0.00  0.00     0.058 A 
ENDROOT
TORSDOF 0
ENDMDL
