MODEL 1
REMARK minimizedAffinity -4.44412899
REMARK minimizedRMSD -1
REMARK  0 active torsions:
REMARK  status: ('A' for Active; 'I' for Inactive)
ROOT
ATOM      1  O1  BZF d   1       0.902  -2.405  -0.649  0.00  0.00    -0.204 OA
ATOM      2  C2  BZF d   1       0.347  -3.341   0.202  0.00  0.00     0.174 A 
ATOM      3  C3  BZF d   1      -0.495  -2.754   1.076  0.00  0.00    -0.012 A 
ATOM      4  C3A BZF d   1      -0.536  -1.376   0.692  0.00  0.00    -0.107 A 
ATOM      5  C4  BZF d   1      -1.208  -0.288   1.170  0.00  0.00     0.055 A 
ATOM      6  C5  BZF d   1      -0.971   0.930   0.616  0.00  0.00    -0.016 A 
ATOM      7  C6  BZF d   1      -0.065   1.097  -0.411  0.00  0.00     0.022 A 
ATOM      8  C7  BZF d   1       0.622   0.046  -0.922  0.00  0.00     0.029 A 
ATOM      9  C7A BZF d   1       0.360  -1.192  -0.387  0.00  0.00     0.058 A 
ENDROOT
TORSDOF 0
ENDMDL
