MODEL 1
REMARK minimizedAffinity -4.69886446
REMARK minimizedRMSD -1
REMARK  0 active torsions:
REMARK  status: ('A' for Active; 'I' for Inactive)
ROOT
ATOM      1  O1  BZF d   1      -0.958  -2.463   1.072  0.00  0.00    -0.204 OA
ATOM      2  C2  BZF d   1      -0.375  -3.373   0.212  0.00  0.00     0.174 A 
ATOM      3  C3  BZF d   1       0.299  -2.740  -0.769  0.00  0.00    -0.012 A 
ATOM      4  C3A BZF d   1       0.204  -1.348  -0.454  0.00  0.00    -0.107 A 
ATOM      5  C4  BZF d   1       0.685  -0.216  -1.047  0.00  0.00     0.055 A 
ATOM      6  C5  BZF d   1       0.351   0.995  -0.528  0.00  0.00    -0.016 A 
ATOM      7  C6  BZF d   1      -0.465   1.110   0.578  0.00  0.00     0.022 A 
ATOM      8  C7  BZF d   1      -0.963   0.016   1.203  0.00  0.00     0.029 A 
ATOM      9  C7A BZF d   1      -0.600  -1.210   0.701  0.00  0.00     0.058 A 
ENDROOT
TORSDOF 0
ENDMDL
