MODEL 1
REMARK minimizedAffinity -2.91208124
REMARK minimizedRMSD -1
REMARK  0 active torsions:
REMARK  status: ('A' for Active; 'I' for Inactive)
ROOT
ATOM      1  O1  BZF d   1       0.249   0.761  -1.263  0.00  0.00    -0.204 OA
ATOM      2  C2  BZF d   1      -0.252   1.476  -0.193  0.00  0.00     0.174 A 
ATOM      3  C3  BZF d   1      -0.691   0.646   0.775  0.00  0.00    -0.012 A 
ATOM      4  C3A BZF d   1      -0.365  -0.670   0.318  0.00  0.00    -0.107 A 
ATOM      5  C4  BZF d   1      -0.533  -1.917   0.848  0.00  0.00     0.055 A 
ATOM      6  C5  BZF d   1      -0.171  -3.002   0.114  0.00  0.00    -0.016 A 
ATOM      7  C6  BZF d   1       0.359  -2.877  -1.154  0.00  0.00     0.022 A 
ATOM      8  C7  BZF d   1       0.550  -1.660  -1.720  0.00  0.00     0.029 A 
ATOM      9  C7A BZF d   1       0.214  -0.561  -0.968  0.00  0.00     0.058 A 
ENDROOT
TORSDOF 0
ENDMDL
