MODEL 1
REMARK minimizedAffinity -4.36498737
REMARK minimizedRMSD -1
REMARK  0 active torsions:
REMARK  status: ('A' for Active; 'I' for Inactive)
ROOT
ATOM      1  O1  BZF d   1       1.296  -0.236  -0.839  0.00  0.00    -0.204 OA
ATOM      2  C2  BZF d   1       0.947   1.097  -0.744  0.00  0.00     0.174 A 
ATOM      3  C3  BZF d   1      -0.116   1.257   0.070  0.00  0.00    -0.012 A 
ATOM      4  C3A BZF d   1      -0.396  -0.048   0.585  0.00  0.00    -0.107 A 
ATOM      5  C4  BZF d   1      -1.327  -0.534   1.457  0.00  0.00     0.055 A 
ATOM      6  C5  BZF d   1      -1.377  -1.872   1.693  0.00  0.00    -0.016 A 
ATOM      7  C6  BZF d   1      -0.516  -2.751   1.071  0.00  0.00     0.022 A 
ATOM      8  C7  BZF d   1       0.428  -2.316   0.201  0.00  0.00     0.029 A 
ATOM      9  C7A BZF d   1       0.503  -0.962  -0.014  0.00  0.00     0.058 A 
ENDROOT
TORSDOF 0
ENDMDL
