MODEL 1
REMARK minimizedAffinity -4.75023413
REMARK minimizedRMSD -1
REMARK  0 active torsions:
REMARK  status: ('A' for Active; 'I' for Inactive)
ROOT
ATOM      1  O1  BZF d   1      -0.845  -2.665   1.407  0.00  0.00    -0.204 OA
ATOM      2  C2  BZF d   1      -0.049  -3.392   0.543  0.00  0.00     0.174 A 
ATOM      3  C3  BZF d   1       0.492  -2.592  -0.398  0.00  0.00    -0.012 A 
ATOM      4  C3A BZF d   1       0.077  -1.268  -0.049  0.00  0.00    -0.107 A 
ATOM      5  C4  BZF d   1       0.307  -0.037  -0.596  0.00  0.00     0.055 A 
ATOM      6  C5  BZF d   1      -0.304   1.050  -0.056  0.00  0.00    -0.016 A 
ATOM      7  C6  BZF d   1      -1.156   0.943   1.024  0.00  0.00     0.022 A 
ATOM      8  C7  BZF d   1      -1.411  -0.256   1.603  0.00  0.00     0.029 A 
ATOM      9  C7A BZF d   1      -0.768  -1.352   1.081  0.00  0.00     0.058 A 
ENDROOT
TORSDOF 0
ENDMDL
