MODEL 1
REMARK minimizedAffinity -2.48958611
REMARK minimizedRMSD -1
REMARK  0 active torsions:
REMARK  status: ('A' for Active; 'I' for Inactive)
ROOT
ATOM      1  O1  BZF d   1       1.042   0.258   0.666  0.00  0.00    -0.204 OA
ATOM      2  C2  BZF d   1      -0.284   0.071   0.326  0.00  0.00     0.174 A 
ATOM      3  C3  BZF d   1      -0.894   1.254   0.111  0.00  0.00    -0.012 A 
ATOM      4  C3A BZF d   1       0.136   2.238   0.242  0.00  0.00    -0.107 A 
ATOM      5  C4  BZF d   1       0.155   3.598   0.125  0.00  0.00     0.055 A 
ATOM      6  C5  BZF d   1       1.309   4.268   0.386  0.00  0.00    -0.016 A 
ATOM      7  C6  BZF d   1       2.459   3.610   0.770  0.00  0.00     0.022 A 
ATOM      8  C7  BZF d   1       2.490   2.261   0.895  0.00  0.00     0.029 A 
ATOM      9  C7A BZF d   1       1.335   1.579   0.600  0.00  0.00     0.058 A 
ENDROOT
TORSDOF 0
ENDMDL
