MODEL 1
REMARK minimizedAffinity -4.37884188
REMARK minimizedRMSD -1
REMARK  0 active torsions:
REMARK  status: ('A' for Active; 'I' for Inactive)
ROOT
ATOM      1  O1  BZF d   1       0.004   0.060  -0.622  0.00  0.00    -0.204 OA
ATOM      2  C2  BZF d   1      -0.383   0.418   0.655  0.00  0.00     0.174 A 
ATOM      3  C3  BZF d   1      -0.708  -0.672   1.380  0.00  0.00    -0.012 A 
ATOM      4  C3A BZF d   1      -0.423  -1.787   0.531  0.00  0.00    -0.107 A 
ATOM      5  C4  BZF d   1      -0.524  -3.140   0.692  0.00  0.00     0.055 A 
ATOM      6  C5  BZF d   1      -0.235  -3.953  -0.358  0.00  0.00    -0.016 A 
ATOM      7  C6  BZF d   1       0.152  -3.449  -1.582  0.00  0.00     0.022 A 
ATOM      8  C7  BZF d   1       0.271  -2.115  -1.788  0.00  0.00     0.029 A 
ATOM      9  C7A BZF d   1       0.012  -1.291  -0.720  0.00  0.00     0.058 A 
ENDROOT
TORSDOF 0
ENDMDL
