MODEL 1
REMARK minimizedAffinity -3.0790801
REMARK minimizedRMSD -1
REMARK  0 active torsions:
REMARK  status: ('A' for Active; 'I' for Inactive)
ROOT
ATOM      1  O1  BZF d   1      -0.267   0.291  -1.392  0.00  0.00    -0.204 OA
ATOM      2  C2  BZF d   1      -0.238   1.516  -0.754  0.00  0.00     0.174 A 
ATOM      3  C3  BZF d   1      -0.434   1.370   0.572  0.00  0.00    -0.012 A 
ATOM      4  C3A BZF d   1      -0.502  -0.042   0.789  0.00  0.00    -0.107 A 
ATOM      5  C4  BZF d   1      -0.668  -0.814   1.903  0.00  0.00     0.055 A 
ATOM      6  C5  BZF d   1      -0.764  -2.163   1.764  0.00  0.00    -0.016 A 
ATOM      7  C6  BZF d   1      -0.703  -2.771   0.528  0.00  0.00     0.022 A 
ATOM      8  C7  BZF d   1      -0.534  -2.048  -0.606  0.00  0.00     0.029 A 
ATOM      9  C7A BZF d   1      -0.404  -0.688  -0.466  0.00  0.00     0.058 A 
ENDROOT
TORSDOF 0
ENDMDL
