MODEL 1
REMARK minimizedAffinity -6.2253871
REMARK minimizedRMSD -1
REMARK  0 active torsions:
REMARK  status: ('A' for Active; 'I' for Inactive)
ROOT
ATOM      1  O1  BZF d   1      -0.129   0.658  -1.706  0.00  0.00    -0.204 OA
ATOM      2  C2  BZF d   1      -0.359   1.305  -0.507  0.00  0.00     0.174 A 
ATOM      3  C3  BZF d   1      -0.523   0.416   0.493  0.00  0.00    -0.012 A 
ATOM      4  C3A BZF d   1      -0.294  -0.865  -0.101  0.00  0.00    -0.107 A 
ATOM      5  C4  BZF d   1      -0.298  -2.141   0.386  0.00  0.00     0.055 A 
ATOM      6  C5  BZF d   1      -0.109  -3.177  -0.473  0.00  0.00    -0.016 A 
ATOM      7  C6  BZF d   1       0.081  -2.974  -1.824  0.00  0.00     0.022 A 
ATOM      8  C7  BZF d   1       0.097  -1.727  -2.354  0.00  0.00     0.029 A 
ATOM      9  C7A BZF d   1      -0.060  -0.676  -1.483  0.00  0.00     0.058 A 
ENDROOT
TORSDOF 0
ENDMDL
