MODEL 1
REMARK minimizedAffinity -4.22437811
REMARK minimizedRMSD -1
REMARK  0 active torsions:
REMARK  status: ('A' for Active; 'I' for Inactive)
ROOT
ATOM      1  O1  BZF d   1      -1.218  -2.384   1.053  0.00  0.00    -0.204 OA
ATOM      2  C2  BZF d   1      -0.557  -3.296   0.254  0.00  0.00     0.174 A 
ATOM      3  C3  BZF d   1       0.177  -2.665  -0.685  0.00  0.00    -0.012 A 
ATOM      4  C3A BZF d   1       0.034  -1.270  -0.400  0.00  0.00    -0.107 A 
ATOM      5  C4  BZF d   1       0.538  -0.138  -0.974  0.00  0.00     0.055 A 
ATOM      6  C5  BZF d   1       0.145   1.074  -0.500  0.00  0.00    -0.016 A 
ATOM      7  C6  BZF d   1      -0.753   1.190   0.540  0.00  0.00     0.022 A 
ATOM      8  C7  BZF d   1      -1.276   0.096   1.145  0.00  0.00     0.029 A 
ATOM      9  C7A BZF d   1      -0.856  -1.130   0.690  0.00  0.00     0.058 A 
ENDROOT
TORSDOF 0
ENDMDL
