MODEL 1
REMARK minimizedAffinity -4.21771145
REMARK minimizedRMSD -1
REMARK  0 active torsions:
REMARK  status: ('A' for Active; 'I' for Inactive)
ROOT
ATOM      1  O1  BZF d   1      -0.782  -2.638   1.312  0.00  0.00    -0.204 OA
ATOM      2  C2  BZF d   1      -0.109  -3.507   0.475  0.00  0.00     0.174 A 
ATOM      3  C3  BZF d   1       0.432  -2.844  -0.568  0.00  0.00    -0.012 A 
ATOM      4  C3A BZF d   1       0.153  -1.462  -0.321  0.00  0.00    -0.107 A 
ATOM      5  C4  BZF d   1       0.448  -0.310  -0.993  0.00  0.00     0.055 A 
ATOM      6  C5  BZF d   1      -0.034   0.870  -0.522  0.00  0.00    -0.016 A 
ATOM      7  C6  BZF d   1      -0.816   0.935   0.612  0.00  0.00     0.022 A 
ATOM      8  C7  BZF d   1      -1.131  -0.180   1.315  0.00  0.00     0.029 A 
ATOM      9  C7A BZF d   1      -0.618  -1.371   0.861  0.00  0.00     0.058 A 
ENDROOT
TORSDOF 0
ENDMDL
