MODEL 1
REMARK minimizedAffinity -3.77203012
REMARK minimizedRMSD -1
REMARK  0 active torsions:
REMARK  status: ('A' for Active; 'I' for Inactive)
ROOT
ATOM      1  O1  BZF d   1       0.297  -2.610  -0.091  0.00  0.00    -0.204 OA
ATOM      2  C2  BZF d   1       0.012  -2.509   1.257  0.00  0.00     0.174 A 
ATOM      3  C3  BZF d   1      -0.232  -1.228   1.601  0.00  0.00    -0.012 A 
ATOM      4  C3A BZF d   1      -0.182  -0.494   0.374  0.00  0.00    -0.107 A 
ATOM      5  C4  BZF d   1      -0.360   0.823   0.060  0.00  0.00     0.055 A 
ATOM      6  C5  BZF d   1      -0.170   1.228  -1.223  0.00  0.00    -0.016 A 
ATOM      7  C6  BZF d   1       0.201   0.345  -2.216  0.00  0.00     0.022 A 
ATOM      8  C7  BZF d   1       0.384  -0.972  -1.954  0.00  0.00     0.029 A 
ATOM      9  C7A BZF d   1       0.161  -1.390  -0.665  0.00  0.00     0.058 A 
ENDROOT
TORSDOF 0
ENDMDL
