MODEL 1
REMARK minimizedAffinity -4.74474525
REMARK minimizedRMSD -1
REMARK  0 active torsions:
REMARK  status: ('A' for Active; 'I' for Inactive)
ROOT
ATOM      1  O1  BZF d   1      -0.479  -2.743   1.186  0.00  0.00    -0.204 OA
ATOM      2  C2  BZF d   1       0.366  -3.402   0.314  0.00  0.00     0.174 A 
ATOM      3  C3  BZF d   1       0.768  -2.580  -0.676  0.00  0.00    -0.012 A 
ATOM      4  C3A BZF d   1       0.209  -1.303  -0.355  0.00  0.00    -0.107 A 
ATOM      5  C4  BZF d   1       0.266  -0.076  -0.951  0.00  0.00     0.055 A 
ATOM      6  C5  BZF d   1      -0.452   0.950  -0.423  0.00  0.00    -0.016 A 
ATOM      7  C6  BZF d   1      -1.241   0.783   0.697  0.00  0.00     0.022 A 
ATOM      8  C7  BZF d   1      -1.325  -0.414   1.326  0.00  0.00     0.029 A 
ATOM      9  C7A BZF d   1      -0.575  -1.444   0.814  0.00  0.00     0.058 A 
ENDROOT
TORSDOF 0
ENDMDL
