MODEL 1
REMARK minimizedAffinity -3.62755418
REMARK minimizedRMSD -1
REMARK  0 active torsions:
REMARK  status: ('A' for Active; 'I' for Inactive)
ROOT
ATOM      1  O1  BZF d   1       1.818  -1.452  -0.507  0.00  0.00    -0.204 OA
ATOM      2  C2  BZF d   1       1.366  -0.962  -1.717  0.00  0.00     0.174 A 
ATOM      3  C3  BZF d   1       0.214  -0.280  -1.557  0.00  0.00    -0.012 A 
ATOM      4  C3A BZF d   1      -0.023  -0.268  -0.146  0.00  0.00    -0.107 A 
ATOM      5  C4  BZF d   1      -1.004   0.270   0.637  0.00  0.00     0.055 A 
ATOM      6  C5  BZF d   1      -0.982   0.038   1.976  0.00  0.00    -0.016 A 
ATOM      7  C6  BZF d   1       0.001  -0.731   2.564  0.00  0.00     0.022 A 
ATOM      8  C7  BZF d   1       0.998  -1.281   1.829  0.00  0.00     0.029 A 
ATOM      9  C7A BZF d   1       0.997  -1.021   0.480  0.00  0.00     0.058 A 
ENDROOT
TORSDOF 0
ENDMDL
