MODEL 1
REMARK minimizedAffinity 0.159557849
REMARK minimizedRMSD -1
REMARK  0 active torsions:
REMARK  status: ('A' for Active; 'I' for Inactive)
ROOT
ATOM      1  O1  BZF d   1       1.630  -0.928  -2.124  0.00  0.00    -0.204 OA
ATOM      2  C2  BZF d   1       2.756  -1.277  -1.403  0.00  0.00     0.174 A 
ATOM      3  C3  BZF d   1       2.567  -1.059  -0.086  0.00  0.00    -0.012 A 
ATOM      4  C3A BZF d   1       1.207  -0.629   0.033  0.00  0.00    -0.107 A 
ATOM      5  C4  BZF d   1       0.423  -0.277   1.095  0.00  0.00     0.055 A 
ATOM      6  C5  BZF d   1      -0.841   0.166   0.864  0.00  0.00    -0.016 A 
ATOM      7  C6  BZF d   1      -1.351   0.273  -0.413  0.00  0.00     0.022 A 
ATOM      8  C7  BZF d   1      -0.613  -0.070  -1.497  0.00  0.00     0.029 A 
ATOM      9  C7A BZF d   1       0.653  -0.548  -1.265  0.00  0.00     0.058 A 
ENDROOT
TORSDOF 0
ENDMDL
