MODEL 1
REMARK minimizedAffinity -3.53536916
REMARK minimizedRMSD -1
REMARK  0 active torsions:
REMARK  status: ('A' for Active; 'I' for Inactive)
ROOT
ATOM      1  O1  BZF d   1      -1.614  -0.799   0.668  0.00  0.00    -0.204 OA
ATOM      2  C2  BZF d   1      -1.356   0.061  -0.383  0.00  0.00     0.174 A 
ATOM      3  C3  BZF d   1      -0.132   0.613  -0.260  0.00  0.00    -0.012 A 
ATOM      4  C3A BZF d   1       0.446  -0.006   0.893  0.00  0.00    -0.107 A 
ATOM      5  C4  BZF d   1       1.655   0.115   1.517  0.00  0.00     0.055 A 
ATOM      6  C5  BZF d   1       1.878  -0.578   2.665  0.00  0.00    -0.016 A 
ATOM      7  C6  BZF d   1       0.914  -1.395   3.219  0.00  0.00     0.022 A 
ATOM      8  C7  BZF d   1      -0.298  -1.551   2.633  0.00  0.00     0.029 A 
ATOM      9  C7A BZF d   1      -0.515  -0.878   1.456  0.00  0.00     0.058 A 
ENDROOT
TORSDOF 0
ENDMDL
