MODEL 1
REMARK minimizedAffinity -4.42666006
REMARK minimizedRMSD -1
REMARK  0 active torsions:
REMARK  status: ('A' for Active; 'I' for Inactive)
ROOT
ATOM      1  O1  BZF d   1       0.583  -1.099  -1.529  0.00  0.00    -0.204 OA
ATOM      2  C2  BZF d   1       1.902  -1.511  -1.560  0.00  0.00     0.174 A 
ATOM      3  C3  BZF d   1       2.458  -1.424  -0.335  0.00  0.00    -0.012 A 
ATOM      4  C3A BZF d   1       1.397  -1.014   0.533  0.00  0.00    -0.107 A 
ATOM      5  C4  BZF d   1       1.322  -0.770   1.874  0.00  0.00     0.055 A 
ATOM      6  C5  BZF d   1       0.154  -0.313   2.398  0.00  0.00    -0.016 A 
ATOM      7  C6  BZF d   1      -0.955  -0.085   1.611  0.00  0.00     0.022 A 
ATOM      8  C7  BZF d   1      -0.930  -0.318   0.276  0.00  0.00     0.029 A 
ATOM      9  C7A BZF d   1       0.238  -0.810  -0.252  0.00  0.00     0.058 A 
ENDROOT
TORSDOF 0
ENDMDL
