MODEL 1
REMARK minimizedAffinity 0.749716401
REMARK minimizedRMSD -1
REMARK  0 active torsions:
REMARK  status: ('A' for Active; 'I' for Inactive)
ROOT
ATOM      1  O1  BZF d   1      -1.588   0.785  -3.114  0.00  0.00    -0.204 OA
ATOM      2  C2  BZF d   1      -2.889   0.328  -3.039  0.00  0.00     0.174 A 
ATOM      3  C3  BZF d   1      -3.746   1.352  -2.852  0.00  0.00    -0.012 A 
ATOM      4  C3A BZF d   1      -2.938   2.532  -2.899  0.00  0.00    -0.107 A 
ATOM      5  C4  BZF d   1      -3.215   3.865  -2.794  0.00  0.00     0.055 A 
ATOM      6  C5  BZF d   1      -2.190   4.756  -2.810  0.00  0.00    -0.016 A 
ATOM      7  C6  BZF d   1      -0.876   4.350  -2.925  0.00  0.00     0.022 A 
ATOM      8  C7  BZF d   1      -0.552   3.039  -3.038  0.00  0.00     0.029 A 
ATOM      9  C7A BZF d   1      -1.589   2.138  -3.055  0.00  0.00     0.058 A 
ENDROOT
TORSDOF 0
ENDMDL
