MODEL 1
REMARK minimizedAffinity -2.94539595
REMARK minimizedRMSD -1
REMARK  0 active torsions:
REMARK  status: ('A' for Active; 'I' for Inactive)
ROOT
ATOM      1  O1  BZF d   1       2.198  -1.413  -0.788  0.00  0.00    -0.204 OA
ATOM      2  C2  BZF d   1       2.623  -1.447   0.526  0.00  0.00     0.174 A 
ATOM      3  C3  BZF d   1       1.908  -0.590   1.282  0.00  0.00    -0.012 A 
ATOM      4  C3A BZF d   1       0.916  -0.050   0.404  0.00  0.00    -0.107 A 
ATOM      5  C4  BZF d   1      -0.102   0.844   0.573  0.00  0.00     0.055 A 
ATOM      6  C5  BZF d   1      -0.843   1.213  -0.504  0.00  0.00    -0.016 A 
ATOM      7  C6  BZF d   1      -0.592   0.713  -1.765  0.00  0.00     0.022 A 
ATOM      8  C7  BZF d   1       0.404  -0.181  -1.981  0.00  0.00     0.029 A 
ATOM      9  C7A BZF d   1       1.134  -0.581  -0.889  0.00  0.00     0.058 A 
ENDROOT
TORSDOF 0
ENDMDL
