MODEL 1
REMARK minimizedAffinity -0.932720065
REMARK minimizedRMSD -1
REMARK  0 active torsions:
REMARK  status: ('A' for Active; 'I' for Inactive)
ROOT
ATOM      1  O1  BZF d   1       0.273   2.285  -2.238  0.00  0.00    -0.204 OA
ATOM      2  C2  BZF d   1      -0.767   2.523  -3.116  0.00  0.00     0.174 A 
ATOM      3  C3  BZF d   1      -1.847   1.783  -2.791  0.00  0.00    -0.012 A 
ATOM      4  C3A BZF d   1      -1.488   1.104  -1.584  0.00  0.00    -0.107 A 
ATOM      5  C4  BZF d   1      -2.149   0.234  -0.764  0.00  0.00     0.055 A 
ATOM      6  C5  BZF d   1      -1.491  -0.303   0.296  0.00  0.00    -0.016 A 
ATOM      7  C6  BZF d   1      -0.172   0.002   0.563  0.00  0.00     0.022 A 
ATOM      8  C7  BZF d   1       0.523   0.864  -0.218  0.00  0.00     0.029 A 
ATOM      9  C7A BZF d   1      -0.149   1.435  -1.271  0.00  0.00     0.058 A 
ENDROOT
TORSDOF 0
ENDMDL
