MODEL 1
REMARK minimizedAffinity -2.28085709
REMARK minimizedRMSD -1
REMARK  0 active torsions:
REMARK  status: ('A' for Active; 'I' for Inactive)
ROOT
ATOM      1  O1  BZF d   1      -1.195   3.542  -0.993  0.00  0.00    -0.204 OA
ATOM      2  C2  BZF d   1      -1.320   3.733  -2.355  0.00  0.00     0.174 A 
ATOM      3  C3  BZF d   1      -1.023   2.602  -3.026  0.00  0.00    -0.012 A 
ATOM      4  C3A BZF d   1      -0.781   1.618  -2.016  0.00  0.00    -0.107 A 
ATOM      5  C4  BZF d   1      -0.456   0.292  -2.056  0.00  0.00     0.055 A 
ATOM      6  C5  BZF d   1      -0.218  -0.365  -0.890  0.00  0.00    -0.016 A 
ATOM      7  C6  BZF d   1      -0.290   0.273   0.330  0.00  0.00     0.022 A 
ATOM      8  C7  BZF d   1      -0.614   1.586   0.421  0.00  0.00     0.029 A 
ATOM      9  C7A BZF d   1      -0.888   2.245  -0.753  0.00  0.00     0.058 A 
ENDROOT
TORSDOF 0
ENDMDL
