MODEL 1
REMARK minimizedAffinity -5.58734131
REMARK minimizedRMSD -1
REMARK  0 active torsions:
REMARK  status: ('A' for Active; 'I' for Inactive)
ROOT
ATOM      1  O1  BZF d   1       1.313   1.174  -0.423  0.00  0.00    -0.204 OA
ATOM      2  C2  BZF d   1       0.252   1.451  -1.264  0.00  0.00     0.174 A 
ATOM      3  C3  BZF d   1      -0.892   0.926  -0.781  0.00  0.00    -0.012 A 
ATOM      4  C3A BZF d   1      -0.540   0.359   0.485  0.00  0.00    -0.107 A 
ATOM      5  C4  BZF d   1      -1.251  -0.294   1.451  0.00  0.00     0.055 A 
ATOM      6  C5  BZF d   1      -0.595  -0.785   2.535  0.00  0.00    -0.016 A 
ATOM      7  C6  BZF d   1       0.769  -0.647   2.683  0.00  0.00     0.022 A 
ATOM      8  C7  BZF d   1       1.516  -0.002   1.753  0.00  0.00     0.029 A 
ATOM      9  C7A BZF d   1       0.852   0.524   0.673  0.00  0.00     0.058 A 
ENDROOT
TORSDOF 0
ENDMDL
