MODEL 1
REMARK minimizedAffinity -2.86768174
REMARK minimizedRMSD -1
REMARK  0 active torsions:
REMARK  status: ('A' for Active; 'I' for Inactive)
ROOT
ATOM      1  O1  BZF d   1       0.061  -0.190   2.816  0.00  0.00    -0.204 OA
ATOM      2  C2  BZF d   1       1.366  -0.480   3.164  0.00  0.00     0.174 A 
ATOM      3  C3  BZF d   1       2.095  -0.786   2.071  0.00  0.00    -0.012 A 
ATOM      4  C3A BZF d   1       1.212  -0.590   0.962  0.00  0.00    -0.107 A 
ATOM      5  C4  BZF d   1       1.359  -0.718  -0.389  0.00  0.00     0.055 A 
ATOM      6  C5  BZF d   1       0.280  -0.523  -1.192  0.00  0.00    -0.016 A 
ATOM      7  C6  BZF d   1      -0.960  -0.204  -0.678  0.00  0.00     0.022 A 
ATOM      8  C7  BZF d   1      -1.154  -0.062   0.656  0.00  0.00     0.029 A 
ATOM      9  C7A BZF d   1      -0.058  -0.226   1.467  0.00  0.00     0.058 A 
ENDROOT
TORSDOF 0
ENDMDL
