MODEL 1
REMARK minimizedAffinity 0.542601109
REMARK minimizedRMSD -1
REMARK  0 active torsions:
REMARK  status: ('A' for Active; 'I' for Inactive)
ROOT
ATOM      1  O1  BZF d   1      -1.646  -0.205   0.082  0.00  0.00    -0.204 OA
ATOM      2  C2  BZF d   1      -1.270   0.535  -1.022  0.00  0.00     0.174 A 
ATOM      3  C3  BZF d   1       0.052   0.802  -0.990  0.00  0.00    -0.012 A 
ATOM      4  C3A BZF d   1       0.548   0.112   0.160  0.00  0.00    -0.107 A 
ATOM      5  C4  BZF d   1       1.790  -0.019   0.713  0.00  0.00     0.055 A 
ATOM      6  C5  BZF d   1       1.924  -0.702   1.880  0.00  0.00    -0.016 A 
ATOM      7  C6  BZF d   1       0.840  -1.262   2.523  0.00  0.00     0.022 A 
ATOM      8  C7  BZF d   1      -0.411  -1.162   2.011  0.00  0.00     0.029 A 
ATOM      9  C7A BZF d   1      -0.545  -0.501   0.814  0.00  0.00     0.058 A 
ENDROOT
TORSDOF 0
ENDMDL
