MODEL 1
REMARK minimizedAffinity -0.316694915
REMARK minimizedRMSD -1
REMARK  0 active torsions:
REMARK  status: ('A' for Active; 'I' for Inactive)
ROOT
ATOM      1  N1  IND d   1       1.415   3.340   0.106  0.00  0.00    -0.196 N 
ATOM      2  C2  IND d   1       2.371   3.470   1.075  0.00  0.00     0.054 A 
ATOM      3  C3  IND d   1       2.576   2.286   1.695  0.00  0.00    -0.031 A 
ATOM      4  C4  IND d   1       1.528  -0.016   1.213  0.00  0.00     0.051 A 
ATOM      5  C5  IND d   1       0.577  -0.627   0.445  0.00  0.00    -0.031 A 
ATOM      6  C6  IND d   1      -0.157   0.066  -0.496  0.00  0.00     0.015 A 
ATOM      7  C7  IND d   1       0.043   1.401  -0.713  0.00  0.00    -0.016 A 
ATOM      8  C8  IND d   1       1.003   2.026   0.070  0.00  0.00    -0.047 A 
ATOM      9  C9  IND d   1       1.721   1.336   1.056  0.00  0.00    -0.096 A 
ATOM     10  HN1 IND d   1       1.120   3.973  -0.396  0.00  0.00     0.298 HD
ENDROOT
TORSDOF 0
ENDMDL
