MODEL 1
REMARK minimizedAffinity -0.502984643
REMARK minimizedRMSD -1
REMARK  0 active torsions:
REMARK  status: ('A' for Active; 'I' for Inactive)
ROOT
ATOM      1  N1  IND d   1      -2.054  -1.329  -1.245  0.00  0.00    -0.196 N 
ATOM      2  C2  IND d   1      -1.781  -0.265  -2.059  0.00  0.00     0.054 A 
ATOM      3  C3  IND d   1      -0.652   0.359  -1.654  0.00  0.00    -0.031 A 
ATOM      4  C4  IND d   1       0.961  -0.254   0.256  0.00  0.00     0.051 A 
ATOM      5  C5  IND d   1       1.114  -1.123   1.300  0.00  0.00    -0.031 A 
ATOM      6  C6  IND d   1       0.201  -2.127   1.552  0.00  0.00     0.015 A 
ATOM      7  C7  IND d   1      -0.897  -2.307   0.760  0.00  0.00    -0.016 A 
ATOM      8  C8  IND d   1      -1.059  -1.422  -0.297  0.00  0.00    -0.047 A 
ATOM      9  C9  IND d   1      -0.159  -0.375  -0.533  0.00  0.00    -0.096 A 
ATOM     10  HN1 IND d   1      -2.733  -1.852  -1.314  0.00  0.00     0.298 HD
ENDROOT
TORSDOF 0
ENDMDL
