MODEL 1
REMARK minimizedAffinity -0.694948018
REMARK minimizedRMSD -1
REMARK  0 active torsions:
REMARK  status: ('A' for Active; 'I' for Inactive)
ROOT
ATOM      1  N1  IND d   1      -2.150  -1.217   0.246  0.00  0.00    -0.196 N 
ATOM      2  C2  IND d   1      -2.907  -1.206  -0.893  0.00  0.00     0.054 A 
ATOM      3  C3  IND d   1      -2.197  -0.696  -1.924  0.00  0.00    -0.031 A 
ATOM      4  C4  IND d   1       0.254   0.087  -1.994  0.00  0.00     0.051 A 
ATOM      5  C5  IND d   1       1.339   0.302  -1.192  0.00  0.00    -0.031 A 
ATOM      6  C6  IND d   1       1.318   0.013   0.157  0.00  0.00     0.015 A 
ATOM      7  C7  IND d   1       0.208  -0.515   0.754  0.00  0.00    -0.016 A 
ATOM      8  C8  IND d   1      -0.898  -0.727  -0.055  0.00  0.00    -0.047 A 
ATOM      9  C9  IND d   1      -0.896  -0.396  -1.416  0.00  0.00    -0.096 A 
ATOM     10  HN1 IND d   1      -2.412  -1.485   1.020  0.00  0.00     0.298 HD
ENDROOT
TORSDOF 0
ENDMDL
