MODEL 1
REMARK minimizedAffinity -4.29068089
REMARK minimizedRMSD -1
REMARK  0 active torsions:
REMARK  status: ('A' for Active; 'I' for Inactive)
ROOT
ATOM      1  N1  IND d   1       1.171   3.370   0.958  0.00  0.00    -0.196 N 
ATOM      2  C2  IND d   1       2.513   3.444   1.208  0.00  0.00     0.054 A 
ATOM      3  C3  IND d   1       3.099   2.245   0.991  0.00  0.00    -0.031 A 
ATOM      4  C4  IND d   1       2.066   0.052   0.125  0.00  0.00     0.051 A 
ATOM      5  C5  IND d   1       0.868  -0.517  -0.209  0.00  0.00    -0.031 A 
ATOM      6  C6  IND d   1      -0.313   0.196  -0.172  0.00  0.00     0.015 A 
ATOM      7  C7  IND d   1      -0.339   1.513   0.190  0.00  0.00    -0.016 A 
ATOM      8  C8  IND d   1       0.874   2.092   0.536  0.00  0.00    -0.047 A 
ATOM      9  C9  IND d   1       2.070   1.362   0.542  0.00  0.00    -0.096 A 
ATOM     10  HN1 IND d   1       0.607   4.012   1.048  0.00  0.00     0.298 HD
ENDROOT
TORSDOF 0
ENDMDL
