MODEL 1
REMARK minimizedAffinity 0.553642333
REMARK minimizedRMSD -1
REMARK  0 active torsions:
REMARK  status: ('A' for Active; 'I' for Inactive)
ROOT
ATOM      1  N1  IND d   1      -1.069  -1.071  -0.618  0.00  0.00    -0.196 N 
ATOM      2  C2  IND d   1      -1.196   0.090  -1.329  0.00  0.00     0.054 A 
ATOM      3  C3  IND d   1      -0.559   1.100  -0.696  0.00  0.00    -0.031 A 
ATOM      4  C4  IND d   1       0.843   1.053   1.462  0.00  0.00     0.051 A 
ATOM      5  C5  IND d   1       1.218   0.228   2.486  0.00  0.00    -0.031 A 
ATOM      6  C6  IND d   1       0.844  -1.099   2.526  0.00  0.00     0.015 A 
ATOM      7  C7  IND d   1       0.088  -1.657   1.534  0.00  0.00    -0.016 A 
ATOM      8  C8  IND d   1      -0.300  -0.821   0.497  0.00  0.00    -0.047 A 
ATOM      9  C9  IND d   1       0.040   0.538   0.472  0.00  0.00    -0.096 A 
ATOM     10  HN1 IND d   1      -1.411  -1.831  -0.832  0.00  0.00     0.298 HD
ENDROOT
TORSDOF 0
ENDMDL
