MODEL 1
REMARK minimizedAffinity -1.24969614
REMARK minimizedRMSD -1
REMARK  0 active torsions:
REMARK  status: ('A' for Active; 'I' for Inactive)
ROOT
ATOM      1  N1  IND d   1      -0.057  -1.064   1.399  0.00  0.00    -0.196 N 
ATOM      2  C2  IND d   1       0.745  -0.042   1.827  0.00  0.00     0.054 A 
ATOM      3  C3  IND d   1       0.736   0.970   0.931  0.00  0.00    -0.031 A 
ATOM      4  C4  IND d   1      -0.601   1.206  -1.257  0.00  0.00     0.051 A 
ATOM      5  C5  IND d   1      -1.441   0.516  -2.085  0.00  0.00    -0.031 A 
ATOM      6  C6  IND d   1      -1.874  -0.760  -1.787  0.00  0.00     0.015 A 
ATOM      7  C7  IND d   1      -1.490  -1.392  -0.639  0.00  0.00    -0.016 A 
ATOM      8  C8  IND d   1      -0.631  -0.698   0.202  0.00  0.00    -0.047 A 
ATOM      9  C9  IND d   1      -0.154   0.580  -0.116  0.00  0.00    -0.096 A 
ATOM     10  HN1 IND d   1      -0.181  -1.809   1.809  0.00  0.00     0.298 HD
ENDROOT
TORSDOF 0
ENDMDL
