MODEL 1
REMARK minimizedAffinity 0.727925718
REMARK minimizedRMSD -1
REMARK  0 active torsions:
REMARK  status: ('A' for Active; 'I' for Inactive)
ROOT
ATOM      1  N1  IND d   1       1.553  -0.002  -0.909  0.00  0.00    -0.196 N 
ATOM      2  C2  IND d   1       1.802   0.454   0.355  0.00  0.00     0.054 A 
ATOM      3  C3  IND d   1       0.651   0.835   0.953  0.00  0.00    -0.031 A 
ATOM      4  C4  IND d   1      -1.767   0.702   0.079  0.00  0.00     0.051 A 
ATOM      5  C5  IND d   1      -2.494   0.391  -1.036  0.00  0.00    -0.031 A 
ATOM      6  C6  IND d   1      -1.897  -0.080  -2.187  0.00  0.00     0.015 A 
ATOM      7  C7  IND d   1      -0.546  -0.268  -2.264  0.00  0.00    -0.016 A 
ATOM      8  C8  IND d   1       0.196   0.054  -1.136  0.00  0.00    -0.047 A 
ATOM      9  C9  IND d   1      -0.400   0.572   0.021  0.00  0.00    -0.096 A 
ATOM     10  HN1 IND d   1       2.145  -0.277  -1.469  0.00  0.00     0.298 HD
ENDROOT
TORSDOF 0
ENDMDL
