MODEL 1
REMARK minimizedAffinity -2.92058229
REMARK minimizedRMSD -1
REMARK  0 active torsions:
REMARK  status: ('A' for Active; 'I' for Inactive)
ROOT
ATOM      1  N1  IND d   1       1.008  -0.732   0.615  0.00  0.00    -0.196 N 
ATOM      2  C2  IND d   1       1.809   0.359   0.422  0.00  0.00     0.054 A 
ATOM      3  C3  IND d   1       1.285   1.165  -0.529  0.00  0.00    -0.031 A 
ATOM      4  C4  IND d   1      -0.928   0.940  -1.826  0.00  0.00     0.051 A 
ATOM      5  C5  IND d   1      -1.982   0.092  -2.019  0.00  0.00    -0.031 A 
ATOM      6  C6  IND d   1      -2.097  -1.097  -1.328  0.00  0.00     0.015 A 
ATOM      7  C7  IND d   1      -1.164  -1.478  -0.406  0.00  0.00    -0.016 A 
ATOM      8  C8  IND d   1      -0.088  -0.623  -0.212  0.00  0.00    -0.047 A 
ATOM      9  C9  IND d   1       0.056   0.565  -0.941  0.00  0.00    -0.096 A 
ATOM     10  HN1 IND d   1       1.163  -1.377   1.161  0.00  0.00     0.298 HD
ENDROOT
TORSDOF 0
ENDMDL
