MODEL 1
REMARK minimizedAffinity -2.00593066
REMARK minimizedRMSD -1
REMARK  0 active torsions:
REMARK  status: ('A' for Active; 'I' for Inactive)
ROOT
ATOM      1  N1  IND d   1       0.284  -1.721   1.012  0.00  0.00    -0.196 N 
ATOM      2  C2  IND d   1       1.468  -1.039   1.050  0.00  0.00     0.054 A 
ATOM      3  C3  IND d   1       1.467  -0.043   0.137  0.00  0.00    -0.031 A 
ATOM      4  C4  IND d   1      -0.409   0.714  -1.456  0.00  0.00     0.051 A 
ATOM      5  C5  IND d   1      -1.663   0.376  -1.881  0.00  0.00    -0.031 A 
ATOM      6  C6  IND d   1      -2.348  -0.698  -1.350  0.00  0.00     0.015 A 
ATOM      7  C7  IND d   1      -1.805  -1.471  -0.363  0.00  0.00    -0.016 A 
ATOM      8  C8  IND d   1      -0.529  -1.135   0.066  0.00  0.00    -0.047 A 
ATOM      9  C9  IND d   1       0.188  -0.072  -0.499  0.00  0.00    -0.096 A 
ATOM     10  HN1 IND d   1       0.080  -2.401   1.497  0.00  0.00     0.298 HD
ENDROOT
TORSDOF 0
ENDMDL
