MODEL 1
REMARK minimizedAffinity -0.808468044
REMARK minimizedRMSD -1
REMARK  0 active torsions:
REMARK  status: ('A' for Active; 'I' for Inactive)
ROOT
ATOM      1  N1  IND d   1       1.451  -1.662   1.523  0.00  0.00    -0.196 N 
ATOM      2  C2  IND d   1       0.356  -2.362   1.949  0.00  0.00     0.054 A 
ATOM      3  C3  IND d   1      -0.736  -2.007   1.235  0.00  0.00    -0.031 A 
ATOM      4  C4  IND d   1      -0.937  -0.374  -0.744  0.00  0.00     0.051 A 
ATOM      5  C5  IND d   1      -0.216   0.531  -1.471  0.00  0.00    -0.031 A 
ATOM      6  C6  IND d   1       1.125   0.754  -1.235  0.00  0.00     0.015 A 
ATOM      7  C7  IND d   1       1.801   0.069  -0.265  0.00  0.00    -0.016 A 
ATOM      8  C8  IND d   1       1.070  -0.846   0.480  0.00  0.00    -0.047 A 
ATOM      9  C9  IND d   1      -0.301  -1.046   0.273  0.00  0.00    -0.096 A 
ATOM     10  HN1 IND d   1       2.243  -1.721   1.851  0.00  0.00     0.298 HD
ENDROOT
TORSDOF 0
ENDMDL
