MODEL 1
REMARK minimizedAffinity -0.614151001
REMARK minimizedRMSD -1
REMARK  0 active torsions:
REMARK  status: ('A' for Active; 'I' for Inactive)
ROOT
ATOM      1  N1  IND d   1       0.335  -1.080   1.124  0.00  0.00    -0.196 N 
ATOM      2  C2  IND d   1       1.521  -0.419   0.965  0.00  0.00     0.054 A 
ATOM      3  C3  IND d   1       1.506   0.305  -0.177  0.00  0.00    -0.031 A 
ATOM      4  C4  IND d   1      -0.396   0.633  -1.881  0.00  0.00     0.051 A 
ATOM      5  C5  IND d   1      -1.658   0.204  -2.182  0.00  0.00    -0.031 A 
ATOM      6  C6  IND d   1      -2.335  -0.691  -1.379  0.00  0.00     0.015 A 
ATOM      7  C7  IND d   1      -1.777  -1.183  -0.233  0.00  0.00    -0.016 A 
ATOM      8  C8  IND d   1      -0.492  -0.755   0.072  0.00  0.00    -0.047 A 
ATOM      9  C9  IND d   1       0.216   0.120  -0.761  0.00  0.00    -0.096 A 
ATOM     10  HN1 IND d   1       0.139  -1.609   1.773  0.00  0.00     0.298 HD
ENDROOT
TORSDOF 0
ENDMDL
