MODEL 1
REMARK minimizedAffinity 1.7169826
REMARK minimizedRMSD -1
REMARK  0 active torsions:
REMARK  status: ('A' for Active; 'I' for Inactive)
ROOT
ATOM      1  N1  IND d   1       3.896   1.051   3.014  0.00  0.00    -0.196 N 
ATOM      2  C2  IND d   1       4.087   1.349   4.334  0.00  0.00     0.054 A 
ATOM      3  C3  IND d   1       3.685   2.613   4.594  0.00  0.00    -0.031 A 
ATOM      4  C4  IND d   1       2.589   4.335   3.026  0.00  0.00     0.051 A 
ATOM      5  C5  IND d   1       2.243   4.535   1.719  0.00  0.00    -0.031 A 
ATOM      6  C6  IND d   1       2.432   3.563   0.757  0.00  0.00     0.015 A 
ATOM      7  C7  IND d   1       2.966   2.345   1.071  0.00  0.00    -0.016 A 
ATOM      8  C8  IND d   1       3.325   2.141   2.396  0.00  0.00    -0.047 A 
ATOM      9  C9  IND d   1       3.174   3.139   3.368  0.00  0.00    -0.096 A 
ATOM     10  HN1 IND d   1       4.099   0.307   2.633  0.00  0.00     0.298 HD
ENDROOT
TORSDOF 0
ENDMDL
