MODEL 1
REMARK minimizedAffinity 4.04416466
REMARK minimizedRMSD -1
REMARK  0 active torsions:
REMARK  status: ('A' for Active; 'I' for Inactive)
ROOT
ATOM      1  N1  IND d   1       0.517  -0.564  -1.225  0.00  0.00    -0.196 N 
ATOM      2  C2  IND d   1       0.082  -0.108  -2.439  0.00  0.00     0.054 A 
ATOM      3  C3  IND d   1      -1.128   0.481  -2.313  0.00  0.00    -0.031 A 
ATOM      4  C4  IND d   1      -2.532   0.900  -0.197  0.00  0.00     0.051 A 
ATOM      5  C5  IND d   1      -2.567   0.633   1.143  0.00  0.00    -0.031 A 
ATOM      6  C6  IND d   1      -1.553  -0.058   1.775  0.00  0.00     0.015 A 
ATOM      7  C7  IND d   1      -0.457  -0.500   1.090  0.00  0.00    -0.016 A 
ATOM      8  C8  IND d   1      -0.422  -0.237  -0.272  0.00  0.00    -0.047 A 
ATOM      9  C9  IND d   1      -1.467   0.427  -0.927  0.00  0.00    -0.096 A 
ATOM     10  HN1 IND d   1       1.254  -0.984  -1.082  0.00  0.00     0.298 HD
ENDROOT
TORSDOF 0
ENDMDL
