MODEL 1
REMARK minimizedAffinity -1.7006669
REMARK minimizedRMSD -1
REMARK  0 active torsions:
REMARK  status: ('A' for Active; 'I' for Inactive)
ROOT
ATOM      1  N1  IND d   1      -1.892  -1.922  -0.104  0.00  0.00    -0.196 N 
ATOM      2  C2  IND d   1      -2.860  -1.673  -1.036  0.00  0.00     0.054 A 
ATOM      3  C3  IND d   1      -2.567  -0.551  -1.731  0.00  0.00    -0.031 A 
ATOM      4  C4  IND d   1      -0.501   0.976  -1.575  0.00  0.00     0.051 A 
ATOM      5  C5  IND d   1       0.639   1.176  -0.847  0.00  0.00    -0.031 A 
ATOM      6  C6  IND d   1       1.002   0.334   0.185  0.00  0.00     0.015 A 
ATOM      7  C7  IND d   1       0.241  -0.750   0.521  0.00  0.00    -0.016 A 
ATOM      8  C8  IND d   1      -0.921  -0.951  -0.211  0.00  0.00    -0.047 A 
ATOM      9  C9  IND d   1      -1.316  -0.076  -1.231  0.00  0.00    -0.096 A 
ATOM     10  HN1 IND d   1      -1.890  -2.576   0.455  0.00  0.00     0.298 HD
ENDROOT
TORSDOF 0
ENDMDL
