MODEL 1
REMARK minimizedAffinity 0.639554322
REMARK minimizedRMSD -1
REMARK  0 active torsions:
REMARK  status: ('A' for Active; 'I' for Inactive)
ROOT
ATOM      1  N1  IND d   1       2.449   1.561   2.115  0.00  0.00    -0.196 N 
ATOM      2  C2  IND d   1       3.321   2.044   1.179  0.00  0.00     0.054 A 
ATOM      3  C3  IND d   1       2.993   1.586  -0.050  0.00  0.00    -0.031 A 
ATOM      4  C4  IND d   1       1.007   0.116  -0.771  0.00  0.00     0.051 A 
ATOM      5  C5  IND d   1      -0.042  -0.602  -0.267  0.00  0.00    -0.031 A 
ATOM      6  C6  IND d   1      -0.321  -0.633   1.084  0.00  0.00     0.015 A 
ATOM      7  C7  IND d   1       0.435   0.064   1.984  0.00  0.00    -0.016 A 
ATOM      8  C8  IND d   1       1.504   0.788   1.476  0.00  0.00    -0.047 A 
ATOM      9  C9  IND d   1       1.818   0.789   0.111  0.00  0.00    -0.096 A 
ATOM     10  HN1 IND d   1       2.484   1.715   2.960  0.00  0.00     0.298 HD
ENDROOT
TORSDOF 0
ENDMDL
