MODEL 1
REMARK minimizedAffinity 4.24240065
REMARK minimizedRMSD -1
REMARK  1 active torsions:
REMARK  status: ('A' for Active; 'I' for Inactive)
REMARK    1  A    between atoms: C3_4  and  O_7 
ROOT
ATOM      1  C   UNL d   1       2.742   4.443  -2.282  0.00  0.00    -0.033 A 
ATOM      2  C1  UNL d   1       3.138   3.612  -3.332  0.00  0.00     0.039 A 
ATOM      3  C2  UNL d   1       4.233   3.959  -4.124  0.00  0.00    -0.080 A 
ATOM      4  C3  UNL d   1       4.924   5.138  -3.857  0.00  0.00     0.150 A 
ATOM      5  C4  UNL d   1       4.537   5.969  -2.810  0.00  0.00    -0.007 A 
ATOM      6  C5  UNL d   1       3.442   5.621  -2.020  0.00  0.00     0.039 A 
ENDROOT
BRANCH   4   7
ATOM      7  O   UNL d   1       5.996   5.522  -4.606  0.00  0.00    -0.526 OA
ATOM      8  H5  UNL d   1       6.130   4.866  -5.310  0.00  0.00     0.418 HD
ENDBRANCH   4   7
TORSDOF 1
ENDMDL
