MODEL 1
REMARK minimizedAffinity -4.10296202
REMARK minimizedRMSD -1
REMARK  1 active torsions:
REMARK  status: ('A' for Active; 'I' for Inactive)
REMARK    1  A    between atoms: C3_4  and  O_7 
ROOT
ATOM      1  C   UNL d   1      -3.592   6.000  -2.958  0.00  0.00    -0.033 A 
ATOM      2  C1  UNL d   1      -2.235   5.910  -2.644  0.00  0.00     0.039 A 
ATOM      3  C2  UNL d   1      -1.295   5.695  -3.655  0.00  0.00    -0.080 A 
ATOM      4  C3  UNL d   1      -1.726   5.574  -4.973  0.00  0.00     0.150 A 
ATOM      5  C4  UNL d   1      -3.077   5.666  -5.293  0.00  0.00    -0.007 A 
ATOM      6  C5  UNL d   1      -4.013   5.879  -4.282  0.00  0.00     0.039 A 
ENDROOT
BRANCH   4   7
ATOM      7  O   UNL d   1      -0.847   5.359  -5.993  0.00  0.00    -0.526 OA
ATOM      8  H5  UNL d   1       0.047   5.288  -5.619  0.00  0.00     0.418 HD
ENDBRANCH   4   7
TORSDOF 1
ENDMDL
