MODEL 1
REMARK minimizedAffinity 2.33321381
REMARK minimizedRMSD -1
REMARK  1 active torsions:
REMARK  status: ('A' for Active; 'I' for Inactive)
REMARK    1  A    between atoms: C3_4  and  O_7 
ROOT
ATOM      1  C   UNL d   1      -1.094  -0.158   2.828  0.00  0.00    -0.033 A 
ATOM      2  C1  UNL d   1      -0.035  -0.913   2.320  0.00  0.00     0.039 A 
ATOM      3  C2  UNL d   1      -0.292  -2.077   1.592  0.00  0.00    -0.080 A 
ATOM      4  C3  UNL d   1      -1.609  -2.473   1.379  0.00  0.00     0.150 A 
ATOM      5  C4  UNL d   1      -2.669  -1.724   1.880  0.00  0.00    -0.007 A 
ATOM      6  C5  UNL d   1      -2.411  -0.563   2.607  0.00  0.00     0.039 A 
ENDROOT
BRANCH   4   7
ATOM      7  O   UNL d   1      -1.909  -3.604   0.679  0.00  0.00    -0.526 OA
ATOM      8  H5  UNL d   1      -1.077  -4.035   0.420  0.00  0.00     0.418 HD
ENDBRANCH   4   7
TORSDOF 1
ENDMDL
