MODEL 1
REMARK minimizedAffinity 4.6479702
REMARK minimizedRMSD -1
REMARK  1 active torsions:
REMARK  status: ('A' for Active; 'I' for Inactive)
REMARK    1  A    between atoms: C3_4  and  O_7 
ROOT
ATOM      1  C   UNL d   1      -0.266  -4.126  -4.040  0.00  0.00    -0.033 A 
ATOM      2  C1  UNL d   1      -1.576  -3.721  -3.778  0.00  0.00     0.039 A 
ATOM      3  C2  UNL d   1      -2.644  -4.343  -4.428  0.00  0.00    -0.080 A 
ATOM      4  C3  UNL d   1      -2.389  -5.367  -5.336  0.00  0.00     0.150 A 
ATOM      5  C4  UNL d   1      -1.087  -5.778  -5.599  0.00  0.00    -0.007 A 
ATOM      6  C5  UNL d   1      -0.021  -5.156  -4.950  0.00  0.00     0.039 A 
ENDROOT
BRANCH   4   7
ATOM      7  O   UNL d   1      -3.399  -6.000  -5.998  0.00  0.00    -0.526 OA
ATOM      8  H5  UNL d   1      -4.241  -5.591  -5.738  0.00  0.00     0.418 HD
ENDBRANCH   4   7
TORSDOF 1
ENDMDL
