MODEL 1
REMARK minimizedAffinity 7.90842438
REMARK minimizedRMSD -1
REMARK  1 active torsions:
REMARK  status: ('A' for Active; 'I' for Inactive)
REMARK    1  A    between atoms: C3_4  and  O_7 
ROOT
ATOM      1  C   UNL d   1      -2.911   0.006   1.244  0.00  0.00    -0.033 A 
ATOM      2  C1  UNL d   1      -2.050   0.502   2.225  0.00  0.00     0.039 A 
ATOM      3  C2  UNL d   1      -0.982  -0.276   2.677  0.00  0.00    -0.080 A 
ATOM      4  C3  UNL d   1      -0.786  -1.545   2.139  0.00  0.00     0.150 A 
ATOM      5  C4  UNL d   1      -1.637  -2.043   1.158  0.00  0.00    -0.007 A 
ATOM      6  C5  UNL d   1      -2.703  -1.265   0.709  0.00  0.00     0.039 A 
ENDROOT
BRANCH   4   7
ATOM      7  O   UNL d   1       0.240  -2.343   2.552  0.00  0.00    -0.526 OA
ATOM      8  H5  UNL d   1       0.728  -1.879   3.253  0.00  0.00     0.418 HD
ENDBRANCH   4   7
TORSDOF 1
ENDMDL
