MODEL 1
REMARK minimizedAffinity 5.22188377
REMARK minimizedRMSD -1
REMARK  1 active torsions:
REMARK  status: ('A' for Active; 'I' for Inactive)
REMARK    1  A    between atoms: C3_4  and  O_7 
ROOT
ATOM      1  C   UNL d   1       5.998   3.856   1.122  0.00  0.00    -0.033 A 
ATOM      2  C1  UNL d   1       5.812   3.003   0.032  0.00  0.00     0.039 A 
ATOM      3  C2  UNL d   1       4.789   2.053   0.054  0.00  0.00    -0.080 A 
ATOM      4  C3  UNL d   1       3.959   1.967   1.169  0.00  0.00     0.150 A 
ATOM      5  C4  UNL d   1       4.137   2.816   2.256  0.00  0.00    -0.007 A 
ATOM      6  C5  UNL d   1       5.160   3.764   2.233  0.00  0.00     0.039 A 
ENDROOT
BRANCH   4   7
ATOM      7  O   UNL d   1       2.951   1.053   1.237  0.00  0.00    -0.526 OA
ATOM      8  H5  UNL d   1       2.966   0.516   0.428  0.00  0.00     0.418 HD
ENDBRANCH   4   7
TORSDOF 1
ENDMDL
