MODEL 1
REMARK minimizedAffinity 5.83920431
REMARK minimizedRMSD -1
REMARK  1 active torsions:
REMARK  status: ('A' for Active; 'I' for Inactive)
REMARK    1  A    between atoms: C3_4  and  O_7 
ROOT
ATOM      1  C   UNL d   1      -4.889   0.984   0.817  0.00  0.00    -0.033 A 
ATOM      2  C1  UNL d   1      -3.699   0.448   0.321  0.00  0.00     0.039 A 
ATOM      3  C2  UNL d   1      -3.619   0.035  -1.011  0.00  0.00    -0.080 A 
ATOM      4  C3  UNL d   1      -4.734   0.163  -1.834  0.00  0.00     0.150 A 
ATOM      5  C4  UNL d   1      -5.921   0.700  -1.348  0.00  0.00    -0.007 A 
ATOM      6  C5  UNL d   1      -6.000   1.111  -0.018  0.00  0.00     0.039 A 
ENDROOT
BRANCH   4   7
ATOM      7  O   UNL d   1      -4.705  -0.231  -3.139  0.00  0.00    -0.526 OA
ATOM      8  H5  UNL d   1      -3.830  -0.608  -3.327  0.00  0.00     0.418 HD
ENDBRANCH   4   7
TORSDOF 1
ENDMDL
