MODEL 1
REMARK minimizedAffinity 4.57805014
REMARK minimizedRMSD -1
REMARK  1 active torsions:
REMARK  status: ('A' for Active; 'I' for Inactive)
REMARK    1  A    between atoms: C3_4  and  O_7 
ROOT
ATOM      1  C   UNL d   1      -2.289   5.785  -5.773  0.00  0.00    -0.033 A 
ATOM      2  C1  UNL d   1      -3.654   5.979  -5.990  0.00  0.00     0.039 A 
ATOM      3  C2  UNL d   1      -4.539   6.000  -4.910  0.00  0.00    -0.080 A 
ATOM      4  C3  UNL d   1      -4.046   5.826  -3.620  0.00  0.00     0.150 A 
ATOM      5  C4  UNL d   1      -2.686   5.636  -3.396  0.00  0.00    -0.007 A 
ATOM      6  C5  UNL d   1      -1.805   5.615  -4.476  0.00  0.00     0.039 A 
ENDROOT
BRANCH   4   7
ATOM      7  O   UNL d   1      -4.871   5.834  -2.535  0.00  0.00    -0.526 OA
ATOM      8  H5  UNL d   1      -5.785   5.946  -2.844  0.00  0.00     0.418 HD
ENDBRANCH   4   7
TORSDOF 1
ENDMDL
