MODEL 1
REMARK minimizedAffinity 4.09611416
REMARK minimizedRMSD -1
REMARK  1 active torsions:
REMARK  status: ('A' for Active; 'I' for Inactive)
REMARK    1  A    between atoms: C3_4  and  O_7 
ROOT
ATOM      1  C   UNL d   1      -1.528  -1.634   0.724  0.00  0.00    -0.033 A 
ATOM      2  C1  UNL d   1      -2.789  -1.041   0.634  0.00  0.00     0.039 A 
ATOM      3  C2  UNL d   1      -3.158  -0.041   1.536  0.00  0.00    -0.080 A 
ATOM      4  C3  UNL d   1      -2.258   0.356   2.522  0.00  0.00     0.150 A 
ATOM      5  C4  UNL d   1      -0.999  -0.229   2.614  0.00  0.00    -0.007 A 
ATOM      6  C5  UNL d   1      -0.633  -1.227   1.713  0.00  0.00     0.039 A 
ENDROOT
BRANCH   4   7
ATOM      7  O   UNL d   1      -2.575   1.324   3.428  0.00  0.00    -0.526 OA
ATOM      8  H5  UNL d   1      -3.486   1.616   3.260  0.00  0.00     0.418 HD
ENDBRANCH   4   7
TORSDOF 1
ENDMDL
