MODEL 1
REMARK minimizedAffinity 7.36793137
REMARK minimizedRMSD -1
REMARK  1 active torsions:
REMARK  status: ('A' for Active; 'I' for Inactive)
REMARK    1  A    between atoms: C3_4  and  O_7 
ROOT
ATOM      1  C   UNL d   1       4.479   6.000  -2.244  0.00  0.00    -0.033 A 
ATOM      2  C1  UNL d   1       5.266   5.227  -3.100  0.00  0.00     0.039 A 
ATOM      3  C2  UNL d   1       4.742   4.070  -3.679  0.00  0.00    -0.080 A 
ATOM      4  C3  UNL d   1       3.430   3.698  -3.396  0.00  0.00     0.150 A 
ATOM      5  C4  UNL d   1       2.639   4.465  -2.548  0.00  0.00    -0.007 A 
ATOM      6  C5  UNL d   1       3.165   5.620  -1.969  0.00  0.00     0.039 A 
ENDROOT
BRANCH   4   7
ATOM      7  O   UNL d   1       2.877   2.575  -3.935  0.00  0.00    -0.526 OA
ATOM      8  H5  UNL d   1       3.549   2.130  -4.477  0.00  0.00     0.418 HD
ENDBRANCH   4   7
TORSDOF 1
ENDMDL
