MODEL 1
REMARK minimizedAffinity 7.08427715
REMARK minimizedRMSD -1
REMARK  1 active torsions:
REMARK  status: ('A' for Active; 'I' for Inactive)
REMARK    1  A    between atoms: C3_4  and  O_7 
ROOT
ATOM      1  C   UNL d   1       5.543   4.893  -4.637  0.00  0.00    -0.033 A 
ATOM      2  C1  UNL d   1       5.037   5.000  -3.340  0.00  0.00     0.039 A 
ATOM      3  C2  UNL d   1       3.906   4.271  -2.967  0.00  0.00    -0.080 A 
ATOM      4  C3  UNL d   1       3.292   3.439  -3.899  0.00  0.00     0.150 A 
ATOM      5  C4  UNL d   1       3.792   3.325  -5.192  0.00  0.00    -0.007 A 
ATOM      6  C5  UNL d   1       4.921   4.054  -5.563  0.00  0.00     0.039 A 
ENDROOT
BRANCH   4   7
ATOM      7  O   UNL d   1       2.183   2.712  -3.583  0.00  0.00    -0.526 OA
ATOM      8  H5  UNL d   1       1.934   2.913  -2.666  0.00  0.00     0.418 HD
ENDBRANCH   4   7
TORSDOF 1
ENDMDL
