MODEL 1
REMARK minimizedAffinity 2.41495538
REMARK minimizedRMSD -1
REMARK  1 active torsions:
REMARK  status: ('A' for Active; 'I' for Inactive)
REMARK    1  A    between atoms: C3_4  and  O_7 
ROOT
ATOM      1  C   UNL d   1       2.938   1.382  -0.641  0.00  0.00    -0.033 A 
ATOM      2  C1  UNL d   1       3.384   1.782  -1.902  0.00  0.00     0.039 A 
ATOM      3  C2  UNL d   1       2.793   2.874  -2.540  0.00  0.00    -0.080 A 
ATOM      4  C3  UNL d   1       1.758   3.557  -1.907  0.00  0.00     0.150 A 
ATOM      5  C4  UNL d   1       1.311   3.167  -0.649  0.00  0.00    -0.007 A 
ATOM      6  C5  UNL d   1       1.902   2.076  -0.014  0.00  0.00     0.039 A 
ENDROOT
BRANCH   4   7
ATOM      7  O   UNL d   1       1.147   4.626  -2.492  0.00  0.00    -0.526 OA
ATOM      8  H5  UNL d   1       1.541   4.763  -3.370  0.00  0.00     0.418 HD
ENDBRANCH   4   7
TORSDOF 1
ENDMDL
