MODEL 1
REMARK minimizedAffinity -3.67830348
REMARK minimizedRMSD -1
REMARK  1 active torsions:
REMARK  status: ('A' for Active; 'I' for Inactive)
REMARK    1  A    between atoms: C3_4  and  O_7 
ROOT
ATOM      1  C   UNL d   1       2.689   3.022  -0.013  0.00  0.00    -0.033 A 
ATOM      2  C1  UNL d   1       2.399   2.585  -1.307  0.00  0.00     0.039 A 
ATOM      3  C2  UNL d   1       1.280   3.080  -1.979  0.00  0.00    -0.080 A 
ATOM      4  C3  UNL d   1       0.460   4.011  -1.347  0.00  0.00     0.150 A 
ATOM      5  C4  UNL d   1       0.745   4.454  -0.059  0.00  0.00    -0.007 A 
ATOM      6  C5  UNL d   1       1.862   3.958   0.610  0.00  0.00     0.039 A 
ENDROOT
BRANCH   4   7
ATOM      7  O   UNL d   1      -0.646   4.519  -1.961  0.00  0.00    -0.526 OA
ATOM      8  H5  UNL d   1      -0.733   4.100  -2.834  0.00  0.00     0.418 HD
ENDBRANCH   4   7
TORSDOF 1
ENDMDL
