MODEL 1
REMARK minimizedAffinity 4.38578939
REMARK minimizedRMSD -1
REMARK  0 active torsions:
REMARK  status: ('A' for Active; 'I' for Inactive)
ROOT
ATOM      1  C   UNL d   1       5.461  -4.332  -2.459  0.00  0.00     0.023 A 
ATOM      2  C1  UNL d   1       4.769  -3.569  -1.519  0.00  0.00     0.003 A 
ATOM      3  C2  UNL d   1       3.458  -3.906  -1.173  0.00  0.00     0.048 A 
ATOM      4  C3  UNL d   1       2.847  -5.008  -1.770  0.00  0.00     0.023 A 
ATOM      5  C4  UNL d   1       3.536  -5.775  -2.711  0.00  0.00     0.048 A 
ATOM      6  C5  UNL d   1       4.846  -5.434  -3.054  0.00  0.00     0.003 A 
ATOM      7  I   UNL d   1       0.897  -5.511  -1.257  0.00  0.00    -0.146 I 
ENDROOT
TORSDOF 0
ENDMDL
