MODEL 1
REMARK minimizedAffinity 7.82006979
REMARK minimizedRMSD -1
REMARK  0 active torsions:
REMARK  status: ('A' for Active; 'I' for Inactive)
ROOT
ATOM      1  C   UNL d   1       0.091   3.043  -2.075  0.00  0.00     0.023 A 
ATOM      2  C1  UNL d   1       0.282   4.082  -1.163  0.00  0.00     0.003 A 
ATOM      3  C2  UNL d   1      -0.603   4.247  -0.096  0.00  0.00     0.048 A 
ATOM      4  C3  UNL d   1      -1.676   3.369   0.055  0.00  0.00     0.023 A 
ATOM      5  C4  UNL d   1      -1.869   2.327  -0.853  0.00  0.00     0.048 A 
ATOM      6  C5  UNL d   1      -0.983   2.167  -1.920  0.00  0.00     0.003 A 
ATOM      7  I   UNL d   1      -2.994   3.612   1.644  0.00  0.00    -0.146 I 
ENDROOT
TORSDOF 0
ENDMDL
