MODEL 1
REMARK minimizedAffinity 1.91737306
REMARK minimizedRMSD -1
REMARK  0 active torsions:
REMARK  status: ('A' for Active; 'I' for Inactive)
ROOT
ATOM      1  C   UNL d   1       1.012   2.972  -0.367  0.00  0.00     0.023 A 
ATOM      2  C1  UNL d   1       0.931   3.531  -1.642  0.00  0.00     0.003 A 
ATOM      3  C2  UNL d   1      -0.256   3.441  -2.371  0.00  0.00     0.048 A 
ATOM      4  C3  UNL d   1      -1.360   2.793  -1.819  0.00  0.00     0.023 A 
ATOM      5  C4  UNL d   1      -1.284   2.232  -0.542  0.00  0.00     0.048 A 
ATOM      6  C5  UNL d   1      -0.095   2.324   0.183  0.00  0.00     0.003 A 
ATOM      7  I   UNL d   1      -3.128   2.658  -2.902  0.00  0.00    -0.146 I 
ENDROOT
TORSDOF 0
ENDMDL
