MODEL 1
REMARK minimizedAffinity 14.2049217
REMARK minimizedRMSD -1
REMARK  0 active torsions:
REMARK  status: ('A' for Active; 'I' for Inactive)
ROOT
ATOM      1  C   UNL d   1       4.125  -5.831  -5.768  0.00  0.00     0.023 A 
ATOM      2  C1  UNL d   1       3.051  -5.979  -4.891  0.00  0.00     0.003 A 
ATOM      3  C2  UNL d   1       3.225  -5.741  -3.526  0.00  0.00     0.048 A 
ATOM      4  C3  UNL d   1       4.475  -5.354  -3.045  0.00  0.00     0.023 A 
ATOM      5  C4  UNL d   1       5.553  -5.204  -3.920  0.00  0.00     0.048 A 
ATOM      6  C5  UNL d   1       5.374  -5.444  -5.284  0.00  0.00     0.003 A 
ATOM      7  I   UNL d   1       4.737  -4.999  -1.014  0.00  0.00    -0.146 I 
ENDROOT
TORSDOF 0
ENDMDL
