MODEL 1
REMARK minimizedAffinity 7.56145144
REMARK minimizedRMSD -1
REMARK  0 active torsions:
REMARK  status: ('A' for Active; 'I' for Inactive)
ROOT
ATOM      1  C   UNL d   1      -1.694  -1.490  -1.171  0.00  0.00     0.023 A 
ATOM      2  C1  UNL d   1      -0.434  -0.974  -1.476  0.00  0.00     0.003 A 
ATOM      3  C2  UNL d   1      -0.288   0.379  -1.788  0.00  0.00     0.048 A 
ATOM      4  C3  UNL d   1      -1.407   1.212  -1.792  0.00  0.00     0.023 A 
ATOM      5  C4  UNL d   1      -2.669   0.701  -1.486  0.00  0.00     0.048 A 
ATOM      6  C5  UNL d   1      -2.810  -0.653  -1.176  0.00  0.00     0.003 A 
ATOM      7  I   UNL d   1      -1.192   3.226  -2.256  0.00  0.00    -0.146 I 
ENDROOT
TORSDOF 0
ENDMDL
