MODEL 1
REMARK minimizedAffinity 7.96736813
REMARK minimizedRMSD -1
REMARK  0 active torsions:
REMARK  status: ('A' for Active; 'I' for Inactive)
ROOT
ATOM      1  C   UNL d   1      -0.412   3.159  -1.680  0.00  0.00     0.023 A 
ATOM      2  C1  UNL d   1       0.050   4.082  -0.742  0.00  0.00     0.003 A 
ATOM      3  C2  UNL d   1       0.175   3.714   0.599  0.00  0.00     0.048 A 
ATOM      4  C3  UNL d   1      -0.164   2.420   0.995  0.00  0.00     0.023 A 
ATOM      5  C4  UNL d   1      -0.626   1.493   0.060  0.00  0.00     0.048 A 
ATOM      6  C5  UNL d   1      -0.750   1.866  -1.280  0.00  0.00     0.003 A 
ATOM      7  I   UNL d   1       0.020   1.869   2.991  0.00  0.00    -0.146 I 
ENDROOT
TORSDOF 0
ENDMDL
