MODEL 1
REMARK minimizedAffinity -4.25470209
REMARK minimizedRMSD -1
REMARK  0 active torsions:
REMARK  status: ('A' for Active; 'I' for Inactive)
ROOT
ATOM      1  C2' OXE d   1       0.361  -1.440   0.321  0.00  0.00     0.078 C 
ATOM      2  C1' OXE d   1      -0.702   1.133  -0.041  0.00  0.00     0.078 C 
ATOM      3  C1  OXE d   1       0.564   0.784  -0.783  0.00  0.00    -0.078 A 
ATOM      4  C2  OXE d   1       1.103  -0.461  -0.564  0.00  0.00    -0.078 A 
ATOM      5  C3  OXE d   1       2.239  -0.854  -1.265  0.00  0.00     0.003 A 
ATOM      6  C4  OXE d   1       2.925   0.061  -2.073  0.00  0.00    -0.002 A 
ATOM      7  C5  OXE d   1       2.415   1.348  -2.279  0.00  0.00    -0.002 A 
ATOM      8  C6  OXE d   1       1.215   1.710  -1.676  0.00  0.00     0.003 A 
ENDROOT
TORSDOF 0
ENDMDL
