MODEL 1
REMARK minimizedAffinity -5.66578865
REMARK minimizedRMSD -1
REMARK  0 active torsions:
REMARK  status: ('A' for Active; 'I' for Inactive)
ROOT
ATOM      1  C2' OXE d   1       0.303  -2.493   0.453  0.00  0.00     0.078 C 
ATOM      2  C1' OXE d   1      -0.978   0.004   0.510  0.00  0.00     0.078 C 
ATOM      3  C1  OXE d   1       0.294  -0.116  -0.291  0.00  0.00    -0.078 A 
ATOM      4  C2  OXE d   1       0.939  -1.329  -0.275  0.00  0.00    -0.078 A 
ATOM      5  C3  OXE d   1       2.087  -1.509  -1.041  0.00  0.00     0.003 A 
ATOM      6  C4  OXE d   1       2.675  -0.424  -1.704  0.00  0.00    -0.002 A 
ATOM      7  C5  OXE d   1       2.055   0.830  -1.700  0.00  0.00    -0.002 A 
ATOM      8  C6  OXE d   1       0.845   0.990  -1.036  0.00  0.00     0.003 A 
ENDROOT
TORSDOF 0
ENDMDL
