MODEL 1
REMARK minimizedAffinity -3.72797585
REMARK minimizedRMSD -1
REMARK  0 active torsions:
REMARK  status: ('A' for Active; 'I' for Inactive)
ROOT
ATOM      1  C2' OXE d   1      -1.234   1.691  -0.273  0.00  0.00     0.078 C 
ATOM      2  C1' OXE d   1      -0.083  -0.700   0.645  0.00  0.00     0.078 C 
ATOM      3  C1  OXE d   1       0.644   0.063  -0.435  0.00  0.00    -0.078 A 
ATOM      4  C2  OXE d   1       0.050   1.207  -0.910  0.00  0.00    -0.078 A 
ATOM      5  C3  OXE d   1       0.705   1.977  -1.867  0.00  0.00     0.003 A 
ATOM      6  C4  OXE d   1       1.888   1.517  -2.459  0.00  0.00    -0.002 A 
ATOM      7  C5  OXE d   1       2.489   0.334  -2.017  0.00  0.00    -0.002 A 
ATOM      8  C6  OXE d   1       1.904  -0.382  -0.978  0.00  0.00     0.003 A 
ENDROOT
TORSDOF 0
ENDMDL
