MODEL 1
REMARK minimizedAffinity -4.34916306
REMARK minimizedRMSD -1
REMARK  0 active torsions:
REMARK  status: ('A' for Active; 'I' for Inactive)
ROOT
ATOM      1  C2' OXE d   1       0.000  -2.405   0.508  0.00  0.00     0.078 C 
ATOM      2  C1' OXE d   1      -1.026   0.207   0.439  0.00  0.00     0.078 C 
ATOM      3  C1  OXE d   1       0.241  -0.072  -0.331  0.00  0.00    -0.078 A 
ATOM      4  C2  OXE d   1       0.762  -1.342  -0.254  0.00  0.00    -0.078 A 
ATOM      5  C3  OXE d   1       1.898  -1.667  -0.989  0.00  0.00     0.003 A 
ATOM      6  C4  OXE d   1       2.601  -0.675  -1.682  0.00  0.00    -0.002 A 
ATOM      7  C5  OXE d   1       2.110   0.634  -1.741  0.00  0.00    -0.002 A 
ATOM      8  C6  OXE d   1       0.911   0.941  -1.108  0.00  0.00     0.003 A 
ENDROOT
TORSDOF 0
ENDMDL
