MODEL 1
REMARK minimizedAffinity -5.63928032
REMARK minimizedRMSD -1
REMARK  0 active torsions:
REMARK  status: ('A' for Active; 'I' for Inactive)
ROOT
ATOM      1  C2' OXE d   1       0.508  -1.578   0.433  0.00  0.00     0.078 C 
ATOM      2  C1' OXE d   1      -0.914   0.839   0.304  0.00  0.00     0.078 C 
ATOM      3  C1  OXE d   1       0.289   0.682  -0.592  0.00  0.00    -0.078 A 
ATOM      4  C2  OXE d   1       1.007  -0.486  -0.488  0.00  0.00    -0.078 A 
ATOM      5  C3  OXE d   1       2.093  -0.705  -1.330  0.00  0.00     0.003 A 
ATOM      6  C4  OXE d   1       2.554   0.314  -2.172  0.00  0.00    -0.002 A 
ATOM      7  C5  OXE d   1       1.862   1.526  -2.264  0.00  0.00    -0.002 A 
ATOM      8  C6  OXE d   1       0.705   1.709  -1.514  0.00  0.00     0.003 A 
ENDROOT
TORSDOF 0
ENDMDL
