MODEL 1
REMARK minimizedAffinity -5.51975489
REMARK minimizedRMSD -1
REMARK  0 active torsions:
REMARK  status: ('A' for Active; 'I' for Inactive)
ROOT
ATOM      1  C2' OXE d   1       0.105  -2.440   0.444  0.00  0.00     0.078 C 
ATOM      2  C1' OXE d   1      -0.694   0.245   0.617  0.00  0.00     0.078 C 
ATOM      3  C1  OXE d   1       0.531  -0.073  -0.203  0.00  0.00    -0.078 A 
ATOM      4  C2  OXE d   1       0.942  -1.384  -0.244  0.00  0.00    -0.078 A 
ATOM      5  C3  OXE d   1       2.034  -1.740  -1.030  0.00  0.00     0.003 A 
ATOM      6  C4  OXE d   1       2.808  -0.755  -1.656  0.00  0.00    -0.002 A 
ATOM      7  C5  OXE d   1       2.431   0.590  -1.594  0.00  0.00    -0.002 A 
ATOM      8  C6  OXE d   1       1.273   0.943  -0.909  0.00  0.00     0.003 A 
ENDROOT
TORSDOF 0
ENDMDL
