MODEL 1
REMARK minimizedAffinity -1.3227433
REMARK minimizedRMSD -1
REMARK  0 active torsions:
REMARK  status: ('A' for Active; 'I' for Inactive)
ROOT
ATOM      1  C2' OXE d   1       3.678  -0.504  -1.278  0.00  0.00     0.078 C 
ATOM      2  C1' OXE d   1       1.526  -1.818  -2.512  0.00  0.00     0.078 C 
ATOM      3  C1  OXE d   1       1.260  -1.101  -1.212  0.00  0.00    -0.078 A 
ATOM      4  C2  OXE d   1       2.329  -0.500  -0.591  0.00  0.00    -0.078 A 
ATOM      5  C3  OXE d   1       2.129   0.221   0.582  0.00  0.00     0.003 A 
ATOM      6  C4  OXE d   1       0.881   0.210   1.216  0.00  0.00    -0.002 A 
ATOM      7  C5  OXE d   1      -0.212  -0.429   0.622  0.00  0.00    -0.002 A 
ATOM      8  C6  OXE d   1      -0.050  -1.052  -0.611  0.00  0.00     0.003 A 
ENDROOT
TORSDOF 0
ENDMDL
