MODEL 1
REMARK minimizedAffinity -3.47285175
REMARK minimizedRMSD -1
REMARK  0 active torsions:
REMARK  status: ('A' for Active; 'I' for Inactive)
ROOT
ATOM      1  C2' OXE d   1       2.519  -0.749  -0.590  0.00  0.00     0.078 C 
ATOM      2  C1' OXE d   1       0.655  -2.728   0.110  0.00  0.00     0.078 C 
ATOM      3  C1  OXE d   1       0.175  -1.300   0.048  0.00  0.00    -0.078 A 
ATOM      4  C2  OXE d   1       1.104  -0.332  -0.250  0.00  0.00    -0.078 A 
ATOM      5  C3  OXE d   1       0.703   0.995  -0.373  0.00  0.00     0.003 A 
ATOM      6  C4  OXE d   1      -0.605   1.373  -0.047  0.00  0.00    -0.002 A 
ATOM      7  C5  OXE d   1      -1.558   0.409   0.297  0.00  0.00    -0.002 A 
ATOM      8  C6  OXE d   1      -1.196  -0.934   0.308  0.00  0.00     0.003 A 
ENDROOT
TORSDOF 0
ENDMDL
