MODEL 1
REMARK minimizedAffinity -1.26463997
REMARK minimizedRMSD -1
REMARK  0 active torsions:
REMARK  status: ('A' for Active; 'I' for Inactive)
ROOT
ATOM      1  C2' OXE d   1      -0.551   0.653   0.081  0.00  0.00     0.078 C 
ATOM      2  C1' OXE d   1       0.370   2.501  -1.821  0.00  0.00     0.078 C 
ATOM      3  C1  OXE d   1       1.008   1.135  -1.801  0.00  0.00    -0.078 A 
ATOM      4  C2  OXE d   1       0.583   0.253  -0.837  0.00  0.00    -0.078 A 
ATOM      5  C3  OXE d   1       1.100  -1.040  -0.809  0.00  0.00     0.003 A 
ATOM      6  C4  OXE d   1       2.156  -1.399  -1.655  0.00  0.00    -0.002 A 
ATOM      7  C5  OXE d   1       2.631  -0.502  -2.619  0.00  0.00    -0.002 A 
ATOM      8  C6  OXE d   1       2.040   0.751  -2.733  0.00  0.00     0.003 A 
ENDROOT
TORSDOF 0
ENDMDL
