MODEL 1
REMARK minimizedAffinity -2.36240482
REMARK minimizedRMSD -1
REMARK  0 active torsions:
REMARK  status: ('A' for Active; 'I' for Inactive)
ROOT
ATOM      1  C2' OXE d   1      -0.906   0.746   0.329  0.00  0.00     0.078 C 
ATOM      2  C1' OXE d   1       0.404  -1.710  -0.038  0.00  0.00     0.078 C 
ATOM      3  C1  OXE d   1       0.681  -0.610  -1.031  0.00  0.00    -0.078 A 
ATOM      4  C2  OXE d   1       0.000   0.573  -0.871  0.00  0.00    -0.078 A 
ATOM      5  C3  OXE d   1       0.259   1.639  -1.728  0.00  0.00     0.003 A 
ATOM      6  C4  OXE d   1       1.091   1.468  -2.841  0.00  0.00    -0.002 A 
ATOM      7  C5  OXE d   1       1.763   0.258  -3.045  0.00  0.00    -0.002 A 
ATOM      8  C6  OXE d   1       1.603  -0.774  -2.128  0.00  0.00     0.003 A 
ENDROOT
TORSDOF 0
ENDMDL
