MODEL 1
REMARK minimizedAffinity -4.9754796
REMARK minimizedRMSD -1
REMARK  0 active torsions:
REMARK  status: ('A' for Active; 'I' for Inactive)
ROOT
ATOM      1  C2' OXE d   1       0.363  -1.646   0.170  0.00  0.00     0.078 C 
ATOM      2  C1' OXE d   1      -0.646   0.955  -0.141  0.00  0.00     0.078 C 
ATOM      3  C1  OXE d   1       0.632   0.605  -0.863  0.00  0.00    -0.078 A 
ATOM      4  C2  OXE d   1       1.143  -0.656  -0.667  0.00  0.00    -0.078 A 
ATOM      5  C3  OXE d   1       2.289  -1.048  -1.353  0.00  0.00     0.003 A 
ATOM      6  C4  OXE d   1       3.010  -0.123  -2.117  0.00  0.00    -0.002 A 
ATOM      7  C5  OXE d   1       2.528   1.178  -2.297  0.00  0.00    -0.002 A 
ATOM      8  C6  OXE d   1       1.321   1.544  -1.712  0.00  0.00     0.003 A 
ENDROOT
TORSDOF 0
ENDMDL
