MODEL 1
REMARK minimizedAffinity -5.2425642
REMARK minimizedRMSD -1
REMARK  0 active torsions:
REMARK  status: ('A' for Active; 'I' for Inactive)
ROOT
ATOM      1  C2' OXE d   1       0.827  -1.863   0.458  0.00  0.00     0.078 C 
ATOM      2  C1' OXE d   1      -0.468   0.609   0.155  0.00  0.00     0.078 C 
ATOM      3  C1  OXE d   1       0.826   0.396  -0.591  0.00  0.00    -0.078 A 
ATOM      4  C2  OXE d   1       1.476  -0.799  -0.400  0.00  0.00    -0.078 A 
ATOM      5  C3  OXE d   1       2.645  -1.068  -1.106  0.00  0.00     0.003 A 
ATOM      6  C4  OXE d   1       3.244  -0.075  -1.890  0.00  0.00    -0.002 A 
ATOM      7  C5  OXE d   1       2.618   1.164  -2.067  0.00  0.00    -0.002 A 
ATOM      8  C6  OXE d   1       1.390   1.400  -1.459  0.00  0.00     0.003 A 
ENDROOT
TORSDOF 0
ENDMDL
