MODEL 1
REMARK minimizedAffinity -4.25514889
REMARK minimizedRMSD -1
REMARK  0 active torsions:
REMARK  status: ('A' for Active; 'I' for Inactive)
ROOT
ATOM      1  C2' OXE d   1      -1.113   0.359   0.442  0.00  0.00     0.078 C 
ATOM      2  C1' OXE d   1      -0.178   2.192  -1.468  0.00  0.00     0.078 C 
ATOM      3  C1  OXE d   1       0.549   0.876  -1.340  0.00  0.00    -0.078 A 
ATOM      4  C2  OXE d   1       0.114   0.005  -0.371  0.00  0.00    -0.078 A 
ATOM      5  C3  OXE d   1       0.714  -1.244  -0.247  0.00  0.00     0.003 A 
ATOM      6  C4  OXE d   1       1.855  -1.560  -0.995  0.00  0.00    -0.002 A 
ATOM      7  C5  OXE d   1       2.339  -0.671  -1.960  0.00  0.00    -0.002 A 
ATOM      8  C6  OXE d   1       1.674   0.531  -2.174  0.00  0.00     0.003 A 
ENDROOT
TORSDOF 0
ENDMDL
