MODEL 1
REMARK minimizedAffinity -3.4761076
REMARK minimizedRMSD -1
REMARK  0 active torsions:
REMARK  status: ('A' for Active; 'I' for Inactive)
ROOT
ATOM      1  C2' OXE d   1       2.798   0.074  -1.186  0.00  0.00     0.078 C 
ATOM      2  C1' OXE d   1       1.392   2.353  -2.029  0.00  0.00     0.078 C 
ATOM      3  C1  OXE d   1       0.662   1.355  -1.166  0.00  0.00    -0.078 A 
ATOM      4  C2  OXE d   1       1.343   0.220  -0.796  0.00  0.00    -0.078 A 
ATOM      5  C3  OXE d   1       0.735  -0.706   0.045  0.00  0.00     0.003 A 
ATOM      6  C4  OXE d   1      -0.615  -0.569   0.393  0.00  0.00    -0.002 A 
ATOM      7  C5  OXE d   1      -1.339   0.559  -0.006  0.00  0.00    -0.002 A 
ATOM      8  C6  OXE d   1      -0.705   1.549  -0.748  0.00  0.00     0.003 A 
ENDROOT
TORSDOF 0
ENDMDL
