MODEL 1
REMARK minimizedAffinity -5.92357779
REMARK minimizedRMSD -1
REMARK  0 active torsions:
REMARK  status: ('A' for Active; 'I' for Inactive)
ROOT
ATOM      1  C2' OXE d   1       2.027   1.448  -3.000  0.00  0.00     0.078 C 
ATOM      2  C1' OXE d   1       3.024  -0.598  -1.356  0.00  0.00     0.078 C 
ATOM      3  C1  OXE d   1       1.612  -0.127  -1.115  0.00  0.00    -0.078 A 
ATOM      4  C2  OXE d   1       1.148   0.907  -1.893  0.00  0.00    -0.078 A 
ATOM      5  C3  OXE d   1      -0.166   1.343  -1.749  0.00  0.00     0.003 A 
ATOM      6  C4  OXE d   1      -0.969   0.844  -0.716  0.00  0.00    -0.002 A 
ATOM      7  C5  OXE d   1      -0.502  -0.181   0.114  0.00  0.00    -0.002 A 
ATOM      8  C6  OXE d   1       0.768  -0.706  -0.099  0.00  0.00     0.003 A 
ENDROOT
TORSDOF 0
ENDMDL
