MODEL 1
REMARK minimizedAffinity -0.854981065
REMARK minimizedRMSD -1
REMARK  0 active torsions:
REMARK  status: ('A' for Active; 'I' for Inactive)
ROOT
ATOM      1  C2' OXE d   1      -1.615   2.040  -0.445  0.00  0.00     0.078 C 
ATOM      2  C1' OXE d   1      -2.098   0.793   2.023  0.00  0.00     0.078 C 
ATOM      3  C1  OXE d   1      -1.062   0.179   1.115  0.00  0.00    -0.078 A 
ATOM      4  C2  OXE d   1      -0.865   0.769  -0.110  0.00  0.00    -0.078 A 
ATOM      5  C3  OXE d   1       0.117   0.275  -0.964  0.00  0.00     0.003 A 
ATOM      6  C4  OXE d   1       0.799  -0.907  -0.650  0.00  0.00    -0.002 A 
ATOM      7  C5  OXE d   1       0.586  -1.547   0.575  0.00  0.00    -0.002 A 
ATOM      8  C6  OXE d   1      -0.309  -0.994   1.486  0.00  0.00     0.003 A 
ENDROOT
TORSDOF 0
ENDMDL
