MODEL 1
REMARK minimizedAffinity -4.77776194
REMARK minimizedRMSD -1
REMARK  0 active torsions:
REMARK  status: ('A' for Active; 'I' for Inactive)
ROOT
ATOM      1  C2' OXE d   1       3.471  -0.465  -1.949  0.00  0.00     0.078 C 
ATOM      2  C1' OXE d   1       1.607   1.587  -1.504  0.00  0.00     0.078 C 
ATOM      3  C1  OXE d   1       1.347   0.248  -0.859  0.00  0.00    -0.078 A 
ATOM      4  C2  OXE d   1       2.240  -0.764  -1.121  0.00  0.00    -0.078 A 
ATOM      5  C3  OXE d   1       2.076  -2.003  -0.508  0.00  0.00     0.003 A 
ATOM      6  C4  OXE d   1       0.930  -2.274   0.249  0.00  0.00    -0.002 A 
ATOM      7  C5  OXE d   1      -0.012  -1.269   0.495  0.00  0.00    -0.002 A 
ATOM      8  C6  OXE d   1       0.203   0.007  -0.016  0.00  0.00     0.003 A 
ENDROOT
TORSDOF 0
ENDMDL
