MODEL 1
REMARK minimizedAffinity 4.54613781
REMARK minimizedRMSD -1
REMARK  1 active torsions:
REMARK  status: ('A' for Active; 'I' for Inactive)
REMARK    1  A    between atoms: C1_2  and  C2_3 
ROOT
ATOM      1  C2  UNL d   1       0.215  -2.888   0.824  0.00  0.00    -0.073 A 
ATOM      2  C3  UNL d   1       1.002  -4.044   0.806  0.00  0.00    -0.002 A 
ATOM      3  C4  UNL d   1       2.029  -4.213   1.736  0.00  0.00     0.004 A 
ATOM      4  C5  UNL d   1       2.274  -3.232   2.697  0.00  0.00    -0.004 A 
ATOM      5  C6  UNL d   1       1.490  -2.074   2.739  0.00  0.00    -0.075 A 
ATOM      6  C7  UNL d   1       1.742  -1.009   3.765  0.00  0.00     0.076 C 
ATOM      7  C8  UNL d   1       0.463  -1.911   1.800  0.00  0.00     0.001 A 
ENDROOT
BRANCH   1   8
ATOM      8  C1  UNL d   1      -0.899  -2.704  -0.174  0.00  0.00     0.053 C 
ATOM      9  C   UNL d   1      -1.986  -3.756  -0.015  0.00  0.00     0.018 C 
ENDBRANCH   1   8
TORSDOF 1
ENDMDL
