MODEL 1
REMARK minimizedAffinity 12.3929949
REMARK minimizedRMSD -1
REMARK  1 active torsions:
REMARK  status: ('A' for Active; 'I' for Inactive)
REMARK    1  A    between atoms: C1_2  and  C2_3 
ROOT
ATOM      1  C2  UNL d   1       1.349  -1.860  -0.673  0.00  0.00    -0.073 A 
ATOM      2  C3  UNL d   1       1.470  -1.224   0.568  0.00  0.00    -0.002 A 
ATOM      3  C4  UNL d   1       0.338  -0.963   1.340  0.00  0.00     0.004 A 
ATOM      4  C5  UNL d   1      -0.925  -1.340   0.884  0.00  0.00    -0.004 A 
ATOM      5  C6  UNL d   1      -1.066  -1.987  -0.348  0.00  0.00    -0.075 A 
ATOM      6  C7  UNL d   1      -2.418  -2.397  -0.854  0.00  0.00     0.076 C 
ATOM      7  C8  UNL d   1       0.076  -2.244  -1.119  0.00  0.00     0.001 A 
ENDROOT
BRANCH   1   8
ATOM      8  C1  UNL d   1       2.570  -2.150  -1.507  0.00  0.00     0.053 C 
ATOM      9  C   UNL d   1       3.225  -0.878  -2.019  0.00  0.00     0.018 C 
ENDBRANCH   1   8
TORSDOF 1
ENDMDL
