MODEL 1
REMARK minimizedAffinity 3.51826668
REMARK minimizedRMSD -1
REMARK  1 active torsions:
REMARK  status: ('A' for Active; 'I' for Inactive)
REMARK    1  A    between atoms: C1_2  and  C2_3 
ROOT
ATOM      1  C2  UNL d   1       2.819  -1.215   3.256  0.00  0.00    -0.073 A 
ATOM      2  C3  UNL d   1       1.992  -2.276   3.645  0.00  0.00    -0.002 A 
ATOM      3  C4  UNL d   1       2.456  -3.238   4.542  0.00  0.00     0.004 A 
ATOM      4  C5  UNL d   1       3.746  -3.147   5.065  0.00  0.00    -0.004 A 
ATOM      5  C6  UNL d   1       4.583  -2.088   4.698  0.00  0.00    -0.075 A 
ATOM      6  C7  UNL d   1       5.974  -1.977   5.250  0.00  0.00     0.076 C 
ATOM      7  C8  UNL d   1       4.111  -1.127   3.794  0.00  0.00     0.001 A 
ENDROOT
BRANCH   1   8
ATOM      8  C1  UNL d   1       2.320  -0.170   2.292  0.00  0.00     0.053 C 
ATOM      9  C   UNL d   1       3.423   0.787   1.869  0.00  0.00     0.018 C 
ENDBRANCH   1   8
TORSDOF 1
ENDMDL
