MODEL 1
REMARK minimizedAffinity 14.6024952
REMARK minimizedRMSD -1
REMARK  1 active torsions:
REMARK  status: ('A' for Active; 'I' for Inactive)
REMARK    1  A    between atoms: C1_2  and  C2_3 
ROOT
ATOM      1  C2  UNL d   1       4.229  -1.557   3.141  0.00  0.00    -0.073 A 
ATOM      2  C3  UNL d   1       3.063  -2.095   3.698  0.00  0.00    -0.002 A 
ATOM      3  C4  UNL d   1       1.828  -1.484   3.474  0.00  0.00     0.004 A 
ATOM      4  C5  UNL d   1       1.745  -0.336   2.688  0.00  0.00    -0.004 A 
ATOM      5  C6  UNL d   1       2.897   0.211   2.113  0.00  0.00    -0.075 A 
ATOM      6  C7  UNL d   1       2.825   1.447   1.266  0.00  0.00     0.076 C 
ATOM      7  C8  UNL d   1       4.134  -0.407   2.344  0.00  0.00     0.001 A 
ENDROOT
BRANCH   1   8
ATOM      8  C1  UNL d   1       5.564  -2.216   3.375  0.00  0.00     0.053 C 
ATOM      9  C   UNL d   1       5.990  -2.140   4.832  0.00  0.00     0.018 C 
ENDBRANCH   1   8
TORSDOF 1
ENDMDL
