MODEL 1
REMARK minimizedAffinity 6.15957355
REMARK minimizedRMSD -1
REMARK  1 active torsions:
REMARK  status: ('A' for Active; 'I' for Inactive)
REMARK    1  A    between atoms: C1_2  and  C2_3 
ROOT
ATOM      1  C2  UNL d   1       4.301  -1.384   2.928  0.00  0.00    -0.073 A 
ATOM      2  C3  UNL d   1       3.106  -2.109   2.997  0.00  0.00    -0.002 A 
ATOM      3  C4  UNL d   1       1.889  -1.494   2.700  0.00  0.00     0.004 A 
ATOM      4  C5  UNL d   1       1.855  -0.151   2.325  0.00  0.00    -0.004 A 
ATOM      5  C6  UNL d   1       3.039   0.588   2.239  0.00  0.00    -0.075 A 
ATOM      6  C7  UNL d   1       3.019   2.034   1.839  0.00  0.00     0.076 C 
ATOM      7  C8  UNL d   1       4.257  -0.037   2.541  0.00  0.00     0.001 A 
ENDROOT
BRANCH   1   8
ATOM      8  C1  UNL d   1       5.618  -2.045   3.242  0.00  0.00     0.053 C 
ATOM      9  C   UNL d   1       6.000  -1.889   4.705  0.00  0.00     0.018 C 
ENDBRANCH   1   8
TORSDOF 1
ENDMDL
