MODEL 1
REMARK minimizedAffinity -0.229575664
REMARK minimizedRMSD -1
REMARK  1 active torsions:
REMARK  status: ('A' for Active; 'I' for Inactive)
REMARK    1  A    between atoms: C1_2  and  C2_3 
ROOT
ATOM      1  C2  UNL d   1      -4.306  -2.210  -2.378  0.00  0.00    -0.081 A 
ATOM      2  C3  UNL d   1      -4.033  -2.471  -3.727  0.00  0.00     0.006 A 
ATOM      3  C4  UNL d   1      -4.384  -3.697  -4.296  0.00  0.00     0.002 A 
ATOM      4  C5  UNL d   1      -5.021  -4.679  -3.530  0.00  0.00    -0.080 A 
ATOM      5  C6  UNL d   1      -5.431  -5.988  -4.137  0.00  0.00     0.076 C 
ATOM      6  C7  UNL d   1      -5.278  -4.425  -2.178  0.00  0.00     0.002 A 
ATOM      7  C8  UNL d   1      -4.926  -3.200  -1.608  0.00  0.00     0.006 A 
ENDROOT
BRANCH   1   8
ATOM      8  C1  UNL d   1      -3.986  -0.865  -1.778  0.00  0.00     0.054 C 
ATOM      9  C   UNL d   1      -2.848  -0.182  -2.523  0.00  0.00     0.018 C 
ENDBRANCH   1   8
TORSDOF 1
ENDMDL
