MODEL 1
REMARK minimizedAffinity -0.379232109
REMARK minimizedRMSD -1
REMARK  1 active torsions:
REMARK  status: ('A' for Active; 'I' for Inactive)
REMARK    1  A    between atoms: C1_2  and  C2_3 
ROOT
ATOM      1  C2  UNL d   1      -5.006  -4.905  -4.802  0.00  0.00    -0.081 A 
ATOM      2  C3  UNL d   1      -4.653  -3.565  -5.000  0.00  0.00     0.006 A 
ATOM      3  C4  UNL d   1      -4.967  -2.600  -4.040  0.00  0.00     0.002 A 
ATOM      4  C5  UNL d   1      -5.631  -2.960  -2.863  0.00  0.00    -0.080 A 
ATOM      5  C6  UNL d   1      -5.947  -1.939  -1.811  0.00  0.00     0.076 C 
ATOM      6  C7  UNL d   1      -6.000  -4.296  -2.673  0.00  0.00     0.002 A 
ATOM      7  C8  UNL d   1      -5.687  -5.261  -3.632  0.00  0.00     0.006 A 
ENDROOT
BRANCH   1   8
ATOM      8  C1  UNL d   1      -4.611  -5.958  -5.805  0.00  0.00     0.054 C 
ATOM      9  C   UNL d   1      -3.102  -6.000  -6.000  0.00  0.00     0.018 C 
ENDBRANCH   1   8
TORSDOF 1
ENDMDL
