MODEL 1
REMARK minimizedAffinity 3.41569614
REMARK minimizedRMSD -1
REMARK  1 active torsions:
REMARK  status: ('A' for Active; 'I' for Inactive)
REMARK    1  A    between atoms: C1_2  and  C2_3 
ROOT
ATOM      1  C2  UNL d   1       1.557  -0.103   2.983  0.00  0.00    -0.081 A 
ATOM      2  C3  UNL d   1       1.224  -0.441   1.666  0.00  0.00     0.006 A 
ATOM      3  C4  UNL d   1       0.891  -1.756   1.334  0.00  0.00     0.002 A 
ATOM      4  C5  UNL d   1       0.878  -2.754   2.315  0.00  0.00    -0.080 A 
ATOM      5  C6  UNL d   1       0.493  -4.164   1.978  0.00  0.00     0.076 C 
ATOM      6  C7  UNL d   1       1.227  -2.421   3.628  0.00  0.00     0.002 A 
ATOM      7  C8  UNL d   1       1.561  -1.106   3.960  0.00  0.00     0.006 A 
ENDROOT
BRANCH   1   8
ATOM      8  C1  UNL d   1       1.853   1.326   3.357  0.00  0.00     0.054 C 
ATOM      9  C   UNL d   1       2.633   2.035   2.259  0.00  0.00     0.018 C 
ENDBRANCH   1   8
TORSDOF 1
ENDMDL
