MODEL 1
REMARK minimizedAffinity 5.38941956
REMARK minimizedRMSD -1
REMARK  1 active torsions:
REMARK  status: ('A' for Active; 'I' for Inactive)
REMARK    1  A    between atoms: C1_2  and  C2_3 
ROOT
ATOM      1  C2  UNL d   1      -4.882  -3.308  -2.674  0.00  0.00    -0.081 A 
ATOM      2  C3  UNL d   1      -4.123  -3.163  -3.842  0.00  0.00     0.006 A 
ATOM      3  C4  UNL d   1      -4.298  -4.039  -4.915  0.00  0.00     0.002 A 
ATOM      4  C5  UNL d   1      -5.241  -5.071  -4.842  0.00  0.00    -0.080 A 
ATOM      5  C6  UNL d   1      -5.461  -6.000  -5.999  0.00  0.00     0.076 C 
ATOM      6  C7  UNL d   1      -5.987  -5.227  -3.669  0.00  0.00     0.002 A 
ATOM      7  C8  UNL d   1      -5.812  -4.351  -2.596  0.00  0.00     0.006 A 
ENDROOT
BRANCH   1   8
ATOM      8  C1  UNL d   1      -4.741  -2.325  -1.540  0.00  0.00     0.054 C 
ATOM      9  C   UNL d   1      -5.951  -1.407  -1.450  0.00  0.00     0.018 C 
ENDBRANCH   1   8
TORSDOF 1
ENDMDL
