MODEL 1
REMARK minimizedAffinity 13.953083
REMARK minimizedRMSD -1
REMARK  1 active torsions:
REMARK  status: ('A' for Active; 'I' for Inactive)
REMARK    1  A    between atoms: C1_2  and  C2_3 
ROOT
ATOM      1  C2  UNL d   1       0.930  -2.791   1.215  0.00  0.00    -0.081 A 
ATOM      2  C3  UNL d   1       0.400  -2.150   2.341  0.00  0.00     0.006 A 
ATOM      3  C4  UNL d   1       0.503  -0.764   2.480  0.00  0.00     0.002 A 
ATOM      4  C5  UNL d   1       1.131   0.004   1.494  0.00  0.00    -0.080 A 
ATOM      5  C6  UNL d   1       1.221   1.496   1.617  0.00  0.00     0.076 C 
ATOM      6  C7  UNL d   1       1.676  -0.639   0.377  0.00  0.00     0.002 A 
ATOM      7  C8  UNL d   1       1.574  -2.024   0.237  0.00  0.00     0.006 A 
ENDROOT
BRANCH   1   8
ATOM      8  C1  UNL d   1       0.764  -4.278   1.030  0.00  0.00     0.054 C 
ATOM      9  C   UNL d   1       0.231  -4.607  -0.357  0.00  0.00     0.018 C 
ENDBRANCH   1   8
TORSDOF 1
ENDMDL
