MODEL 1
REMARK minimizedAffinity 13.1621265
REMARK minimizedRMSD -1
REMARK  1 active torsions:
REMARK  status: ('A' for Active; 'I' for Inactive)
REMARK    1  A    between atoms: C1_2  and  C2_3 
ROOT
ATOM      1  C2  UNL d   1       4.192   4.594  -4.993  0.00  0.00    -0.081 A 
ATOM      2  C3  UNL d   1       3.523   4.218  -3.823  0.00  0.00     0.006 A 
ATOM      3  C4  UNL d   1       3.070   2.907  -3.656  0.00  0.00     0.002 A 
ATOM      4  C5  UNL d   1       3.286   1.949  -4.653  0.00  0.00    -0.080 A 
ATOM      5  C6  UNL d   1       2.832   0.531  -4.474  0.00  0.00     0.076 C 
ATOM      6  C7  UNL d   1       3.940   2.330  -5.830  0.00  0.00     0.002 A 
ATOM      7  C8  UNL d   1       4.392   3.640  -5.997  0.00  0.00     0.006 A 
ENDROOT
BRANCH   1   8
ATOM      8  C1  UNL d   1       4.738   5.991  -5.149  0.00  0.00     0.054 C 
ATOM      9  C   UNL d   1       6.000   6.000  -6.000  0.00  0.00     0.018 C 
ENDBRANCH   1   8
TORSDOF 1
ENDMDL
