MODEL 1
REMARK minimizedAffinity 16.2978706
REMARK minimizedRMSD -1
REMARK  1 active torsions:
REMARK  status: ('A' for Active; 'I' for Inactive)
REMARK    1  A    between atoms: C1_2  and  C2_3 
ROOT
ATOM      1  C2  UNL d   1       1.129  -3.004   1.360  0.00  0.00    -0.081 A 
ATOM      2  C3  UNL d   1       1.392  -2.198   0.245  0.00  0.00     0.006 A 
ATOM      3  C4  UNL d   1       1.395  -0.806   0.362  0.00  0.00     0.002 A 
ATOM      4  C5  UNL d   1       1.144  -0.197   1.596  0.00  0.00    -0.080 A 
ATOM      5  C6  UNL d   1       1.175   1.295   1.742  0.00  0.00     0.076 C 
ATOM      6  C7  UNL d   1       0.865  -1.001   2.706  0.00  0.00     0.002 A 
ATOM      7  C8  UNL d   1       0.860  -2.393   2.590  0.00  0.00     0.006 A 
ENDROOT
BRANCH   1   8
ATOM      8  C1  UNL d   1       1.188  -4.506   1.251  0.00  0.00     0.054 C 
ATOM      9  C   UNL d   1       1.268  -4.952  -0.202  0.00  0.00     0.018 C 
ENDBRANCH   1   8
TORSDOF 1
ENDMDL
