MODEL 1
REMARK minimizedAffinity 15.5347652
REMARK minimizedRMSD -1
REMARK  1 active torsions:
REMARK  status: ('A' for Active; 'I' for Inactive)
REMARK    1  A    between atoms: C1_2  and  C2_3 
ROOT
ATOM      1  C2  UNL d   1      -3.160   2.074   0.675  0.00  0.00    -0.081 A 
ATOM      2  C3  UNL d   1      -3.262   2.406  -0.681  0.00  0.00     0.006 A 
ATOM      3  C4  UNL d   1      -2.745   1.554  -1.660  0.00  0.00     0.002 A 
ATOM      4  C5  UNL d   1      -2.125   0.353  -1.299  0.00  0.00    -0.080 A 
ATOM      5  C6  UNL d   1      -1.593  -0.586  -2.341  0.00  0.00     0.076 C 
ATOM      6  C7  UNL d   1      -2.007   0.029   0.057  0.00  0.00     0.002 A 
ATOM      7  C8  UNL d   1      -2.523   0.882   1.036  0.00  0.00     0.006 A 
ENDROOT
BRANCH   1   8
ATOM      8  C1  UNL d   1      -3.773   2.960   1.729  0.00  0.00     0.054 C 
ATOM      9  C   UNL d   1      -5.272   3.116   1.517  0.00  0.00     0.018 C 
ENDBRANCH   1   8
TORSDOF 1
ENDMDL
