MODEL 1
REMARK minimizedAffinity 14.8746099
REMARK minimizedRMSD -1
REMARK  1 active torsions:
REMARK  status: ('A' for Active; 'I' for Inactive)
REMARK    1  A    between atoms: C1_2  and  C2_3 
ROOT
ATOM      1  C2  UNL d   1      -1.471   2.636   1.967  0.00  0.00    -0.076 A 
ATOM      2  C3  UNL d   1      -2.841   2.795   2.236  0.00  0.00     0.004 A 
ATOM      3  C4  UNL d   1      -3.563   1.801   2.895  0.00  0.00    -0.003 A 
ATOM      4  C5  UNL d   1      -2.926   0.632   3.295  0.00  0.00     0.000 A 
ATOM      5  C6  UNL d   1      -1.563   0.465   3.053  0.00  0.00     0.000 A 
ATOM      6  C7  UNL d   1      -0.817   1.464   2.404  0.00  0.00    -0.073 A 
ATOM      7  C8  UNL d   1       0.649   1.228   2.163  0.00  0.00     0.078 C 
ENDROOT
BRANCH   1   8
ATOM      8  C1  UNL d   1      -0.746   3.736   1.225  0.00  0.00     0.053 C 
ATOM      9  C   UNL d   1      -1.569   4.310   0.083  0.00  0.00     0.018 C 
ENDBRANCH   1   8
TORSDOF 1
ENDMDL
