MODEL 1
REMARK minimizedAffinity -5.46431303
REMARK minimizedRMSD -1
REMARK  1 active torsions:
REMARK  status: ('A' for Active; 'I' for Inactive)
REMARK    1  A    between atoms: C1_2  and  C2_3 
ROOT
ATOM      1  C2  UNL d   1       1.511   1.359  -0.004  0.00  0.00    -0.076 A 
ATOM      2  C3  UNL d   1       2.733   0.981  -0.587  0.00  0.00     0.004 A 
ATOM      3  C4  UNL d   1       2.874  -0.251  -1.223  0.00  0.00    -0.003 A 
ATOM      4  C5  UNL d   1       1.795  -1.126  -1.287  0.00  0.00     0.000 A 
ATOM      5  C6  UNL d   1       0.570  -0.760  -0.729  0.00  0.00     0.000 A 
ATOM      6  C7  UNL d   1       0.406   0.485  -0.099  0.00  0.00    -0.073 A 
ATOM      7  C8  UNL d   1      -0.935   0.825   0.491  0.00  0.00     0.078 C 
ENDROOT
BRANCH   1   8
ATOM      8  C1  UNL d   1       1.425   2.696   0.696  0.00  0.00     0.053 C 
ATOM      9  C   UNL d   1       1.652   2.584   2.196  0.00  0.00     0.018 C 
ENDBRANCH   1   8
TORSDOF 1
ENDMDL
