MODEL 1
REMARK minimizedAffinity 10.898592
REMARK minimizedRMSD -1
REMARK  1 active torsions:
REMARK  status: ('A' for Active; 'I' for Inactive)
REMARK    1  A    between atoms: C1_2  and  C2_3 
ROOT
ATOM      1  C2  UNL d   1       1.588   1.141  -1.240  0.00  0.00    -0.076 A 
ATOM      2  C3  UNL d   1       2.224  -0.099  -1.059  0.00  0.00     0.004 A 
ATOM      3  C4  UNL d   1       2.092  -1.118  -2.002  0.00  0.00    -0.003 A 
ATOM      4  C5  UNL d   1       1.322  -0.912  -3.141  0.00  0.00     0.000 A 
ATOM      5  C6  UNL d   1       0.698   0.319  -3.346  0.00  0.00     0.000 A 
ATOM      6  C7  UNL d   1       0.835   1.361  -2.413  0.00  0.00    -0.073 A 
ATOM      7  C8  UNL d   1       0.135   2.666  -2.681  0.00  0.00     0.078 C 
ENDROOT
BRANCH   1   8
ATOM      8  C1  UNL d   1       1.745   2.199  -0.171  0.00  0.00     0.053 C 
ATOM      9  C   UNL d   1       1.751   1.612   1.232  0.00  0.00     0.018 C 
ENDBRANCH   1   8
TORSDOF 1
ENDMDL
