MODEL 1
REMARK minimizedAffinity 6.19670343
REMARK minimizedRMSD -1
REMARK  1 active torsions:
REMARK  status: ('A' for Active; 'I' for Inactive)
REMARK    1  A    between atoms: C1_2  and  C2_3 
ROOT
ATOM      1  C2  UNL d   1       1.411   2.079   1.103  0.00  0.00    -0.076 A 
ATOM      2  C3  UNL d   1       1.291   0.779   0.582  0.00  0.00     0.004 A 
ATOM      3  C4  UNL d   1       2.334   0.196  -0.136  0.00  0.00    -0.003 A 
ATOM      4  C5  UNL d   1       3.513   0.903  -0.344  0.00  0.00     0.000 A 
ATOM      5  C6  UNL d   1       3.656   2.187   0.182  0.00  0.00     0.000 A 
ATOM      6  C7  UNL d   1       2.620   2.783   0.922  0.00  0.00    -0.073 A 
ATOM      7  C8  UNL d   1       2.826   4.172   1.460  0.00  0.00     0.078 C 
ENDROOT
BRANCH   1   8
ATOM      8  C1  UNL d   1       0.236   2.670   1.850  0.00  0.00     0.053 C 
ATOM      9  C   UNL d   1      -0.546   1.623   2.628  0.00  0.00     0.018 C 
ENDBRANCH   1   8
TORSDOF 1
ENDMDL
