MODEL 1
REMARK minimizedAffinity 2.63431716
REMARK minimizedRMSD -1
REMARK  1 active torsions:
REMARK  status: ('A' for Active; 'I' for Inactive)
REMARK    1  A    between atoms: C1_2  and  C2_3 
ROOT
ATOM      1  C2  UNL d   1       1.989   1.110   0.862  0.00  0.00    -0.076 A 
ATOM      2  C3  UNL d   1       1.470  -0.149   1.210  0.00  0.00     0.004 A 
ATOM      3  C4  UNL d   1       0.428  -0.267   2.128  0.00  0.00    -0.003 A 
ATOM      4  C5  UNL d   1      -0.113   0.873   2.712  0.00  0.00     0.000 A 
ATOM      5  C6  UNL d   1       0.377   2.131   2.365  0.00  0.00     0.000 A 
ATOM      6  C7  UNL d   1       1.417   2.269   1.429  0.00  0.00    -0.073 A 
ATOM      7  C8  UNL d   1       1.911   3.650   1.097  0.00  0.00     0.078 C 
ENDROOT
BRANCH   1   8
ATOM      8  C1  UNL d   1       3.138   1.174  -0.119  0.00  0.00     0.053 C 
ATOM      9  C   UNL d   1       3.671  -0.203  -0.483  0.00  0.00     0.018 C 
ENDBRANCH   1   8
TORSDOF 1
ENDMDL
