MODEL 1
REMARK minimizedAffinity 4.44590855
REMARK minimizedRMSD -1
REMARK  1 active torsions:
REMARK  status: ('A' for Active; 'I' for Inactive)
REMARK    1  A    between atoms: C1_2  and  C2_3 
ROOT
ATOM      1  C2  UNL d   1      -1.021   1.546   2.092  0.00  0.00    -0.076 A 
ATOM      2  C3  UNL d   1      -0.735   2.912   2.259  0.00  0.00     0.004 A 
ATOM      3  C4  UNL d   1       0.577   3.380   2.219  0.00  0.00    -0.003 A 
ATOM      4  C5  UNL d   1       1.625   2.490   2.010  0.00  0.00     0.000 A 
ATOM      5  C6  UNL d   1       1.358   1.134   1.824  0.00  0.00     0.000 A 
ATOM      6  C7  UNL d   1       0.040   0.648   1.845  0.00  0.00    -0.073 A 
ATOM      7  C8  UNL d   1      -0.190  -0.825   1.645  0.00  0.00     0.078 C 
ENDROOT
BRANCH   1   8
ATOM      8  C1  UNL d   1      -2.461   1.092   2.173  0.00  0.00     0.053 C 
ATOM      9  C   UNL d   1      -3.349   2.097   2.891  0.00  0.00     0.018 C 
ENDBRANCH   1   8
TORSDOF 1
ENDMDL
