MODEL 1
REMARK minimizedAffinity 9.57502651
REMARK minimizedRMSD -1
REMARK  1 active torsions:
REMARK  status: ('A' for Active; 'I' for Inactive)
REMARK    1  A    between atoms: C1_2  and  C2_3 
ROOT
ATOM      1  C2  UNL d   1       1.504   0.669   0.598  0.00  0.00    -0.076 A 
ATOM      2  C3  UNL d   1       2.730   1.240   0.215  0.00  0.00     0.004 A 
ATOM      3  C4  UNL d   1       3.156   2.453   0.755  0.00  0.00    -0.003 A 
ATOM      4  C5  UNL d   1       2.363   3.113   1.687  0.00  0.00     0.000 A 
ATOM      5  C6  UNL d   1       1.152   2.552   2.091  0.00  0.00     0.000 A 
ATOM      6  C7  UNL d   1       0.716   1.323   1.569  0.00  0.00    -0.073 A 
ATOM      7  C8  UNL d   1      -0.602   0.767   2.035  0.00  0.00     0.078 C 
ENDROOT
BRANCH   1   8
ATOM      8  C1  UNL d   1       1.081  -0.634  -0.042  0.00  0.00     0.053 C 
ATOM      9  C   UNL d   1       1.578  -0.769  -1.473  0.00  0.00     0.018 C 
ENDBRANCH   1   8
TORSDOF 1
ENDMDL
