MODEL 1
REMARK minimizedAffinity -0.0133633744
REMARK minimizedRMSD -1
REMARK  1 active torsions:
REMARK  status: ('A' for Active; 'I' for Inactive)
REMARK    1  A    between atoms: C1_2  and  C2_3 
ROOT
ATOM      1  C2  UNL d   1       0.887  -1.233   0.226  0.00  0.00    -0.076 A 
ATOM      2  C3  UNL d   1       1.764  -1.338  -0.868  0.00  0.00     0.004 A 
ATOM      3  C4  UNL d   1       2.772  -0.397  -1.073  0.00  0.00    -0.003 A 
ATOM      4  C5  UNL d   1       2.919   0.665  -0.188  0.00  0.00     0.000 A 
ATOM      5  C6  UNL d   1       2.069   0.776   0.912  0.00  0.00     0.000 A 
ATOM      6  C7  UNL d   1       1.058  -0.174   1.143  0.00  0.00    -0.073 A 
ATOM      7  C8  UNL d   1       0.166  -0.002   2.341  0.00  0.00     0.078 C 
ENDROOT
BRANCH   1   8
ATOM      8  C1  UNL d   1      -0.204  -2.268   0.382  0.00  0.00     0.053 C 
ATOM      9  C   UNL d   1       0.333  -3.616   0.839  0.00  0.00     0.018 C 
ENDBRANCH   1   8
TORSDOF 1
ENDMDL
