MODEL 1
REMARK minimizedAffinity 10.0247135
REMARK minimizedRMSD -1
REMARK  1 active torsions:
REMARK  status: ('A' for Active; 'I' for Inactive)
REMARK    1  A    between atoms: C1_2  and  C2_3 
ROOT
ATOM      1  C2  UNL d   1       1.456   2.150   1.175  0.00  0.00    -0.076 A 
ATOM      2  C3  UNL d   1       1.264   0.800   0.834  0.00  0.00     0.004 A 
ATOM      3  C4  UNL d   1       2.241   0.088   0.140  0.00  0.00    -0.003 A 
ATOM      4  C5  UNL d   1       3.427   0.716  -0.224  0.00  0.00     0.000 A 
ATOM      5  C6  UNL d   1       3.643   2.049   0.121  0.00  0.00     0.000 A 
ATOM      6  C7  UNL d   1       2.674   2.776   0.835  0.00  0.00    -0.073 A 
ATOM      7  C8  UNL d   1       2.957   4.214   1.176  0.00  0.00     0.078 C 
ENDROOT
BRANCH   1   8
ATOM      8  C1  UNL d   1       0.350   2.878   1.905  0.00  0.00     0.053 C 
ATOM      9  C   UNL d   1      -0.217   2.068   3.061  0.00  0.00     0.018 C 
ENDBRANCH   1   8
TORSDOF 1
ENDMDL
