MODEL 1
REMARK minimizedAffinity 5.04917383
REMARK minimizedRMSD -1
REMARK  1 active torsions:
REMARK  status: ('A' for Active; 'I' for Inactive)
REMARK    1  A    between atoms: C1_2  and  C2_3 
ROOT
ATOM      1  C2  UNL d   1      -3.614  -5.062  -2.598  0.00  0.00    -0.076 A 
ATOM      2  C3  UNL d   1      -2.871  -5.992  -1.851  0.00  0.00     0.004 A 
ATOM      3  C4  UNL d   1      -1.976  -5.572  -0.868  0.00  0.00    -0.003 A 
ATOM      4  C5  UNL d   1      -1.811  -4.215  -0.616  0.00  0.00     0.000 A 
ATOM      5  C6  UNL d   1      -2.554  -3.279  -1.335  0.00  0.00     0.000 A 
ATOM      6  C7  UNL d   1      -3.472  -3.686  -2.318  0.00  0.00    -0.073 A 
ATOM      7  C8  UNL d   1      -4.242  -2.634  -3.068  0.00  0.00     0.078 C 
ENDROOT
BRANCH   1   8
ATOM      8  C1  UNL d   1      -4.549  -5.576  -3.670  0.00  0.00     0.053 C 
ATOM      9  C   UNL d   1      -6.000  -5.602  -3.214  0.00  0.00     0.018 C 
ENDBRANCH   1   8
TORSDOF 1
ENDMDL
