MODEL 1
REMARK minimizedAffinity 17.1306343
REMARK minimizedRMSD -1
REMARK  1 active torsions:
REMARK  status: ('A' for Active; 'I' for Inactive)
REMARK    1  A    between atoms: C1_2  and  C2_3 
ROOT
ATOM      1  C2  UNL d   1      -3.930  -4.764  -3.113  0.00  0.00    -0.076 A 
ATOM      2  C3  UNL d   1      -3.342  -3.646  -2.495  0.00  0.00     0.004 A 
ATOM      3  C4  UNL d   1      -4.068  -2.473  -2.294  0.00  0.00    -0.003 A 
ATOM      4  C5  UNL d   1      -5.393  -2.398  -2.708  0.00  0.00     0.000 A 
ATOM      5  C6  UNL d   1      -5.997  -3.503  -3.307  0.00  0.00     0.000 A 
ATOM      6  C7  UNL d   1      -5.285  -4.699  -3.501  0.00  0.00    -0.073 A 
ATOM      7  C8  UNL d   1      -5.985  -5.858  -4.158  0.00  0.00     0.078 C 
ENDROOT
BRANCH   1   8
ATOM      8  C1  UNL d   1      -3.086  -6.000  -3.328  0.00  0.00     0.053 C 
ATOM      9  C   UNL d   1      -1.598  -5.688  -3.377  0.00  0.00     0.018 C 
ENDBRANCH   1   8
TORSDOF 1
ENDMDL
