MODEL 1
REMARK minimizedAffinity 5.74029541
REMARK minimizedRMSD -1
REMARK  1 active torsions:
REMARK  status: ('A' for Active; 'I' for Inactive)
REMARK    1  A    between atoms: C1_2  and  C2_3 
ROOT
ATOM      1  C2  UNL d   1       1.463   1.061  -1.163  0.00  0.00    -0.076 A 
ATOM      2  C3  UNL d   1       1.844  -0.285  -1.021  0.00  0.00     0.004 A 
ATOM      3  C4  UNL d   1       1.457  -1.242  -1.957  0.00  0.00    -0.003 A 
ATOM      4  C5  UNL d   1       0.683  -0.869  -3.051  0.00  0.00     0.000 A 
ATOM      5  C6  UNL d   1       0.311   0.465  -3.216  0.00  0.00     0.000 A 
ATOM      6  C7  UNL d   1       0.707   1.445  -2.290  0.00  0.00    -0.073 A 
ATOM      7  C8  UNL d   1       0.273   2.868  -2.515  0.00  0.00     0.078 C 
ENDROOT
BRANCH   1   8
ATOM      8  C1  UNL d   1       1.890   2.050  -0.101  0.00  0.00     0.053 C 
ATOM      9  C   UNL d   1       1.655   1.530   1.308  0.00  0.00     0.018 C 
ENDBRANCH   1   8
TORSDOF 1
ENDMDL
