MODEL 1
REMARK minimizedAffinity 13.1103334
REMARK minimizedRMSD -1
REMARK  1 active torsions:
REMARK  status: ('A' for Active; 'I' for Inactive)
REMARK    1  A    between atoms: C1_2  and  C2_3 
ROOT
ATOM      1  C2  UNL d   1       1.025   1.973  -0.793  0.00  0.00    -0.076 A 
ATOM      2  C3  UNL d   1       1.890   1.032  -0.209  0.00  0.00     0.004 A 
ATOM      3  C4  UNL d   1       2.188  -0.166  -0.856  0.00  0.00    -0.003 A 
ATOM      4  C5  UNL d   1       1.626  -0.442  -2.098  0.00  0.00     0.000 A 
ATOM      5  C6  UNL d   1       0.780   0.488  -2.700  0.00  0.00     0.000 A 
ATOM      6  C7  UNL d   1       0.482   1.708  -2.069  0.00  0.00    -0.073 A 
ATOM      7  C8  UNL d   1      -0.442   2.673  -2.761  0.00  0.00     0.078 C 
ENDROOT
BRANCH   1   8
ATOM      8  C1  UNL d   1       0.717   3.243  -0.033  0.00  0.00     0.053 C 
ATOM      9  C   UNL d   1       1.803   3.600   0.971  0.00  0.00     0.018 C 
ENDBRANCH   1   8
TORSDOF 1
ENDMDL
