MODEL 1
REMARK minimizedAffinity 12.8063488
REMARK minimizedRMSD -1
REMARK  1 active torsions:
REMARK  status: ('A' for Active; 'I' for Inactive)
REMARK    1  A    between atoms: C1_2  and  C2_3 
ROOT
ATOM      1  C2  UNL d   1       4.703   5.496  -2.872  0.00  0.00    -0.076 A 
ATOM      2  C3  UNL d   1       3.486   5.198  -3.507  0.00  0.00     0.004 A 
ATOM      3  C4  UNL d   1       2.313   5.033  -2.771  0.00  0.00    -0.003 A 
ATOM      4  C5  UNL d   1       2.340   5.164  -1.387  0.00  0.00     0.000 A 
ATOM      5  C6  UNL d   1       3.536   5.478  -0.742  0.00  0.00     0.000 A 
ATOM      6  C7  UNL d   1       4.723   5.663  -1.470  0.00  0.00    -0.073 A 
ATOM      7  C8  UNL d   1       5.985   5.994  -0.722  0.00  0.00     0.078 C 
ENDROOT
BRANCH   1   8
ATOM      8  C1  UNL d   1       5.947   5.637  -3.719  0.00  0.00     0.053 C 
ATOM      9  C   UNL d   1       5.669   5.437  -5.201  0.00  0.00     0.018 C 
ENDBRANCH   1   8
TORSDOF 1
ENDMDL
