MODEL 1
REMARK minimizedAffinity 7.4552474
REMARK minimizedRMSD -1
REMARK  1 active torsions:
REMARK  status: ('A' for Active; 'I' for Inactive)
REMARK    1  A    between atoms: C1_2  and  C2_3 
ROOT
ATOM      1  C2  UNL d   1       1.529  -0.307   0.948  0.00  0.00    -0.076 A 
ATOM      2  C3  UNL d   1       1.306  -1.588   1.482  0.00  0.00     0.004 A 
ATOM      3  C4  UNL d   1       1.341  -1.807   2.858  0.00  0.00    -0.003 A 
ATOM      4  C5  UNL d   1       1.597  -0.749   3.723  0.00  0.00     0.000 A 
ATOM      5  C6  UNL d   1       1.802   0.532   3.211  0.00  0.00     0.000 A 
ATOM      6  C7  UNL d   1       1.755   0.773   1.827  0.00  0.00    -0.073 A 
ATOM      7  C8  UNL d   1       1.989   2.173   1.330  0.00  0.00     0.078 C 
ENDROOT
BRANCH   1   8
ATOM      8  C1  UNL d   1       1.506  -0.135  -0.554  0.00  0.00     0.053 C 
ATOM      9  C   UNL d   1       2.022  -1.363  -1.289  0.00  0.00     0.018 C 
ENDBRANCH   1   8
TORSDOF 1
ENDMDL
