MODEL 1
REMARK minimizedAffinity 5.35234785
REMARK minimizedRMSD -1
REMARK  1 active torsions:
REMARK  status: ('A' for Active; 'I' for Inactive)
REMARK    1  A    between atoms: C1_2  and  C2_3 
ROOT
ATOM      1  C2  UNL d   1       2.610   0.547   1.375  0.00  0.00    -0.076 A 
ATOM      2  C3  UNL d   1       1.267   0.439   1.777  0.00  0.00     0.004 A 
ATOM      3  C4  UNL d   1       0.613  -0.792   1.768  0.00  0.00    -0.003 A 
ATOM      4  C5  UNL d   1       1.291  -1.935   1.358  0.00  0.00     0.000 A 
ATOM      5  C6  UNL d   1       2.628  -1.848   0.973  0.00  0.00     0.000 A 
ATOM      6  C7  UNL d   1       3.308  -0.618   0.991  0.00  0.00    -0.073 A 
ATOM      7  C8  UNL d   1       4.748  -0.582   0.560  0.00  0.00     0.078 C 
ENDROOT
BRANCH   1   8
ATOM      8  C1  UNL d   1       3.259   1.913   1.379  0.00  0.00     0.053 C 
ATOM      9  C   UNL d   1       2.692   2.831   0.307  0.00  0.00     0.018 C 
ENDBRANCH   1   8
TORSDOF 1
ENDMDL
