MODEL 1
REMARK minimizedAffinity 9.91302872
REMARK minimizedRMSD -1
REMARK  1 active torsions:
REMARK  status: ('A' for Active; 'I' for Inactive)
REMARK    1  A    between atoms: C1_2  and  C2_3 
ROOT
ATOM      1  C2  UNL d   1       3.690   5.210  -2.107  0.00  0.00    -0.076 A 
ATOM      2  C3  UNL d   1       3.577   5.031  -3.497  0.00  0.00     0.004 A 
ATOM      3  C4  UNL d   1       4.636   5.340  -4.349  0.00  0.00    -0.003 A 
ATOM      4  C5  UNL d   1       5.826   5.831  -3.825  0.00  0.00     0.000 A 
ATOM      5  C6  UNL d   1       5.963   5.998  -2.447  0.00  0.00     0.000 A 
ATOM      6  C7  UNL d   1       4.910   5.676  -1.573  0.00  0.00    -0.073 A 
ATOM      7  C8  UNL d   1       5.110   5.882  -0.096  0.00  0.00     0.078 C 
ENDROOT
BRANCH   1   8
ATOM      8  C1  UNL d   1       2.499   4.883  -1.235  0.00  0.00     0.053 C 
ATOM      9  C   UNL d   1       2.478   3.427  -0.798  0.00  0.00     0.018 C 
ENDBRANCH   1   8
TORSDOF 1
ENDMDL
