MODEL 1
REMARK minimizedAffinity 4.48672009
REMARK minimizedRMSD -1
REMARK  1 active torsions:
REMARK  status: ('A' for Active; 'I' for Inactive)
REMARK    1  A    between atoms: C1_2  and  C2_3 
ROOT
ATOM      1  C2  UNL d   1       1.958  -1.749   4.140  0.00  0.00    -0.076 A 
ATOM      2  C3  UNL d   1       2.286  -2.678   3.137  0.00  0.00     0.004 A 
ATOM      3  C4  UNL d   1       2.346  -2.296   1.798  0.00  0.00    -0.003 A 
ATOM      4  C5  UNL d   1       2.079  -0.980   1.440  0.00  0.00     0.000 A 
ATOM      5  C6  UNL d   1       1.769  -0.041   2.423  0.00  0.00     0.000 A 
ATOM      6  C7  UNL d   1       1.720  -0.405   3.780  0.00  0.00    -0.073 A 
ATOM      7  C8  UNL d   1       1.375   0.647   4.798  0.00  0.00     0.078 C 
ENDROOT
BRANCH   1   8
ATOM      8  C1  UNL d   1       1.882  -2.226   5.573  0.00  0.00     0.053 C 
ATOM      9  C   UNL d   1       0.462  -2.567   5.999  0.00  0.00     0.018 C 
ENDBRANCH   1   8
TORSDOF 1
ENDMDL
