MODEL 1
REMARK minimizedAffinity 3.89344907
REMARK minimizedRMSD -1
REMARK  1 active torsions:
REMARK  status: ('A' for Active; 'I' for Inactive)
REMARK    1  A    between atoms: C1_2  and  C2_3 
ROOT
ATOM      1  C2  UNL d   1       0.801   0.867   1.202  0.00  0.00    -0.076 A 
ATOM      2  C3  UNL d   1       2.181   1.100   1.077  0.00  0.00     0.004 A 
ATOM      3  C4  UNL d   1       2.663   2.297   0.551  0.00  0.00    -0.003 A 
ATOM      4  C5  UNL d   1       1.771   3.282   0.141  0.00  0.00     0.000 A 
ATOM      5  C6  UNL d   1       0.398   3.076   0.274  0.00  0.00     0.000 A 
ATOM      6  C7  UNL d   1      -0.103   1.881   0.818  0.00  0.00    -0.073 A 
ATOM      7  C8  UNL d   1      -1.593   1.709   0.933  0.00  0.00     0.078 C 
ENDROOT
BRANCH   1   8
ATOM      8  C1  UNL d   1       0.337  -0.461   1.756  0.00  0.00     0.053 C 
ATOM      9  C   UNL d   1       1.180  -0.929   2.932  0.00  0.00     0.018 C 
ENDBRANCH   1   8
TORSDOF 1
ENDMDL
