MODEL 1
REMARK minimizedAffinity 22.1057663
REMARK minimizedRMSD -1
REMARK  0 active torsions:
REMARK  status: ('A' for Active; 'I' for Inactive)
ROOT
ATOM      1  C   UNL d   1       1.595  -2.378  -0.946  0.00  0.00     0.124 A 
ATOM      2  C1  UNL d   1       2.942  -2.092  -0.771  0.00  0.00     0.062 A 
ATOM      3  C2  UNL d   1       3.862  -3.125  -0.612  0.00  0.00     0.162 A 
ATOM      4  C3  UNL d   1       3.439  -4.454  -0.630  0.00  0.00    -0.034 A 
ATOM      5  C4  UNL d   1       2.083  -4.733  -0.806  0.00  0.00     0.162 A 
ATOM      6  C5  UNL d   1       1.167  -3.698  -0.964  0.00  0.00     0.062 A 
ATOM      7  F   UNL d   1      -0.134  -3.977  -1.133  0.00  0.00    -0.097 F 
ATOM      8  F1  UNL d   1       1.641  -6.000  -0.827  0.00  0.00    -0.096 F 
ATOM      9  I   UNL d   1       4.812  -6.000  -0.393  0.00  0.00    -0.060 I 
ATOM     10  F2  UNL d   1       5.157  -2.819  -0.444  0.00  0.00    -0.096 F 
ATOM     11  F3  UNL d   1       3.359  -0.818  -0.753  0.00  0.00    -0.097 F 
ATOM     12  F4  UNL d   1       0.712  -1.383  -1.098  0.00  0.00    -0.092 F 
ENDROOT
TORSDOF 0
ENDMDL
