MODEL 1
REMARK minimizedAffinity 17.087431
REMARK minimizedRMSD -1
REMARK  0 active torsions:
REMARK  status: ('A' for Active; 'I' for Inactive)
ROOT
ATOM      1  C   UNL d   1       2.177   3.163   2.267  0.00  0.00     0.124 A 
ATOM      2  C1  UNL d   1       2.299   3.577   0.948  0.00  0.00     0.062 A 
ATOM      3  C2  UNL d   1       1.178   3.637   0.127  0.00  0.00     0.162 A 
ATOM      4  C3  UNL d   1      -0.077   3.283   0.622  0.00  0.00    -0.034 A 
ATOM      5  C4  UNL d   1      -0.192   2.866   1.949  0.00  0.00     0.162 A 
ATOM      6  C5  UNL d   1       0.932   2.808   2.767  0.00  0.00     0.062 A 
ATOM      7  F   UNL d   1       0.812   2.407   4.041  0.00  0.00    -0.097 F 
ATOM      8  F1  UNL d   1      -1.384   2.518   2.458  0.00  0.00    -0.096 F 
ATOM      9  I   UNL d   1      -1.757   3.371  -0.604  0.00  0.00    -0.060 I 
ATOM     10  F2  UNL d   1       1.325   4.041  -1.144  0.00  0.00    -0.096 F 
ATOM     11  F3  UNL d   1       3.501   3.920   0.463  0.00  0.00    -0.097 F 
ATOM     12  F4  UNL d   1       3.258   3.106   3.056  0.00  0.00    -0.092 F 
ENDROOT
TORSDOF 0
ENDMDL
