MODEL 1
REMARK minimizedAffinity 11.1297894
REMARK minimizedRMSD -1
REMARK  0 active torsions:
REMARK  status: ('A' for Active; 'I' for Inactive)
ROOT
ATOM      1  C   UNL d   1      -0.690   5.219  -2.238  0.00  0.00     0.124 A 
ATOM      2  C1  UNL d   1      -1.557   4.483  -1.443  0.00  0.00     0.062 A 
ATOM      3  C2  UNL d   1      -1.078   3.813  -0.320  0.00  0.00     0.162 A 
ATOM      4  C3  UNL d   1       0.275   3.879   0.015  0.00  0.00    -0.034 A 
ATOM      5  C4  UNL d   1       1.140   4.621  -0.791  0.00  0.00     0.162 A 
ATOM      6  C5  UNL d   1       0.657   5.288  -1.912  0.00  0.00     0.062 A 
ATOM      7  F   UNL d   1       1.495   5.999  -2.679  0.00  0.00    -0.097 F 
ATOM      8  F1  UNL d   1       2.446   4.705  -0.498  0.00  0.00    -0.096 F 
ATOM      9  I   UNL d   1       0.994   2.880   1.693  0.00  0.00    -0.060 I 
ATOM     10  F2  UNL d   1      -1.938   3.109   0.431  0.00  0.00    -0.096 F 
ATOM     11  F3  UNL d   1      -2.858   4.414  -1.756  0.00  0.00    -0.097 F 
ATOM     12  F4  UNL d   1      -1.154   5.861  -3.318  0.00  0.00    -0.092 F 
ENDROOT
TORSDOF 0
ENDMDL
