MODEL 1
REMARK minimizedAffinity 13.9323854
REMARK minimizedRMSD -1
REMARK  0 active torsions:
REMARK  status: ('A' for Active; 'I' for Inactive)
ROOT
ATOM      1  C   UNL d   1       0.538  -3.136  -0.749  0.00  0.00     0.124 A 
ATOM      2  C1  UNL d   1       1.512  -2.229  -0.356  0.00  0.00     0.062 A 
ATOM      3  C2  UNL d   1       2.857  -2.589  -0.389  0.00  0.00     0.162 A 
ATOM      4  C3  UNL d   1       3.234  -3.862  -0.817  0.00  0.00    -0.034 A 
ATOM      5  C4  UNL d   1       2.248  -4.768  -1.210  0.00  0.00     0.162 A 
ATOM      6  C5  UNL d   1       0.906  -4.404  -1.175  0.00  0.00     0.062 A 
ATOM      7  F   UNL d   1      -0.034  -5.281  -1.555  0.00  0.00    -0.097 F 
ATOM      8  F1  UNL d   1       2.577  -6.000  -1.627  0.00  0.00    -0.096 F 
ATOM      9  I   UNL d   1       5.243  -4.403  -0.868  0.00  0.00    -0.060 I 
ATOM     10  F2  UNL d   1       3.777  -1.693  -0.004  0.00  0.00    -0.096 F 
ATOM     11  F3  UNL d   1       1.159  -1.004   0.057  0.00  0.00    -0.097 F 
ATOM     12  F4  UNL d   1      -0.755  -2.788  -0.715  0.00  0.00    -0.092 F 
ENDROOT
TORSDOF 0
ENDMDL
