MODEL 1
REMARK minimizedAffinity 24.4772472
REMARK minimizedRMSD -1
REMARK  0 active torsions:
REMARK  status: ('A' for Active; 'I' for Inactive)
ROOT
ATOM      1  C   UNL d   1       4.844  -2.843  -0.576  0.00  0.00     0.124 A 
ATOM      2  C1  UNL d   1       3.645  -2.257  -0.194  0.00  0.00     0.062 A 
ATOM      3  C2  UNL d   1       2.443  -2.931  -0.392  0.00  0.00     0.162 A 
ATOM      4  C3  UNL d   1       2.434  -4.199  -0.972  0.00  0.00    -0.034 A 
ATOM      5  C4  UNL d   1       3.644  -4.782  -1.354  0.00  0.00     0.162 A 
ATOM      6  C5  UNL d   1       4.843  -4.104  -1.155  0.00  0.00     0.062 A 
ATOM      7  F   UNL d   1       6.000  -4.672  -1.524  0.00  0.00    -0.097 F 
ATOM      8  F1  UNL d   1       3.671  -6.000  -1.915  0.00  0.00    -0.096 F 
ATOM      9  I   UNL d   1       0.639  -5.209  -1.269  0.00  0.00    -0.060 I 
ATOM     10  F2  UNL d   1       1.300  -2.341  -0.013  0.00  0.00    -0.096 F 
ATOM     11  F3  UNL d   1       3.644  -1.039   0.365  0.00  0.00    -0.097 F 
ATOM     12  F4  UNL d   1       5.999  -2.193  -0.386  0.00  0.00    -0.092 F 
ENDROOT
TORSDOF 0
ENDMDL
