MODEL 1
REMARK minimizedAffinity 18.9469566
REMARK minimizedRMSD -1
REMARK  0 active torsions:
REMARK  status: ('A' for Active; 'I' for Inactive)
ROOT
ATOM      1  C   UNL d   1       1.222   3.004   3.177  0.00  0.00     0.124 A 
ATOM      2  C1  UNL d   1       1.983   3.828   2.359  0.00  0.00     0.062 A 
ATOM      3  C2  UNL d   1       1.603   4.047   1.038  0.00  0.00     0.162 A 
ATOM      4  C3  UNL d   1       0.455   3.442   0.527  0.00  0.00    -0.034 A 
ATOM      5  C4  UNL d   1      -0.305   2.614   1.355  0.00  0.00     0.162 A 
ATOM      6  C5  UNL d   1       0.079   2.398   2.674  0.00  0.00     0.062 A 
ATOM      7  F   UNL d   1      -0.658   1.602   3.463  0.00  0.00    -0.097 F 
ATOM      8  F1  UNL d   1      -1.415   2.017   0.895  0.00  0.00    -0.096 F 
ATOM      9  I   UNL d   1      -0.117   3.768  -1.448  0.00  0.00    -0.060 I 
ATOM     10  F2  UNL d   1       2.357   4.848   0.271  0.00  0.00    -0.096 F 
ATOM     11  F3  UNL d   1       3.088   4.414   2.842  0.00  0.00    -0.097 F 
ATOM     12  F4  UNL d   1       1.590   2.794   4.447  0.00  0.00    -0.092 F 
ENDROOT
TORSDOF 0
ENDMDL
