MODEL 1
REMARK minimizedAffinity 10.3515759
REMARK minimizedRMSD -1
REMARK  0 active torsions:
REMARK  status: ('A' for Active; 'I' for Inactive)
ROOT
ATOM      1  C   UNL d   1       0.182   1.966   2.388  0.00  0.00     0.124 A 
ATOM      2  C1  UNL d   1       1.508   1.580   2.253  0.00  0.00     0.062 A 
ATOM      3  C2  UNL d   1       1.976   0.442   2.905  0.00  0.00     0.162 A 
ATOM      4  C3  UNL d   1       1.116  -0.318   3.698  0.00  0.00    -0.034 A 
ATOM      5  C4  UNL d   1      -0.216   0.077   3.830  0.00  0.00     0.162 A 
ATOM      6  C5  UNL d   1      -0.679   1.215   3.176  0.00  0.00     0.062 A 
ATOM      7  F   UNL d   1      -1.961   1.586   3.308  0.00  0.00    -0.097 F 
ATOM      8  F1  UNL d   1      -1.070  -0.631   4.584  0.00  0.00    -0.096 F 
ATOM      9  I   UNL d   1       1.811  -2.019   4.674  0.00  0.00    -0.060 I 
ATOM     10  F2  UNL d   1       3.262   0.093   2.757  0.00  0.00    -0.096 F 
ATOM     11  F3  UNL d   1       2.342   2.305   1.494  0.00  0.00    -0.097 F 
ATOM     12  F4  UNL d   1      -0.265   3.061   1.761  0.00  0.00    -0.092 F 
ENDROOT
TORSDOF 0
ENDMDL
