MODEL 1
REMARK minimizedAffinity 10.8627205
REMARK minimizedRMSD -1
REMARK  0 active torsions:
REMARK  status: ('A' for Active; 'I' for Inactive)
ROOT
ATOM      1  C1  DEN d   1       3.513  -5.012  -0.927  0.00  0.00     0.130 A 
ATOM      2  C2  DEN d   1       4.538  -4.937   0.110  0.00  0.00    -0.031 A 
ATOM      3  C3  DEN d   1       5.697  -4.210  -0.446  0.00  0.00     0.027 A 
ATOM      4  C4  DEN d   1       6.000  -3.195  -2.798  0.00  0.00     0.027 A 
ATOM      5  C5  DEN d   1       5.407  -3.017  -4.028  0.00  0.00    -0.003 A 
ATOM      6  C6  DEN d   1       4.166  -3.517  -4.320  0.00  0.00     0.001 A 
ATOM      7  C7  DEN d   1       3.457  -4.181  -3.354  0.00  0.00     0.017 A 
ATOM      8  C8  DEN d   1       4.051  -4.371  -2.113  0.00  0.00    -0.094 A 
ATOM      9  C9  DEN d   1       5.302  -3.847  -1.834  0.00  0.00    -0.072 A 
ENDROOT
TORSDOF 0
ENDMDL
