MODEL 1
REMARK minimizedAffinity 8.80488586
REMARK minimizedRMSD -1
REMARK  0 active torsions:
REMARK  status: ('A' for Active; 'I' for Inactive)
ROOT
ATOM      1  C1  DEN d   1       0.472   1.175  -1.043  0.00  0.00     0.130 A 
ATOM      2  C2  DEN d   1       0.609   2.187  -2.086  0.00  0.00    -0.031 A 
ATOM      3  C3  DEN d   1       0.070   3.458  -1.562  0.00  0.00     0.027 A 
ATOM      4  C4  DEN d   1      -0.953   3.955   0.753  0.00  0.00     0.027 A 
ATOM      5  C5  DEN d   1      -1.293   3.409   1.971  0.00  0.00    -0.003 A 
ATOM      6  C6  DEN d   1      -1.101   2.083   2.255  0.00  0.00     0.001 A 
ATOM      7  C7  DEN d   1      -0.512   1.267   1.325  0.00  0.00     0.017 A 
ATOM      8  C8  DEN d   1      -0.174   1.809   0.092  0.00  0.00    -0.094 A 
ATOM      9  C9  DEN d   1      -0.365   3.155  -0.172  0.00  0.00    -0.072 A 
ENDROOT
TORSDOF 0
ENDMDL
