MODEL 1
REMARK minimizedAffinity 5.95579576
REMARK minimizedRMSD -1
REMARK  0 active torsions:
REMARK  status: ('A' for Active; 'I' for Inactive)
ROOT
ATOM      1  C1  DEN d   1      -1.762   1.319  -0.774  0.00  0.00     0.130 A 
ATOM      2  C2  DEN d   1      -0.818   2.213  -0.107  0.00  0.00    -0.031 A 
ATOM      3  C3  DEN d   1       0.394   2.305  -0.946  0.00  0.00     0.027 A 
ATOM      4  C4  DEN d   1       0.897   1.160  -3.202  0.00  0.00     0.027 A 
ATOM      5  C5  DEN d   1       0.405   0.300  -4.159  0.00  0.00    -0.003 A 
ATOM      6  C6  DEN d   1      -0.820  -0.302  -4.039  0.00  0.00     0.001 A 
ATOM      7  C7  DEN d   1      -1.613  -0.017  -2.959  0.00  0.00     0.017 A 
ATOM      8  C8  DEN d   1      -1.121   0.843  -1.987  0.00  0.00    -0.094 A 
ATOM      9  C9  DEN d   1       0.114   1.452  -2.132  0.00  0.00    -0.072 A 
ENDROOT
TORSDOF 0
ENDMDL
