MODEL 1
REMARK minimizedAffinity 14.2615986
REMARK minimizedRMSD -1
REMARK  0 active torsions:
REMARK  status: ('A' for Active; 'I' for Inactive)
ROOT
ATOM      1  C1  DEN d   1       1.956  -4.887  -2.241  0.00  0.00     0.130 A 
ATOM      2  C2  DEN d   1       1.558  -3.763  -1.397  0.00  0.00    -0.031 A 
ATOM      3  C3  DEN d   1       1.048  -2.691  -2.276  0.00  0.00     0.027 A 
ATOM      4  C4  DEN d   1       0.830  -2.665  -4.845  0.00  0.00     0.027 A 
ATOM      5  C5  DEN d   1       1.049  -3.386  -5.998  0.00  0.00    -0.003 A 
ATOM      6  C6  DEN d   1       1.612  -4.635  -5.982  0.00  0.00     0.001 A 
ATOM      7  C7  DEN d   1       1.934  -5.219  -4.785  0.00  0.00     0.017 A 
ATOM      8  C8  DEN d   1       1.723  -4.494  -3.619  0.00  0.00    -0.094 A 
ATOM      9  C9  DEN d   1       1.142  -3.238  -3.656  0.00  0.00    -0.072 A 
ENDROOT
TORSDOF 0
ENDMDL
