MODEL 1
REMARK minimizedAffinity 8.75634861
REMARK minimizedRMSD -1
REMARK  0 active torsions:
REMARK  status: ('A' for Active; 'I' for Inactive)
ROOT
ATOM      1  C1  DEN d   1       0.792   3.253   0.921  0.00  0.00     0.130 A 
ATOM      2  C2  DEN d   1      -0.172   3.453  -0.157  0.00  0.00    -0.031 A 
ATOM      3  C3  DEN d   1      -1.449   2.835   0.252  0.00  0.00     0.027 A 
ATOM      4  C4  DEN d   1      -2.024   1.597   2.441  0.00  0.00     0.027 A 
ATOM      5  C5  DEN d   1      -1.527   1.166   3.651  0.00  0.00    -0.003 A 
ATOM      6  C6  DEN d   1      -0.223   1.370   4.019  0.00  0.00     0.001 A 
ATOM      7  C7  DEN d   1       0.617   2.061   3.186  0.00  0.00     0.017 A 
ATOM      8  C8  DEN d   1       0.125   2.492   1.961  0.00  0.00    -0.094 A 
ATOM      9  C9  DEN d   1      -1.200   2.287   1.613  0.00  0.00    -0.072 A 
ENDROOT
TORSDOF 0
ENDMDL
