MODEL 1
REMARK minimizedAffinity 9.04334354
REMARK minimizedRMSD -1
REMARK  0 active torsions:
REMARK  status: ('A' for Active; 'I' for Inactive)
ROOT
ATOM      1  C1  DEN d   1      -1.121   1.883   0.926  0.00  0.00     0.130 A 
ATOM      2  C2  DEN d   1      -2.312   2.248   1.689  0.00  0.00    -0.031 A 
ATOM      3  C3  DEN d   1      -2.666   3.640   1.345  0.00  0.00     0.027 A 
ATOM      4  C4  DEN d   1      -1.494   5.255  -0.289  0.00  0.00     0.027 A 
ATOM      5  C5  DEN d   1      -0.436   5.399  -1.160  0.00  0.00    -0.003 A 
ATOM      6  C6  DEN d   1       0.479   4.402  -1.369  0.00  0.00     0.001 A 
ATOM      7  C7  DEN d   1       0.328   3.198  -0.732  0.00  0.00     0.017 A 
ATOM      8  C8  DEN d   1      -0.731   3.048   0.153  0.00  0.00    -0.094 A 
ATOM      9  C9  DEN d   1      -1.653   4.064   0.341  0.00  0.00    -0.072 A 
ENDROOT
TORSDOF 0
ENDMDL
