MODEL 1
REMARK minimizedAffinity 5.34243536
REMARK minimizedRMSD -1
REMARK  0 active torsions:
REMARK  status: ('A' for Active; 'I' for Inactive)
ROOT
ATOM      1  C1  DEN d   1      -0.755   1.854   0.190  0.00  0.00     0.130 A 
ATOM      2  C2  DEN d   1       0.283   2.871   0.330  0.00  0.00    -0.031 A 
ATOM      3  C3  DEN d   1       0.344   3.637  -0.931  0.00  0.00     0.027 A 
ATOM      4  C4  DEN d   1      -1.064   3.350  -3.073  0.00  0.00     0.027 A 
ATOM      5  C5  DEN d   1      -2.062   2.612  -3.670  0.00  0.00    -0.003 A 
ATOM      6  C6  DEN d   1      -2.666   1.556  -3.040  0.00  0.00     0.001 A 
ATOM      7  C7  DEN d   1      -2.308   1.237  -1.757  0.00  0.00     0.017 A 
ATOM      8  C8  DEN d   1      -1.298   1.972  -1.151  0.00  0.00    -0.094 A 
ATOM      9  C9  DEN d   1      -0.708   3.044  -1.800  0.00  0.00    -0.072 A 
ENDROOT
TORSDOF 0
ENDMDL
