MODEL 1
REMARK minimizedAffinity 16.28232
REMARK minimizedRMSD -1
REMARK  0 active torsions:
REMARK  status: ('A' for Active; 'I' for Inactive)
ROOT
ATOM      1  C1  DEN d   1      -1.874   2.198  -3.264  0.00  0.00     0.130 A 
ATOM      2  C2  DEN d   1      -2.911   1.214  -2.967  0.00  0.00    -0.031 A 
ATOM      3  C3  DEN d   1      -2.732   0.769  -1.570  0.00  0.00     0.027 A 
ATOM      4  C4  DEN d   1      -0.961   1.508   0.154  0.00  0.00     0.027 A 
ATOM      5  C5  DEN d   1       0.137   2.314   0.360  0.00  0.00    -0.003 A 
ATOM      6  C6  DEN d   1       0.658   3.106  -0.629  0.00  0.00     0.001 A 
ATOM      7  C7  DEN d   1       0.053   3.143  -1.858  0.00  0.00     0.017 A 
ATOM      8  C8  DEN d   1      -1.050   2.328  -2.076  0.00  0.00    -0.094 A 
ATOM      9  C9  DEN d   1      -1.569   1.544  -1.059  0.00  0.00    -0.072 A 
ENDROOT
TORSDOF 0
ENDMDL
