MODEL 1
REMARK minimizedAffinity 17.2634583
REMARK minimizedRMSD -1
REMARK  0 active torsions:
REMARK  status: ('A' for Active; 'I' for Inactive)
ROOT
ATOM      1  C1  DEN d   1       1.093  -3.364  -0.066  0.00  0.00     0.130 A 
ATOM      2  C2  DEN d   1       2.151  -2.798   0.766  0.00  0.00    -0.031 A 
ATOM      3  C3  DEN d   1       3.428  -3.425   0.370  0.00  0.00     0.027 A 
ATOM      4  C4  DEN d   1       3.868  -5.204  -1.444  0.00  0.00     0.027 A 
ATOM      5  C5  DEN d   1       3.280  -5.999  -2.403  0.00  0.00    -0.003 A 
ATOM      6  C6  DEN d   1       1.928  -5.996  -2.625  0.00  0.00     0.001 A 
ATOM      7  C7  DEN d   1       1.125  -5.149  -1.909  0.00  0.00     0.017 A 
ATOM      8  C8  DEN d   1       1.710  -4.350  -0.935  0.00  0.00    -0.094 A 
ATOM      9  C9  DEN d   1       3.079  -4.358  -0.734  0.00  0.00    -0.072 A 
ENDROOT
TORSDOF 0
ENDMDL
