MODEL 1
REMARK minimizedAffinity 20.5900974
REMARK minimizedRMSD -1
REMARK  0 active torsions:
REMARK  status: ('A' for Active; 'I' for Inactive)
ROOT
ATOM      1  C1  DEN d   1       3.710  -5.448   2.255  0.00  0.00     0.130 A 
ATOM      2  C2  DEN d   1       5.077  -5.958   2.329  0.00  0.00    -0.031 A 
ATOM      3  C3  DEN d   1       5.999  -4.822   2.129  0.00  0.00     0.027 A 
ATOM      4  C4  DEN d   1       5.446  -2.336   1.718  0.00  0.00     0.027 A 
ATOM      5  C5  DEN d   1       4.426  -1.424   1.561  0.00  0.00    -0.003 A 
ATOM      6  C6  DEN d   1       3.107  -1.792   1.591  0.00  0.00     0.001 A 
ATOM      7  C7  DEN d   1       2.772  -3.099   1.827  0.00  0.00     0.017 A 
ATOM      8  C8  DEN d   1       3.795  -4.026   1.978  0.00  0.00    -0.094 A 
ATOM      9  C9  DEN d   1       5.122  -3.632   1.957  0.00  0.00    -0.072 A 
ENDROOT
TORSDOF 0
ENDMDL
