MODEL 1
REMARK minimizedAffinity -5.28612518
REMARK minimizedRMSD -1
REMARK  0 active torsions:
REMARK  status: ('A' for Active; 'I' for Inactive)
ROOT
ATOM      1  C1  DEN d   1       0.464   4.080   0.668  0.00  0.00     0.130 A 
ATOM      2  C2  DEN d   1       0.286   3.688  -0.728  0.00  0.00    -0.031 A 
ATOM      3  C3  DEN d   1      -0.510   2.444  -0.755  0.00  0.00     0.027 A 
ATOM      4  C4  DEN d   1      -1.483   1.097   1.218  0.00  0.00     0.027 A 
ATOM      5  C5  DEN d   1      -1.584   1.030   2.590  0.00  0.00    -0.003 A 
ATOM      6  C6  DEN d   1      -0.987   1.948   3.412  0.00  0.00     0.001 A 
ATOM      7  C7  DEN d   1      -0.298   3.000   2.867  0.00  0.00     0.017 A 
ATOM      8  C8  DEN d   1      -0.185   3.070   1.485  0.00  0.00    -0.094 A 
ATOM      9  C9  DEN d   1      -0.806   2.138   0.671  0.00  0.00    -0.072 A 
ENDROOT
TORSDOF 0
ENDMDL
