MODEL 1
REMARK minimizedAffinity 17.5718174
REMARK minimizedRMSD -1
REMARK  0 active torsions:
REMARK  status: ('A' for Active; 'I' for Inactive)
ROOT
ATOM      1  C1  DEN d   1       2.794  -3.124   0.140  0.00  0.00     0.130 A 
ATOM      2  C2  DEN d   1       1.506  -2.439   0.058  0.00  0.00    -0.031 A 
ATOM      3  C3  DEN d   1       0.709  -3.092  -1.000  0.00  0.00     0.027 A 
ATOM      4  C4  DEN d   1       1.338  -5.088  -2.508  0.00  0.00     0.027 A 
ATOM      5  C5  DEN d   1       2.329  -5.994  -2.816  0.00  0.00    -0.003 A 
ATOM      6  C6  DEN d   1       3.547  -5.985  -2.189  0.00  0.00     0.001 A 
ATOM      7  C7  DEN d   1       3.789  -5.080  -1.189  0.00  0.00     0.017 A 
ATOM      8  C8  DEN d   1       2.798  -4.158  -0.878  0.00  0.00    -0.094 A 
ATOM      9  C9  DEN d   1       1.569  -4.192  -1.515  0.00  0.00    -0.072 A 
ENDROOT
TORSDOF 0
ENDMDL
