MODEL 1
REMARK minimizedAffinity 5.42552996
REMARK minimizedRMSD -1
REMARK  0 active torsions:
REMARK  status: ('A' for Active; 'I' for Inactive)
ROOT
ATOM      1  C1  DEN d   1       1.201   2.973   0.980  0.00  0.00     0.130 A 
ATOM      2  C2  DEN d   1       1.529   3.386   2.342  0.00  0.00    -0.031 A 
ATOM      3  C3  DEN d   1       0.372   3.076   3.204  0.00  0.00     0.027 A 
ATOM      4  C4  DEN d   1      -1.884   1.998   2.568  0.00  0.00     0.027 A 
ATOM      5  C5  DEN d   1      -2.631   1.488   1.529  0.00  0.00    -0.003 A 
ATOM      6  C6  DEN d   1      -2.170   1.468   0.240  0.00  0.00     0.001 A 
ATOM      7  C7  DEN d   1      -0.909   1.927  -0.038  0.00  0.00     0.017 A 
ATOM      8  C8  DEN d   1      -0.153   2.450   1.003  0.00  0.00    -0.094 A 
ATOM      9  C9  DEN d   1      -0.632   2.450   2.302  0.00  0.00    -0.072 A 
ENDROOT
TORSDOF 0
ENDMDL
