MODEL 1
REMARK minimizedAffinity 10.7657528
REMARK minimizedRMSD -1
REMARK  0 active torsions:
REMARK  status: ('A' for Active; 'I' for Inactive)
ROOT
ATOM      1  C1  DEN d   1      -0.815   4.111  -3.102  0.00  0.00     0.130 A 
ATOM      2  C2  DEN d   1      -1.848   3.200  -3.589  0.00  0.00    -0.031 A 
ATOM      3  C3  DEN d   1      -1.981   2.099  -2.614  0.00  0.00     0.027 A 
ATOM      4  C4  DEN d   1      -0.701   1.720  -0.407  0.00  0.00     0.027 A 
ATOM      5  C5  DEN d   1       0.280   2.219   0.421  0.00  0.00    -0.003 A 
ATOM      6  C6  DEN d   1       0.983   3.356   0.119  0.00  0.00     0.001 A 
ATOM      7  C7  DEN d   1       0.683   4.057  -1.019  0.00  0.00     0.017 A 
ATOM      8  C8  DEN d   1      -0.300   3.556  -1.863  0.00  0.00    -0.094 A 
ATOM      9  C9  DEN d   1      -1.007   2.412  -1.534  0.00  0.00    -0.072 A 
ENDROOT
TORSDOF 0
ENDMDL
