MODEL 1
REMARK minimizedAffinity 8.32604027
REMARK minimizedRMSD -1
REMARK  0 active torsions:
REMARK  status: ('A' for Active; 'I' for Inactive)
ROOT
ATOM      1  C1  DEN d   1      -1.230   2.963  -3.501  0.00  0.00     0.130 A 
ATOM      2  C2  DEN d   1      -2.398   2.095  -3.376  0.00  0.00    -0.031 A 
ATOM      3  C3  DEN d   1      -2.486   1.648  -1.972  0.00  0.00     0.027 A 
ATOM      4  C4  DEN d   1      -0.939   2.217   0.012  0.00  0.00     0.027 A 
ATOM      5  C5  DEN d   1       0.191   2.906   0.393  0.00  0.00    -0.003 A 
ATOM      6  C6  DEN d   1       0.939   3.629  -0.497  0.00  0.00     0.001 A 
ATOM      7  C7  DEN d   1       0.542   3.717  -1.805  0.00  0.00     0.017 A 
ATOM      8  C8  DEN d   1      -0.593   3.018  -2.198  0.00  0.00    -0.094 A 
ATOM      9  C9  DEN d   1      -1.343   2.303  -1.280  0.00  0.00    -0.072 A 
ENDROOT
TORSDOF 0
ENDMDL
