MODEL 1
REMARK minimizedAffinity 6.50466633
REMARK minimizedRMSD -1
REMARK  0 active torsions:
REMARK  status: ('A' for Active; 'I' for Inactive)
ROOT
ATOM      1  C   UNL d   1       2.135   1.698   0.190  0.00  0.00     0.077 C 
ATOM      2  C1  UNL d   1       2.068   2.547  -1.044  0.00  0.00    -0.074 A 
ATOM      3  C2  UNL d   1       0.983   3.400  -1.272  0.00  0.00    -0.005 A 
ATOM      4  C3  UNL d   1       0.940   4.191  -2.420  0.00  0.00     0.006 A 
ATOM      5  C4  UNL d   1       1.979   4.138  -3.349  0.00  0.00    -0.005 A 
ATOM      6  C5  UNL d   1       3.073   3.292  -3.138  0.00  0.00    -0.074 A 
ATOM      7  C6  UNL d   1       4.203   3.230  -4.122  0.00  0.00     0.077 C 
ATOM      8  C7  UNL d   1       3.112   2.505  -1.979  0.00  0.00    -0.001 A 
ENDROOT
TORSDOF 0
ENDMDL
