MODEL 1
REMARK minimizedAffinity 8.42061806
REMARK minimizedRMSD -1
REMARK  0 active torsions:
REMARK  status: ('A' for Active; 'I' for Inactive)
ROOT
ATOM      1  C   UNL d   1      -4.457   5.197  -2.422  0.00  0.00     0.077 C 
ATOM      2  C1  UNL d   1      -3.638   5.275  -3.676  0.00  0.00    -0.074 A 
ATOM      3  C2  UNL d   1      -4.125   5.927  -4.813  0.00  0.00    -0.005 A 
ATOM      4  C3  UNL d   1      -3.348   6.000  -5.969  0.00  0.00     0.006 A 
ATOM      5  C4  UNL d   1      -2.078   5.422  -6.000  0.00  0.00    -0.005 A 
ATOM      6  C5  UNL d   1      -1.574   4.766  -4.872  0.00  0.00    -0.074 A 
ATOM      7  C6  UNL d   1      -0.207   4.149  -4.885  0.00  0.00     0.077 C 
ATOM      8  C7  UNL d   1      -2.358   4.703  -3.712  0.00  0.00    -0.001 A 
ENDROOT
TORSDOF 0
ENDMDL
