MODEL 1
REMARK minimizedAffinity 0.886997759
REMARK minimizedRMSD -1
REMARK  0 active torsions:
REMARK  status: ('A' for Active; 'I' for Inactive)
ROOT
ATOM      1  C   UNL d   1      -5.909  -1.496   6.000  0.00  0.00     0.077 C 
ATOM      2  C1  UNL d   1      -4.827  -0.856   5.182  0.00  0.00    -0.074 A 
ATOM      3  C2  UNL d   1      -4.114   0.245   5.669  0.00  0.00    -0.005 A 
ATOM      4  C3  UNL d   1      -3.104   0.824   4.901  0.00  0.00     0.006 A 
ATOM      5  C4  UNL d   1      -2.797   0.310   3.641  0.00  0.00    -0.005 A 
ATOM      6  C5  UNL d   1      -3.498  -0.791   3.138  0.00  0.00    -0.074 A 
ATOM      7  C6  UNL d   1      -3.174  -1.362   1.789  0.00  0.00     0.077 C 
ATOM      8  C7  UNL d   1      -4.507  -1.372   3.918  0.00  0.00    -0.001 A 
ENDROOT
TORSDOF 0
ENDMDL
