MODEL 1
REMARK minimizedAffinity 3.22379541
REMARK minimizedRMSD -1
REMARK  0 active torsions:
REMARK  status: ('A' for Active; 'I' for Inactive)
ROOT
ATOM      1  C   UNL d   1      -5.998  -3.726   5.992  0.00  0.00     0.077 C 
ATOM      2  C1  UNL d   1      -5.854  -4.074   4.541  0.00  0.00    -0.074 A 
ATOM      3  C2  UNL d   1      -5.997  -5.393   4.099  0.00  0.00    -0.005 A 
ATOM      4  C3  UNL d   1      -5.869  -5.700   2.745  0.00  0.00     0.006 A 
ATOM      5  C4  UNL d   1      -5.597  -4.692   1.819  0.00  0.00    -0.005 A 
ATOM      6  C5  UNL d   1      -5.451  -3.367   2.241  0.00  0.00    -0.074 A 
ATOM      7  C6  UNL d   1      -5.168  -2.270   1.258  0.00  0.00     0.077 C 
ATOM      8  C7  UNL d   1      -5.588  -3.066   3.604  0.00  0.00    -0.001 A 
ENDROOT
TORSDOF 0
ENDMDL
