MODEL 1
REMARK minimizedAffinity 8.71866703
REMARK minimizedRMSD -1
REMARK  0 active torsions:
REMARK  status: ('A' for Active; 'I' for Inactive)
ROOT
ATOM      1  C   UNL d   1      -4.861   0.939   0.453  0.00  0.00     0.077 C 
ATOM      2  C1  UNL d   1      -3.687   0.550   1.301  0.00  0.00    -0.074 A 
ATOM      3  C2  UNL d   1      -3.476   1.140   2.550  0.00  0.00    -0.005 A 
ATOM      4  C3  UNL d   1      -2.385   0.761   3.332  0.00  0.00     0.006 A 
ATOM      5  C4  UNL d   1      -1.495  -0.210   2.873  0.00  0.00    -0.005 A 
ATOM      6  C5  UNL d   1      -1.691  -0.813   1.626  0.00  0.00    -0.074 A 
ATOM      7  C6  UNL d   1      -0.750  -1.866   1.121  0.00  0.00     0.077 C 
ATOM      8  C7  UNL d   1      -2.793  -0.432   0.849  0.00  0.00    -0.001 A 
ENDROOT
TORSDOF 0
ENDMDL
