MODEL 1
REMARK minimizedAffinity -1.77021801
REMARK minimizedRMSD -1
REMARK  0 active torsions:
REMARK  status: ('A' for Active; 'I' for Inactive)
ROOT
ATOM      1  C   UNL d   1      -4.269   0.472   0.154  0.00  0.00     0.077 C 
ATOM      2  C1  UNL d   1      -3.311   0.293   1.294  0.00  0.00    -0.074 A 
ATOM      3  C2  UNL d   1      -3.401   1.090   2.441  0.00  0.00    -0.005 A 
ATOM      4  C3  UNL d   1      -2.509   0.905   3.497  0.00  0.00     0.006 A 
ATOM      5  C4  UNL d   1      -1.519  -0.075   3.418  0.00  0.00    -0.005 A 
ATOM      6  C5  UNL d   1      -1.414  -0.881   2.280  0.00  0.00    -0.074 A 
ATOM      7  C6  UNL d   1      -0.362  -1.946   2.183  0.00  0.00     0.077 C 
ATOM      8  C7  UNL d   1      -2.319  -0.695   1.226  0.00  0.00    -0.001 A 
ENDROOT
TORSDOF 0
ENDMDL
