MODEL 1
REMARK minimizedAffinity 8.85296154
REMARK minimizedRMSD -1
REMARK  0 active torsions:
REMARK  status: ('A' for Active; 'I' for Inactive)
ROOT
ATOM      1  C   UNL d   1      -2.082   0.857   2.276  0.00  0.00     0.077 C 
ATOM      2  C1  UNL d   1      -2.890   1.142   3.508  0.00  0.00    -0.074 A 
ATOM      3  C2  UNL d   1      -2.762   0.347   4.651  0.00  0.00    -0.005 A 
ATOM      4  C3  UNL d   1      -3.512   0.630   5.792  0.00  0.00     0.006 A 
ATOM      5  C4  UNL d   1      -4.397   1.709   5.801  0.00  0.00    -0.005 A 
ATOM      6  C5  UNL d   1      -4.538   2.515   4.668  0.00  0.00    -0.074 A 
ATOM      7  C6  UNL d   1      -5.478   3.685   4.664  0.00  0.00     0.077 C 
ATOM      8  C7  UNL d   1      -3.775   2.229   3.527  0.00  0.00    -0.001 A 
ENDROOT
TORSDOF 0
ENDMDL
