MODEL 1
REMARK minimizedAffinity 4.59071875
REMARK minimizedRMSD -1
REMARK  0 active torsions:
REMARK  status: ('A' for Active; 'I' for Inactive)
ROOT
ATOM      1  C   UNL d   1      -2.223   0.352   2.615  0.00  0.00     0.077 C 
ATOM      2  C1  UNL d   1      -1.645  -0.931   2.097  0.00  0.00    -0.074 A 
ATOM      3  C2  UNL d   1      -0.291  -1.234   2.276  0.00  0.00    -0.005 A 
ATOM      4  C3  UNL d   1       0.230  -2.436   1.797  0.00  0.00     0.006 A 
ATOM      5  C4  UNL d   1      -0.596  -3.346   1.135  0.00  0.00    -0.005 A 
ATOM      6  C5  UNL d   1      -1.952  -3.060   0.948  0.00  0.00    -0.074 A 
ATOM      7  C6  UNL d   1      -2.856  -4.031   0.248  0.00  0.00     0.077 C 
ATOM      8  C7  UNL d   1      -2.470  -1.854   1.438  0.00  0.00    -0.001 A 
ENDROOT
TORSDOF 0
ENDMDL
