MODEL 1
REMARK minimizedAffinity 0.861153841
REMARK minimizedRMSD -1
REMARK  0 active torsions:
REMARK  status: ('A' for Active; 'I' for Inactive)
ROOT
ATOM      1  C   UNL d   1      -5.383  -2.463   5.532  0.00  0.00     0.077 C 
ATOM      2  C1  UNL d   1      -4.442  -1.571   4.778  0.00  0.00    -0.074 A 
ATOM      3  C2  UNL d   1      -4.214  -0.254   5.191  0.00  0.00    -0.005 A 
ATOM      4  C3  UNL d   1      -3.328   0.560   4.485  0.00  0.00     0.006 A 
ATOM      5  C4  UNL d   1      -2.663   0.067   3.362  0.00  0.00    -0.005 A 
ATOM      6  C5  UNL d   1      -2.878  -1.247   2.935  0.00  0.00    -0.074 A 
ATOM      7  C6  UNL d   1      -2.164  -1.796   1.735  0.00  0.00     0.077 C 
ATOM      8  C7  UNL d   1      -3.764  -2.062   3.653  0.00  0.00    -0.001 A 
ENDROOT
TORSDOF 0
ENDMDL
