MODEL 1
REMARK minimizedAffinity 8.58415794
REMARK minimizedRMSD -1
REMARK  0 active torsions:
REMARK  status: ('A' for Active; 'I' for Inactive)
ROOT
ATOM      1  C   UNL d   1       5.216   4.140   2.804  0.00  0.00     0.077 C 
ATOM      2  C1  UNL d   1       4.686   3.529   1.541  0.00  0.00    -0.074 A 
ATOM      3  C2  UNL d   1       5.449   3.525   0.369  0.00  0.00    -0.005 A 
ATOM      4  C3  UNL d   1       4.947   2.944  -0.795  0.00  0.00     0.006 A 
ATOM      5  C4  UNL d   1       3.678   2.364  -0.800  0.00  0.00    -0.005 A 
ATOM      6  C5  UNL d   1       2.900   2.359   0.362  0.00  0.00    -0.074 A 
ATOM      7  C6  UNL d   1       1.538   1.731   0.377  0.00  0.00     0.077 C 
ATOM      8  C7  UNL d   1       3.415   2.938   1.530  0.00  0.00    -0.001 A 
ENDROOT
TORSDOF 0
ENDMDL
