MODEL 1
REMARK minimizedAffinity 12.3553257
REMARK minimizedRMSD -1
REMARK  0 active torsions:
REMARK  status: ('A' for Active; 'I' for Inactive)
ROOT
ATOM      1  C   UNL d   1       5.999   3.749  -5.252  0.00  0.00     0.077 C 
ATOM      2  C1  UNL d   1       4.602   3.775  -4.707  0.00  0.00    -0.074 A 
ATOM      3  C2  UNL d   1       3.694   4.762  -5.104  0.00  0.00    -0.005 A 
ATOM      4  C3  UNL d   1       2.395   4.767  -4.596  0.00  0.00     0.006 A 
ATOM      5  C4  UNL d   1       1.991   3.788  -3.688  0.00  0.00    -0.005 A 
ATOM      6  C5  UNL d   1       2.885   2.793  -3.280  0.00  0.00    -0.074 A 
ATOM      7  C6  UNL d   1       2.465   1.727  -2.312  0.00  0.00     0.077 C 
ATOM      8  C7  UNL d   1       4.187   2.790  -3.800  0.00  0.00    -0.001 A 
ENDROOT
TORSDOF 0
ENDMDL
