MODEL 1
REMARK minimizedAffinity 8.97356415
REMARK minimizedRMSD -1
REMARK  0 active torsions:
REMARK  status: ('A' for Active; 'I' for Inactive)
ROOT
ATOM      1  C   UNL d   1       3.220   1.197   0.061  0.00  0.00     0.077 C 
ATOM      2  C1  UNL d   1       2.881   1.875  -1.233  0.00  0.00    -0.074 A 
ATOM      3  C2  UNL d   1       1.572   1.871  -1.726  0.00  0.00    -0.005 A 
ATOM      4  C3  UNL d   1       1.271   2.514  -2.926  0.00  0.00     0.006 A 
ATOM      5  C4  UNL d   1       2.273   3.166  -3.645  0.00  0.00    -0.005 A 
ATOM      6  C5  UNL d   1       3.588   3.182  -3.167  0.00  0.00    -0.074 A 
ATOM      7  C6  UNL d   1       4.675   3.887  -3.923  0.00  0.00     0.077 C 
ATOM      8  C7  UNL d   1       3.881   2.540  -1.957  0.00  0.00    -0.001 A 
ENDROOT
TORSDOF 0
ENDMDL
