MODEL 1
REMARK minimizedAffinity -0.418912113
REMARK minimizedRMSD -1
REMARK  0 active torsions:
REMARK  status: ('A' for Active; 'I' for Inactive)
ROOT
ATOM      1  C   UNL d   1       0.863  -1.902   3.668  0.00  0.00     0.077 C 
ATOM      2  C1  UNL d   1      -0.437  -1.578   2.993  0.00  0.00    -0.074 A 
ATOM      3  C2  UNL d   1      -1.020  -2.472   2.090  0.00  0.00    -0.005 A 
ATOM      4  C3  UNL d   1      -2.234  -2.162   1.478  0.00  0.00     0.006 A 
ATOM      5  C4  UNL d   1      -2.876  -0.956   1.762  0.00  0.00    -0.005 A 
ATOM      6  C5  UNL d   1      -2.309  -0.050   2.664  0.00  0.00    -0.074 A 
ATOM      7  C6  UNL d   1      -2.990   1.246   2.988  0.00  0.00     0.077 C 
ATOM      8  C7  UNL d   1      -1.092  -0.372   3.280  0.00  0.00    -0.001 A 
ENDROOT
TORSDOF 0
ENDMDL
