MODEL 1
REMARK minimizedAffinity 9.76726913
REMARK minimizedRMSD -1
REMARK  0 active torsions:
REMARK  status: ('A' for Active; 'I' for Inactive)
ROOT
ATOM      1  C   UNL d   1      -2.515   1.054   2.976  0.00  0.00     0.077 C 
ATOM      2  C1  UNL d   1      -2.151  -0.303   2.452  0.00  0.00    -0.074 A 
ATOM      3  C2  UNL d   1      -3.109  -1.118   1.840  0.00  0.00    -0.005 A 
ATOM      4  C3  UNL d   1      -2.754  -2.374   1.348  0.00  0.00     0.006 A 
ATOM      5  C4  UNL d   1      -1.439  -2.827   1.463  0.00  0.00    -0.005 A 
ATOM      6  C5  UNL d   1      -0.467  -2.026   2.071  0.00  0.00    -0.074 A 
ATOM      7  C6  UNL d   1       0.952  -2.494   2.194  0.00  0.00     0.077 C 
ATOM      8  C7  UNL d   1      -0.831  -0.762   2.556  0.00  0.00    -0.001 A 
ENDROOT
TORSDOF 0
ENDMDL
