MODEL 1
REMARK minimizedAffinity 13.3813848
REMARK minimizedRMSD -1
REMARK  0 active torsions:
REMARK  status: ('A' for Active; 'I' for Inactive)
ROOT
ATOM      1  C   UNL d   1      -1.955  -0.263   5.182  0.00  0.00     0.077 C 
ATOM      2  C1  UNL d   1      -2.080  -0.399   3.694  0.00  0.00    -0.074 A 
ATOM      3  C2  UNL d   1      -2.274   0.723   2.883  0.00  0.00    -0.005 A 
ATOM      4  C3  UNL d   1      -2.378   0.582   1.499  0.00  0.00     0.006 A 
ATOM      5  C4  UNL d   1      -2.289  -0.681   0.913  0.00  0.00    -0.005 A 
ATOM      6  C5  UNL d   1      -2.095  -1.815   1.708  0.00  0.00    -0.074 A 
ATOM      7  C6  UNL d   1      -1.987  -3.180   1.094  0.00  0.00     0.077 C 
ATOM      8  C7  UNL d   1      -1.984  -1.664   3.097  0.00  0.00    -0.001 A 
ENDROOT
TORSDOF 0
ENDMDL
