MODEL 1
REMARK minimizedAffinity 16.8122711
REMARK minimizedRMSD -1
REMARK  0 active torsions:
REMARK  status: ('A' for Active; 'I' for Inactive)
ROOT
ATOM      1  C   UNL d   1      -3.306  -2.095   3.118  0.00  0.00     0.077 C 
ATOM      2  C1  UNL d   1      -3.892  -3.457   3.339  0.00  0.00    -0.074 A 
ATOM      3  C2  UNL d   1      -3.715  -4.477   2.399  0.00  0.00    -0.005 A 
ATOM      4  C3  UNL d   1      -4.259  -5.742   2.622  0.00  0.00     0.006 A 
ATOM      5  C4  UNL d   1      -4.983  -6.000   3.787  0.00  0.00    -0.005 A 
ATOM      6  C5  UNL d   1      -5.170  -4.993   4.739  0.00  0.00    -0.074 A 
ATOM      7  C6  UNL d   1      -5.938  -5.255   6.000  0.00  0.00     0.077 C 
ATOM      8  C7  UNL d   1      -4.615  -3.726   4.510  0.00  0.00    -0.001 A 
ENDROOT
TORSDOF 0
ENDMDL
