MODEL 1
REMARK minimizedAffinity 8.68326378
REMARK minimizedRMSD -1
REMARK  0 active torsions:
REMARK  status: ('A' for Active; 'I' for Inactive)
ROOT
ATOM      1  C   UNL d   1       6.000   5.396  -1.119  0.00  0.00     0.077 C 
ATOM      2  C1  UNL d   1       5.363   4.613  -2.229  0.00  0.00    -0.074 A 
ATOM      3  C2  UNL d   1       6.000   4.472  -3.466  0.00  0.00    -0.005 A 
ATOM      4  C3  UNL d   1       5.400   3.732  -4.485  0.00  0.00     0.006 A 
ATOM      5  C4  UNL d   1       4.159   3.128  -4.278  0.00  0.00    -0.005 A 
ATOM      6  C5  UNL d   1       3.508   3.258  -3.048  0.00  0.00    -0.074 A 
ATOM      7  C6  UNL d   1       2.179   2.607  -2.806  0.00  0.00     0.077 C 
ATOM      8  C7  UNL d   1       4.120   3.997  -2.026  0.00  0.00    -0.001 A 
ENDROOT
TORSDOF 0
ENDMDL
