MODEL 1
REMARK minimizedAffinity 10.9634981
REMARK minimizedRMSD -1
REMARK  0 active torsions:
REMARK  status: ('A' for Active; 'I' for Inactive)
ROOT
ATOM      1  C   UNL d   1      -5.676  -5.603   6.000  0.00  0.00     0.077 C 
ATOM      2  C1  UNL d   1      -5.438  -5.239   4.564  0.00  0.00    -0.074 A 
ATOM      3  C2  UNL d   1      -6.000  -5.993   3.529  0.00  0.00    -0.005 A 
ATOM      4  C3  UNL d   1      -5.777  -5.637   2.199  0.00  0.00     0.006 A 
ATOM      5  C4  UNL d   1      -4.993  -4.525   1.891  0.00  0.00    -0.005 A 
ATOM      6  C5  UNL d   1      -4.423  -3.758   2.913  0.00  0.00    -0.074 A 
ATOM      7  C6  UNL d   1      -3.586  -2.555   2.599  0.00  0.00     0.077 C 
ATOM      8  C7  UNL d   1      -4.657  -4.119   4.247  0.00  0.00    -0.001 A 
ENDROOT
TORSDOF 0
ENDMDL
