MODEL 1
REMARK minimizedAffinity 5.55596304
REMARK minimizedRMSD -1
REMARK  0 active torsions:
REMARK  status: ('A' for Active; 'I' for Inactive)
ROOT
ATOM      1  C   UNL d   1      -2.736  -3.800   1.867  0.00  0.00     0.077 C 
ATOM      2  C1  UNL d   1      -3.864  -4.562   2.498  0.00  0.00    -0.074 A 
ATOM      3  C2  UNL d   1      -4.767  -5.288   1.715  0.00  0.00    -0.005 A 
ATOM      4  C3  UNL d   1      -5.805  -6.000   2.317  0.00  0.00     0.006 A 
ATOM      5  C4  UNL d   1      -5.950  -5.992   3.705  0.00  0.00    -0.005 A 
ATOM      6  C5  UNL d   1      -5.056  -5.272   4.503  0.00  0.00    -0.074 A 
ATOM      7  C6  UNL d   1      -5.192  -5.261   5.997  0.00  0.00     0.077 C 
ATOM      8  C7  UNL d   1      -4.012  -4.565   3.892  0.00  0.00    -0.001 A 
ENDROOT
TORSDOF 0
ENDMDL
