MODEL 1
REMARK minimizedAffinity -2.46127391
REMARK minimizedRMSD -1
REMARK  0 active torsions:
REMARK  status: ('A' for Active; 'I' for Inactive)
ROOT
ATOM      1  C   UNL d   1       1.113   4.130  -4.855  0.00  0.00     0.078 C 
ATOM      2  C1  UNL d   1       2.530   3.840  -5.248  0.00  0.00    -0.077 A 
ATOM      3  C2  UNL d   1       3.400   4.871  -5.624  0.00  0.00    -0.001 A 
ATOM      4  C3  UNL d   1       4.714   4.586  -5.998  0.00  0.00     0.003 A 
ATOM      5  C4  UNL d   1       5.170   3.269  -6.000  0.00  0.00    -0.005 A 
ATOM      6  C5  UNL d   1       4.312   2.236  -5.630  0.00  0.00     0.003 A 
ATOM      7  C6  UNL d   1       2.997   2.520  -5.256  0.00  0.00    -0.001 A 
ENDROOT
TORSDOF 0
ENDMDL
