MODEL 1
REMARK minimizedAffinity -3.64579225
REMARK minimizedRMSD -1
REMARK  0 active torsions:
REMARK  status: ('A' for Active; 'I' for Inactive)
ROOT
ATOM      1  C   UNL d   1       1.440   4.216  -4.986  0.00  0.00     0.078 C 
ATOM      2  C1  UNL d   1       2.887   3.907  -5.229  0.00  0.00    -0.077 A 
ATOM      3  C2  UNL d   1       3.420   2.652  -4.909  0.00  0.00    -0.001 A 
ATOM      4  C3  UNL d   1       4.771   2.382  -5.131  0.00  0.00     0.003 A 
ATOM      5  C4  UNL d   1       5.601   3.362  -5.674  0.00  0.00    -0.005 A 
ATOM      6  C5  UNL d   1       5.080   4.614  -5.993  0.00  0.00     0.003 A 
ATOM      7  C6  UNL d   1       3.729   4.886  -5.772  0.00  0.00    -0.001 A 
ENDROOT
TORSDOF 0
ENDMDL
