MODEL 1
REMARK minimizedAffinity -3.50853896
REMARK minimizedRMSD -1
REMARK  0 active torsions:
REMARK  status: ('A' for Active; 'I' for Inactive)
ROOT
ATOM      1  C   UNL d   1       1.387   4.076  -5.228  0.00  0.00     0.078 C 
ATOM      2  C1  UNL d   1       2.862   3.844  -5.366  0.00  0.00    -0.077 A 
ATOM      3  C2  UNL d   1       3.418   2.580  -5.131  0.00  0.00    -0.001 A 
ATOM      4  C3  UNL d   1       4.794   2.381  -5.253  0.00  0.00     0.003 A 
ATOM      5  C4  UNL d   1       5.626   3.441  -5.610  0.00  0.00    -0.005 A 
ATOM      6  C5  UNL d   1       5.082   4.702  -5.844  0.00  0.00     0.003 A 
ATOM      7  C6  UNL d   1       3.706   4.903  -5.722  0.00  0.00    -0.001 A 
ENDROOT
TORSDOF 0
ENDMDL
