MODEL 1
REMARK minimizedAffinity 0.205529779
REMARK minimizedRMSD -1
REMARK  0 active torsions:
REMARK  status: ('A' for Active; 'I' for Inactive)
ROOT
ATOM      1  C   UNL d   1       5.933  -0.131   2.110  0.00  0.00     0.078 C 
ATOM      2  C1  UNL d   1       4.867   0.740   1.514  0.00  0.00    -0.077 A 
ATOM      3  C2  UNL d   1       3.612   0.217   1.179  0.00  0.00    -0.001 A 
ATOM      4  C3  UNL d   1       2.633   1.038   0.616  0.00  0.00     0.003 A 
ATOM      5  C4  UNL d   1       2.900   2.385   0.382  0.00  0.00    -0.005 A 
ATOM      6  C5  UNL d   1       4.146   2.914   0.710  0.00  0.00     0.003 A 
ATOM      7  C6  UNL d   1       5.126   2.095   1.273  0.00  0.00    -0.001 A 
ENDROOT
TORSDOF 0
ENDMDL
