MODEL 1
REMARK minimizedAffinity -1.94954562
REMARK minimizedRMSD -1
REMARK  0 active torsions:
REMARK  status: ('A' for Active; 'I' for Inactive)
ROOT
ATOM      1  C   UNL d   1       1.498   3.741  -5.807  0.00  0.00     0.078 C 
ATOM      2  C1  UNL d   1       2.997   3.747  -5.815  0.00  0.00    -0.077 A 
ATOM      3  C2  UNL d   1       3.724   2.566  -5.627  0.00  0.00    -0.001 A 
ATOM      4  C3  UNL d   1       5.120   2.588  -5.627  0.00  0.00     0.003 A 
ATOM      5  C4  UNL d   1       5.800   3.789  -5.814  0.00  0.00    -0.005 A 
ATOM      6  C5  UNL d   1       5.086   4.971  -6.000  0.00  0.00     0.003 A 
ATOM      7  C6  UNL d   1       3.690   4.950  -6.000  0.00  0.00    -0.001 A 
ENDROOT
TORSDOF 0
ENDMDL
