MODEL 1
REMARK minimizedAffinity -4.15824175
REMARK minimizedRMSD -1
REMARK  0 active torsions:
REMARK  status: ('A' for Active; 'I' for Inactive)
ROOT
ATOM      1  C   UNL d   1       1.213   5.999  -5.327  0.00  0.00     0.078 C 
ATOM      2  C1  UNL d   1       2.245   4.911  -5.309  0.00  0.00    -0.077 A 
ATOM      3  C2  UNL d   1       3.594   5.200  -5.072  0.00  0.00    -0.001 A 
ATOM      4  C3  UNL d   1       4.545   4.178  -5.068  0.00  0.00     0.003 A 
ATOM      5  C4  UNL d   1       4.157   2.860  -5.302  0.00  0.00    -0.005 A 
ATOM      6  C5  UNL d   1       2.817   2.563  -5.541  0.00  0.00     0.003 A 
ATOM      7  C6  UNL d   1       1.865   3.583  -5.545  0.00  0.00    -0.001 A 
ENDROOT
TORSDOF 0
ENDMDL
