MODEL 1
REMARK minimizedAffinity -3.14439416
REMARK minimizedRMSD -1
REMARK  0 active torsions:
REMARK  status: ('A' for Active; 'I' for Inactive)
ROOT
ATOM      1  C   UNL d   1       1.189   4.879  -5.028  0.00  0.00     0.078 C 
ATOM      2  C1  UNL d   1       2.607   4.519  -5.360  0.00  0.00    -0.077 A 
ATOM      3  C2  UNL d   1       3.545   5.507  -5.683  0.00  0.00    -0.001 A 
ATOM      4  C3  UNL d   1       4.859   5.157  -5.999  0.00  0.00     0.003 A 
ATOM      5  C4  UNL d   1       5.246   3.818  -5.996  0.00  0.00    -0.005 A 
ATOM      6  C5  UNL d   1       4.319   2.828  -5.678  0.00  0.00     0.003 A 
ATOM      7  C6  UNL d   1       3.005   3.176  -5.362  0.00  0.00    -0.001 A 
ENDROOT
TORSDOF 0
ENDMDL
