MODEL 1
REMARK minimizedAffinity -1.24348116
REMARK minimizedRMSD -1
REMARK  0 active torsions:
REMARK  status: ('A' for Active; 'I' for Inactive)
ROOT
ATOM      1  C   UNL d   1       1.139   4.498  -4.520  0.00  0.00     0.078 C 
ATOM      2  C1  UNL d   1       2.497   3.993  -4.906  0.00  0.00    -0.077 A 
ATOM      3  C2  UNL d   1       2.922   2.711  -4.535  0.00  0.00    -0.001 A 
ATOM      4  C3  UNL d   1       4.193   2.258  -4.892  0.00  0.00     0.003 A 
ATOM      5  C4  UNL d   1       5.050   3.080  -5.621  0.00  0.00    -0.005 A 
ATOM      6  C5  UNL d   1       4.637   4.358  -5.993  0.00  0.00     0.003 A 
ATOM      7  C6  UNL d   1       3.366   4.813  -5.636  0.00  0.00    -0.001 A 
ENDROOT
TORSDOF 0
ENDMDL
