MODEL 1
REMARK minimizedAffinity 0.516989827
REMARK minimizedRMSD -1
REMARK  0 active torsions:
REMARK  status: ('A' for Active; 'I' for Inactive)
ROOT
ATOM      1  C   UNL d   1       4.605   2.238  -5.260  0.00  0.00     0.078 C 
ATOM      2  C1  UNL d   1       3.309   2.992  -5.260  0.00  0.00    -0.077 A 
ATOM      3  C2  UNL d   1       3.162   4.174  -4.524  0.00  0.00    -0.001 A 
ATOM      4  C3  UNL d   1       1.946   4.860  -4.526  0.00  0.00     0.003 A 
ATOM      5  C4  UNL d   1       0.868   4.371  -5.260  0.00  0.00    -0.005 A 
ATOM      6  C5  UNL d   1       1.004   3.195  -5.994  0.00  0.00     0.003 A 
ATOM      7  C6  UNL d   1       2.219   2.507  -5.994  0.00  0.00    -0.001 A 
ENDROOT
TORSDOF 0
ENDMDL
