MODEL 1
REMARK minimizedAffinity -1.29193258
REMARK minimizedRMSD -1
REMARK  0 active torsions:
REMARK  status: ('A' for Active; 'I' for Inactive)
ROOT
ATOM      1  C   UNL d   1       4.127   1.876  -4.860  0.00  0.00     0.078 C 
ATOM      2  C1  UNL d   1       3.518   3.185  -5.265  0.00  0.00    -0.077 A 
ATOM      3  C2  UNL d   1       4.321   4.271  -5.634  0.00  0.00    -0.001 A 
ATOM      4  C3  UNL d   1       3.741   5.486  -6.000  0.00  0.00     0.003 A 
ATOM      5  C4  UNL d   1       2.354   5.628  -5.999  0.00  0.00    -0.005 A 
ATOM      6  C5  UNL d   1       1.547   4.554  -5.631  0.00  0.00     0.003 A 
ATOM      7  C6  UNL d   1       2.126   3.337  -5.265  0.00  0.00    -0.001 A 
ENDROOT
TORSDOF 0
ENDMDL
