MODEL 1
REMARK minimizedAffinity 1.35513449
REMARK minimizedRMSD -1
REMARK  0 active torsions:
REMARK  status: ('A' for Active; 'I' for Inactive)
ROOT
ATOM      1  C   UNL d   1       3.512   1.503  -5.998  0.00  0.00     0.078 C 
ATOM      2  C1  UNL d   1       2.893   2.738  -5.414  0.00  0.00    -0.077 A 
ATOM      3  C2  UNL d   1       3.436   3.348  -4.277  0.00  0.00    -0.001 A 
ATOM      4  C3  UNL d   1       2.844   4.491  -3.738  0.00  0.00     0.003 A 
ATOM      5  C4  UNL d   1       1.704   5.033  -4.329  0.00  0.00    -0.005 A 
ATOM      6  C5  UNL d   1       1.155   4.432  -5.459  0.00  0.00     0.003 A 
ATOM      7  C6  UNL d   1       1.747   3.289  -6.000  0.00  0.00    -0.001 A 
ENDROOT
TORSDOF 0
ENDMDL
