MODEL 1
REMARK minimizedAffinity -1.08988774
REMARK minimizedRMSD -1
REMARK  0 active torsions:
REMARK  status: ('A' for Active; 'I' for Inactive)
ROOT
ATOM      1  C   UNL d   1       4.097   2.245  -5.601  0.00  0.00     0.078 C 
ATOM      2  C1  UNL d   1       3.079   3.280  -5.226  0.00  0.00    -0.077 A 
ATOM      3  C2  UNL d   1       3.259   4.095  -4.101  0.00  0.00    -0.001 A 
ATOM      4  C3  UNL d   1       2.299   5.048  -3.759  0.00  0.00     0.003 A 
ATOM      5  C4  UNL d   1       1.151   5.195  -4.536  0.00  0.00    -0.005 A 
ATOM      6  C5  UNL d   1       0.962   4.388  -5.655  0.00  0.00     0.003 A 
ATOM      7  C6  UNL d   1       1.921   3.434  -5.999  0.00  0.00    -0.001 A 
ENDROOT
TORSDOF 0
ENDMDL
