MODEL 1
REMARK minimizedAffinity -3.10233068
REMARK minimizedRMSD -1
REMARK  0 active torsions:
REMARK  status: ('A' for Active; 'I' for Inactive)
ROOT
ATOM      1  C   UNL d   1       3.980   2.239  -5.614  0.00  0.00     0.078 C 
ATOM      2  C1  UNL d   1       3.266   3.553  -5.719  0.00  0.00    -0.077 A 
ATOM      3  C2  UNL d   1       3.975   4.746  -5.907  0.00  0.00    -0.001 A 
ATOM      4  C3  UNL d   1       3.297   5.963  -5.994  0.00  0.00     0.003 A 
ATOM      5  C4  UNL d   1       1.908   6.000  -5.893  0.00  0.00    -0.005 A 
ATOM      6  C5  UNL d   1       1.194   4.818  -5.703  0.00  0.00     0.003 A 
ATOM      7  C6  UNL d   1       1.870   3.600  -5.616  0.00  0.00    -0.001 A 
ENDROOT
TORSDOF 0
ENDMDL
