MODEL 1
REMARK minimizedAffinity -2.09678102
REMARK minimizedRMSD -1
REMARK  0 active torsions:
REMARK  status: ('A' for Active; 'I' for Inactive)
ROOT
ATOM      1  C   UNL d   1       3.871   1.218  -4.554  0.00  0.00     0.078 C 
ATOM      2  C1  UNL d   1       3.755   2.624  -5.063  0.00  0.00    -0.077 A 
ATOM      3  C2  UNL d   1       4.860   3.484  -5.065  0.00  0.00    -0.001 A 
ATOM      4  C3  UNL d   1       4.734   4.793  -5.533  0.00  0.00     0.003 A 
ATOM      5  C4  UNL d   1       3.505   5.254  -6.000  0.00  0.00    -0.005 A 
ATOM      6  C5  UNL d   1       2.399   4.406  -5.999  0.00  0.00     0.003 A 
ATOM      7  C6  UNL d   1       2.523   3.097  -5.532  0.00  0.00    -0.001 A 
ENDROOT
TORSDOF 0
ENDMDL
