MODEL 1
REMARK minimizedAffinity -2.72217607
REMARK minimizedRMSD -1
REMARK  0 active torsions:
REMARK  status: ('A' for Active; 'I' for Inactive)
ROOT
ATOM      1  C   UNL d   1       1.492   3.781  -5.825  0.00  0.00     0.078 C 
ATOM      2  C1  UNL d   1       2.985   3.642  -5.817  0.00  0.00    -0.077 A 
ATOM      3  C2  UNL d   1       3.813   4.757  -5.999  0.00  0.00    -0.001 A 
ATOM      4  C3  UNL d   1       5.201   4.612  -5.999  0.00  0.00     0.003 A 
ATOM      5  C4  UNL d   1       5.774   3.354  -5.819  0.00  0.00    -0.005 A 
ATOM      6  C5  UNL d   1       4.957   2.239  -5.640  0.00  0.00     0.003 A 
ATOM      7  C6  UNL d   1       3.569   2.382  -5.639  0.00  0.00    -0.001 A 
ENDROOT
TORSDOF 0
ENDMDL
