MODEL 1
REMARK minimizedAffinity -2.3598125
REMARK minimizedRMSD -1
REMARK  0 active torsions:
REMARK  status: ('A' for Active; 'I' for Inactive)
ROOT
ATOM      1  C   UNL d   1       1.018   4.510  -5.565  0.00  0.00     0.078 C 
ATOM      2  C1  UNL d   1       2.500   4.278  -5.561  0.00  0.00    -0.077 A 
ATOM      3  C2  UNL d   1       3.039   3.066  -5.112  0.00  0.00    -0.001 A 
ATOM      4  C3  UNL d   1       4.420   2.868  -5.106  0.00  0.00     0.003 A 
ATOM      5  C4  UNL d   1       5.274   3.877  -5.545  0.00  0.00    -0.005 A 
ATOM      6  C5  UNL d   1       4.747   5.087  -5.992  0.00  0.00     0.003 A 
ATOM      7  C6  UNL d   1       3.366   5.287  -5.999  0.00  0.00    -0.001 A 
ENDROOT
TORSDOF 0
ENDMDL
