MODEL 1
REMARK minimizedAffinity 6.683146
REMARK minimizedRMSD -1
REMARK  1 active torsions:
REMARK  status: ('A' for Active; 'I' for Inactive)
REMARK    1  A    between atoms: C1_2  and  C2_3 
ROOT
ATOM      1  C2  UNL d   1      -3.924   1.485   2.282  0.00  0.00    -0.077 A 
ATOM      2  C3  UNL d   1      -5.109   1.875   2.920  0.00  0.00     0.002 A 
ATOM      3  C4  UNL d   1      -6.000   2.744   2.287  0.00  0.00     0.002 A 
ATOM      4  C5  UNL d   1      -5.717   3.226   1.011  0.00  0.00    -0.004 A 
ATOM      5  C6  UNL d   1      -4.539   2.846   0.368  0.00  0.00     0.002 A 
ATOM      6  C7  UNL d   1      -3.647   1.979   1.000  0.00  0.00     0.002 A 
ENDROOT
BRANCH   1   7
ATOM      7  C1  UNL d   1      -2.985   0.510   2.943  0.00  0.00     0.055 C 
ATOM      8  C   UNL d   1      -1.548   0.733   2.494  0.00  0.00     0.019 C 
ENDBRANCH   1   7
TORSDOF 1
ENDMDL
