MODEL 1
REMARK minimizedAffinity 5.81268024
REMARK minimizedRMSD -1
REMARK  1 active torsions:
REMARK  status: ('A' for Active; 'I' for Inactive)
REMARK    1  A    between atoms: C1_2  and  C2_3 
ROOT
ATOM      1  C2  UNL d   1      -3.717  -0.425   1.890  0.00  0.00    -0.077 A 
ATOM      2  C3  UNL d   1      -4.926   0.208   1.568  0.00  0.00     0.002 A 
ATOM      3  C4  UNL d   1      -4.998   1.601   1.503  0.00  0.00     0.002 A 
ATOM      4  C5  UNL d   1      -3.865   2.371   1.753  0.00  0.00    -0.004 A 
ATOM      5  C6  UNL d   1      -2.658   1.751   2.075  0.00  0.00     0.002 A 
ATOM      6  C7  UNL d   1      -2.585   0.359   2.142  0.00  0.00     0.002 A 
ENDROOT
BRANCH   1   7
ATOM      7  C1  UNL d   1      -3.626  -1.928   1.913  0.00  0.00     0.055 C 
ATOM      8  C   UNL d   1      -3.243  -2.481   0.547  0.00  0.00     0.019 C 
ENDBRANCH   1   7
TORSDOF 1
ENDMDL
