MODEL 1
REMARK minimizedAffinity 3.73173666
REMARK minimizedRMSD -1
REMARK  1 active torsions:
REMARK  status: ('A' for Active; 'I' for Inactive)
REMARK    1  A    between atoms: C1_2  and  C2_3 
ROOT
ATOM      1  C2  UNL d   1      -0.711   4.172  -3.278  0.00  0.00    -0.077 A 
ATOM      2  C3  UNL d   1       0.309   3.282  -3.643  0.00  0.00     0.002 A 
ATOM      3  C4  UNL d   1      -0.003   2.024  -4.162  0.00  0.00     0.002 A 
ATOM      4  C5  UNL d   1      -1.334   1.647  -4.326  0.00  0.00    -0.004 A 
ATOM      5  C6  UNL d   1      -2.356   2.524  -3.964  0.00  0.00     0.002 A 
ATOM      6  C7  UNL d   1      -2.046   3.781  -3.443  0.00  0.00     0.002 A 
ENDROOT
BRANCH   1   7
ATOM      7  C1  UNL d   1      -0.376   5.547  -2.763  0.00  0.00     0.055 C 
ATOM      8  C   UNL d   1      -0.952   5.774  -1.373  0.00  0.00     0.019 C 
ENDBRANCH   1   7
TORSDOF 1
ENDMDL
