MODEL 1
REMARK minimizedAffinity 3.2369709
REMARK minimizedRMSD -1
REMARK  1 active torsions:
REMARK  status: ('A' for Active; 'I' for Inactive)
REMARK    1  A    between atoms: C1_2  and  C2_3 
ROOT
ATOM      1  C2  UNL d   1      -1.085   5.412  -1.088  0.00  0.00    -0.077 A 
ATOM      2  C3  UNL d   1      -0.566   5.985   0.081  0.00  0.00     0.002 A 
ATOM      3  C4  UNL d   1      -0.936   5.492   1.334  0.00  0.00     0.002 A 
ATOM      4  C5  UNL d   1      -1.823   4.421   1.429  0.00  0.00    -0.004 A 
ATOM      5  C6  UNL d   1      -2.346   3.846   0.272  0.00  0.00     0.002 A 
ATOM      6  C7  UNL d   1      -1.978   4.338  -0.981  0.00  0.00     0.002 A 
ENDROOT
BRANCH   1   7
ATOM      7  C1  UNL d   1      -0.649   5.910  -2.441  0.00  0.00     0.055 C 
ATOM      8  C   UNL d   1      -0.843   4.847  -3.512  0.00  0.00     0.019 C 
ENDBRANCH   1   7
TORSDOF 1
ENDMDL
