MODEL 1
REMARK minimizedAffinity 4.12574291
REMARK minimizedRMSD -1
REMARK  1 active torsions:
REMARK  status: ('A' for Active; 'I' for Inactive)
REMARK    1  A    between atoms: C1_2  and  C2_3 
ROOT
ATOM      1  C2  UNL d   1      -1.328   4.633  -2.854  0.00  0.00    -0.077 A 
ATOM      2  C3  UNL d   1      -2.443   3.820  -3.104  0.00  0.00     0.002 A 
ATOM      3  C4  UNL d   1      -2.305   2.637  -3.831  0.00  0.00     0.002 A 
ATOM      4  C5  UNL d   1      -1.054   2.254  -4.311  0.00  0.00    -0.004 A 
ATOM      5  C6  UNL d   1       0.060   3.057  -4.070  0.00  0.00     0.002 A 
ATOM      6  C7  UNL d   1      -0.076   4.241  -3.344  0.00  0.00     0.002 A 
ENDROOT
BRANCH   1   7
ATOM      7  C1  UNL d   1      -1.467   5.885  -2.027  0.00  0.00     0.055 C 
ATOM      8  C   UNL d   1      -2.853   5.990  -1.409  0.00  0.00     0.019 C 
ENDBRANCH   1   7
TORSDOF 1
ENDMDL
