MODEL 1
REMARK minimizedAffinity 4.02217484
REMARK minimizedRMSD -1
REMARK  1 active torsions:
REMARK  status: ('A' for Active; 'I' for Inactive)
REMARK    1  A    between atoms: C1_2  and  C2_3 
ROOT
ATOM      1  C2  UNL d   1      -0.223   3.473  -2.317  0.00  0.00    -0.077 A 
ATOM      2  C3  UNL d   1      -1.388   2.739  -2.579  0.00  0.00     0.002 A 
ATOM      3  C4  UNL d   1      -1.406   1.781  -3.594  0.00  0.00     0.002 A 
ATOM      4  C5  UNL d   1      -0.262   1.545  -4.353  0.00  0.00    -0.004 A 
ATOM      5  C6  UNL d   1       0.902   2.272  -4.101  0.00  0.00     0.002 A 
ATOM      6  C7  UNL d   1       0.921   3.230  -3.088  0.00  0.00     0.002 A 
ENDROOT
BRANCH   1   7
ATOM      7  C1  UNL d   1      -0.187   4.472  -1.190  0.00  0.00     0.055 C 
ATOM      8  C   UNL d   1       0.043   3.787   0.149  0.00  0.00     0.019 C 
ENDBRANCH   1   7
TORSDOF 1
ENDMDL
