MODEL 1
REMARK minimizedAffinity 8.37493896
REMARK minimizedRMSD -1
REMARK  1 active torsions:
REMARK  status: ('A' for Active; 'I' for Inactive)
REMARK    1  A    between atoms: C1_2  and  C2_3 
ROOT
ATOM      1  C2  UNL d   1      -4.436  -4.612   0.528  0.00  0.00    -0.077 A 
ATOM      2  C3  UNL d   1      -4.495  -4.310   1.896  0.00  0.00     0.002 A 
ATOM      3  C4  UNL d   1      -4.241  -3.012   2.344  0.00  0.00     0.002 A 
ATOM      4  C5  UNL d   1      -3.930  -2.006   1.431  0.00  0.00    -0.004 A 
ATOM      5  C6  UNL d   1      -3.866  -2.298   0.069  0.00  0.00     0.002 A 
ATOM      6  C7  UNL d   1      -4.118  -3.594  -0.381  0.00  0.00     0.002 A 
ENDROOT
BRANCH   1   7
ATOM      7  C1  UNL d   1      -4.757  -6.000   0.038  0.00  0.00     0.055 C 
ATOM      8  C   UNL d   1      -5.984  -5.998  -0.862  0.00  0.00     0.019 C 
ENDBRANCH   1   7
TORSDOF 1
ENDMDL
