MODEL 1
REMARK minimizedAffinity 1.28343654
REMARK minimizedRMSD -1
REMARK  1 active torsions:
REMARK  status: ('A' for Active; 'I' for Inactive)
REMARK    1  A    between atoms: C1_2  and  C2_3 
ROOT
ATOM      1  C2  UNL d   1       3.573  -1.430  -0.236  0.00  0.00    -0.077 A 
ATOM      2  C3  UNL d   1       2.923  -2.667  -0.348  0.00  0.00     0.002 A 
ATOM      3  C4  UNL d   1       1.891  -3.005   0.530  0.00  0.00     0.002 A 
ATOM      4  C5  UNL d   1       1.498  -2.110   1.523  0.00  0.00    -0.004 A 
ATOM      5  C6  UNL d   1       2.140  -0.878   1.644  0.00  0.00     0.002 A 
ATOM      6  C7  UNL d   1       3.172  -0.539   0.768  0.00  0.00     0.002 A 
ENDROOT
BRANCH   1   7
ATOM      7  C1  UNL d   1       4.653  -1.044  -1.213  0.00  0.00     0.055 C 
ATOM      8  C   UNL d   1       4.186   0.066  -2.144  0.00  0.00     0.019 C 
ENDBRANCH   1   7
TORSDOF 1
ENDMDL
