MODEL 1
REMARK minimizedAffinity 6.22863293
REMARK minimizedRMSD -1
REMARK  1 active torsions:
REMARK  status: ('A' for Active; 'I' for Inactive)
REMARK    1  A    between atoms: C1_2  and  C2_3 
ROOT
ATOM      1  C2  UNL d   1       3.827  -2.113  -2.436  0.00  0.00    -0.077 A 
ATOM      2  C3  UNL d   1       3.124  -1.358  -1.487  0.00  0.00     0.002 A 
ATOM      3  C4  UNL d   1       3.612  -0.119  -1.066  0.00  0.00     0.002 A 
ATOM      4  C5  UNL d   1       4.803   0.377  -1.592  0.00  0.00    -0.004 A 
ATOM      5  C6  UNL d   1       5.512  -0.367  -2.535  0.00  0.00     0.002 A 
ATOM      6  C7  UNL d   1       5.025  -1.606  -2.955  0.00  0.00     0.002 A 
ENDROOT
BRANCH   1   7
ATOM      7  C1  UNL d   1       3.277  -3.426  -2.927  0.00  0.00     0.055 C 
ATOM      8  C   UNL d   1       3.054  -3.404  -4.432  0.00  0.00     0.019 C 
ENDBRANCH   1   7
TORSDOF 1
ENDMDL
