MODEL 1
REMARK minimizedAffinity 12.5059776
REMARK minimizedRMSD -1
REMARK  1 active torsions:
REMARK  status: ('A' for Active; 'I' for Inactive)
REMARK    1  A    between atoms: C1_2  and  C2_3 
ROOT
ATOM      1  C2  UNL d   1      -0.071   1.320  -3.807  0.00  0.00    -0.077 A 
ATOM      2  C3  UNL d   1      -1.376   1.508  -3.332  0.00  0.00     0.002 A 
ATOM      3  C4  UNL d   1      -1.780   2.755  -2.851  0.00  0.00     0.002 A 
ATOM      4  C5  UNL d   1      -0.886   3.824  -2.844  0.00  0.00    -0.004 A 
ATOM      5  C6  UNL d   1       0.415   3.646  -3.312  0.00  0.00     0.002 A 
ATOM      6  C7  UNL d   1       0.821   2.401  -3.793  0.00  0.00     0.002 A 
ENDROOT
BRANCH   1   7
ATOM      7  C1  UNL d   1       0.351  -0.011  -4.373  0.00  0.00     0.055 C 
ATOM      8  C   UNL d   1      -0.160  -1.162  -3.519  0.00  0.00     0.019 C 
ENDBRANCH   1   7
TORSDOF 1
ENDMDL
