MODEL 1
REMARK minimizedAffinity 9.62633228
REMARK minimizedRMSD -1
REMARK  1 active torsions:
REMARK  status: ('A' for Active; 'I' for Inactive)
REMARK    1  A    between atoms: C1_2  and  C2_3 
ROOT
ATOM      1  C2  UNL d   1       0.986   2.941  -3.644  0.00  0.00    -0.077 A 
ATOM      2  C3  UNL d   1       0.098   3.644  -2.819  0.00  0.00     0.002 A 
ATOM      3  C4  UNL d   1      -1.239   3.255  -2.726  0.00  0.00     0.002 A 
ATOM      4  C5  UNL d   1      -1.699   2.158  -3.452  0.00  0.00    -0.004 A 
ATOM      5  C6  UNL d   1      -0.824   1.452  -4.277  0.00  0.00     0.002 A 
ATOM      6  C7  UNL d   1       0.513   1.841  -4.372  0.00  0.00     0.002 A 
ENDROOT
BRANCH   1   7
ATOM      7  C1  UNL d   1       2.440   3.329  -3.708  0.00  0.00     0.055 C 
ATOM      8  C   UNL d   1       2.801   3.900  -5.072  0.00  0.00     0.019 C 
ENDBRANCH   1   7
TORSDOF 1
ENDMDL
