MODEL 1
REMARK minimizedAffinity -2.04005003
REMARK minimizedRMSD -1
REMARK  0 active torsions:
REMARK  status: ('A' for Active; 'I' for Inactive)
ROOT
ATOM      1  C1  BNZ d   1      -0.804  -0.826   0.020  0.00  0.00     0.000 A 
ATOM      2  C2  BNZ d   1       0.335  -1.552  -0.203  0.00  0.00     0.000 A 
ATOM      3  C3  BNZ d   1       1.485  -0.940  -0.618  0.00  0.00     0.000 A 
ATOM      4  C4  BNZ d   1       1.483   0.389  -0.848  0.00  0.00     0.000 A 
ATOM      5  C5  BNZ d   1       0.339   1.133  -0.638  0.00  0.00     0.000 A 
ATOM      6  C6  BNZ d   1      -0.806   0.520  -0.183  0.00  0.00     0.000 A 
ENDROOT
TORSDOF 0
ENDMDL
