MODEL 1
REMARK minimizedAffinity -3.64278698
REMARK minimizedRMSD -1
REMARK  0 active torsions:
REMARK  status: ('A' for Active; 'I' for Inactive)
ROOT
ATOM      1  C1  BNZ d   1       0.695   0.051   1.030  0.00  0.00     0.000 A 
ATOM      2  C2  BNZ d   1       1.935  -0.515   1.161  0.00  0.00     0.000 A 
ATOM      3  C3  BNZ d   1       2.378  -1.446   0.264  0.00  0.00     0.000 A 
ATOM      4  C4  BNZ d   1       1.566  -1.840  -0.738  0.00  0.00     0.000 A 
ATOM      5  C5  BNZ d   1       0.309  -1.285  -0.879  0.00  0.00     0.000 A 
ATOM      6  C6  BNZ d   1      -0.118  -0.320   0.003  0.00  0.00     0.000 A 
ENDROOT
TORSDOF 0
ENDMDL
