MODEL 1
REMARK minimizedAffinity -3.9745698
REMARK minimizedRMSD -1
REMARK  0 active torsions:
REMARK  status: ('A' for Active; 'I' for Inactive)
ROOT
ATOM      1  C1  BNZ d   1       2.127  -1.233  -0.167  0.00  0.00     0.000 A 
ATOM      2  C2  BNZ d   1       0.763  -1.123  -0.204  0.00  0.00     0.000 A 
ATOM      3  C3  BNZ d   1       0.159   0.103  -0.178  0.00  0.00     0.000 A 
ATOM      4  C4  BNZ d   1       0.916   1.213  -0.075  0.00  0.00     0.000 A 
ATOM      5  C5  BNZ d   1       2.293   1.119  -0.028  0.00  0.00     0.000 A 
ATOM      6  C6  BNZ d   1       2.899  -0.115  -0.093  0.00  0.00     0.000 A 
ENDROOT
TORSDOF 0
ENDMDL
