MODEL 1
REMARK minimizedAffinity -4.57136822
REMARK minimizedRMSD -1
REMARK  0 active torsions:
REMARK  status: ('A' for Active; 'I' for Inactive)
ROOT
ATOM      1  C1  BNZ d   1       0.766   0.376   0.772  0.00  0.00     0.000 A 
ATOM      2  C2  BNZ d   1       1.883  -0.301   1.183  0.00  0.00     0.000 A 
ATOM      3  C3  BNZ d   1       2.221  -1.501   0.622  0.00  0.00     0.000 A 
ATOM      4  C4  BNZ d   1       1.421  -2.041  -0.320  0.00  0.00     0.000 A 
ATOM      5  C5  BNZ d   1       0.287  -1.376  -0.739  0.00  0.00     0.000 A 
ATOM      6  C6  BNZ d   1      -0.030  -0.150  -0.199  0.00  0.00     0.000 A 
ENDROOT
TORSDOF 0
ENDMDL
