MODEL 1
REMARK minimizedAffinity -3.98701787
REMARK minimizedRMSD -1
REMARK  0 active torsions:
REMARK  status: ('A' for Active; 'I' for Inactive)
ROOT
ATOM      1  C1  BNZ d   1       1.153   0.469   0.331  0.00  0.00     0.000 A 
ATOM      2  C2  BNZ d   1       2.282  -0.177   0.757  0.00  0.00     0.000 A 
ATOM      3  C3  BNZ d   1       2.355  -1.542   0.743  0.00  0.00     0.000 A 
ATOM      4  C4  BNZ d   1       1.286  -2.259   0.341  0.00  0.00     0.000 A 
ATOM      5  C5  BNZ d   1       0.137  -1.622  -0.083  0.00  0.00     0.000 A 
ATOM      6  C6  BNZ d   1       0.081  -0.248  -0.104  0.00  0.00     0.000 A 
ENDROOT
TORSDOF 0
ENDMDL
