MODEL 1
REMARK minimizedAffinity -2.93032861
REMARK minimizedRMSD -1
REMARK  0 active torsions:
REMARK  status: ('A' for Active; 'I' for Inactive)
ROOT
ATOM      1  C1  BNZ d   1       1.068   1.193   0.449  0.00  0.00     0.000 A 
ATOM      2  C2  BNZ d   1       0.014   1.674  -0.281  0.00  0.00     0.000 A 
ATOM      3  C3  BNZ d   1      -0.801   0.825  -0.977  0.00  0.00     0.000 A 
ATOM      4  C4  BNZ d   1      -0.537  -0.498  -0.974  0.00  0.00     0.000 A 
ATOM      5  C5  BNZ d   1       0.528  -0.997  -0.250  0.00  0.00     0.000 A 
ATOM      6  C6  BNZ d   1       1.322  -0.143   0.480  0.00  0.00     0.000 A 
ENDROOT
TORSDOF 0
ENDMDL
