MODEL 1
REMARK minimizedAffinity -3.15937161
REMARK minimizedRMSD -1
REMARK  0 active torsions:
REMARK  status: ('A' for Active; 'I' for Inactive)
ROOT
ATOM      1  C1  BNZ d   1       3.706   0.831   0.665  0.00  0.00     0.000 A 
ATOM      2  C2  BNZ d   1       2.434   1.291   0.452  0.00  0.00     0.000 A 
ATOM      3  C3  BNZ d   1       1.520   0.532  -0.225  0.00  0.00     0.000 A 
ATOM      4  C4  BNZ d   1       1.890  -0.666  -0.721  0.00  0.00     0.000 A 
ATOM      5  C5  BNZ d   1       3.172  -1.139  -0.523  0.00  0.00     0.000 A 
ATOM      6  C6  BNZ d   1       4.078  -0.390   0.192  0.00  0.00     0.000 A 
ENDROOT
TORSDOF 0
ENDMDL
