MODEL 1
REMARK minimizedAffinity -2.51201224
REMARK minimizedRMSD -1
REMARK  2 active torsions:
REMARK  status: ('A' for Active; 'I' for Inactive)
REMARK    1  A    between atoms: C1_2  and  C2_3 
REMARK    2  A    between atoms: C2_3  and  C3_4 
ROOT
ATOM      1  C3  UNL d   1      -1.483   1.895   2.015  0.00  0.00    -0.075 A 
ATOM      2  C4  UNL d   1      -0.416   1.396   2.775  0.00  0.00     0.002 A 
ATOM      3  C5  UNL d   1       0.477   0.475   2.224  0.00  0.00     0.002 A 
ATOM      4  C6  UNL d   1       0.308   0.036   0.913  0.00  0.00    -0.004 A 
ATOM      5  C7  UNL d   1      -0.759   0.513   0.154  0.00  0.00     0.002 A 
ATOM      6  C8  UNL d   1      -1.650   1.438   0.701  0.00  0.00     0.002 A 
ENDROOT
BRANCH   1   7
ATOM      7  C2  UNL d   1      -2.435   2.914   2.596  0.00  0.00     0.056 C 
BRANCH   7   8
ATOM      8  C1  UNL d   1      -3.865   2.810   2.055  0.00  0.00     0.007 C 
ATOM      9  C   UNL d   1      -4.890   3.518   2.931  0.00  0.00     0.009 C 
ENDBRANCH   7   8
ENDBRANCH   1   7
TORSDOF 2
ENDMDL
