MODEL 1
REMARK minimizedAffinity -2.91660714
REMARK minimizedRMSD -1
REMARK  2 active torsions:
REMARK  status: ('A' for Active; 'I' for Inactive)
REMARK    1  A    between atoms: C1_2  and  C2_3 
REMARK    2  A    between atoms: C2_3  and  C3_4 
ROOT
ATOM      1  C3  UNL d   1      -1.110   1.537   2.624  0.00  0.00    -0.075 A 
ATOM      2  C4  UNL d   1      -2.359   2.155   2.470  0.00  0.00     0.002 A 
ATOM      3  C5  UNL d   1      -2.730   3.219   3.293  0.00  0.00     0.002 A 
ATOM      4  C6  UNL d   1      -1.864   3.671   4.285  0.00  0.00    -0.004 A 
ATOM      5  C7  UNL d   1      -0.627   3.054   4.459  0.00  0.00     0.002 A 
ATOM      6  C8  UNL d   1      -0.251   1.992   3.634  0.00  0.00     0.002 A 
ENDROOT
BRANCH   1   7
ATOM      7  C2  UNL d   1      -0.690   0.405   1.718  0.00  0.00     0.056 C 
BRANCH   7   8
ATOM      8  C1  UNL d   1       0.094   0.855   0.481  0.00  0.00     0.007 C 
ATOM      9  C   UNL d   1       1.569   1.107   0.765  0.00  0.00     0.009 C 
ENDBRANCH   7   8
ENDBRANCH   1   7
TORSDOF 2
ENDMDL
