MODEL 1
REMARK minimizedAffinity -5.67933416
REMARK minimizedRMSD -1
REMARK  2 active torsions:
REMARK  status: ('A' for Active; 'I' for Inactive)
REMARK    1  A    between atoms: C1_2  and  C2_3 
REMARK    2  A    between atoms: C2_3  and  C3_4 
ROOT
ATOM      1  C3  UNL d   1       0.275  -0.310  -0.858  0.00  0.00    -0.075 A 
ATOM      2  C4  UNL d   1       0.849  -0.793   0.328  0.00  0.00     0.002 A 
ATOM      3  C5  UNL d   1       0.247  -0.540   1.560  0.00  0.00     0.002 A 
ATOM      4  C6  UNL d   1      -0.929   0.204   1.625  0.00  0.00    -0.004 A 
ATOM      5  C7  UNL d   1      -1.499   0.702   0.455  0.00  0.00     0.002 A 
ATOM      6  C8  UNL d   1      -0.901   0.447  -0.780  0.00  0.00     0.002 A 
ENDROOT
BRANCH   1   7
ATOM      7  C2  UNL d   1       0.906  -0.605  -2.197  0.00  0.00     0.056 C 
BRANCH   7   8
ATOM      8  C1  UNL d   1       0.900  -2.089  -2.577  0.00  0.00     0.007 C 
ATOM      9  C   UNL d   1       2.134  -2.513  -3.363  0.00  0.00     0.009 C 
ENDBRANCH   7   8
ENDBRANCH   1   7
TORSDOF 2
ENDMDL
