MODEL 1
REMARK minimizedAffinity -3.75956202
REMARK minimizedRMSD -1
REMARK  2 active torsions:
REMARK  status: ('A' for Active; 'I' for Inactive)
REMARK    1  A    between atoms: C1_2  and  C2_3 
REMARK    2  A    between atoms: C2_3  and  C3_4 
ROOT
ATOM      1  C3  UNL d   1      -0.543  -0.484  -0.651  0.00  0.00    -0.075 A 
ATOM      2  C4  UNL d   1      -0.988  -1.306   0.394  0.00  0.00     0.002 A 
ATOM      3  C5  UNL d   1      -2.249  -1.113   0.958  0.00  0.00     0.002 A 
ATOM      4  C6  UNL d   1      -3.076  -0.093   0.493  0.00  0.00    -0.004 A 
ATOM      5  C7  UNL d   1      -2.637   0.740  -0.534  0.00  0.00     0.002 A 
ATOM      6  C8  UNL d   1      -1.377   0.548  -1.103  0.00  0.00     0.002 A 
ENDROOT
BRANCH   1   7
ATOM      7  C2  UNL d   1       0.809  -0.705  -1.286  0.00  0.00     0.056 C 
BRANCH   7   8
ATOM      8  C1  UNL d   1       0.772  -0.804  -2.815  0.00  0.00     0.007 C 
ATOM      9  C   UNL d   1       0.929  -2.230  -3.328  0.00  0.00     0.009 C 
ENDBRANCH   7   8
ENDBRANCH   1   7
TORSDOF 2
ENDMDL
