MODEL 1
REMARK minimizedAffinity -6.5638957
REMARK minimizedRMSD -1
REMARK  2 active torsions:
REMARK  status: ('A' for Active; 'I' for Inactive)
REMARK    1  A    between atoms: C1_2  and  C2_3 
REMARK    2  A    between atoms: C2_3  and  C3_4 
ROOT
ATOM      1  C3  UNL d   1      -0.192   0.225  -0.192  0.00  0.00    -0.075 A 
ATOM      2  C4  UNL d   1      -1.224  -0.288   0.609  0.00  0.00     0.002 A 
ATOM      3  C5  UNL d   1      -1.064  -0.389   1.991  0.00  0.00     0.002 A 
ATOM      4  C6  UNL d   1       0.130   0.010   2.588  0.00  0.00    -0.004 A 
ATOM      5  C7  UNL d   1       1.167   0.505   1.801  0.00  0.00     0.002 A 
ATOM      6  C8  UNL d   1       1.008   0.612   0.418  0.00  0.00     0.002 A 
ENDROOT
BRANCH   1   7
ATOM      7  C2  UNL d   1      -0.370   0.365  -1.685  0.00  0.00     0.056 C 
BRANCH   7   8
ATOM      8  C1  UNL d   1       0.791  -0.205  -2.507  0.00  0.00     0.007 C 
ATOM      9  C   UNL d   1       0.405  -1.434  -3.319  0.00  0.00     0.009 C 
ENDBRANCH   7   8
ENDBRANCH   1   7
TORSDOF 2
ENDMDL
