MODEL 1
REMARK minimizedAffinity -5.42976284
REMARK minimizedRMSD -1
REMARK  2 active torsions:
REMARK  status: ('A' for Active; 'I' for Inactive)
REMARK    1  A    between atoms: C1_2  and  C2_3 
REMARK    2  A    between atoms: C2_3  and  C3_4 
ROOT
ATOM      1  C3  UNL d   1      -0.112   0.202   0.528  0.00  0.00    -0.075 A 
ATOM      2  C4  UNL d   1       0.848   0.463   1.516  0.00  0.00     0.002 A 
ATOM      3  C5  UNL d   1       0.537   0.299   2.866  0.00  0.00     0.002 A 
ATOM      4  C6  UNL d   1      -0.737  -0.119   3.245  0.00  0.00    -0.004 A 
ATOM      5  C7  UNL d   1      -1.703  -0.365   2.273  0.00  0.00     0.002 A 
ATOM      6  C8  UNL d   1      -1.394  -0.206   0.921  0.00  0.00     0.002 A 
ENDROOT
BRANCH   1   7
ATOM      7  C2  UNL d   1       0.227   0.349  -0.936  0.00  0.00     0.056 C 
BRANCH   7   8
ATOM      8  C1  UNL d   1       0.665  -0.955  -1.610  0.00  0.00     0.007 C 
ATOM      9  C   UNL d   1       0.687  -0.868  -3.130  0.00  0.00     0.009 C 
ENDBRANCH   7   8
ENDBRANCH   1   7
TORSDOF 2
ENDMDL
