MODEL 1
REMARK minimizedAffinity -5.38953257
REMARK minimizedRMSD -1
REMARK  2 active torsions:
REMARK  status: ('A' for Active; 'I' for Inactive)
REMARK    1  A    between atoms: C1_2  and  C2_3 
REMARK    2  A    between atoms: C2_3  and  C3_4 
ROOT
ATOM      1  C3  UNL d   1      -0.069   0.017  -0.110  0.00  0.00    -0.075 A 
ATOM      2  C4  UNL d   1      -0.982  -0.583   0.769  0.00  0.00     0.002 A 
ATOM      3  C5  UNL d   1      -0.762  -0.556   2.147  0.00  0.00     0.002 A 
ATOM      4  C6  UNL d   1       0.377   0.060   2.661  0.00  0.00    -0.004 A 
ATOM      5  C7  UNL d   1       1.299   0.645   1.796  0.00  0.00     0.002 A 
ATOM      6  C8  UNL d   1       1.079   0.623   0.417  0.00  0.00     0.002 A 
ENDROOT
BRANCH   1   7
ATOM      7  C2  UNL d   1      -0.317   0.017  -1.600  0.00  0.00     0.056 C 
BRANCH   7   8
ATOM      8  C1  UNL d   1       0.826  -0.586  -2.422  0.00  0.00     0.007 C 
ATOM      9  C   UNL d   1       0.412  -1.822  -3.210  0.00  0.00     0.009 C 
ENDBRANCH   7   8
ENDBRANCH   1   7
TORSDOF 2
ENDMDL
