MODEL 1
REMARK minimizedAffinity -0.83088553
REMARK minimizedRMSD -1
REMARK  2 active torsions:
REMARK  status: ('A' for Active; 'I' for Inactive)
REMARK    1  A    between atoms: C1_2  and  C2_3 
REMARK    2  A    between atoms: C2_3  and  C3_4 
ROOT
ATOM      1  C3  UNL d   1       0.954   0.420  -0.835  0.00  0.00    -0.075 A 
ATOM      2  C4  UNL d   1       1.713   0.643   0.324  0.00  0.00     0.002 A 
ATOM      3  C5  UNL d   1       1.115   0.591   1.583  0.00  0.00     0.002 A 
ATOM      4  C6  UNL d   1      -0.248   0.327   1.700  0.00  0.00    -0.004 A 
ATOM      5  C7  UNL d   1      -1.015   0.120   0.555  0.00  0.00     0.002 A 
ATOM      6  C8  UNL d   1      -0.419   0.167  -0.706  0.00  0.00     0.002 A 
ENDROOT
BRANCH   1   7
ATOM      7  C2  UNL d   1       1.601   0.445  -2.199  0.00  0.00     0.056 C 
BRANCH   7   8
ATOM      8  C1  UNL d   1       2.881  -0.391  -2.298  0.00  0.00     0.007 C 
ATOM      9  C   UNL d   1       4.038   0.357  -2.947  0.00  0.00     0.009 C 
ENDBRANCH   7   8
ENDBRANCH   1   7
TORSDOF 2
ENDMDL
