MODEL 1
REMARK minimizedAffinity -4.57012177
REMARK minimizedRMSD -1
REMARK  2 active torsions:
REMARK  status: ('A' for Active; 'I' for Inactive)
REMARK    1  A    between atoms: C1_2  and  C2_3 
REMARK    2  A    between atoms: C2_3  and  C3_4 
ROOT
ATOM      1  C3  UNL d   1       0.502   0.244   0.381  0.00  0.00    -0.075 A 
ATOM      2  C4  UNL d   1      -0.894   0.130   0.455  0.00  0.00     0.002 A 
ATOM      3  C5  UNL d   1      -1.537   0.087   1.692  0.00  0.00     0.002 A 
ATOM      4  C6  UNL d   1      -0.794   0.146   2.869  0.00  0.00    -0.004 A 
ATOM      5  C7  UNL d   1       0.595   0.243   2.808  0.00  0.00     0.002 A 
ATOM      6  C8  UNL d   1       1.240   0.291   1.571  0.00  0.00     0.002 A 
ENDROOT
BRANCH   1   7
ATOM      7  C2  UNL d   1       1.201   0.320  -0.955  0.00  0.00     0.056 C 
BRANCH   7   8
ATOM      8  C1  UNL d   1       1.767  -1.018  -1.441  0.00  0.00     0.007 C 
ATOM      9  C   UNL d   1       2.068  -1.037  -2.933  0.00  0.00     0.009 C 
ENDBRANCH   7   8
ENDBRANCH   1   7
TORSDOF 2
ENDMDL
