MODEL 1
REMARK minimizedAffinity -5.56157827
REMARK minimizedRMSD -1
REMARK  2 active torsions:
REMARK  status: ('A' for Active; 'I' for Inactive)
REMARK    1  A    between atoms: C1_2  and  C2_3 
REMARK    2  A    between atoms: C2_3  and  C3_4 
ROOT
ATOM      1  C3  UNL d   1       0.944  -0.255  -1.549  0.00  0.00    -0.075 A 
ATOM      2  C4  UNL d   1       0.014  -0.885  -2.388  0.00  0.00     0.002 A 
ATOM      3  C5  UNL d   1       0.443  -1.719  -3.421  0.00  0.00     0.002 A 
ATOM      4  C6  UNL d   1       1.804  -1.925  -3.634  0.00  0.00    -0.004 A 
ATOM      5  C7  UNL d   1       2.737  -1.290  -2.817  0.00  0.00     0.002 A 
ATOM      6  C8  UNL d   1       2.311  -0.459  -1.780  0.00  0.00     0.002 A 
ENDROOT
BRANCH   1   7
ATOM      7  C2  UNL d   1       0.485   0.625  -0.411  0.00  0.00     0.056 C 
BRANCH   7   8
ATOM      8  C1  UNL d   1      -0.016  -0.148   0.813  0.00  0.00     0.007 C 
ATOM      9  C   UNL d   1       0.721   0.215   2.096  0.00  0.00     0.009 C 
ENDBRANCH   7   8
ENDBRANCH   1   7
TORSDOF 2
ENDMDL
