MODEL 1
REMARK minimizedAffinity -5.30998707
REMARK minimizedRMSD -1
REMARK  2 active torsions:
REMARK  status: ('A' for Active; 'I' for Inactive)
REMARK    1  A    between atoms: C1_2  and  C2_3 
REMARK    2  A    between atoms: C2_3  and  C3_4 
ROOT
ATOM      1  C3  UNL d   1      -0.007   0.408   0.493  0.00  0.00    -0.075 A 
ATOM      2  C4  UNL d   1       0.828   0.708   1.579  0.00  0.00     0.002 A 
ATOM      3  C5  UNL d   1       0.542   0.212   2.851  0.00  0.00     0.002 A 
ATOM      4  C6  UNL d   1      -0.585  -0.580   3.056  0.00  0.00    -0.004 A 
ATOM      5  C7  UNL d   1      -1.431  -0.870   1.989  0.00  0.00     0.002 A 
ATOM      6  C8  UNL d   1      -1.145  -0.379   0.713  0.00  0.00     0.002 A 
ENDROOT
BRANCH   1   7
ATOM      7  C2  UNL d   1       0.313   0.917  -0.892  0.00  0.00     0.056 C 
BRANCH   7   8
ATOM      8  C1  UNL d   1       0.597  -0.190  -1.913  0.00  0.00     0.007 C 
ATOM      9  C   UNL d   1       1.914   0.002  -2.654  0.00  0.00     0.009 C 
ENDBRANCH   7   8
ENDBRANCH   1   7
TORSDOF 2
ENDMDL
