MODEL 1
REMARK minimizedAffinity -3.49216509
REMARK minimizedRMSD -1
REMARK  2 active torsions:
REMARK  status: ('A' for Active; 'I' for Inactive)
REMARK    1  A    between atoms: C1_2  and  C2_3 
REMARK    2  A    between atoms: C2_3  and  C3_4 
ROOT
ATOM      1  C3  UNL d   1       0.240   0.367   0.178  0.00  0.00    -0.075 A 
ATOM      2  C4  UNL d   1       1.184   0.916   1.058  0.00  0.00     0.002 A 
ATOM      3  C5  UNL d   1       1.075   0.709   2.433  0.00  0.00     0.002 A 
ATOM      4  C6  UNL d   1       0.018  -0.040   2.946  0.00  0.00    -0.004 A 
ATOM      5  C7  UNL d   1      -0.935  -0.576   2.083  0.00  0.00     0.002 A 
ATOM      6  C8  UNL d   1      -0.826  -0.374   0.706  0.00  0.00     0.002 A 
ENDROOT
BRANCH   1   7
ATOM      7  C2  UNL d   1       0.369   0.563  -1.314  0.00  0.00     0.056 C 
BRANCH   7   8
ATOM      8  C1  UNL d   1       0.873  -0.674  -2.064  0.00  0.00     0.007 C 
ATOM      9  C   UNL d   1       1.927  -0.350  -3.115  0.00  0.00     0.009 C 
ENDBRANCH   7   8
ENDBRANCH   1   7
TORSDOF 2
ENDMDL
