MODEL 1
REMARK minimizedAffinity 8.986166
REMARK minimizedRMSD -1
REMARK  1 active torsions:
REMARK  status: ('A' for Active; 'I' for Inactive)
REMARK    1  A    between atoms: C1_2  and  C2_3 
ROOT
ATOM      1  C2  UNL d   1      -3.512   4.425   5.369  0.00  0.00    -0.081 A 
ATOM      2  C3  UNL d   1      -4.038   3.269   5.957  0.00  0.00     0.006 A 
ATOM      3  C4  UNL d   1      -3.642   2.005   5.512  0.00  0.00     0.002 A 
ATOM      4  C5  UNL d   1      -2.708   1.876   4.479  0.00  0.00    -0.080 A 
ATOM      5  C6  UNL d   1      -2.252   0.526   4.013  0.00  0.00     0.076 C 
ATOM      6  C7  UNL d   1      -2.195   3.032   3.879  0.00  0.00     0.002 A 
ATOM      7  C8  UNL d   1      -2.591   4.295   4.323  0.00  0.00     0.006 A 
ENDROOT
BRANCH   1   8
ATOM      8  C1  UNL d   1      -3.888   5.789   5.889  0.00  0.00     0.054 C 
ATOM      9  C   UNL d   1      -5.398   5.980   5.900  0.00  0.00     0.018 C 
ENDBRANCH   1   8
TORSDOF 1
ENDMDL
