MODEL 1
REMARK minimizedAffinity 8.10849476
REMARK minimizedRMSD -1
REMARK  1 active torsions:
REMARK  status: ('A' for Active; 'I' for Inactive)
REMARK    1  A    between atoms: C1_2  and  C2_3 
ROOT
ATOM      1  C2  UNL d   1      -3.325   1.705  -2.956  0.00  0.00    -0.081 A 
ATOM      2  C3  UNL d   1      -3.065   2.996  -3.432  0.00  0.00     0.006 A 
ATOM      3  C4  UNL d   1      -3.921   3.596  -4.359  0.00  0.00     0.002 A 
ATOM      4  C5  UNL d   1      -5.055   2.919  -4.818  0.00  0.00    -0.080 A 
ATOM      5  C6  UNL d   1      -5.999   3.563  -5.790  0.00  0.00     0.076 C 
ATOM      6  C7  UNL d   1      -5.307   1.623  -4.356  0.00  0.00     0.002 A 
ATOM      7  C8  UNL d   1      -4.451   1.022  -3.431  0.00  0.00     0.006 A 
ENDROOT
BRANCH   1   8
ATOM      8  C1  UNL d   1      -2.440   1.081  -1.909  0.00  0.00     0.054 C 
ATOM      9  C   UNL d   1      -2.889  -0.334  -1.576  0.00  0.00     0.018 C 
ENDBRANCH   1   8
TORSDOF 1
ENDMDL
