MODEL 1
REMARK minimizedAffinity 10.6269493
REMARK minimizedRMSD -1
REMARK  1 active torsions:
REMARK  status: ('A' for Active; 'I' for Inactive)
REMARK    1  A    between atoms: C1_2  and  C2_3 
ROOT
ATOM      1  C2  UNL d   1       2.093  -2.450   1.201  0.00  0.00    -0.081 A 
ATOM      2  C3  UNL d   1       3.482  -2.277   1.195  0.00  0.00     0.006 A 
ATOM      3  C4  UNL d   1       4.329  -3.354   0.921  0.00  0.00     0.002 A 
ATOM      4  C5  UNL d   1       3.800  -4.618   0.641  0.00  0.00    -0.080 A 
ATOM      5  C6  UNL d   1       4.697  -5.776   0.316  0.00  0.00     0.076 C 
ATOM      6  C7  UNL d   1       2.413  -4.795   0.664  0.00  0.00     0.002 A 
ATOM      7  C8  UNL d   1       1.566  -3.719   0.939  0.00  0.00     0.006 A 
ENDROOT
BRANCH   1   8
ATOM      8  C1  UNL d   1       1.175  -1.276   1.432  0.00  0.00     0.054 C 
ATOM      9  C   UNL d   1      -0.027  -1.672   2.277  0.00  0.00     0.018 C 
ENDBRANCH   1   8
TORSDOF 1
ENDMDL
