MODEL 1
REMARK minimizedAffinity 12.223424
REMARK minimizedRMSD -1
REMARK  1 active torsions:
REMARK  status: ('A' for Active; 'I' for Inactive)
REMARK    1  A    between atoms: C1_2  and  C2_3 
ROOT
ATOM      1  C2  UNL d   1       2.103  -1.941   2.306  0.00  0.00    -0.081 A 
ATOM      2  C3  UNL d   1       1.523  -2.167   1.052  0.00  0.00     0.006 A 
ATOM      3  C4  UNL d   1       1.995  -3.191   0.228  0.00  0.00     0.002 A 
ATOM      4  C5  UNL d   1       3.049  -4.010   0.647  0.00  0.00    -0.080 A 
ATOM      5  C6  UNL d   1       3.545  -5.133  -0.216  0.00  0.00     0.076 C 
ATOM      6  C7  UNL d   1       3.640  -3.773   1.892  0.00  0.00     0.002 A 
ATOM      7  C8  UNL d   1       3.169  -2.749   2.717  0.00  0.00     0.006 A 
ENDROOT
BRANCH   1   8
ATOM      8  C1  UNL d   1       1.554  -0.879   3.225  0.00  0.00     0.054 C 
ATOM      9  C   UNL d   1       0.032  -0.907   3.256  0.00  0.00     0.018 C 
ENDBRANCH   1   8
TORSDOF 1
ENDMDL
