MODEL 1
REMARK minimizedAffinity 12.9299793
REMARK minimizedRMSD -1
REMARK  1 active torsions:
REMARK  status: ('A' for Active; 'I' for Inactive)
REMARK    1  A    between atoms: C1_2  and  C2_3 
ROOT
ATOM      1  C2  UNL d   1       4.952   2.524  -5.422  0.00  0.00    -0.081 A 
ATOM      2  C3  UNL d   1       4.003   1.553  -5.763  0.00  0.00     0.006 A 
ATOM      3  C4  UNL d   1       4.050   0.282  -5.184  0.00  0.00     0.002 A 
ATOM      4  C5  UNL d   1       5.041  -0.036  -4.250  0.00  0.00    -0.080 A 
ATOM      5  C6  UNL d   1       5.085  -1.386  -3.598  0.00  0.00     0.076 C 
ATOM      6  C7  UNL d   1       6.000   0.928  -3.922  0.00  0.00     0.002 A 
ATOM      7  C8  UNL d   1       5.954   2.199  -4.500  0.00  0.00     0.006 A 
ENDROOT
BRANCH   1   8
ATOM      8  C1  UNL d   1       4.866   3.915  -5.995  0.00  0.00     0.054 C 
ATOM      9  C   UNL d   1       5.995   4.796  -5.482  0.00  0.00     0.018 C 
ENDBRANCH   1   8
TORSDOF 1
ENDMDL
