MODEL 1
REMARK minimizedAffinity 8.75161457
REMARK minimizedRMSD -1
REMARK  1 active torsions:
REMARK  status: ('A' for Active; 'I' for Inactive)
REMARK    1  A    between atoms: C1_2  and  C2_3 
ROOT
ATOM      1  C2  UNL d   1      -0.540   2.297  -4.006  0.00  0.00    -0.081 A 
ATOM      2  C3  UNL d   1      -0.955   2.162  -5.336  0.00  0.00     0.006 A 
ATOM      3  C4  UNL d   1      -2.303   1.957  -5.640  0.00  0.00     0.002 A 
ATOM      4  C5  UNL d   1      -3.258   1.892  -4.620  0.00  0.00    -0.080 A 
ATOM      5  C6  UNL d   1      -4.713   1.703  -4.934  0.00  0.00     0.076 C 
ATOM      6  C7  UNL d   1      -2.841   2.009  -3.290  0.00  0.00     0.002 A 
ATOM      7  C8  UNL d   1      -1.493   2.213  -2.986  0.00  0.00     0.006 A 
ENDROOT
BRANCH   1   8
ATOM      8  C1  UNL d   1       0.904   2.582  -3.679  0.00  0.00     0.054 C 
ATOM      9  C   UNL d   1       1.429   3.766  -4.479  0.00  0.00     0.018 C 
ENDBRANCH   1   8
TORSDOF 1
ENDMDL
