MODEL 1
REMARK minimizedAffinity -3.80984426
REMARK minimizedRMSD -1
REMARK  1 active torsions:
REMARK  status: ('A' for Active; 'I' for Inactive)
REMARK    1  A    between atoms: C3_4  and  O_7 
ROOT
ATOM      1  C   UNL d   1       2.995   5.986   4.808  0.00  0.00    -0.033 A 
ATOM      2  C1  UNL d   1       1.850   5.814   5.588  0.00  0.00     0.039 A 
ATOM      3  C2  UNL d   1       1.470   4.535   6.000  0.00  0.00    -0.080 A 
ATOM      4  C3  UNL d   1       2.242   3.439   5.626  0.00  0.00     0.150 A 
ATOM      5  C4  UNL d   1       3.386   3.604   4.851  0.00  0.00    -0.007 A 
ATOM      6  C5  UNL d   1       3.764   4.881   4.441  0.00  0.00     0.039 A 
ENDROOT
BRANCH   4   7
ATOM      7  O   UNL d   1       1.909   2.171   5.999  0.00  0.00    -0.526 OA
ATOM      8  H5  UNL d   1       1.080   2.207   6.506  0.00  0.00     0.418 HD
ENDBRANCH   4   7
TORSDOF 1
ENDMDL
