MODEL 1
REMARK minimizedAffinity 2.7164855
REMARK minimizedRMSD -1
REMARK  1 active torsions:
REMARK  status: ('A' for Active; 'I' for Inactive)
REMARK    1  A    between atoms: C3_4  and  O_7 
ROOT
ATOM      1  C   UNL d   1       2.278  -2.240  -0.752  0.00  0.00    -0.033 A 
ATOM      2  C1  UNL d   1       2.463  -1.082   0.005  0.00  0.00     0.039 A 
ATOM      3  C2  UNL d   1       3.142   0.010  -0.539  0.00  0.00    -0.080 A 
ATOM      4  C3  UNL d   1       3.630  -0.069  -1.840  0.00  0.00     0.150 A 
ATOM      5  C4  UNL d   1       3.447  -1.218  -2.602  0.00  0.00    -0.007 A 
ATOM      6  C5  UNL d   1       2.769  -2.308  -2.057  0.00  0.00     0.039 A 
ENDROOT
BRANCH   4   7
ATOM      7  O   UNL d   1       4.304   0.969  -2.413  0.00  0.00    -0.526 OA
ATOM      8  H5  UNL d   1       4.380   1.684  -1.760  0.00  0.00     0.418 HD
ENDBRANCH   4   7
TORSDOF 1
ENDMDL
