MODEL 1
REMARK minimizedAffinity -0.387539864
REMARK minimizedRMSD -1
REMARK  1 active torsions:
REMARK  status: ('A' for Active; 'I' for Inactive)
REMARK    1  A    between atoms: C3_4  and  O_7 
ROOT
ATOM      1  C   UNL d   1       2.628   5.691   5.997  0.00  0.00    -0.033 A 
ATOM      2  C1  UNL d   1       1.759   4.599   6.000  0.00  0.00     0.039 A 
ATOM      3  C2  UNL d   1       2.269   3.299   6.000  0.00  0.00    -0.080 A 
ATOM      4  C3  UNL d   1       3.647   3.106   5.998  0.00  0.00     0.150 A 
ATOM      5  C4  UNL d   1       4.519   4.190   6.000  0.00  0.00    -0.007 A 
ATOM      6  C5  UNL d   1       4.008   5.487   5.999  0.00  0.00     0.039 A 
ENDROOT
BRANCH   4   7
ATOM      7  O   UNL d   1       4.191   1.856   5.993  0.00  0.00    -0.526 OA
ATOM      8  H5  UNL d   1       3.470   1.206   5.963  0.00  0.00     0.418 HD
ENDBRANCH   4   7
TORSDOF 1
ENDMDL
