MODEL 1
REMARK minimizedAffinity 6.80264568
REMARK minimizedRMSD -1
REMARK  1 active torsions:
REMARK  status: ('A' for Active; 'I' for Inactive)
REMARK    1  A    between atoms: C3_4  and  O_7 
ROOT
ATOM      1  C   UNL d   1       6.000   2.246   0.981  0.00  0.00    -0.033 A 
ATOM      2  C1  UNL d   1       4.798   2.728   1.504  0.00  0.00     0.039 A 
ATOM      3  C2  UNL d   1       3.582   2.206   1.059  0.00  0.00    -0.080 A 
ATOM      4  C3  UNL d   1       3.581   1.204   0.093  0.00  0.00     0.150 A 
ATOM      5  C4  UNL d   1       4.775   0.717  -0.430  0.00  0.00    -0.007 A 
ATOM      6  C5  UNL d   1       5.988   1.240   0.015  0.00  0.00     0.039 A 
ENDROOT
BRANCH   4   7
ATOM      7  O   UNL d   1       2.419   0.668  -0.376  0.00  0.00    -0.526 OA
ATOM      8  H5  UNL d   1       1.675   1.121   0.054  0.00  0.00     0.418 HD
ENDBRANCH   4   7
TORSDOF 1
ENDMDL
