MODEL 1
REMARK minimizedAffinity 6.54043102
REMARK minimizedRMSD -1
REMARK  1 active torsions:
REMARK  status: ('A' for Active; 'I' for Inactive)
REMARK    1  A    between atoms: C3_4  and  O_7 
ROOT
ATOM      1  C   UNL d   1       2.588   0.671  -1.064  0.00  0.00    -0.033 A 
ATOM      2  C1  UNL d   1       2.928   0.825   0.282  0.00  0.00     0.039 A 
ATOM      3  C2  UNL d   1       3.211  -0.295   1.065  0.00  0.00    -0.080 A 
ATOM      4  C3  UNL d   1       3.152  -1.562   0.491  0.00  0.00     0.150 A 
ATOM      5  C4  UNL d   1       2.819  -1.723  -0.850  0.00  0.00    -0.007 A 
ATOM      6  C5  UNL d   1       2.535  -0.603  -1.630  0.00  0.00     0.039 A 
ENDROOT
BRANCH   4   7
ATOM      7  O   UNL d   1       3.416  -2.686   1.217  0.00  0.00    -0.526 OA
ATOM      8  H5  UNL d   1       3.603  -2.423   2.133  0.00  0.00     0.418 HD
ENDBRANCH   4   7
TORSDOF 1
ENDMDL
