MODEL 1
REMARK minimizedAffinity -0.246087149
REMARK minimizedRMSD -1
REMARK  1 active torsions:
REMARK  status: ('A' for Active; 'I' for Inactive)
REMARK    1  A    between atoms: C3_4  and  O_7 
ROOT
ATOM      1  C   UNL d   1       3.273  -0.278  -0.038  0.00  0.00    -0.033 A 
ATOM      2  C1  UNL d   1       3.211  -1.564   0.502  0.00  0.00     0.039 A 
ATOM      3  C2  UNL d   1       2.198  -2.440   0.106  0.00  0.00    -0.080 A 
ATOM      4  C3  UNL d   1       1.257  -2.020  -0.829  0.00  0.00     0.150 A 
ATOM      5  C4  UNL d   1       1.315  -0.741  -1.373  0.00  0.00    -0.007 A 
ATOM      6  C5  UNL d   1       2.326   0.133  -0.977  0.00  0.00     0.039 A 
ENDROOT
BRANCH   4   7
ATOM      7  O   UNL d   1       0.248  -2.838  -1.242  0.00  0.00    -0.526 OA
ATOM      8  H5  UNL d   1       0.316  -3.679  -0.760  0.00  0.00     0.418 HD
ENDBRANCH   4   7
TORSDOF 1
ENDMDL
