MODEL 1
REMARK minimizedAffinity 1.75131655
REMARK minimizedRMSD -1
REMARK  1 active torsions:
REMARK  status: ('A' for Active; 'I' for Inactive)
REMARK    1  A    between atoms: C3_4  and  O_7 
ROOT
ATOM      1  C   UNL d   1      -1.978   0.166  -2.107  0.00  0.00    -0.033 A 
ATOM      2  C1  UNL d   1      -3.164  -0.451  -1.707  0.00  0.00     0.039 A 
ATOM      3  C2  UNL d   1      -3.836  -0.005  -0.567  0.00  0.00    -0.080 A 
ATOM      4  C3  UNL d   1      -3.313   1.059   0.162  0.00  0.00     0.150 A 
ATOM      5  C4  UNL d   1      -2.133   1.682  -0.233  0.00  0.00    -0.007 A 
ATOM      6  C5  UNL d   1      -1.463   1.234  -1.370  0.00  0.00     0.039 A 
ENDROOT
BRANCH   4   7
ATOM      7  O   UNL d   1      -3.931   1.527   1.284  0.00  0.00    -0.526 OA
ATOM      8  H5  UNL d   1      -4.718   0.982   1.451  0.00  0.00     0.418 HD
ENDBRANCH   4   7
TORSDOF 1
ENDMDL
