MODEL 1
REMARK minimizedAffinity -2.49453878
REMARK minimizedRMSD -1
REMARK  1 active torsions:
REMARK  status: ('A' for Active; 'I' for Inactive)
REMARK    1  A    between atoms: C3_4  and  O_7 
ROOT
ATOM      1  C   UNL d   1       1.587   4.834   4.938  0.00  0.00    -0.033 A 
ATOM      2  C1  UNL d   1       2.240   3.600   4.920  0.00  0.00     0.039 A 
ATOM      3  C2  UNL d   1       3.612   3.530   5.169  0.00  0.00    -0.080 A 
ATOM      4  C3  UNL d   1       4.318   4.700   5.435  0.00  0.00     0.150 A 
ATOM      5  C4  UNL d   1       3.673   5.932   5.458  0.00  0.00    -0.007 A 
ATOM      6  C5  UNL d   1       2.303   6.000   5.208  0.00  0.00     0.039 A 
ENDROOT
BRANCH   4   7
ATOM      7  O   UNL d   1       5.659   4.683   5.680  0.00  0.00    -0.526 OA
ATOM      8  H5  UNL d   1       5.974   3.767   5.602  0.00  0.00     0.418 HD
ENDBRANCH   4   7
TORSDOF 1
ENDMDL
