MODEL 1
REMARK minimizedAffinity -0.0879327729
REMARK minimizedRMSD -1
REMARK  1 active torsions:
REMARK  status: ('A' for Active; 'I' for Inactive)
REMARK    1  A    between atoms: C3_4  and  O_7 
ROOT
ATOM      1  C   UNL d   1      -1.755   4.118   5.328  0.00  0.00    -0.033 A 
ATOM      2  C1  UNL d   1      -1.478   5.347   5.929  0.00  0.00     0.039 A 
ATOM      3  C2  UNL d   1      -0.269   5.996   5.669  0.00  0.00    -0.080 A 
ATOM      4  C3  UNL d   1       0.651   5.407   4.807  0.00  0.00     0.150 A 
ATOM      5  C4  UNL d   1       0.380   4.184   4.202  0.00  0.00    -0.007 A 
ATOM      6  C5  UNL d   1      -0.827   3.537   4.464  0.00  0.00     0.039 A 
ENDROOT
BRANCH   4   7
ATOM      7  O   UNL d   1       1.846   6.000   4.526  0.00  0.00    -0.526 OA
ATOM      8  H5  UNL d   1       1.908   6.824   5.037  0.00  0.00     0.418 HD
ENDBRANCH   4   7
TORSDOF 1
ENDMDL
