MODEL 1
REMARK minimizedAffinity 0.344973028
REMARK minimizedRMSD -1
REMARK  0 active torsions:
REMARK  status: ('A' for Active; 'I' for Inactive)
ROOT
ATOM      1  C   UNL d   1       1.378  -1.903   2.670  0.00  0.00     0.078 C 
ATOM      2  C1  UNL d   1       0.401  -2.715   1.873  0.00  0.00    -0.077 A 
ATOM      3  C2  UNL d   1      -0.979  -2.517   2.006  0.00  0.00    -0.001 A 
ATOM      4  C3  UNL d   1      -1.877  -3.287   1.264  0.00  0.00     0.003 A 
ATOM      5  C4  UNL d   1      -1.405  -4.260   0.386  0.00  0.00    -0.005 A 
ATOM      6  C5  UNL d   1      -0.033  -4.466   0.249  0.00  0.00     0.003 A 
ATOM      7  C6  UNL d   1       0.866  -3.697   0.990  0.00  0.00    -0.001 A 
ENDROOT
TORSDOF 0
ENDMDL
