MODEL 1
REMARK minimizedAffinity -2.37630296
REMARK minimizedRMSD -1
REMARK  0 active torsions:
REMARK  status: ('A' for Active; 'I' for Inactive)
ROOT
ATOM      1  C   UNL d   1      -6.000  -5.628  -5.961  0.00  0.00     0.078 C 
ATOM      2  C1  UNL d   1      -4.664  -5.642  -5.278  0.00  0.00    -0.077 A 
ATOM      3  C2  UNL d   1      -4.542  -5.300  -3.926  0.00  0.00    -0.001 A 
ATOM      4  C3  UNL d   1      -3.291  -5.308  -3.306  0.00  0.00     0.003 A 
ATOM      5  C4  UNL d   1      -2.153  -5.656  -4.031  0.00  0.00    -0.005 A 
ATOM      6  C5  UNL d   1      -2.265  -5.995  -5.378  0.00  0.00     0.003 A 
ATOM      7  C6  UNL d   1      -3.515  -5.988  -6.000  0.00  0.00    -0.001 A 
ENDROOT
TORSDOF 0
ENDMDL
