MODEL 1
REMARK minimizedAffinity 3.16832089
REMARK minimizedRMSD -1
REMARK  0 active torsions:
REMARK  status: ('A' for Active; 'I' for Inactive)
ROOT
ATOM      1  C   UNL d   1       1.304   3.682  -2.482  0.00  0.00     0.078 C 
ATOM      2  C1  UNL d   1       0.627   4.235  -3.700  0.00  0.00    -0.077 A 
ATOM      3  C2  UNL d   1      -0.751   4.485  -3.709  0.00  0.00    -0.001 A 
ATOM      4  C3  UNL d   1      -1.370   4.991  -4.853  0.00  0.00     0.003 A 
ATOM      5  C4  UNL d   1      -0.619   5.250  -5.998  0.00  0.00    -0.005 A 
ATOM      6  C5  UNL d   1       0.753   5.002  -6.000  0.00  0.00     0.003 A 
ATOM      7  C6  UNL d   1       1.373   4.496  -4.856  0.00  0.00    -0.001 A 
ENDROOT
TORSDOF 0
ENDMDL
