MODEL 1
REMARK minimizedAffinity 4.59953356
REMARK minimizedRMSD -1
REMARK  0 active torsions:
REMARK  status: ('A' for Active; 'I' for Inactive)
ROOT
ATOM      1  C   UNL d   1       1.451   3.538  -2.814  0.00  0.00     0.078 C 
ATOM      2  C1  UNL d   1       0.670   4.189  -3.916  0.00  0.00    -0.077 A 
ATOM      3  C2  UNL d   1      -0.729   4.150  -3.929  0.00  0.00    -0.001 A 
ATOM      4  C3  UNL d   1      -1.443   4.751  -4.966  0.00  0.00     0.003 A 
ATOM      5  C4  UNL d   1      -0.766   5.396  -6.000  0.00  0.00    -0.005 A 
ATOM      6  C5  UNL d   1       0.627   5.438  -5.997  0.00  0.00     0.003 A 
ATOM      7  C6  UNL d   1       1.343   4.836  -4.960  0.00  0.00    -0.001 A 
ENDROOT
TORSDOF 0
ENDMDL
