MODEL 1
REMARK minimizedAffinity 2.61370015
REMARK minimizedRMSD -1
REMARK  0 active torsions:
REMARK  status: ('A' for Active; 'I' for Inactive)
ROOT
ATOM      1  C   UNL d   1       1.283   2.561  -2.780  0.00  0.00     0.078 C 
ATOM      2  C1  UNL d   1       0.980   3.513  -3.898  0.00  0.00    -0.077 A 
ATOM      3  C2  UNL d   1       1.938   4.432  -4.342  0.00  0.00    -0.001 A 
ATOM      4  C3  UNL d   1       1.639   5.319  -5.377  0.00  0.00     0.003 A 
ATOM      5  C4  UNL d   1       0.381   5.297  -5.976  0.00  0.00    -0.005 A 
ATOM      6  C5  UNL d   1      -0.580   4.387  -5.539  0.00  0.00     0.003 A 
ATOM      7  C6  UNL d   1      -0.282   3.499  -4.504  0.00  0.00    -0.001 A 
ENDROOT
TORSDOF 0
ENDMDL
