MODEL 1
REMARK minimizedAffinity 1.87867284
REMARK minimizedRMSD -1
REMARK  0 active torsions:
REMARK  status: ('A' for Active; 'I' for Inactive)
ROOT
ATOM      1  C   UNL d   1       1.488   3.781  -2.743  0.00  0.00     0.078 C 
ATOM      2  C1  UNL d   1       0.742   4.538  -3.801  0.00  0.00    -0.077 A 
ATOM      3  C2  UNL d   1      -0.594   4.912  -3.613  0.00  0.00    -0.001 A 
ATOM      4  C3  UNL d   1      -1.279   5.608  -4.610  0.00  0.00     0.003 A 
ATOM      5  C4  UNL d   1      -0.637   5.935  -5.803  0.00  0.00    -0.005 A 
ATOM      6  C5  UNL d   1       0.692   5.564  -6.000  0.00  0.00     0.003 A 
ATOM      7  C6  UNL d   1       1.378   4.868  -5.004  0.00  0.00    -0.001 A 
ENDROOT
TORSDOF 0
ENDMDL
