MODEL 1
REMARK minimizedAffinity -1.84306192
REMARK minimizedRMSD -1
REMARK  0 active torsions:
REMARK  status: ('A' for Active; 'I' for Inactive)
ROOT
ATOM      1  C   UNL d   1      -5.994   0.590  -5.916  0.00  0.00     0.078 C 
ATOM      2  C1  UNL d   1      -5.983   0.756  -4.425  0.00  0.00    -0.077 A 
ATOM      3  C2  UNL d   1      -5.969  -0.356  -3.575  0.00  0.00    -0.001 A 
ATOM      4  C3  UNL d   1      -5.969  -0.186  -2.190  0.00  0.00     0.003 A 
ATOM      5  C4  UNL d   1      -5.984   1.095  -1.642  0.00  0.00    -0.005 A 
ATOM      6  C5  UNL d   1      -6.000   2.208  -2.480  0.00  0.00     0.003 A 
ATOM      7  C6  UNL d   1      -6.000   2.040  -3.866  0.00  0.00    -0.001 A 
ENDROOT
TORSDOF 0
ENDMDL
