MODEL 1
REMARK minimizedAffinity 2.84077859
REMARK minimizedRMSD -1
REMARK  0 active torsions:
REMARK  status: ('A' for Active; 'I' for Inactive)
ROOT
ATOM      1  C   UNL d   1      -0.800  -5.783  -4.988  0.00  0.00     0.078 C 
ATOM      2  C1  UNL d   1      -2.292  -5.852  -4.854  0.00  0.00    -0.077 A 
ATOM      3  C2  UNL d   1      -2.901  -5.906  -3.594  0.00  0.00    -0.001 A 
ATOM      4  C3  UNL d   1      -4.291  -5.979  -3.484  0.00  0.00     0.003 A 
ATOM      5  C4  UNL d   1      -5.083  -6.000  -4.630  0.00  0.00    -0.005 A 
ATOM      6  C5  UNL d   1      -4.486  -5.948  -5.888  0.00  0.00     0.003 A 
ATOM      7  C6  UNL d   1      -3.097  -5.875  -6.000  0.00  0.00    -0.001 A 
ENDROOT
TORSDOF 0
ENDMDL
