MODEL 1
REMARK minimizedAffinity 1.46006227
REMARK minimizedRMSD -1
REMARK  0 active torsions:
REMARK  status: ('A' for Active; 'I' for Inactive)
ROOT
ATOM      1  C   UNL d   1       2.096   4.292  -2.978  0.00  0.00     0.078 C 
ATOM      2  C1  UNL d   1       1.087   4.666  -4.021  0.00  0.00    -0.077 A 
ATOM      3  C2  UNL d   1      -0.185   4.080  -4.038  0.00  0.00    -0.001 A 
ATOM      4  C3  UNL d   1      -1.111   4.431  -5.022  0.00  0.00     0.003 A 
ATOM      5  C4  UNL d   1      -0.775   5.369  -5.996  0.00  0.00    -0.005 A 
ATOM      6  C5  UNL d   1       0.488   5.956  -5.989  0.00  0.00     0.003 A 
ATOM      7  C6  UNL d   1       1.416   5.606  -5.006  0.00  0.00    -0.001 A 
ENDROOT
TORSDOF 0
ENDMDL
