MODEL 1
REMARK minimizedAffinity 2.23660421
REMARK minimizedRMSD -1
REMARK  0 active torsions:
REMARK  status: ('A' for Active; 'I' for Inactive)
ROOT
ATOM      1  C   UNL d   1       1.498   3.402  -2.620  0.00  0.00     0.078 C 
ATOM      2  C1  UNL d   1       0.888   4.090  -3.805  0.00  0.00    -0.077 A 
ATOM      3  C2  UNL d   1       1.689   4.608  -4.829  0.00  0.00    -0.001 A 
ATOM      4  C3  UNL d   1       1.108   5.254  -5.922  0.00  0.00     0.003 A 
ATOM      5  C4  UNL d   1      -0.277   5.389  -5.999  0.00  0.00    -0.005 A 
ATOM      6  C5  UNL d   1      -1.082   4.878  -4.983  0.00  0.00     0.003 A 
ATOM      7  C6  UNL d   1      -0.503   4.232  -3.890  0.00  0.00    -0.001 A 
ENDROOT
TORSDOF 0
ENDMDL
