MODEL 1
REMARK minimizedAffinity 3.65273523
REMARK minimizedRMSD -1
REMARK  0 active torsions:
REMARK  status: ('A' for Active; 'I' for Inactive)
ROOT
ATOM      1  C   UNL d   1       1.129   3.460  -2.813  0.00  0.00     0.078 C 
ATOM      2  C1  UNL d   1       0.626   4.343  -3.915  0.00  0.00    -0.077 A 
ATOM      3  C2  UNL d   1      -0.697   4.802  -3.924  0.00  0.00    -0.001 A 
ATOM      4  C3  UNL d   1      -1.154   5.616  -4.962  0.00  0.00     0.003 A 
ATOM      5  C4  UNL d   1      -0.296   5.976  -5.999  0.00  0.00    -0.005 A 
ATOM      6  C5  UNL d   1       1.021   5.522  -6.000  0.00  0.00     0.003 A 
ATOM      7  C6  UNL d   1       1.481   4.709  -4.963  0.00  0.00    -0.001 A 
ENDROOT
TORSDOF 0
ENDMDL
