MODEL 1
REMARK minimizedAffinity 0.779174209
REMARK minimizedRMSD -1
REMARK  0 active torsions:
REMARK  status: ('A' for Active; 'I' for Inactive)
ROOT
ATOM      1  C   UNL d   1      -0.479   5.245  -6.000  0.00  0.00     0.078 C 
ATOM      2  C1  UNL d   1       0.372   4.601  -4.947  0.00  0.00    -0.077 A 
ATOM      3  C2  UNL d   1       1.691   5.019  -4.731  0.00  0.00    -0.001 A 
ATOM      4  C3  UNL d   1       2.476   4.404  -3.754  0.00  0.00     0.003 A 
ATOM      5  C4  UNL d   1       1.951   3.366  -2.986  0.00  0.00    -0.005 A 
ATOM      6  C5  UNL d   1       0.640   2.942  -3.196  0.00  0.00     0.003 A 
ATOM      7  C6  UNL d   1      -0.146   3.556  -4.172  0.00  0.00    -0.001 A 
ENDROOT
TORSDOF 0
ENDMDL
