MODEL 1
REMARK minimizedAffinity 3.29532743
REMARK minimizedRMSD -1
REMARK  0 active torsions:
REMARK  status: ('A' for Active; 'I' for Inactive)
ROOT
ATOM      1  C   UNL d   1      -5.276  -5.784  -4.871  0.00  0.00     0.078 C 
ATOM      2  C1  UNL d   1      -3.778  -5.800  -4.817  0.00  0.00    -0.077 A 
ATOM      3  C2  UNL d   1      -3.098  -5.612  -3.607  0.00  0.00    -0.001 A 
ATOM      4  C3  UNL d   1      -1.703  -5.619  -3.574  0.00  0.00     0.003 A 
ATOM      5  C4  UNL d   1      -0.975  -5.814  -4.746  0.00  0.00    -0.005 A 
ATOM      6  C5  UNL d   1      -1.643  -6.000  -5.955  0.00  0.00     0.003 A 
ATOM      7  C6  UNL d   1      -3.038  -5.992  -5.991  0.00  0.00    -0.001 A 
ENDROOT
TORSDOF 0
ENDMDL
