MODEL 1
REMARK minimizedAffinity 5.29747915
REMARK minimizedRMSD -1
REMARK  0 active torsions:
REMARK  status: ('A' for Active; 'I' for Inactive)
ROOT
ATOM      1  C   UNL d   1       1.536   3.961  -2.529  0.00  0.00     0.078 C 
ATOM      2  C1  UNL d   1       0.862   4.532  -3.741  0.00  0.00    -0.077 A 
ATOM      3  C2  UNL d   1       1.599   4.872  -4.882  0.00  0.00    -0.001 A 
ATOM      4  C3  UNL d   1       0.960   5.412  -6.000  0.00  0.00     0.003 A 
ATOM      5  C4  UNL d   1      -0.418   5.617  -5.986  0.00  0.00    -0.005 A 
ATOM      6  C5  UNL d   1      -1.159   5.284  -4.854  0.00  0.00     0.003 A 
ATOM      7  C6  UNL d   1      -0.522   4.744  -3.736  0.00  0.00    -0.001 A 
ENDROOT
TORSDOF 0
ENDMDL
