MODEL 1
REMARK minimizedAffinity 2.71937275
REMARK minimizedRMSD -1
REMARK  0 active torsions:
REMARK  status: ('A' for Active; 'I' for Inactive)
ROOT
ATOM      1  C   UNL d   1      -0.622   5.503  -5.999  0.00  0.00     0.078 C 
ATOM      2  C1  UNL d   1       0.220   5.001  -4.864  0.00  0.00    -0.077 A 
ATOM      3  C2  UNL d   1      -0.180   3.897  -4.102  0.00  0.00    -0.001 A 
ATOM      4  C3  UNL d   1       0.610   3.447  -3.042  0.00  0.00     0.003 A 
ATOM      5  C4  UNL d   1       1.804   4.096  -2.735  0.00  0.00    -0.005 A 
ATOM      6  C5  UNL d   1       2.209   5.197  -3.487  0.00  0.00     0.003 A 
ATOM      7  C6  UNL d   1       1.421   5.648  -4.546  0.00  0.00    -0.001 A 
ENDROOT
TORSDOF 0
ENDMDL
