MODEL 1
REMARK minimizedAffinity 4.00046062
REMARK minimizedRMSD -1
REMARK  0 active torsions:
REMARK  status: ('A' for Active; 'I' for Inactive)
ROOT
ATOM      1  C   UNL d   1       0.279   2.834  -2.823  0.00  0.00     0.078 C 
ATOM      2  C1  UNL d   1      -0.144   3.914  -3.773  0.00  0.00    -0.077 A 
ATOM      3  C2  UNL d   1       0.239   3.880  -5.120  0.00  0.00    -0.001 A 
ATOM      4  C3  UNL d   1      -0.154   4.897  -5.991  0.00  0.00     0.003 A 
ATOM      5  C4  UNL d   1      -0.930   5.956  -5.525  0.00  0.00    -0.005 A 
ATOM      6  C5  UNL d   1      -1.314   6.000  -4.187  0.00  0.00     0.003 A 
ATOM      7  C6  UNL d   1      -0.922   4.983  -3.314  0.00  0.00    -0.001 A 
ENDROOT
TORSDOF 0
ENDMDL
