MODEL 1
REMARK minimizedAffinity 5.95685482
REMARK minimizedRMSD -1
REMARK  0 active torsions:
REMARK  status: ('A' for Active; 'I' for Inactive)
ROOT
ATOM      1  C   UNL d   1       2.094  -2.929   4.042  0.00  0.00     0.078 C 
ATOM      2  C1  UNL d   1       2.599  -1.785   3.214  0.00  0.00    -0.077 A 
ATOM      3  C2  UNL d   1       1.748  -0.743   2.828  0.00  0.00    -0.001 A 
ATOM      4  C3  UNL d   1       2.230   0.311   2.050  0.00  0.00     0.003 A 
ATOM      5  C4  UNL d   1       3.565   0.332   1.651  0.00  0.00    -0.005 A 
ATOM      6  C5  UNL d   1       4.419  -0.702   2.028  0.00  0.00     0.003 A 
ATOM      7  C6  UNL d   1       3.939  -1.756   2.806  0.00  0.00    -0.001 A 
ENDROOT
TORSDOF 0
ENDMDL
