MODEL 1
REMARK minimizedAffinity -0.115786895
REMARK minimizedRMSD -1
REMARK  0 active torsions:
REMARK  status: ('A' for Active; 'I' for Inactive)
ROOT
ATOM      1  C2' OXE d   1      -2.082   0.746   0.011  0.00  0.00     0.078 C 
ATOM      2  C1' OXE d   1       0.658   0.194  -0.245  0.00  0.00     0.078 C 
ATOM      3  C1  OXE d   1       0.008  -0.078   1.088  0.00  0.00    -0.078 A 
ATOM      4  C2  OXE d   1      -1.323   0.239   1.219  0.00  0.00    -0.078 A 
ATOM      5  C3  OXE d   1      -1.985  -0.042   2.410  0.00  0.00     0.003 A 
ATOM      6  C4  OXE d   1      -1.274  -0.502   3.525  0.00  0.00    -0.002 A 
ATOM      7  C5  OXE d   1       0.091  -0.794   3.426  0.00  0.00    -0.002 A 
ATOM      8  C6  OXE d   1       0.736  -0.628   2.205  0.00  0.00     0.003 A 
ENDROOT
TORSDOF 0
ENDMDL
