MODEL 1
REMARK minimizedAffinity 7.38044119
REMARK minimizedRMSD -1
REMARK  0 active torsions:
REMARK  status: ('A' for Active; 'I' for Inactive)
ROOT
ATOM      1  C2' OXE d   1       1.013  -0.463   0.387  0.00  0.00     0.078 C 
ATOM      2  C1' OXE d   1       0.470  -0.840   3.116  0.00  0.00     0.078 C 
ATOM      3  C1  OXE d   1      -0.677  -0.450   2.217  0.00  0.00    -0.078 A 
ATOM      4  C2  OXE d   1      -0.393  -0.222   0.892  0.00  0.00    -0.078 A 
ATOM      5  C3  OXE d   1      -1.425   0.087   0.010  0.00  0.00     0.003 A 
ATOM      6  C4  OXE d   1      -2.721   0.318   0.487  0.00  0.00    -0.002 A 
ATOM      7  C5  OXE d   1      -3.023   0.130   1.840  0.00  0.00    -0.002 A 
ATOM      8  C6  OXE d   1      -2.024  -0.294   2.709  0.00  0.00     0.003 A 
ENDROOT
TORSDOF 0
ENDMDL
