MODEL 1
REMARK minimizedAffinity 3.35996747
REMARK minimizedRMSD -1
REMARK  0 active torsions:
REMARK  status: ('A' for Active; 'I' for Inactive)
ROOT
ATOM      1  C2' OXE d   1      -2.563   0.343   1.574  0.00  0.00     0.078 C 
ATOM      2  C1' OXE d   1      -0.162   0.619   0.147  0.00  0.00     0.078 C 
ATOM      3  C1  OXE d   1      -0.112  -0.092   1.477  0.00  0.00    -0.078 A 
ATOM      4  C2  OXE d   1      -1.284  -0.181   2.190  0.00  0.00    -0.078 A 
ATOM      5  C3  OXE d   1      -1.305  -0.874   3.397  0.00  0.00     0.003 A 
ATOM      6  C4  OXE d   1      -0.115  -1.347   3.964  0.00  0.00    -0.002 A 
ATOM      7  C5  OXE d   1       1.096  -1.231   3.273  0.00  0.00    -0.002 A 
ATOM      8  C6  OXE d   1       1.107  -0.645   2.012  0.00  0.00     0.003 A 
ENDROOT
TORSDOF 0
ENDMDL
