MODEL 1
REMARK minimizedAffinity 9.22306347
REMARK minimizedRMSD -1
REMARK  0 active torsions:
REMARK  status: ('A' for Active; 'I' for Inactive)
ROOT
ATOM      1  C2' OXE d   1      -2.263   0.940  -0.747  0.00  0.00     0.078 C 
ATOM      2  C1' OXE d   1      -3.814  -1.399  -0.813  0.00  0.00     0.078 C 
ATOM      3  C1  OXE d   1      -3.275  -0.949   0.523  0.00  0.00    -0.078 A 
ATOM      4  C2  OXE d   1      -2.479   0.171   0.538  0.00  0.00    -0.078 A 
ATOM      5  C3  OXE d   1      -2.002   0.661   1.751  0.00  0.00     0.003 A 
ATOM      6  C4  OXE d   1      -2.197  -0.063   2.933  0.00  0.00    -0.002 A 
ATOM      7  C5  OXE d   1      -2.972  -1.227   2.934  0.00  0.00    -0.002 A 
ATOM      8  C6  OXE d   1      -3.553  -1.659   1.746  0.00  0.00     0.003 A 
ENDROOT
TORSDOF 0
ENDMDL
