MODEL 1
REMARK minimizedAffinity 6.30693674
REMARK minimizedRMSD -1
REMARK  0 active torsions:
REMARK  status: ('A' for Active; 'I' for Inactive)
ROOT
ATOM      1  C2' OXE d   1      -3.046  -0.040   2.108  0.00  0.00     0.078 C 
ATOM      2  C1' OXE d   1      -3.132  -0.138  -0.696  0.00  0.00     0.078 C 
ATOM      3  C1  OXE d   1      -1.785  -0.262  -0.029  0.00  0.00    -0.078 A 
ATOM      4  C2  OXE d   1      -1.747  -0.166   1.342  0.00  0.00    -0.078 A 
ATOM      5  C3  OXE d   1      -0.538  -0.328   2.011  0.00  0.00     0.003 A 
ATOM      6  C4  OXE d   1       0.660  -0.434   1.294  0.00  0.00    -0.002 A 
ATOM      7  C5  OXE d   1       0.648  -0.494  -0.104  0.00  0.00    -0.002 A 
ATOM      8  C6  OXE d   1      -0.567  -0.452  -0.777  0.00  0.00     0.003 A 
ENDROOT
TORSDOF 0
ENDMDL
