MODEL 1
REMARK minimizedAffinity 8.11116314
REMARK minimizedRMSD -1
REMARK  0 active torsions:
REMARK  status: ('A' for Active; 'I' for Inactive)
ROOT
ATOM      1  C2' OXE d   1       0.970  -0.250   1.086  0.00  0.00     0.078 C 
ATOM      2  C1' OXE d   1       0.472  -1.483   3.558  0.00  0.00     0.078 C 
ATOM      3  C1  OXE d   1      -0.686  -0.815   2.859  0.00  0.00    -0.078 A 
ATOM      4  C2  OXE d   1      -0.424  -0.174   1.672  0.00  0.00    -0.078 A 
ATOM      5  C3  OXE d   1      -1.467   0.410   0.959  0.00  0.00     0.003 A 
ATOM      6  C4  OXE d   1      -2.750   0.484   1.513  0.00  0.00    -0.002 A 
ATOM      7  C5  OXE d   1      -3.030  -0.128   2.740  0.00  0.00    -0.002 A 
ATOM      8  C6  OXE d   1      -2.021  -0.817   3.404  0.00  0.00     0.003 A 
ENDROOT
TORSDOF 0
ENDMDL
