MODEL 1
REMARK minimizedAffinity 8.71168232
REMARK minimizedRMSD -1
REMARK  0 active torsions:
REMARK  status: ('A' for Active; 'I' for Inactive)
ROOT
ATOM      1  C2' OXE d   1       2.843   5.720  -1.111  0.00  0.00     0.078 C 
ATOM      2  C1' OXE d   1       2.591   4.923   1.568  0.00  0.00     0.078 C 
ATOM      3  C1  OXE d   1       1.331   5.278   0.818  0.00  0.00    -0.078 A 
ATOM      4  C2  OXE d   1       1.469   5.712  -0.478  0.00  0.00    -0.078 A 
ATOM      5  C3  OXE d   1       0.335   6.000  -1.232  0.00  0.00     0.003 A 
ATOM      6  C4  OXE d   1      -0.932   5.999  -0.636  0.00  0.00    -0.002 A 
ATOM      7  C5  OXE d   1      -1.090   5.599   0.695  0.00  0.00    -0.002 A 
ATOM      8  C6  OXE d   1       0.024   5.195   1.422  0.00  0.00     0.003 A 
ENDROOT
TORSDOF 0
ENDMDL
