MODEL 1
REMARK minimizedAffinity 2.91299844
REMARK minimizedRMSD -1
REMARK  0 active torsions:
REMARK  status: ('A' for Active; 'I' for Inactive)
ROOT
ATOM      1  C2' OXE d   1       0.373  -0.744   3.367  0.00  0.00     0.078 C 
ATOM      2  C1' OXE d   1       1.170  -0.447   0.692  0.00  0.00     0.078 C 
ATOM      3  C1  OXE d   1      -0.284  -0.217   1.022  0.00  0.00    -0.078 A 
ATOM      4  C2  OXE d   1      -0.674  -0.410   2.326  0.00  0.00    -0.078 A 
ATOM      5  C3  OXE d   1      -1.992  -0.158   2.695  0.00  0.00     0.003 A 
ATOM      6  C4  OXE d   1      -2.955   0.141   1.724  0.00  0.00    -0.002 A 
ATOM      7  C5  OXE d   1      -2.587   0.303   0.385  0.00  0.00    -0.002 A 
ATOM      8  C6  OXE d   1      -1.250   0.170   0.025  0.00  0.00     0.003 A 
ENDROOT
TORSDOF 0
ENDMDL
