MODEL 1
REMARK minimizedAffinity 2.3406105
REMARK minimizedRMSD -1
REMARK  0 active torsions:
REMARK  status: ('A' for Active; 'I' for Inactive)
ROOT
ATOM      1  C2' OXE d   1      -2.578  -0.388   3.446  0.00  0.00     0.078 C 
ATOM      2  C1' OXE d   1      -0.040  -1.430   4.040  0.00  0.00     0.078 C 
ATOM      3  C1  OXE d   1      -0.314  -1.014   2.617  0.00  0.00    -0.078 A 
ATOM      4  C2  OXE d   1      -1.574  -0.549   2.325  0.00  0.00    -0.078 A 
ATOM      5  C3  OXE d   1      -1.863  -0.100   1.040  0.00  0.00     0.003 A 
ATOM      6  C4  OXE d   1      -0.932  -0.262   0.007  0.00  0.00    -0.002 A 
ATOM      7  C5  OXE d   1       0.343  -0.771   0.274  0.00  0.00    -0.002 A 
ATOM      8  C6  OXE d   1       0.682  -1.111   1.579  0.00  0.00     0.003 A 
ENDROOT
TORSDOF 0
ENDMDL
