MODEL 1
REMARK minimizedAffinity 1.93867946
REMARK minimizedRMSD -1
REMARK  0 active torsions:
REMARK  status: ('A' for Active; 'I' for Inactive)
ROOT
ATOM      1  C2' OXE d   1      -2.142   0.631   0.417  0.00  0.00     0.078 C 
ATOM      2  C1' OXE d   1       0.562   0.158   1.007  0.00  0.00     0.078 C 
ATOM      3  C1  OXE d   1      -0.442  -0.011   2.121  0.00  0.00    -0.078 A 
ATOM      4  C2  OXE d   1      -1.756   0.268   1.835  0.00  0.00    -0.078 A 
ATOM      5  C3  OXE d   1      -2.730   0.076   2.811  0.00  0.00     0.003 A 
ATOM      6  C4  OXE d   1      -2.364  -0.251   4.122  0.00  0.00    -0.002 A 
ATOM      7  C5  OXE d   1      -1.026  -0.500   4.445  0.00  0.00    -0.002 A 
ATOM      8  C6  OXE d   1      -0.059  -0.427   3.448  0.00  0.00     0.003 A 
ENDROOT
TORSDOF 0
ENDMDL
