MODEL 1
REMARK minimizedAffinity -0.151638344
REMARK minimizedRMSD -1
REMARK  0 active torsions:
REMARK  status: ('A' for Active; 'I' for Inactive)
ROOT
ATOM      1  C2' OXE d   1      -0.095  -0.787  -0.845  0.00  0.00     0.078 C 
ATOM      2  C1' OXE d   1      -2.681   0.275  -0.587  0.00  0.00     0.078 C 
ATOM      3  C1  OXE d   1      -1.901   0.007   0.676  0.00  0.00    -0.078 A 
ATOM      4  C2  OXE d   1      -0.655  -0.556   0.542  0.00  0.00    -0.078 A 
ATOM      5  C3  OXE d   1       0.129  -0.773   1.672  0.00  0.00     0.003 A 
ATOM      6  C4  OXE d   1      -0.399  -0.565   2.952  0.00  0.00    -0.002 A 
ATOM      7  C5  OXE d   1      -1.681  -0.029   3.112  0.00  0.00    -0.002 A 
ATOM      8  C6  OXE d   1      -2.427   0.302   1.986  0.00  0.00     0.003 A 
ENDROOT
TORSDOF 0
ENDMDL
