MODEL 1
REMARK minimizedAffinity 11.8350811
REMARK minimizedRMSD -1
REMARK  1 active torsions:
REMARK  status: ('A' for Active; 'I' for Inactive)
REMARK    1  A    between atoms: C1_2  and  C2_3 
ROOT
ATOM      1  C2  UNL d   1       1.898   0.188   3.557  0.00  0.00    -0.076 A 
ATOM      2  C3  UNL d   1       0.862   0.040   2.619  0.00  0.00     0.004 A 
ATOM      3  C4  UNL d   1      -0.459  -0.129   3.029  0.00  0.00    -0.003 A 
ATOM      4  C5  UNL d   1      -0.766  -0.153   4.385  0.00  0.00     0.000 A 
ATOM      5  C6  UNL d   1       0.247   0.009   5.330  0.00  0.00     0.000 A 
ATOM      6  C7  UNL d   1       1.582   0.197   4.933  0.00  0.00    -0.073 A 
ATOM      7  C8  UNL d   1       2.635   0.361   5.994  0.00  0.00     0.078 C 
ENDROOT
BRANCH   1   8
ATOM      8  C1  UNL d   1       3.316   0.341   3.053  0.00  0.00     0.053 C 
ATOM      9  C   UNL d   1       3.533  -0.339   1.710  0.00  0.00     0.018 C 
ENDBRANCH   1   8
TORSDOF 1
ENDMDL
