MODEL 1
REMARK minimizedAffinity 18.9478474
REMARK minimizedRMSD -1
REMARK  1 active torsions:
REMARK  status: ('A' for Active; 'I' for Inactive)
REMARK    1  A    between atoms: C1_2  and  C2_3 
ROOT
ATOM      1  C2  UNL d   1      -2.911   3.673  -2.548  0.00  0.00    -0.076 A 
ATOM      2  C3  UNL d   1      -3.903   2.846  -1.992  0.00  0.00     0.004 A 
ATOM      3  C4  UNL d   1      -4.867   3.363  -1.127  0.00  0.00    -0.003 A 
ATOM      4  C5  UNL d   1      -4.855   4.716  -0.806  0.00  0.00     0.000 A 
ATOM      5  C6  UNL d   1      -3.889   5.554  -1.362  0.00  0.00     0.000 A 
ATOM      6  C7  UNL d   1      -2.920   5.052  -2.248  0.00  0.00    -0.073 A 
ATOM      7  C8  UNL d   1      -1.899   6.000  -2.814  0.00  0.00     0.078 C 
ENDROOT
BRANCH   1   8
ATOM      8  C1  UNL d   1      -1.876   3.051  -3.457  0.00  0.00     0.053 C 
ATOM      9  C   UNL d   1      -0.676   2.515  -2.693  0.00  0.00     0.018 C 
ENDBRANCH   1   8
TORSDOF 1
ENDMDL
