MODEL 1
REMARK minimizedAffinity 20.4114914
REMARK minimizedRMSD -1
REMARK  1 active torsions:
REMARK  status: ('A' for Active; 'I' for Inactive)
REMARK    1  A    between atoms: C1_2  and  C2_3 
ROOT
ATOM      1  C2  UNL d   1      -2.801   3.753  -2.342  0.00  0.00    -0.076 A 
ATOM      2  C3  UNL d   1      -3.727   3.053  -1.549  0.00  0.00     0.004 A 
ATOM      3  C4  UNL d   1      -4.626   3.731  -0.728  0.00  0.00    -0.003 A 
ATOM      4  C5  UNL d   1      -4.615   5.121  -0.687  0.00  0.00     0.000 A 
ATOM      5  C6  UNL d   1      -3.716   5.832  -1.481  0.00  0.00     0.000 A 
ATOM      6  C7  UNL d   1      -2.813   5.164  -2.326  0.00  0.00    -0.073 A 
ATOM      7  C8  UNL d   1      -1.861   5.982  -3.155  0.00  0.00     0.078 C 
ENDROOT
BRANCH   1   8
ATOM      8  C1  UNL d   1      -1.831   2.963  -3.191  0.00  0.00     0.053 C 
ATOM      9  C   UNL d   1      -1.139   1.857  -2.410  0.00  0.00     0.018 C 
ENDBRANCH   1   8
TORSDOF 1
ENDMDL
