MODEL 1
REMARK minimizedAffinity 4.91494799
REMARK minimizedRMSD -1
REMARK  1 active torsions:
REMARK  status: ('A' for Active; 'I' for Inactive)
REMARK    1  A    between atoms: C1_2  and  C2_3 
ROOT
ATOM      1  C2  UNL d   1      -0.291  -2.823   3.981  0.00  0.00    -0.076 A 
ATOM      2  C3  UNL d   1      -1.298  -3.804   3.979  0.00  0.00     0.004 A 
ATOM      3  C4  UNL d   1      -2.271  -3.836   4.976  0.00  0.00    -0.003 A 
ATOM      4  C5  UNL d   1      -2.253  -2.886   5.992  0.00  0.00     0.000 A 
ATOM      5  C6  UNL d   1      -1.273  -1.895   6.000  0.00  0.00     0.000 A 
ATOM      6  C7  UNL d   1      -0.294  -1.839   4.993  0.00  0.00    -0.073 A 
ATOM      7  C8  UNL d   1       0.744  -0.752   5.054  0.00  0.00     0.078 C 
ENDROOT
BRANCH   1   8
ATOM      8  C1  UNL d   1       0.753  -2.855   2.888  0.00  0.00     0.053 C 
ATOM      9  C   UNL d   1       0.988  -1.487   2.266  0.00  0.00     0.018 C 
ENDBRANCH   1   8
TORSDOF 1
ENDMDL
