MODEL 1
REMARK minimizedAffinity 17.46628
REMARK minimizedRMSD -1
REMARK  1 active torsions:
REMARK  status: ('A' for Active; 'I' for Inactive)
REMARK    1  A    between atoms: C1_2  and  C2_3 
ROOT
ATOM      1  C2  UNL d   1       2.259   0.047   2.923  0.00  0.00    -0.076 A 
ATOM      2  C3  UNL d   1       2.586   0.582   4.181  0.00  0.00     0.004 A 
ATOM      3  C4  UNL d   1       1.724   0.437   5.267  0.00  0.00    -0.003 A 
ATOM      4  C5  UNL d   1       0.523  -0.246   5.113  0.00  0.00     0.000 A 
ATOM      5  C6  UNL d   1       0.191  -0.798   3.876  0.00  0.00     0.000 A 
ATOM      6  C7  UNL d   1       1.056  -0.675   2.775  0.00  0.00    -0.073 A 
ATOM      7  C8  UNL d   1       0.645  -1.285   1.463  0.00  0.00     0.078 C 
ENDROOT
BRANCH   1   8
ATOM      8  C1  UNL d   1       3.220   0.259   1.775  0.00  0.00     0.053 C 
ATOM      9  C   UNL d   1       4.673   0.086   2.191  0.00  0.00     0.018 C 
ENDBRANCH   1   8
TORSDOF 1
ENDMDL
