MODEL 1
REMARK minimizedAffinity 11.2124586
REMARK minimizedRMSD -1
REMARK  1 active torsions:
REMARK  status: ('A' for Active; 'I' for Inactive)
REMARK    1  A    between atoms: C1_2  and  C2_3 
ROOT
ATOM      1  C2  UNL d   1      -0.622  -1.520   3.628  0.00  0.00    -0.076 A 
ATOM      2  C3  UNL d   1      -1.667  -2.452   3.753  0.00  0.00     0.004 A 
ATOM      3  C4  UNL d   1      -1.961  -3.343   2.722  0.00  0.00    -0.003 A 
ATOM      4  C5  UNL d   1      -1.213  -3.318   1.550  0.00  0.00     0.000 A 
ATOM      5  C6  UNL d   1      -0.161  -2.413   1.416  0.00  0.00     0.000 A 
ATOM      6  C7  UNL d   1       0.159  -1.518   2.452  0.00  0.00    -0.073 A 
ATOM      7  C8  UNL d   1       1.300  -0.559   2.251  0.00  0.00     0.078 C 
ENDROOT
BRANCH   1   8
ATOM      8  C1  UNL d   1      -0.367  -0.560   4.768  0.00  0.00     0.053 C 
ATOM      9  C   UNL d   1      -1.490  -0.562   5.794  0.00  0.00     0.018 C 
ENDBRANCH   1   8
TORSDOF 1
ENDMDL
