MODEL 1
REMARK minimizedAffinity 15.9307365
REMARK minimizedRMSD -1
REMARK  1 active torsions:
REMARK  status: ('A' for Active; 'I' for Inactive)
REMARK    1  A    between atoms: C1_2  and  C2_3 
ROOT
ATOM      1  C2  UNL d   1      -0.812  -1.748   2.948  0.00  0.00    -0.076 A 
ATOM      2  C3  UNL d   1      -0.218  -2.132   1.732  0.00  0.00     0.004 A 
ATOM      3  C4  UNL d   1       1.045  -1.666   1.372  0.00  0.00    -0.003 A 
ATOM      4  C5  UNL d   1       1.736  -0.810   2.222  0.00  0.00     0.000 A 
ATOM      5  C6  UNL d   1       1.170  -0.433   3.440  0.00  0.00     0.000 A 
ATOM      6  C7  UNL d   1      -0.096  -0.906   3.825  0.00  0.00    -0.073 A 
ATOM      7  C8  UNL d   1      -0.661  -0.462   5.146  0.00  0.00     0.078 C 
ENDROOT
BRANCH   1   8
ATOM      8  C1  UNL d   1      -2.196  -2.263   3.272  0.00  0.00     0.053 C 
ATOM      9  C   UNL d   1      -2.692  -3.281   2.257  0.00  0.00     0.018 C 
ENDBRANCH   1   8
TORSDOF 1
ENDMDL
