MODEL 1
REMARK minimizedAffinity 5.30130672
REMARK minimizedRMSD -1
REMARK  1 active torsions:
REMARK  status: ('A' for Active; 'I' for Inactive)
REMARK    1  A    between atoms: C1_2  and  C2_3 
ROOT
ATOM      1  C2  UNL d   1      -0.717  -1.354   3.378  0.00  0.00    -0.076 A 
ATOM      2  C3  UNL d   1      -0.517  -0.612   4.555  0.00  0.00     0.004 A 
ATOM      3  C4  UNL d   1      -1.304  -0.831   5.685  0.00  0.00    -0.003 A 
ATOM      4  C5  UNL d   1      -2.303  -1.798   5.655  0.00  0.00     0.000 A 
ATOM      5  C6  UNL d   1      -2.504  -2.555   4.502  0.00  0.00     0.000 A 
ATOM      6  C7  UNL d   1      -1.708  -2.358   3.360  0.00  0.00    -0.073 A 
ATOM      7  C8  UNL d   1      -1.973  -3.199   2.142  0.00  0.00     0.078 C 
ENDROOT
BRANCH   1   8
ATOM      8  C1  UNL d   1       0.150  -1.052   2.176  0.00  0.00     0.053 C 
ATOM      9  C   UNL d   1       0.828  -2.295   1.621  0.00  0.00     0.018 C 
ENDBRANCH   1   8
TORSDOF 1
ENDMDL
