MODEL 1
REMARK minimizedAffinity 7.64938259
REMARK minimizedRMSD -1
REMARK  1 active torsions:
REMARK  status: ('A' for Active; 'I' for Inactive)
REMARK    1  A    between atoms: C1_2  and  C2_3 
ROOT
ATOM      1  C2  UNL d   1       0.735   3.582  -0.186  0.00  0.00    -0.076 A 
ATOM      2  C3  UNL d   1      -0.234   3.029   0.670  0.00  0.00     0.004 A 
ATOM      3  C4  UNL d   1      -1.182   2.127   0.191  0.00  0.00    -0.003 A 
ATOM      4  C5  UNL d   1      -1.177   1.761  -1.150  0.00  0.00     0.000 A 
ATOM      5  C6  UNL d   1      -0.212   2.286  -2.010  0.00  0.00     0.000 A 
ATOM      6  C7  UNL d   1       0.761   3.185  -1.540  0.00  0.00    -0.073 A 
ATOM      7  C8  UNL d   1       1.774   3.725  -2.512  0.00  0.00     0.078 C 
ENDROOT
BRANCH   1   8
ATOM      8  C1  UNL d   1       1.721   4.577   0.383  0.00  0.00     0.053 C 
ATOM      9  C   UNL d   1       1.183   6.000   0.375  0.00  0.00     0.018 C 
ENDBRANCH   1   8
TORSDOF 1
ENDMDL
