MODEL 1
REMARK minimizedAffinity 21.1238346
REMARK minimizedRMSD -1
REMARK  1 active torsions:
REMARK  status: ('A' for Active; 'I' for Inactive)
REMARK    1  A    between atoms: C1_2  and  C2_3 
ROOT
ATOM      1  C2  UNL d   1       3.931   0.697  -0.448  0.00  0.00    -0.076 A 
ATOM      2  C3  UNL d   1       4.659  -0.385   0.077  0.00  0.00     0.004 A 
ATOM      3  C4  UNL d   1       4.892  -0.496   1.447  0.00  0.00    -0.003 A 
ATOM      4  C5  UNL d   1       4.400   0.473   2.314  0.00  0.00     0.000 A 
ATOM      5  C6  UNL d   1       3.661   1.544   1.813  0.00  0.00     0.000 A 
ATOM      6  C7  UNL d   1       3.403   1.662   0.436  0.00  0.00    -0.073 A 
ATOM      7  C8  UNL d   1       2.605   2.840  -0.050  0.00  0.00     0.078 C 
ENDROOT
BRANCH   1   8
ATOM      8  C1  UNL d   1       3.734   0.779  -1.945  0.00  0.00     0.053 C 
ATOM      9  C   UNL d   1       4.847   0.089  -2.718  0.00  0.00     0.018 C 
ENDBRANCH   1   8
TORSDOF 1
ENDMDL
