MODEL 1
REMARK minimizedAffinity 15.2628756
REMARK minimizedRMSD -1
REMARK  1 active torsions:
REMARK  status: ('A' for Active; 'I' for Inactive)
REMARK    1  A    between atoms: C1_2  and  C2_3 
ROOT
ATOM      1  C2  UNL d   1       0.278   3.193  -0.777  0.00  0.00    -0.076 A 
ATOM      2  C3  UNL d   1      -0.353   3.731  -1.912  0.00  0.00     0.004 A 
ATOM      3  C4  UNL d   1      -1.327   3.010  -2.601  0.00  0.00    -0.003 A 
ATOM      4  C5  UNL d   1      -1.687   1.740  -2.165  0.00  0.00     0.000 A 
ATOM      5  C6  UNL d   1      -1.084   1.197  -1.031  0.00  0.00     0.000 A 
ATOM      6  C7  UNL d   1      -0.112   1.917  -0.315  0.00  0.00    -0.073 A 
ATOM      7  C8  UNL d   1       0.510   1.282   0.898  0.00  0.00     0.078 C 
ENDROOT
BRANCH   1   8
ATOM      8  C1  UNL d   1       1.347   4.010  -0.087  0.00  0.00     0.053 C 
ATOM      9  C   UNL d   1       0.943   5.465   0.092  0.00  0.00     0.018 C 
ENDBRANCH   1   8
TORSDOF 1
ENDMDL
