MODEL 1
REMARK minimizedAffinity 6.75931931
REMARK minimizedRMSD -1
REMARK  1 active torsions:
REMARK  status: ('A' for Active; 'I' for Inactive)
REMARK    1  A    between atoms: C1_2  and  C2_3 
ROOT
ATOM      1  C2  UNL d   1       0.407   3.697  -1.370  0.00  0.00    -0.076 A 
ATOM      2  C3  UNL d   1       0.922   4.858  -1.973  0.00  0.00     0.004 A 
ATOM      3  C4  UNL d   1       1.188   6.000  -1.219  0.00  0.00    -0.003 A 
ATOM      4  C5  UNL d   1       0.944   5.999   0.150  0.00  0.00     0.000 A 
ATOM      5  C6  UNL d   1       0.450   4.850   0.767  0.00  0.00     0.000 A 
ATOM      6  C7  UNL d   1       0.192   3.685   0.024  0.00  0.00    -0.073 A 
ATOM      7  C8  UNL d   1      -0.346   2.477   0.740  0.00  0.00     0.078 C 
ENDROOT
BRANCH   1   8
ATOM      8  C1  UNL d   1       0.113   2.498  -2.243  0.00  0.00     0.053 C 
ATOM      9  C   UNL d   1      -1.374   2.321  -2.509  0.00  0.00     0.018 C 
ENDBRANCH   1   8
TORSDOF 1
ENDMDL
