MODEL 1
REMARK minimizedAffinity -2.9827311
REMARK minimizedRMSD -1
REMARK  0 active torsions:
REMARK  status: ('A' for Active; 'I' for Inactive)
ROOT
ATOM      1  C1  DEN d   1      -5.992   1.882  -2.432  0.00  0.00     0.130 A 
ATOM      2  C2  DEN d   1      -4.913   1.640  -3.387  0.00  0.00    -0.031 A 
ATOM      3  C3  DEN d   1      -3.636   1.651  -2.646  0.00  0.00     0.027 A 
ATOM      4  C4  DEN d   1      -3.226   2.012  -0.125  0.00  0.00     0.027 A 
ATOM      5  C5  DEN d   1      -3.831   2.266   1.086  0.00  0.00    -0.003 A 
ATOM      6  C6  DEN d   1      -5.185   2.442   1.203  0.00  0.00     0.001 A 
ATOM      7  C7  DEN d   1      -5.983   2.322   0.096  0.00  0.00     0.017 A 
ATOM      8  C8  DEN d   1      -5.379   2.073  -1.130  0.00  0.00    -0.094 A 
ATOM      9  C9  DEN d   1      -4.010   1.886  -1.225  0.00  0.00    -0.072 A 
ENDROOT
TORSDOF 0
ENDMDL
