MODEL 1
REMARK minimizedAffinity 5.37103271
REMARK minimizedRMSD -1
REMARK  0 active torsions:
REMARK  status: ('A' for Active; 'I' for Inactive)
ROOT
ATOM      1  C1  DEN d   1       5.963  -5.962  -4.532  0.00  0.00     0.130 A 
ATOM      2  C2  DEN d   1       5.103  -5.985  -5.712  0.00  0.00    -0.031 A 
ATOM      3  C3  DEN d   1       3.699  -6.000  -5.254  0.00  0.00     0.027 A 
ATOM      4  C4  DEN d   1       2.778  -5.984  -2.845  0.00  0.00     0.027 A 
ATOM      5  C5  DEN d   1       3.123  -5.978  -1.512  0.00  0.00    -0.003 A 
ATOM      6  C6  DEN d   1       4.427  -6.000  -1.095  0.00  0.00     0.001 A 
ATOM      7  C7  DEN d   1       5.436  -5.984  -2.021  0.00  0.00     0.017 A 
ATOM      8  C8  DEN d   1       5.097  -5.998  -3.367  0.00  0.00    -0.094 A 
ATOM      9  C9  DEN d   1       3.772  -5.963  -3.769  0.00  0.00    -0.072 A 
ENDROOT
TORSDOF 0
ENDMDL
