MODEL 1
REMARK minimizedAffinity 4.53896284
REMARK minimizedRMSD -1
REMARK  0 active torsions:
REMARK  status: ('A' for Active; 'I' for Inactive)
ROOT
ATOM      1  C1  DEN d   1       2.452  -5.945  -2.172  0.00  0.00     0.130 A 
ATOM      2  C2  DEN d   1       3.669  -5.927  -1.365  0.00  0.00    -0.031 A 
ATOM      3  C3  DEN d   1       4.826  -5.911  -2.283  0.00  0.00     0.027 A 
ATOM      4  C4  DEN d   1       4.851  -5.907  -4.862  0.00  0.00     0.027 A 
ATOM      5  C5  DEN d   1       4.064  -5.930  -5.992  0.00  0.00    -0.003 A 
ATOM      6  C6  DEN d   1       2.697  -5.994  -5.929  0.00  0.00     0.001 A 
ATOM      7  C7  DEN d   1       2.073  -5.991  -4.709  0.00  0.00     0.017 A 
ATOM      8  C8  DEN d   1       2.860  -5.975  -3.565  0.00  0.00    -0.094 A 
ATOM      9  C9  DEN d   1       4.240  -5.899  -3.650  0.00  0.00    -0.072 A 
ENDROOT
TORSDOF 0
ENDMDL
