MODEL 1
REMARK minimizedAffinity 9.11505604
REMARK minimizedRMSD -1
REMARK  0 active torsions:
REMARK  status: ('A' for Active; 'I' for Inactive)
ROOT
ATOM      1  C1  DEN d   1       1.538  -5.999   4.990  0.00  0.00     0.130 A 
ATOM      2  C2  DEN d   1       0.487  -5.890   5.998  0.00  0.00    -0.031 A 
ATOM      3  C3  DEN d   1      -0.002  -4.496   5.999  0.00  0.00     0.027 A 
ATOM      4  C4  DEN d   1       0.759  -2.509   4.542  0.00  0.00     0.027 A 
ATOM      5  C5  DEN d   1       1.630  -2.111   3.552  0.00  0.00    -0.003 A 
ATOM      6  C6  DEN d   1       2.547  -2.966   3.000  0.00  0.00     0.001 A 
ATOM      7  C7  DEN d   1       2.584  -4.275   3.403  0.00  0.00     0.017 A 
ATOM      8  C8  DEN d   1       1.713  -4.681   4.406  0.00  0.00    -0.094 A 
ATOM      9  C9  DEN d   1       0.785  -3.805   4.943  0.00  0.00    -0.072 A 
ENDROOT
TORSDOF 0
ENDMDL
