MODEL 1
REMARK minimizedAffinity 0.33612749
REMARK minimizedRMSD -1
REMARK  0 active torsions:
REMARK  status: ('A' for Active; 'I' for Inactive)
ROOT
ATOM      1  C1  DEN d   1       2.034  -5.984  -4.502  0.00  0.00     0.130 A 
ATOM      2  C2  DEN d   1       2.405  -6.000  -5.914  0.00  0.00    -0.031 A 
ATOM      3  C3  DEN d   1       3.879  -5.996  -5.999  0.00  0.00     0.027 A 
ATOM      4  C4  DEN d   1       5.614  -5.973  -4.091  0.00  0.00     0.027 A 
ATOM      5  C5  DEN d   1       5.779  -5.945  -2.723  0.00  0.00    -0.003 A 
ATOM      6  C6  DEN d   1       4.716  -5.894  -1.861  0.00  0.00     0.001 A 
ATOM      7  C7  DEN d   1       3.439  -5.915  -2.356  0.00  0.00     0.017 A 
ATOM      8  C8  DEN d   1       3.265  -5.936  -3.733  0.00  0.00    -0.094 A 
ATOM      9  C9  DEN d   1       4.352  -5.999  -4.588  0.00  0.00    -0.072 A 
ENDROOT
TORSDOF 0
ENDMDL
