MODEL 1
REMARK minimizedAffinity 7.32446527
REMARK minimizedRMSD -1
REMARK  0 active torsions:
REMARK  status: ('A' for Active; 'I' for Inactive)
ROOT
ATOM      1  C1  DEN d   1      -1.056  -3.157   0.195  0.00  0.00     0.130 A 
ATOM      2  C2  DEN d   1      -1.565  -1.967  -0.482  0.00  0.00    -0.031 A 
ATOM      3  C3  DEN d   1      -0.776  -0.807  -0.020  0.00  0.00     0.027 A 
ATOM      4  C4  DEN d   1       1.177  -0.739   1.663  0.00  0.00     0.027 A 
ATOM      5  C5  DEN d   1       1.958  -1.497   2.507  0.00  0.00    -0.003 A 
ATOM      6  C6  DEN d   1       1.769  -2.844   2.664  0.00  0.00     0.001 A 
ATOM      7  C7  DEN d   1       0.804  -3.484   1.932  0.00  0.00     0.017 A 
ATOM      8  C8  DEN d   1       0.007  -2.725   1.084  0.00  0.00    -0.094 A 
ATOM      9  C9  DEN d   1       0.222  -1.366   0.930  0.00  0.00    -0.072 A 
ENDROOT
TORSDOF 0
ENDMDL
