MODEL 1
REMARK minimizedAffinity -2.18333411
REMARK minimizedRMSD -1
REMARK  0 active torsions:
REMARK  status: ('A' for Active; 'I' for Inactive)
ROOT
ATOM      1  C1  DEN d   1       1.373  -5.985  -4.521  0.00  0.00     0.130 A 
ATOM      2  C2  DEN d   1       1.759  -5.980  -5.929  0.00  0.00    -0.031 A 
ATOM      3  C3  DEN d   1       3.234  -5.964  -5.998  0.00  0.00     0.027 A 
ATOM      4  C4  DEN d   1       4.948  -5.951  -4.072  0.00  0.00     0.027 A 
ATOM      5  C5  DEN d   1       5.098  -5.939  -2.702  0.00  0.00    -0.003 A 
ATOM      6  C6  DEN d   1       4.026  -5.907  -1.851  0.00  0.00     0.001 A 
ATOM      7  C7  DEN d   1       2.754  -5.932  -2.359  0.00  0.00     0.017 A 
ATOM      8  C8  DEN d   1       2.595  -5.937  -3.739  0.00  0.00    -0.094 A 
ATOM      9  C9  DEN d   1       3.692  -5.981  -4.583  0.00  0.00    -0.072 A 
ENDROOT
TORSDOF 0
ENDMDL
