MODEL 1
REMARK minimizedAffinity 10.5142555
REMARK minimizedRMSD -1
REMARK  0 active torsions:
REMARK  status: ('A' for Active; 'I' for Inactive)
ROOT
ATOM      1  C1  DEN d   1       2.356  -1.160   2.103  0.00  0.00     0.130 A 
ATOM      2  C2  DEN d   1       1.656  -0.080   2.792  0.00  0.00    -0.031 A 
ATOM      3  C3  DEN d   1       1.022  -0.644   4.000  0.00  0.00     0.027 A 
ATOM      4  C4  DEN d   1       1.060  -3.072   4.869  0.00  0.00     0.027 A 
ATOM      5  C5  DEN d   1       1.515  -4.347   4.617  0.00  0.00    -0.003 A 
ATOM      6  C6  DEN d   1       2.247  -4.654   3.502  0.00  0.00     0.001 A 
ATOM      7  C7  DEN d   1       2.585  -3.663   2.618  0.00  0.00     0.017 A 
ATOM      8  C8  DEN d   1       2.124  -2.376   2.861  0.00  0.00    -0.094 A 
ATOM      9  C9  DEN d   1       1.395  -2.084   4.001  0.00  0.00    -0.072 A 
ENDROOT
TORSDOF 0
ENDMDL
