MODEL 1
REMARK minimizedAffinity 6.66077423
REMARK minimizedRMSD -1
REMARK  0 active torsions:
REMARK  status: ('A' for Active; 'I' for Inactive)
ROOT
ATOM      1  C1  DEN d   1       3.565  -3.916   0.029  0.00  0.00     0.130 A 
ATOM      2  C2  DEN d   1       3.689  -3.201  -1.239  0.00  0.00    -0.031 A 
ATOM      3  C3  DEN d   1       3.216  -1.818  -1.030  0.00  0.00     0.027 A 
ATOM      4  C4  DEN d   1       2.314  -0.717   1.121  0.00  0.00     0.027 A 
ATOM      5  C5  DEN d   1       2.010  -0.929   2.448  0.00  0.00    -0.003 A 
ATOM      6  C6  DEN d   1       2.171  -2.150   3.048  0.00  0.00     0.001 A 
ATOM      7  C7  DEN d   1       2.690  -3.196   2.331  0.00  0.00     0.017 A 
ATOM      8  C8  DEN d   1       2.991  -2.992   0.991  0.00  0.00    -0.094 A 
ATOM      9  C9  DEN d   1       2.833  -1.747   0.406  0.00  0.00    -0.072 A 
ENDROOT
TORSDOF 0
ENDMDL
