MODEL 1
REMARK minimizedAffinity 11.5767517
REMARK minimizedRMSD -1
REMARK  0 active torsions:
REMARK  status: ('A' for Active; 'I' for Inactive)
ROOT
ATOM      1  C1  DEN d   1       1.118   3.663   0.376  0.00  0.00     0.130 A 
ATOM      2  C2  DEN d   1       1.822   4.362  -0.695  0.00  0.00    -0.031 A 
ATOM      3  C3  DEN d   1       2.944   3.508  -1.136  0.00  0.00     0.027 A 
ATOM      4  C4  DEN d   1       3.651   1.183  -0.272  0.00  0.00     0.027 A 
ATOM      5  C5  DEN d   1       3.365   0.189   0.637  0.00  0.00    -0.003 A 
ATOM      6  C6  DEN d   1       2.339   0.296   1.538  0.00  0.00     0.001 A 
ATOM      7  C7  DEN d   1       1.533   1.404   1.520  0.00  0.00     0.017 A 
ATOM      8  C8  DEN d   1       1.820   2.414   0.611  0.00  0.00    -0.094 A 
ATOM      9  C9  DEN d   1       2.854   2.281  -0.300  0.00  0.00    -0.072 A 
ENDROOT
TORSDOF 0
ENDMDL
