MODEL 1
REMARK minimizedAffinity 10.5751581
REMARK minimizedRMSD -1
REMARK  0 active torsions:
REMARK  status: ('A' for Active; 'I' for Inactive)
ROOT
ATOM      1  C1  DEN d   1      -0.093  -0.898  -0.485  0.00  0.00     0.130 A 
ATOM      2  C2  DEN d   1      -0.757  -2.147  -0.848  0.00  0.00    -0.031 A 
ATOM      3  C3  DEN d   1      -0.493  -3.132   0.220  0.00  0.00     0.027 A 
ATOM      4  C4  DEN d   1       0.867  -2.843   2.393  0.00  0.00     0.027 A 
ATOM      5  C5  DEN d   1       1.628  -1.965   3.133  0.00  0.00    -0.003 A 
ATOM      6  C6  DEN d   1       1.894  -0.691   2.706  0.00  0.00     0.001 A 
ATOM      7  C7  DEN d   1       1.358  -0.244   1.528  0.00  0.00     0.017 A 
ATOM      8  C8  DEN d   1       0.596  -1.126   0.772  0.00  0.00    -0.094 A 
ATOM      9  C9  DEN d   1       0.328  -2.406   1.227  0.00  0.00    -0.072 A 
ENDROOT
TORSDOF 0
ENDMDL
