MODEL 1
REMARK minimizedAffinity -2.0829587
REMARK minimizedRMSD -1
REMARK  2 active torsions:
REMARK  status: ('A' for Active; 'I' for Inactive)
REMARK    1  A    between atoms: C2'_3  and  C1'_4 
REMARK    2  A    between atoms: C1'_4  and  C1_5 
ROOT
ATOM      1  C1  I4B d   1      -0.582   1.341  -0.635  0.00  0.00    -0.075 A 
ATOM      2  C2  I4B d   1      -0.554   0.019  -1.003  0.00  0.00     0.003 A 
ATOM      3  C3  I4B d   1       0.632  -0.739  -0.849  0.00  0.00     0.002 A 
ATOM      4  C4  I4B d   1       1.773  -0.127  -0.373  0.00  0.00    -0.004 A 
ATOM      5  C5  I4B d   1       1.737   1.208   0.022  0.00  0.00     0.002 A 
ATOM      6  C6  I4B d   1       0.549   1.943  -0.098  0.00  0.00     0.003 A 
ENDROOT
BRANCH   1   7
ATOM      7  C1' I4B d   1      -1.841   2.120  -0.842  0.00  0.00     0.060 C 
BRANCH   7   8
ATOM      8  C2' I4B d   1      -2.012   2.344  -2.331  0.00  0.00    -0.013 C 
ATOM      9  C4' I4B d   1      -3.447   2.158  -2.749  0.00  0.00     0.013 C 
ATOM     10  C3' I4B d   1      -1.530   3.728  -2.649  0.00  0.00     0.013 C 
ENDBRANCH   7   8
ENDBRANCH   1   7
TORSDOF 2
ENDMDL
