MODEL 1
REMARK minimizedAffinity -3.86794686
REMARK minimizedRMSD -1
REMARK  2 active torsions:
REMARK  status: ('A' for Active; 'I' for Inactive)
REMARK    1  A    between atoms: C2'_3  and  C1'_4 
REMARK    2  A    between atoms: C1'_4  and  C1_5 
ROOT
ATOM      1  C1  I4B d   1       0.839  -0.442  -0.020  0.00  0.00    -0.075 A 
ATOM      2  C2  I4B d   1      -0.023  -1.508   0.028  0.00  0.00     0.003 A 
ATOM      3  C3  I4B d   1       0.233  -2.594   0.901  0.00  0.00     0.002 A 
ATOM      4  C4  I4B d   1       1.381  -2.594   1.666  0.00  0.00    -0.004 A 
ATOM      5  C5  I4B d   1       2.243  -1.502   1.633  0.00  0.00     0.002 A 
ATOM      6  C6  I4B d   1       1.965  -0.413   0.794  0.00  0.00     0.003 A 
ENDROOT
BRANCH   1   7
ATOM      7  C1' I4B d   1       0.556   0.672  -0.977  0.00  0.00     0.060 C 
BRANCH   7   8
ATOM      8  C2' I4B d   1      -0.861   1.149  -0.731  0.00  0.00    -0.013 C 
ATOM      9  C4' I4B d   1      -1.026   1.670   0.672  0.00  0.00     0.013 C 
ATOM     10  C3' I4B d   1      -1.174   2.211  -1.743  0.00  0.00     0.013 C 
ENDBRANCH   7   8
ENDBRANCH   1   7
TORSDOF 2
ENDMDL
