MODEL 1
REMARK minimizedAffinity -5.43101168
REMARK minimizedRMSD -1
REMARK  2 active torsions:
REMARK  status: ('A' for Active; 'I' for Inactive)
REMARK    1  A    between atoms: C2'_3  and  C1'_4 
REMARK    2  A    between atoms: C1'_4  and  C1_5 
ROOT
ATOM      1  C1  I4B d   1      -0.216   0.274   0.329  0.00  0.00    -0.075 A 
ATOM      2  C2  I4B d   1       1.095   0.286  -0.078  0.00  0.00     0.003 A 
ATOM      3  C3  I4B d   1       1.938  -0.817   0.200  0.00  0.00     0.002 A 
ATOM      4  C4  I4B d   1       1.446  -1.883   0.925  0.00  0.00    -0.004 A 
ATOM      5  C5  I4B d   1       0.110  -1.904   1.316  0.00  0.00     0.002 A 
ATOM      6  C6  I4B d   1      -0.730  -0.825   1.006  0.00  0.00     0.003 A 
ENDROOT
BRANCH   1   7
ATOM      7  C1' I4B d   1      -1.069   1.470   0.048  0.00  0.00     0.060 C 
BRANCH   7   8
ATOM      8  C2' I4B d   1      -1.495   1.409  -1.405  0.00  0.00    -0.013 C 
ATOM      9  C4' I4B d   1      -2.966   1.110  -1.529  0.00  0.00     0.013 C 
ATOM     10  C3' I4B d   1      -1.154   2.722  -2.043  0.00  0.00     0.013 C 
ENDBRANCH   7   8
ENDBRANCH   1   7
TORSDOF 2
ENDMDL
