MODEL 1
REMARK minimizedAffinity -6.27937984
REMARK minimizedRMSD -1
REMARK  2 active torsions:
REMARK  status: ('A' for Active; 'I' for Inactive)
REMARK    1  A    between atoms: C2'_3  and  C1'_4 
REMARK    2  A    between atoms: C1'_4  and  C1_5 
ROOT
ATOM      1  C1  I4B d   1      -0.119   0.421   0.017  0.00  0.00    -0.075 A 
ATOM      2  C2  I4B d   1      -0.391  -0.631   0.856  0.00  0.00     0.003 A 
ATOM      3  C3  I4B d   1       0.597  -1.613   1.111  0.00  0.00     0.002 A 
ATOM      4  C4  I4B d   1       1.816  -1.532   0.471  0.00  0.00    -0.004 A 
ATOM      5  C5  I4B d   1       2.098  -0.453  -0.361  0.00  0.00     0.002 A 
ATOM      6  C6  I4B d   1       1.129   0.537  -0.580  0.00  0.00     0.003 A 
ENDROOT
BRANCH   1   7
ATOM      7  C1' I4B d   1      -1.196   1.423  -0.255  0.00  0.00     0.060 C 
BRANCH   7   8
ATOM      8  C2' I4B d   1      -1.352   1.543  -1.758  0.00  0.00    -0.013 C 
ATOM      9  C4' I4B d   1      -2.732   1.131  -2.198  0.00  0.00     0.013 C 
ATOM     10  C3' I4B d   1      -1.063   2.964  -2.140  0.00  0.00     0.013 C 
ENDBRANCH   7   8
ENDBRANCH   1   7
TORSDOF 2
ENDMDL
