MODEL 1
REMARK minimizedAffinity 1.3533994
REMARK minimizedRMSD -1
REMARK  2 active torsions:
REMARK  status: ('A' for Active; 'I' for Inactive)
REMARK    1  A    between atoms: C2'_3  and  C1'_4 
REMARK    2  A    between atoms: C1'_4  and  C1_5 
ROOT
ATOM      1  C1  I4B d   1      -0.179   0.401  -0.269  0.00  0.00    -0.075 A 
ATOM      2  C2  I4B d   1      -0.624  -0.660   0.481  0.00  0.00     0.003 A 
ATOM      3  C3  I4B d   1       0.288  -1.639   0.942  0.00  0.00     0.002 A 
ATOM      4  C4  I4B d   1       1.620  -1.546   0.592  0.00  0.00    -0.004 A 
ATOM      5  C5  I4B d   1       2.073  -0.458  -0.149  0.00  0.00     0.002 A 
ATOM      6  C6  I4B d   1       1.170   0.528  -0.571  0.00  0.00     0.003 A 
ENDROOT
BRANCH   1   7
ATOM      7  C1' I4B d   1      -1.175   1.399  -0.768  0.00  0.00     0.060 C 
BRANCH   7   8
ATOM      8  C2' I4B d   1      -0.705   1.891  -2.121  0.00  0.00    -0.013 C 
ATOM      9  C4' I4B d   1      -1.737   1.628  -3.186  0.00  0.00     0.013 C 
ATOM     10  C3' I4B d   1      -0.409   3.357  -2.004  0.00  0.00     0.013 C 
ENDBRANCH   7   8
ENDBRANCH   1   7
TORSDOF 2
ENDMDL
