MODEL 1
REMARK minimizedAffinity -3.32772827
REMARK minimizedRMSD -1
REMARK  2 active torsions:
REMARK  status: ('A' for Active; 'I' for Inactive)
REMARK    1  A    between atoms: C2'_3  and  C1'_4 
REMARK    2  A    between atoms: C1'_4  and  C1_5 
ROOT
ATOM      1  C1  I4B d   1      -0.107  -0.918   0.585  0.00  0.00    -0.075 A 
ATOM      2  C2  I4B d   1      -1.167  -0.069   0.782  0.00  0.00     0.003 A 
ATOM      3  C3  I4B d   1      -1.129   1.249   0.265  0.00  0.00     0.002 A 
ATOM      4  C4  I4B d   1       0.001   1.689  -0.393  0.00  0.00    -0.004 A 
ATOM      5  C5  I4B d   1       1.065   0.819  -0.612  0.00  0.00     0.002 A 
ATOM      6  C6  I4B d   1       1.006  -0.497  -0.131  0.00  0.00     0.003 A 
ENDROOT
BRANCH   1   7
ATOM      7  C1' I4B d   1      -0.166  -2.293   1.172  0.00  0.00     0.060 C 
BRANCH   7   8
ATOM      8  C2' I4B d   1       1.231  -2.878   1.133  0.00  0.00    -0.013 C 
ATOM      9  C4' I4B d   1       2.250  -1.892   1.641  0.00  0.00     0.013 C 
ATOM     10  C3' I4B d   1       1.232  -4.130   1.957  0.00  0.00     0.013 C 
ENDBRANCH   7   8
ENDBRANCH   1   7
TORSDOF 2
ENDMDL
