MODEL 1
REMARK minimizedAffinity -1.4036026
REMARK minimizedRMSD -1
REMARK  2 active torsions:
REMARK  status: ('A' for Active; 'I' for Inactive)
REMARK    1  A    between atoms: C2'_3  and  C1'_4 
REMARK    2  A    between atoms: C1'_4  and  C1_5 
ROOT
ATOM      1  C1  I4B d   1      -0.504   0.949  -0.341  0.00  0.00    -0.075 A 
ATOM      2  C2  I4B d   1      -1.414   0.507   0.587  0.00  0.00     0.003 A 
ATOM      3  C3  I4B d   1      -1.079  -0.553   1.465  0.00  0.00     0.002 A 
ATOM      4  C4  I4B d   1       0.148  -1.172   1.346  0.00  0.00    -0.004 A 
ATOM      5  C5  I4B d   1       1.078  -0.708   0.419  0.00  0.00     0.002 A 
ATOM      6  C6  I4B d   1       0.754   0.367  -0.422  0.00  0.00     0.003 A 
ENDROOT
BRANCH   1   7
ATOM      7  C1' I4B d   1      -0.902   2.048  -1.274  0.00  0.00     0.060 C 
BRANCH   7   8
ATOM      8  C2' I4B d   1      -1.388   1.415  -2.562  0.00  0.00    -0.013 C 
ATOM      9  C4' I4B d   1      -2.809   0.934  -2.431  0.00  0.00     0.013 C 
ATOM     10  C3' I4B d   1      -1.259   2.432  -3.656  0.00  0.00     0.013 C 
ENDBRANCH   7   8
ENDBRANCH   1   7
TORSDOF 2
ENDMDL
