MODEL 1
REMARK minimizedAffinity -2.54512262
REMARK minimizedRMSD -1
REMARK  2 active torsions:
REMARK  status: ('A' for Active; 'I' for Inactive)
REMARK    1  A    between atoms: C2'_3  and  C1'_4 
REMARK    2  A    between atoms: C1'_4  and  C1_5 
ROOT
ATOM      1  C1  I4B d   1      -0.465  -0.115  -0.524  0.00  0.00    -0.075 A 
ATOM      2  C2  I4B d   1       0.900   0.005  -0.607  0.00  0.00     0.003 A 
ATOM      3  C3  I4B d   1       1.738  -0.977  -0.025  0.00  0.00     0.002 A 
ATOM      4  C4  I4B d   1       1.174  -2.027   0.670  0.00  0.00    -0.004 A 
ATOM      5  C5  I4B d   1      -0.210  -2.159   0.734  0.00  0.00     0.002 A 
ATOM      6  C6  I4B d   1      -1.035  -1.203   0.123  0.00  0.00     0.003 A 
ENDROOT
BRANCH   1   7
ATOM      7  C1' I4B d   1      -1.320   0.957  -1.121  0.00  0.00     0.060 C 
BRANCH   7   8
ATOM      8  C2' I4B d   1      -1.702   0.523  -2.522  0.00  0.00    -0.013 C 
ATOM      9  C4' I4B d   1      -3.165   0.173  -2.604  0.00  0.00     0.013 C 
ATOM     10  C3' I4B d   1      -1.359   1.639  -3.463  0.00  0.00     0.013 C 
ENDBRANCH   7   8
ENDBRANCH   1   7
TORSDOF 2
ENDMDL
