MODEL 1
REMARK minimizedAffinity -3.72592568
REMARK minimizedRMSD -1
REMARK  2 active torsions:
REMARK  status: ('A' for Active; 'I' for Inactive)
REMARK    1  A    between atoms: C2'_3  and  C1'_4 
REMARK    2  A    between atoms: C1'_4  and  C1_5 
ROOT
ATOM      1  C1  I4B d   1      -1.094   0.392  -0.107  0.00  0.00    -0.075 A 
ATOM      2  C2  I4B d   1      -1.837   0.247   1.038  0.00  0.00     0.003 A 
ATOM      3  C3  I4B d   1      -1.500  -0.750   1.985  0.00  0.00     0.002 A 
ATOM      4  C4  I4B d   1      -0.451  -1.608   1.724  0.00  0.00    -0.004 A 
ATOM      5  C5  I4B d   1       0.315  -1.445   0.574  0.00  0.00     0.002 A 
ATOM      6  C6  I4B d   1      -0.000  -0.431  -0.342  0.00  0.00     0.003 A 
ENDROOT
BRANCH   1   7
ATOM      7  C1' I4B d   1      -1.497   1.434  -1.101  0.00  0.00     0.060 C 
BRANCH   7   8
ATOM      8  C2' I4B d   1      -2.281   0.750  -2.203  0.00  0.00    -0.013 C 
ATOM      9  C4' I4B d   1      -3.750   0.698  -1.875  0.00  0.00     0.013 C 
ATOM     10  C3' I4B d   1      -2.037   1.500  -3.478  0.00  0.00     0.013 C 
ENDBRANCH   7   8
ENDBRANCH   1   7
TORSDOF 2
ENDMDL
