MODEL 1
REMARK minimizedAffinity -5.12667179
REMARK minimizedRMSD -1
REMARK  2 active torsions:
REMARK  status: ('A' for Active; 'I' for Inactive)
REMARK    1  A    between atoms: C2'_3  and  C1'_4 
REMARK    2  A    between atoms: C1'_4  and  C1_5 
ROOT
ATOM      1  C1  I4B d   1      -0.086   0.489  -0.205  0.00  0.00    -0.075 A 
ATOM      2  C2  I4B d   1      -0.509  -0.613   0.494  0.00  0.00     0.003 A 
ATOM      3  C3  I4B d   1       0.382  -1.686   0.740  0.00  0.00     0.002 A 
ATOM      4  C4  I4B d   1       1.663  -1.637   0.227  0.00  0.00    -0.004 A 
ATOM      5  C5  I4B d   1       2.096  -0.508  -0.462  0.00  0.00     0.002 A 
ATOM      6  C6  I4B d   1       1.221   0.567  -0.669  0.00  0.00     0.003 A 
ENDROOT
BRANCH   1   7
ATOM      7  C1' I4B d   1      -1.063   1.590  -0.474  0.00  0.00     0.060 C 
BRANCH   7   8
ATOM      8  C2' I4B d   1      -1.372   1.587  -1.958  0.00  0.00    -0.013 C 
ATOM      9  C4' I4B d   1      -2.597   0.763  -2.257  0.00  0.00     0.013 C 
ATOM     10  C3' I4B d   1      -1.555   3.009  -2.396  0.00  0.00     0.013 C 
ENDBRANCH   7   8
ENDBRANCH   1   7
TORSDOF 2
ENDMDL
