MODEL 1
REMARK minimizedAffinity -4.65692282
REMARK minimizedRMSD -1
REMARK  2 active torsions:
REMARK  status: ('A' for Active; 'I' for Inactive)
REMARK    1  A    between atoms: C2'_3  and  C1'_4 
REMARK    2  A    between atoms: C1'_4  and  C1_5 
ROOT
ATOM      1  C1  I4B d   1      -0.152  -0.066   0.202  0.00  0.00    -0.075 A 
ATOM      2  C2  I4B d   1       1.089  -0.131  -0.380  0.00  0.00     0.003 A 
ATOM      3  C3  I4B d   1       1.920  -1.256  -0.163  0.00  0.00     0.002 A 
ATOM      4  C4  I4B d   1       1.494  -2.264   0.679  0.00  0.00    -0.004 A 
ATOM      5  C5  I4B d   1       0.226  -2.207   1.250  0.00  0.00     0.002 A 
ATOM      6  C6  I4B d   1      -0.608  -1.107   1.001  0.00  0.00     0.003 A 
ENDROOT
BRANCH   1   7
ATOM      7  C1' I4B d   1      -0.991   1.152  -0.022  0.00  0.00     0.060 C 
BRANCH   7   8
ATOM      8  C2' I4B d   1      -1.092   1.381  -1.516  0.00  0.00    -0.013 C 
ATOM      9  C4' I4B d   1      -2.440   0.962  -2.042  0.00  0.00     0.013 C 
ATOM     10  C3' I4B d   1      -0.835   2.834  -1.781  0.00  0.00     0.013 C 
ENDBRANCH   7   8
ENDBRANCH   1   7
TORSDOF 2
ENDMDL
