MODEL 1
REMARK minimizedAffinity 7.557868
REMARK minimizedRMSD -1
REMARK  1 active torsions:
REMARK  status: ('A' for Active; 'I' for Inactive)
REMARK    1  A    between atoms: N_2  and  C1_3 
ROOT
ATOM      1  C1  UNL d   1      -3.292  -4.853  -4.914  0.00  0.00     0.143 A 
ATOM      2  C2  UNL d   1      -3.189  -3.997  -3.812  0.00  0.00    -0.057 A 
ATOM      3  C3  UNL d   1      -2.296  -2.919  -3.810  0.00  0.00     0.033 A 
ATOM      4  C4  UNL d   1      -1.467  -2.694  -4.903  0.00  0.00    -0.042 A 
ATOM      5  C5  UNL d   1      -1.533  -3.546  -6.000  0.00  0.00     0.033 A 
ATOM      6  C6  UNL d   1      -2.432  -4.617  -5.998  0.00  0.00    -0.057 A 
ENDROOT
BRANCH   1   7
ATOM      7  N   UNL d   1      -4.089  -6.000  -4.937  0.00  0.00    -0.732 N 
ATOM      8  C   UNL d   1      -5.457  -5.956  -4.468  0.00  0.00     0.284 C 
ATOM      9  H3  UNL d   1      -3.958  -6.547  -5.785  0.00  0.00     0.395 HD
ENDBRANCH   1   7
TORSDOF 1
ENDMDL
