MODEL 1
REMARK minimizedAffinity 13.7375698
REMARK minimizedRMSD -1
REMARK  1 active torsions:
REMARK  status: ('A' for Active; 'I' for Inactive)
REMARK    1  A    between atoms: N_2  and  C1_3 
ROOT
ATOM      1  C1  UNL d   1       4.500  -3.583   5.030  0.00  0.00     0.143 A 
ATOM      2  C2  UNL d   1       3.975  -2.310   5.278  0.00  0.00    -0.057 A 
ATOM      3  C3  UNL d   1       3.176  -1.656   4.331  0.00  0.00     0.033 A 
ATOM      4  C4  UNL d   1       2.912  -2.255   3.104  0.00  0.00    -0.042 A 
ATOM      5  C5  UNL d   1       3.444  -3.509   2.826  0.00  0.00     0.033 A 
ATOM      6  C6  UNL d   1       4.235  -4.159   3.778  0.00  0.00    -0.057 A 
ENDROOT
BRANCH   1   7
ATOM      7  N   UNL d   1       5.381  -4.242   5.891  0.00  0.00    -0.732 N 
ATOM      8  C   UNL d   1       5.364  -5.684   6.000  0.00  0.00     0.284 C 
ATOM      9  H3  UNL d   1       6.314  -3.837   5.876  0.00  0.00     0.395 HD
ENDBRANCH   1   7
TORSDOF 1
ENDMDL
