MODEL 1
REMARK minimizedAffinity 15.6218901
REMARK minimizedRMSD -1
REMARK  1 active torsions:
REMARK  status: ('A' for Active; 'I' for Inactive)
REMARK    1  A    between atoms: N_2  and  C1_3 
ROOT
ATOM      1  C1  UNL d   1       0.782  -3.140  -2.976  0.00  0.00     0.143 A 
ATOM      2  C2  UNL d   1      -0.216  -2.454  -3.678  0.00  0.00    -0.057 A 
ATOM      3  C3  UNL d   1      -1.175  -1.684  -3.009  0.00  0.00     0.033 A 
ATOM      4  C4  UNL d   1      -1.172  -1.610  -1.620  0.00  0.00    -0.042 A 
ATOM      5  C5  UNL d   1      -0.205  -2.304  -0.901  0.00  0.00     0.033 A 
ATOM      6  C6  UNL d   1       0.755  -3.065  -1.575  0.00  0.00    -0.057 A 
ENDROOT
BRANCH   1   7
ATOM      7  N   UNL d   1       1.704  -4.000  -3.578  0.00  0.00    -0.732 N 
ATOM      8  C   UNL d   1       3.101  -3.635  -3.671  0.00  0.00     0.284 C 
ATOM      9  H3  UNL d   1       1.544  -4.974  -3.330  0.00  0.00     0.395 HD
ENDBRANCH   1   7
TORSDOF 1
ENDMDL
