MODEL 1
REMARK minimizedAffinity 8.99768543
REMARK minimizedRMSD -1
REMARK  1 active torsions:
REMARK  status: ('A' for Active; 'I' for Inactive)
REMARK    1  A    between atoms: N_2  and  C1_3 
ROOT
ATOM      1  C1  UNL d   1       3.795   5.610  -1.952  0.00  0.00     0.143 A 
ATOM      2  C2  UNL d   1       3.099   5.874  -3.136  0.00  0.00    -0.057 A 
ATOM      3  C3  UNL d   1       1.702   5.967  -3.151  0.00  0.00     0.033 A 
ATOM      4  C4  UNL d   1       0.973   5.767  -1.984  0.00  0.00    -0.042 A 
ATOM      5  C5  UNL d   1       1.643   5.478  -0.800  0.00  0.00     0.033 A 
ATOM      6  C6  UNL d   1       3.038   5.393  -0.790  0.00  0.00    -0.057 A 
ENDROOT
BRANCH   1   7
ATOM      7  N   UNL d   1       5.176   5.408  -1.891  0.00  0.00    -0.732 N 
ATOM      8  C   UNL d   1       5.961   5.996  -0.826  0.00  0.00     0.284 C 
ATOM      9  H3  UNL d   1       5.440   4.453  -2.122  0.00  0.00     0.395 HD
ENDBRANCH   1   7
TORSDOF 1
ENDMDL
