MODEL 1
REMARK minimizedAffinity 8.58165932
REMARK minimizedRMSD -1
REMARK  1 active torsions:
REMARK  status: ('A' for Active; 'I' for Inactive)
REMARK    1  A    between atoms: N_2  and  C1_3 
ROOT
ATOM      1  C1  UNL d   1      -1.054  -2.562  -2.446  0.00  0.00     0.143 A 
ATOM      2  C2  UNL d   1      -1.718  -1.828  -1.458  0.00  0.00    -0.057 A 
ATOM      3  C3  UNL d   1      -1.383  -1.961  -0.105  0.00  0.00     0.033 A 
ATOM      4  C4  UNL d   1      -0.393  -2.856   0.287  0.00  0.00    -0.042 A 
ATOM      5  C5  UNL d   1       0.264  -3.615  -0.676  0.00  0.00     0.033 A 
ATOM      6  C6  UNL d   1      -0.071  -3.472  -2.026  0.00  0.00    -0.057 A 
ENDROOT
BRANCH   1   7
ATOM      7  N   UNL d   1      -1.408  -2.546  -3.797  0.00  0.00    -0.732 N 
ATOM      8  C   UNL d   1      -2.667  -3.110  -4.235  0.00  0.00     0.284 C 
ATOM      9  H3  UNL d   1      -1.165  -1.669  -4.253  0.00  0.00     0.395 HD
ENDBRANCH   1   7
TORSDOF 1
ENDMDL
