MODEL 1
REMARK minimizedAffinity 14.9881468
REMARK minimizedRMSD -1
REMARK  1 active torsions:
REMARK  status: ('A' for Active; 'I' for Inactive)
REMARK    1  A    between atoms: N_2  and  C1_3 
ROOT
ATOM      1  C1  UNL d   1      -2.801  -0.243   0.505  0.00  0.00     0.143 A 
ATOM      2  C2  UNL d   1      -2.946  -1.600   0.815  0.00  0.00    -0.057 A 
ATOM      3  C3  UNL d   1      -2.025  -2.551   0.359  0.00  0.00     0.033 A 
ATOM      4  C4  UNL d   1      -0.956  -2.165  -0.443  0.00  0.00    -0.042 A 
ATOM      5  C5  UNL d   1      -0.807  -0.826  -0.785  0.00  0.00     0.033 A 
ATOM      6  C6  UNL d   1      -1.726   0.121  -0.321  0.00  0.00    -0.057 A 
ENDROOT
BRANCH   1   7
ATOM      7  N   UNL d   1      -3.736   0.737   0.846  0.00  0.00    -0.732 N 
ATOM      8  C   UNL d   1      -3.505   2.125   0.510  0.00  0.00     0.284 C 
ATOM      9  H3  UNL d   1      -4.694   0.427   0.699  0.00  0.00     0.395 HD
ENDBRANCH   1   7
TORSDOF 1
ENDMDL
