MODEL 1
REMARK minimizedAffinity 3.06546497
REMARK minimizedRMSD -1
REMARK  1 active torsions:
REMARK  status: ('A' for Active; 'I' for Inactive)
REMARK    1  A    between atoms: N_2  and  C1_3 
ROOT
ATOM      1  C1  UNL d   1       5.949   5.050  -3.386  0.00  0.00     0.143 A 
ATOM      2  C2  UNL d   1       5.926   3.665  -3.193  0.00  0.00    -0.057 A 
ATOM      3  C3  UNL d   1       5.962   2.780  -4.277  0.00  0.00     0.033 A 
ATOM      4  C4  UNL d   1       5.994   3.267  -5.580  0.00  0.00    -0.042 A 
ATOM      5  C5  UNL d   1       5.993   4.641  -5.796  0.00  0.00     0.033 A 
ATOM      6  C6  UNL d   1       5.963   5.519  -4.709  0.00  0.00    -0.057 A 
ENDROOT
BRANCH   1   7
ATOM      7  N   UNL d   1       5.816   5.982  -2.354  0.00  0.00    -0.732 N 
ATOM      8  C   UNL d   1       5.475   5.554  -1.014  0.00  0.00     0.284 C 
ATOM      9  H3  UNL d   1       6.529   6.707  -2.390  0.00  0.00     0.395 HD
ENDBRANCH   1   7
TORSDOF 1
ENDMDL
