MODEL 1
REMARK minimizedAffinity 5.82896709
REMARK minimizedRMSD -1
REMARK  1 active torsions:
REMARK  status: ('A' for Active; 'I' for Inactive)
REMARK    1  A    between atoms: N_2  and  C1_3 
ROOT
ATOM      1  C1  UNL d   1       5.905   4.883  -3.577  0.00  0.00     0.143 A 
ATOM      2  C2  UNL d   1       5.966   5.265  -4.922  0.00  0.00    -0.057 A 
ATOM      3  C3  UNL d   1       5.997   4.311  -5.946  0.00  0.00     0.033 A 
ATOM      4  C4  UNL d   1       5.998   2.954  -5.642  0.00  0.00    -0.042 A 
ATOM      5  C5  UNL d   1       5.963   2.551  -4.311  0.00  0.00     0.033 A 
ATOM      6  C6  UNL d   1       5.925   3.509  -3.293  0.00  0.00    -0.057 A 
ENDROOT
BRANCH   1   7
ATOM      7  N   UNL d   1       5.971   5.782  -2.510  0.00  0.00    -0.732 N 
ATOM      8  C   UNL d   1       5.953   5.307  -1.143  0.00  0.00     0.284 C 
ATOM      9  H3  UNL d   1       6.631   6.538  -2.679  0.00  0.00     0.395 HD
ENDBRANCH   1   7
TORSDOF 1
ENDMDL
