MODEL 1
REMARK minimizedAffinity 10.9101562
REMARK minimizedRMSD -1
REMARK  1 active torsions:
REMARK  status: ('A' for Active; 'I' for Inactive)
REMARK    1  A    between atoms: N_2  and  C1_3 
ROOT
ATOM      1  C1  UNL d   1       3.836   4.486  -1.611  0.00  0.00     0.143 A 
ATOM      2  C2  UNL d   1       3.348   3.918  -0.430  0.00  0.00    -0.057 A 
ATOM      3  C3  UNL d   1       1.973   3.847  -0.172  0.00  0.00     0.033 A 
ATOM      4  C4  UNL d   1       1.061   4.372  -1.082  0.00  0.00    -0.042 A 
ATOM      5  C5  UNL d   1       1.525   4.964  -2.252  0.00  0.00     0.033 A 
ATOM      6  C6  UNL d   1       2.899   5.025  -2.506  0.00  0.00    -0.057 A 
ENDROOT
BRANCH   1   7
ATOM      7  N   UNL d   1       5.194   4.674  -1.880  0.00  0.00    -0.732 N 
ATOM      8  C   UNL d   1       5.806   5.974  -1.710  0.00  0.00     0.284 C 
ATOM      9  H3  UNL d   1       5.766   3.899  -1.552  0.00  0.00     0.395 HD
ENDBRANCH   1   7
TORSDOF 1
ENDMDL
