MODEL 1
REMARK minimizedAffinity 8.16991901
REMARK minimizedRMSD -1
REMARK  1 active torsions:
REMARK  status: ('A' for Active; 'I' for Inactive)
REMARK    1  A    between atoms: N_2  and  C1_3 
ROOT
ATOM      1  C1  UNL d   1       3.312   4.532  -1.870  0.00  0.00     0.143 A 
ATOM      2  C2  UNL d   1       3.934   5.724  -1.484  0.00  0.00    -0.057 A 
ATOM      3  C3  UNL d   1       5.260   5.999  -1.840  0.00  0.00     0.033 A 
ATOM      4  C4  UNL d   1       5.999   5.069  -2.566  0.00  0.00    -0.042 A 
ATOM      5  C5  UNL d   1       5.408   3.867  -2.938  0.00  0.00     0.033 A 
ATOM      6  C6  UNL d   1       4.081   3.602  -2.586  0.00  0.00    -0.057 A 
ENDROOT
BRANCH   1   7
ATOM      7  N   UNL d   1       2.028   4.158  -1.464  0.00  0.00    -0.732 N 
ATOM      8  C   UNL d   1       1.786   3.707  -0.110  0.00  0.00     0.284 C 
ATOM      9  H3  UNL d   1       1.309   4.777  -1.830  0.00  0.00     0.395 HD
ENDBRANCH   1   7
TORSDOF 1
ENDMDL
