MODEL 1
REMARK minimizedAffinity 3.83007956
REMARK minimizedRMSD -1
REMARK  0 active torsions:
REMARK  status: ('A' for Active; 'I' for Inactive)
ROOT
ATOM      1  C1  BNZ d   1       1.042  -1.099   4.594  0.00  0.00     0.000 A 
ATOM      2  C2  BNZ d   1       0.824   0.242   4.427  0.00  0.00     0.000 A 
ATOM      3  C3  BNZ d   1       0.436   0.743   3.215  0.00  0.00     0.000 A 
ATOM      4  C4  BNZ d   1       0.304  -0.092   2.165  0.00  0.00     0.000 A 
ATOM      5  C5  BNZ d   1       0.529  -1.446   2.315  0.00  0.00     0.000 A 
ATOM      6  C6  BNZ d   1       0.882  -1.951   3.545  0.00  0.00     0.000 A 
ENDROOT
TORSDOF 0
ENDMDL
