MODEL 1
REMARK minimizedAffinity 9.19656277
REMARK minimizedRMSD -1
REMARK  0 active torsions:
REMARK  status: ('A' for Active; 'I' for Inactive)
ROOT
ATOM      1  C1  BNZ d   1       0.549  -3.698  -6.000  0.00  0.00     0.000 A 
ATOM      2  C2  BNZ d   1      -0.323  -2.730  -5.576  0.00  0.00     0.000 A 
ATOM      3  C3  BNZ d   1       0.108  -1.693  -4.797  0.00  0.00     0.000 A 
ATOM      4  C4  BNZ d   1       1.398  -1.647  -4.409  0.00  0.00     0.000 A 
ATOM      5  C5  BNZ d   1       2.287  -2.620  -4.820  0.00  0.00     0.000 A 
ATOM      6  C6  BNZ d   1       1.859  -3.641  -5.637  0.00  0.00     0.000 A 
ENDROOT
TORSDOF 0
ENDMDL
