MODEL 1
REMARK minimizedAffinity 5.78535271
REMARK minimizedRMSD -1
REMARK  0 active torsions:
REMARK  status: ('A' for Active; 'I' for Inactive)
ROOT
ATOM      1  C1  BNZ d   1      -0.034  -0.190   2.131  0.00  0.00     0.000 A 
ATOM      2  C2  BNZ d   1       0.941   0.764   2.250  0.00  0.00     0.000 A 
ATOM      3  C3  BNZ d   1       2.049   0.540   3.019  0.00  0.00     0.000 A 
ATOM      4  C4  BNZ d   1       2.161  -0.620   3.698  0.00  0.00     0.000 A 
ATOM      5  C5  BNZ d   1       1.182  -1.588   3.595  0.00  0.00     0.000 A 
ATOM      6  C6  BNZ d   1       0.087  -1.375   2.789  0.00  0.00     0.000 A 
ENDROOT
TORSDOF 0
ENDMDL
