MODEL 1
REMARK minimizedAffinity 11.088583
REMARK minimizedRMSD -1
REMARK  0 active torsions:
REMARK  status: ('A' for Active; 'I' for Inactive)
ROOT
ATOM      1  C1  BNZ d   1      -0.293   1.599   2.984  0.00  0.00     0.000 A 
ATOM      2  C2  BNZ d   1      -0.894   0.637   2.217  0.00  0.00     0.000 A 
ATOM      3  C3  BNZ d   1      -0.380  -0.627   2.151  0.00  0.00     0.000 A 
ATOM      4  C4  BNZ d   1       0.755  -0.917   2.819  0.00  0.00     0.000 A 
ATOM      5  C5  BNZ d   1       1.378   0.044   3.589  0.00  0.00     0.000 A 
ATOM      6  C6  BNZ d   1       0.836   1.305   3.684  0.00  0.00     0.000 A 
ENDROOT
TORSDOF 0
ENDMDL
