MODEL 1
REMARK minimizedAffinity 3.05338192
REMARK minimizedRMSD -1
REMARK  0 active torsions:
REMARK  status: ('A' for Active; 'I' for Inactive)
ROOT
ATOM      1  C1  BNZ d   1       1.872  -0.500   3.870  0.00  0.00     0.000 A 
ATOM      2  C2  BNZ d   1       1.638  -1.246   2.746  0.00  0.00     0.000 A 
ATOM      3  C3  BNZ d   1       0.595  -0.948   1.913  0.00  0.00     0.000 A 
ATOM      4  C4  BNZ d   1      -0.234   0.068   2.226  0.00  0.00     0.000 A 
ATOM      5  C5  BNZ d   1      -0.017   0.824   3.361  0.00  0.00     0.000 A 
ATOM      6  C6  BNZ d   1       1.057   0.546   4.176  0.00  0.00     0.000 A 
ENDROOT
TORSDOF 0
ENDMDL
