MODEL 1
REMARK minimizedAffinity 8.3605051
REMARK minimizedRMSD -1
REMARK  0 active torsions:
REMARK  status: ('A' for Active; 'I' for Inactive)
ROOT
ATOM      1  C1  BNZ d   1      -1.048  -1.146   2.031  0.00  0.00     0.000 A 
ATOM      2  C2  BNZ d   1       0.220  -1.531   1.683  0.00  0.00     0.000 A 
ATOM      3  C3  BNZ d   1       1.312  -0.908   2.219  0.00  0.00     0.000 A 
ATOM      4  C4  BNZ d   1       1.135   0.123   3.071  0.00  0.00     0.000 A 
ATOM      5  C5  BNZ d   1      -0.136   0.528   3.424  0.00  0.00     0.000 A 
ATOM      6  C6  BNZ d   1      -1.233  -0.126   2.912  0.00  0.00     0.000 A 
ENDROOT
TORSDOF 0
ENDMDL
