MODEL 1
REMARK minimizedAffinity 5.16938305
REMARK minimizedRMSD -1
REMARK  0 active torsions:
REMARK  status: ('A' for Active; 'I' for Inactive)
ROOT
ATOM      1  C1  BNZ d   1      -1.560  -5.810  -5.956  0.00  0.00     0.000 A 
ATOM      2  C2  BNZ d   1      -2.107  -4.554  -5.945  0.00  0.00     0.000 A 
ATOM      3  C3  BNZ d   1      -1.311  -3.444  -5.985  0.00  0.00     0.000 A 
ATOM      4  C4  BNZ d   1       0.029  -3.589  -5.997  0.00  0.00     0.000 A 
ATOM      5  C5  BNZ d   1       0.596  -4.848  -6.000  0.00  0.00     0.000 A 
ATOM      6  C6  BNZ d   1      -0.209  -5.964  -5.998  0.00  0.00     0.000 A 
ENDROOT
TORSDOF 0
ENDMDL
