MODEL 1
REMARK minimizedAffinity 7.03052378
REMARK minimizedRMSD -1
REMARK  0 active torsions:
REMARK  status: ('A' for Active; 'I' for Inactive)
ROOT
ATOM      1  C1  BNZ d   1      -1.189   0.234   2.849  0.00  0.00     0.000 A 
ATOM      2  C2  BNZ d   1       0.021   0.684   2.393  0.00  0.00     0.000 A 
ATOM      3  C3  BNZ d   1       1.133  -0.108   2.457  0.00  0.00     0.000 A 
ATOM      4  C4  BNZ d   1       1.042  -1.334   3.013  0.00  0.00     0.000 A 
ATOM      5  C5  BNZ d   1      -0.169  -1.799   3.486  0.00  0.00     0.000 A 
ATOM      6  C6  BNZ d   1      -1.294  -1.013   3.384  0.00  0.00     0.000 A 
ENDROOT
TORSDOF 0
ENDMDL
