MODEL 1
REMARK minimizedAffinity 7.97446918
REMARK minimizedRMSD -1
REMARK  0 active torsions:
REMARK  status: ('A' for Active; 'I' for Inactive)
ROOT
ATOM      1  C1  BNZ d   1      -0.418  -2.763  -3.917  0.00  0.00     0.000 A 
ATOM      2  C2  BNZ d   1       0.079  -2.050  -4.976  0.00  0.00     0.000 A 
ATOM      3  C3  BNZ d   1       0.441  -0.740  -4.830  0.00  0.00     0.000 A 
ATOM      4  C4  BNZ d   1       0.269  -0.133  -3.638  0.00  0.00     0.000 A 
ATOM      5  C5  BNZ d   1      -0.240  -0.836  -2.563  0.00  0.00     0.000 A 
ATOM      6  C6  BNZ d   1      -0.566  -2.165  -2.703  0.00  0.00     0.000 A 
ENDROOT
TORSDOF 0
ENDMDL
