MODEL 1
REMARK minimizedAffinity 3.20934153
REMARK minimizedRMSD -1
REMARK  0 active torsions:
REMARK  status: ('A' for Active; 'I' for Inactive)
ROOT
ATOM      1  C1  BNZ d   1       1.381  -1.224   3.143  0.00  0.00     0.000 A 
ATOM      2  C2  BNZ d   1       1.793  -0.439   4.187  0.00  0.00     0.000 A 
ATOM      3  C3  BNZ d   1       1.080   0.668   4.554  0.00  0.00     0.000 A 
ATOM      4  C4  BNZ d   1      -0.019   1.011   3.853  0.00  0.00     0.000 A 
ATOM      5  C5  BNZ d   1      -0.443   0.236   2.793  0.00  0.00     0.000 A 
ATOM      6  C6  BNZ d   1       0.255  -0.900   2.450  0.00  0.00     0.000 A 
ENDROOT
TORSDOF 0
ENDMDL
