MODEL 1
REMARK minimizedAffinity -2.22800398
REMARK minimizedRMSD -1
REMARK  0 active torsions:
REMARK  status: ('A' for Active; 'I' for Inactive)
ROOT
ATOM      1  C2' OXE d   1       1.511  -2.644  -2.598  0.00  0.00     0.078 C 
ATOM      2  C1' OXE d   1       1.273   0.053  -3.340  0.00  0.00     0.078 C 
ATOM      3  C1  OXE d   1       0.986  -0.309  -1.904  0.00  0.00    -0.078 A 
ATOM      4  C2  OXE d   1       1.060  -1.638  -1.561  0.00  0.00    -0.078 A 
ATOM      5  C3  OXE d   1       0.858  -2.020  -0.238  0.00  0.00     0.003 A 
ATOM      6  C4  OXE d   1       0.431  -1.085   0.713  0.00  0.00    -0.002 A 
ATOM      7  C5  OXE d   1       0.311   0.267   0.375  0.00  0.00    -0.002 A 
ATOM      8  C6  OXE d   1       0.625   0.677  -0.916  0.00  0.00     0.003 A 
ENDROOT
TORSDOF 0
ENDMDL
