MODEL 1
REMARK minimizedAffinity -2.3490324
REMARK minimizedRMSD -1
REMARK  0 active torsions:
REMARK  status: ('A' for Active; 'I' for Inactive)
ROOT
ATOM      1  C2' OXE d   1       2.238   0.413   1.237  0.00  0.00     0.078 C 
ATOM      2  C1' OXE d   1       1.122   0.415  -1.339  0.00  0.00     0.078 C 
ATOM      3  C1  OXE d   1       0.187   0.573  -0.167  0.00  0.00    -0.078 A 
ATOM      4  C2  OXE d   1       0.736   0.524   1.092  0.00  0.00    -0.078 A 
ATOM      5  C3  OXE d   1      -0.075   0.719   2.206  0.00  0.00     0.003 A 
ATOM      6  C4  OXE d   1      -1.465   0.811   2.063  0.00  0.00    -0.002 A 
ATOM      7  C5  OXE d   1      -2.049   0.823   0.792  0.00  0.00    -0.002 A 
ATOM      8  C6  OXE d   1      -1.235   0.748  -0.332  0.00  0.00     0.003 A 
ENDROOT
TORSDOF 0
ENDMDL
