MODEL 1
REMARK minimizedAffinity -2.93738413
REMARK minimizedRMSD -1
REMARK  0 active torsions:
REMARK  status: ('A' for Active; 'I' for Inactive)
ROOT
ATOM      1  C2' OXE d   1      -1.960   0.659  -0.735  0.00  0.00     0.078 C 
ATOM      2  C1' OXE d   1       0.637   0.231  -1.710  0.00  0.00     0.078 C 
ATOM      3  C1  OXE d   1       0.444   0.264  -0.215  0.00  0.00    -0.078 A 
ATOM      4  C2  OXE d   1      -0.822   0.521   0.254  0.00  0.00    -0.078 A 
ATOM      5  C3  OXE d   1      -1.066   0.509   1.624  0.00  0.00     0.003 A 
ATOM      6  C4  OXE d   1      -0.006   0.391   2.531  0.00  0.00    -0.002 A 
ATOM      7  C5  OXE d   1       1.297   0.168   2.076  0.00  0.00    -0.002 A 
ATOM      8  C6  OXE d   1       1.532   0.060   0.709  0.00  0.00     0.003 A 
ENDROOT
TORSDOF 0
ENDMDL
