MODEL 1
REMARK minimizedAffinity -0.446303904
REMARK minimizedRMSD -1
REMARK  0 active torsions:
REMARK  status: ('A' for Active; 'I' for Inactive)
ROOT
ATOM      1  C2' OXE d   1       0.296   0.332  -2.037  0.00  0.00     0.078 C 
ATOM      2  C1' OXE d   1      -2.124   0.661  -0.654  0.00  0.00     0.078 C 
ATOM      3  C1  OXE d   1      -0.867   0.480   0.161  0.00  0.00    -0.078 A 
ATOM      4  C2  OXE d   1       0.306   0.273  -0.525  0.00  0.00    -0.078 A 
ATOM      5  C3  OXE d   1       1.502   0.155   0.176  0.00  0.00     0.003 A 
ATOM      6  C4  OXE d   1       1.501   0.092   1.575  0.00  0.00    -0.002 A 
ATOM      7  C5  OXE d   1       0.312   0.261   2.292  0.00  0.00    -0.002 A 
ATOM      8  C6  OXE d   1      -0.872   0.498   1.602  0.00  0.00     0.003 A 
ENDROOT
TORSDOF 0
ENDMDL
