MODEL 1
REMARK minimizedAffinity -3.00080299
REMARK minimizedRMSD -1
REMARK  0 active torsions:
REMARK  status: ('A' for Active; 'I' for Inactive)
ROOT
ATOM      1  C2' OXE d   1       0.016  -1.762  -3.440  0.00  0.00     0.078 C 
ATOM      2  C1' OXE d   1       1.774   0.410  -3.175  0.00  0.00     0.078 C 
ATOM      3  C1  OXE d   1       0.980  -0.005  -1.961  0.00  0.00    -0.078 A 
ATOM      4  C2  OXE d   1       0.088  -1.039  -2.113  0.00  0.00    -0.078 A 
ATOM      5  C3  OXE d   1      -0.630  -1.498  -1.011  0.00  0.00     0.003 A 
ATOM      6  C4  OXE d   1      -0.565  -0.817   0.210  0.00  0.00    -0.002 A 
ATOM      7  C5  OXE d   1       0.308   0.264   0.375  0.00  0.00    -0.002 A 
ATOM      8  C6  OXE d   1       1.117   0.655  -0.686  0.00  0.00     0.003 A 
ENDROOT
TORSDOF 0
ENDMDL
