MODEL 1
REMARK minimizedAffinity -2.72091484
REMARK minimizedRMSD -1
REMARK  0 active torsions:
REMARK  status: ('A' for Active; 'I' for Inactive)
ROOT
ATOM      1  C2' OXE d   1       0.888   0.537  -1.491  0.00  0.00     0.078 C 
ATOM      2  C1' OXE d   1      -1.887   0.271  -1.164  0.00  0.00     0.078 C 
ATOM      3  C1  OXE d   1      -1.028   0.253   0.075  0.00  0.00    -0.078 A 
ATOM      4  C2  OXE d   1       0.333   0.337  -0.097  0.00  0.00    -0.078 A 
ATOM      5  C3  OXE d   1       1.167   0.381   1.016  0.00  0.00     0.003 A 
ATOM      6  C4  OXE d   1       0.646   0.186   2.301  0.00  0.00    -0.002 A 
ATOM      7  C5  OXE d   1      -0.734   0.058   2.495  0.00  0.00    -0.002 A 
ATOM      8  C6  OXE d   1      -1.586   0.133   1.400  0.00  0.00     0.003 A 
ENDROOT
TORSDOF 0
ENDMDL
