MODEL 1
REMARK minimizedAffinity -1.98993731
REMARK minimizedRMSD -1
REMARK  0 active torsions:
REMARK  status: ('A' for Active; 'I' for Inactive)
ROOT
ATOM      1  C2' OXE d   1       4.483  -3.033   2.639  0.00  0.00     0.078 C 
ATOM      2  C1' OXE d   1       2.874  -5.333   2.587  0.00  0.00     0.078 C 
ATOM      3  C1  OXE d   1       3.732  -5.102   3.806  0.00  0.00    -0.078 A 
ATOM      4  C2  OXE d   1       4.551  -3.998   3.803  0.00  0.00    -0.078 A 
ATOM      5  C3  OXE d   1       5.322  -3.709   4.925  0.00  0.00     0.003 A 
ATOM      6  C4  OXE d   1       5.386  -4.612   5.993  0.00  0.00    -0.002 A 
ATOM      7  C5  OXE d   1       4.590  -5.762   5.999  0.00  0.00    -0.002 A 
ATOM      8  C6  OXE d   1       3.727  -5.999   4.935  0.00  0.00     0.003 A 
ENDROOT
TORSDOF 0
ENDMDL
