MODEL 1
REMARK minimizedAffinity -0.466704547
REMARK minimizedRMSD -1
REMARK  0 active torsions:
REMARK  status: ('A' for Active; 'I' for Inactive)
ROOT
ATOM      1  C2' OXE d   1      -1.728   0.479  -0.468  0.00  0.00     0.078 C 
ATOM      2  C1' OXE d   1       0.870   0.325  -1.521  0.00  0.00     0.078 C 
ATOM      3  C1  OXE d   1       0.721   0.386  -0.021  0.00  0.00    -0.078 A 
ATOM      4  C2  OXE d   1      -0.551   0.508   0.484  0.00  0.00    -0.078 A 
ATOM      5  C3  OXE d   1      -0.748   0.513   1.861  0.00  0.00     0.003 A 
ATOM      6  C4  OXE d   1       0.346   0.549   2.734  0.00  0.00    -0.002 A 
ATOM      7  C5  OXE d   1       1.652   0.466   2.239  0.00  0.00    -0.002 A 
ATOM      8  C6  OXE d   1       1.854   0.341   0.869  0.00  0.00     0.003 A 
ENDROOT
TORSDOF 0
ENDMDL
