MODEL 1
REMARK minimizedAffinity -3.40750098
REMARK minimizedRMSD -1
REMARK  0 active torsions:
REMARK  status: ('A' for Active; 'I' for Inactive)
ROOT
ATOM      1  C2' OXE d   1       1.918   0.339   0.998  0.00  0.00     0.078 C 
ATOM      2  C1' OXE d   1       0.178   0.323  -1.204  0.00  0.00     0.078 C 
ATOM      3  C1  OXE d   1      -0.432   0.392   0.174  0.00  0.00    -0.078 A 
ATOM      4  C2  OXE d   1       0.425   0.352   1.247  0.00  0.00    -0.078 A 
ATOM      5  C3  OXE d   1      -0.081   0.468   2.539  0.00  0.00     0.003 A 
ATOM      6  C4  OXE d   1      -1.463   0.470   2.760  0.00  0.00    -0.002 A 
ATOM      7  C5  OXE d   1      -2.355   0.471   1.683  0.00  0.00    -0.002 A 
ATOM      8  C6  OXE d   1      -1.856   0.475   0.385  0.00  0.00     0.003 A 
ENDROOT
TORSDOF 0
ENDMDL
