MODEL 1
REMARK minimizedAffinity -4.49056768
REMARK minimizedRMSD -1
REMARK  0 active torsions:
REMARK  status: ('A' for Active; 'I' for Inactive)
ROOT
ATOM      1  C2' OXE d   1      -1.100   1.019  -1.275  0.00  0.00     0.078 C 
ATOM      2  C1' OXE d   1      -2.845   0.665   0.895  0.00  0.00     0.078 C 
ATOM      3  C1  OXE d   1      -1.380   0.378   1.116  0.00  0.00    -0.078 A 
ATOM      4  C2  OXE d   1      -0.541   0.509   0.036  0.00  0.00    -0.078 A 
ATOM      5  C3  OXE d   1       0.827   0.309   0.198  0.00  0.00     0.003 A 
ATOM      6  C4  OXE d   1       1.334  -0.172   1.411  0.00  0.00    -0.002 A 
ATOM      7  C5  OXE d   1       0.491  -0.350   2.513  0.00  0.00    -0.002 A 
ATOM      8  C6  OXE d   1      -0.860  -0.039   2.394  0.00  0.00     0.003 A 
ENDROOT
TORSDOF 0
ENDMDL
