MODEL 1
REMARK minimizedAffinity -0.532871306
REMARK minimizedRMSD -1
REMARK  0 active torsions:
REMARK  status: ('A' for Active; 'I' for Inactive)
ROOT
ATOM      1  C2' OXE d   1       0.571  -0.115  -1.521  0.00  0.00     0.078 C 
ATOM      2  C1' OXE d   1       2.419   0.332   0.544  0.00  0.00     0.078 C 
ATOM      3  C1  OXE d   1       0.963   0.205   0.918  0.00  0.00    -0.078 A 
ATOM      4  C2  OXE d   1       0.061   0.033  -0.104  0.00  0.00    -0.078 A 
ATOM      5  C3  OXE d   1      -1.288  -0.145   0.190  0.00  0.00     0.003 A 
ATOM      6  C4  OXE d   1      -1.753   0.004   1.502  0.00  0.00    -0.002 A 
ATOM      7  C5  OXE d   1      -0.855   0.219   2.553  0.00  0.00    -0.002 A 
ATOM      8  C6  OXE d   1       0.508   0.280   2.284  0.00  0.00     0.003 A 
ENDROOT
TORSDOF 0
ENDMDL
