MODEL 1
REMARK minimizedAffinity -2.08078241
REMARK minimizedRMSD -1
REMARK  0 active torsions:
REMARK  status: ('A' for Active; 'I' for Inactive)
ROOT
ATOM      1  C2' OXE d   1      -0.222   0.383  -1.496  0.00  0.00     0.078 C 
ATOM      2  C1' OXE d   1      -2.611   0.382  -0.022  0.00  0.00     0.078 C 
ATOM      3  C1  OXE d   1      -1.312   0.430   0.743  0.00  0.00    -0.078 A 
ATOM      4  C2  OXE d   1      -0.148   0.383   0.016  0.00  0.00    -0.078 A 
ATOM      5  C3  OXE d   1       1.078   0.479   0.669  0.00  0.00     0.003 A 
ATOM      6  C4  OXE d   1       1.138   0.469   2.067  0.00  0.00    -0.002 A 
ATOM      7  C5  OXE d   1      -0.035   0.477   2.829  0.00  0.00    -0.002 A 
ATOM      8  C6  OXE d   1      -1.266   0.501   2.183  0.00  0.00     0.003 A 
ENDROOT
TORSDOF 0
ENDMDL
