MODEL 1
REMARK minimizedAffinity -2.98309326
REMARK minimizedRMSD -1
REMARK  0 active torsions:
REMARK  status: ('A' for Active; 'I' for Inactive)
ROOT
ATOM      1  C2' OXE d   1      -1.619   0.970  -1.175  0.00  0.00     0.078 C 
ATOM      2  C1' OXE d   1       0.646  -0.494  -1.955  0.00  0.00     0.078 C 
ATOM      3  C1  OXE d   1       0.498  -0.153  -0.493  0.00  0.00    -0.078 A 
ATOM      4  C2  OXE d   1      -0.590   0.603  -0.128  0.00  0.00    -0.078 A 
ATOM      5  C3  OXE d   1      -0.803   0.899   1.216  0.00  0.00     0.003 A 
ATOM      6  C4  OXE d   1       0.159   0.565   2.177  0.00  0.00    -0.002 A 
ATOM      7  C5  OXE d   1       1.294  -0.171   1.819  0.00  0.00    -0.002 A 
ATOM      8  C6  OXE d   1       1.456  -0.573   0.499  0.00  0.00     0.003 A 
ENDROOT
TORSDOF 0
ENDMDL
