MODEL 1
REMARK minimizedAffinity -3.59078908
REMARK minimizedRMSD -1
REMARK  0 active torsions:
REMARK  status: ('A' for Active; 'I' for Inactive)
ROOT
ATOM      1  C2' OXE d   1      -2.633   0.364  -0.025  0.00  0.00     0.078 C 
ATOM      2  C1' OXE d   1      -0.110   0.091  -1.224  0.00  0.00     0.078 C 
ATOM      3  C1  OXE d   1      -0.180   0.057   0.282  0.00  0.00    -0.078 A 
ATOM      4  C2  OXE d   1      -1.413   0.238   0.862  0.00  0.00    -0.078 A 
ATOM      5  C3  OXE d   1      -1.542   0.160   2.245  0.00  0.00     0.003 A 
ATOM      6  C4  OXE d   1      -0.407   0.053   3.058  0.00  0.00    -0.002 A 
ATOM      7  C5  OXE d   1       0.863  -0.092   2.489  0.00  0.00    -0.002 A 
ATOM      8  C6  OXE d   1       0.988  -0.135   1.105  0.00  0.00     0.003 A 
ENDROOT
TORSDOF 0
ENDMDL
