MODEL 1
REMARK minimizedAffinity 0.0483573601
REMARK minimizedRMSD -1
REMARK  0 active torsions:
REMARK  status: ('A' for Active; 'I' for Inactive)
ROOT
ATOM      1  O1  BZF d   1      -2.451   2.719  -2.602  0.00  0.00    -0.204 OA
ATOM      2  C2  BZF d   1      -1.305   3.312  -3.094  0.00  0.00     0.174 A 
ATOM      3  C3  BZF d   1      -0.936   2.745  -4.261  0.00  0.00    -0.012 A 
ATOM      4  C3A BZF d   1      -1.965   1.796  -4.560  0.00  0.00    -0.107 A 
ATOM      5  C4  BZF d   1      -2.172   0.931  -5.596  0.00  0.00     0.055 A 
ATOM      6  C5  BZF d   1      -3.238   0.089  -5.550  0.00  0.00    -0.016 A 
ATOM      7  C6  BZF d   1      -4.112   0.081  -4.482  0.00  0.00     0.022 A 
ATOM      8  C7  BZF d   1      -3.950   0.925  -3.434  0.00  0.00     0.029 A 
ATOM      9  C7A BZF d   1      -2.893   1.800  -3.493  0.00  0.00     0.058 A 
ENDROOT
TORSDOF 0
ENDMDL
