MODEL 1
REMARK minimizedAffinity 0.760977387
REMARK minimizedRMSD -1
REMARK  0 active torsions:
REMARK  status: ('A' for Active; 'I' for Inactive)
ROOT
ATOM      1  O1  BZF d   1      -1.337  -0.778   1.345  0.00  0.00    -0.204 OA
ATOM      2  C2  BZF d   1      -2.158  -0.540   0.260  0.00  0.00     0.174 A 
ATOM      3  C3  BZF d   1      -1.432  -0.397  -0.868  0.00  0.00    -0.012 A 
ATOM      4  C3A BZF d   1      -0.078  -0.647  -0.477  0.00  0.00    -0.107 A 
ATOM      5  C4  BZF d   1       1.106  -0.669  -1.157  0.00  0.00     0.055 A 
ATOM      6  C5  BZF d   1       2.259  -0.874  -0.468  0.00  0.00    -0.016 A 
ATOM      7  C6  BZF d   1       2.265  -1.055   0.900  0.00  0.00     0.022 A 
ATOM      8  C7  BZF d   1       1.115  -1.047   1.617  0.00  0.00     0.029 A 
ATOM      9  C7A BZF d   1      -0.055  -0.873   0.919  0.00  0.00     0.058 A 
ENDROOT
TORSDOF 0
ENDMDL
