MODEL 1
REMARK minimizedAffinity 2.85825348
REMARK minimizedRMSD -1
REMARK  0 active torsions:
REMARK  status: ('A' for Active; 'I' for Inactive)
ROOT
ATOM      1  O1  BZF d   1       0.642  -0.461   0.137  0.00  0.00    -0.204 OA
ATOM      2  C2  BZF d   1      -0.338   0.435   0.518  0.00  0.00     0.174 A 
ATOM      3  C3  BZF d   1      -1.047  -0.047   1.560  0.00  0.00    -0.012 A 
ATOM      4  C3A BZF d   1      -0.415  -1.283   1.906  0.00  0.00    -0.107 A 
ATOM      5  C4  BZF d   1      -0.651  -2.220   2.870  0.00  0.00     0.055 A 
ATOM      6  C5  BZF d   1       0.104  -3.350   2.893  0.00  0.00    -0.016 A 
ATOM      7  C6  BZF d   1       1.098  -3.577   1.964  0.00  0.00     0.022 A 
ATOM      8  C7  BZF d   1       1.373  -2.673   0.992  0.00  0.00     0.029 A 
ATOM      9  C7A BZF d   1       0.634  -1.516   0.987  0.00  0.00     0.058 A 
ENDROOT
TORSDOF 0
ENDMDL
