MODEL 1
REMARK minimizedAffinity -0.352678686
REMARK minimizedRMSD -1
REMARK  0 active torsions:
REMARK  status: ('A' for Active; 'I' for Inactive)
ROOT
ATOM      1  O1  BZF d   1       2.403   3.750   3.478  0.00  0.00    -0.204 OA
ATOM      2  C2  BZF d   1       1.767   4.924   3.832  0.00  0.00     0.174 A 
ATOM      3  C3  BZF d   1       2.589   5.981   3.668  0.00  0.00    -0.012 A 
ATOM      4  C3A BZF d   1       3.784   5.443   3.094  0.00  0.00    -0.107 A 
ATOM      5  C4  BZF d   1       4.963   5.999   2.688  0.00  0.00     0.055 A 
ATOM      6  C5  BZF d   1       5.956   5.188   2.239  0.00  0.00    -0.016 A 
ATOM      7  C6  BZF d   1       5.806   3.817   2.188  0.00  0.00     0.022 A 
ATOM      8  C7  BZF d   1       4.653   3.220   2.575  0.00  0.00     0.029 A 
ATOM      9  C7A BZF d   1       3.636   4.040   2.998  0.00  0.00     0.058 A 
ENDROOT
TORSDOF 0
ENDMDL
