MODEL 1
REMARK minimizedAffinity 1.72198129
REMARK minimizedRMSD -1
REMARK  0 active torsions:
REMARK  status: ('A' for Active; 'I' for Inactive)
ROOT
ATOM      1  O1  BZF d   1      -0.204   0.929  -1.258  0.00  0.00    -0.204 OA
ATOM      2  C2  BZF d   1       0.011  -0.374  -0.851  0.00  0.00     0.174 A 
ATOM      3  C3  BZF d   1       1.211  -0.817  -1.280  0.00  0.00    -0.012 A 
ATOM      4  C3A BZF d   1       1.820   0.308  -1.921  0.00  0.00    -0.107 A 
ATOM      5  C4  BZF d   1       3.025   0.500  -2.535  0.00  0.00     0.055 A 
ATOM      6  C5  BZF d   1       3.283   1.697  -3.124  0.00  0.00    -0.016 A 
ATOM      7  C6  BZF d   1       2.358   2.721  -3.123  0.00  0.00     0.022 A 
ATOM      8  C7  BZF d   1       1.151   2.579  -2.523  0.00  0.00     0.029 A 
ATOM      9  C7A BZF d   1       0.901   1.382  -1.898  0.00  0.00     0.058 A 
ENDROOT
TORSDOF 0
ENDMDL
