MODEL 1
REMARK minimizedAffinity -2.4642005
REMARK minimizedRMSD -1
REMARK  0 active torsions:
REMARK  status: ('A' for Active; 'I' for Inactive)
ROOT
ATOM      1  O1  BZF d   1       0.819  -0.455  -0.299  0.00  0.00    -0.204 OA
ATOM      2  C2  BZF d   1      -0.030   0.563   0.089  0.00  0.00     0.174 A 
ATOM      3  C3  BZF d   1      -0.699   0.227   1.211  0.00  0.00    -0.012 A 
ATOM      4  C3A BZF d   1      -0.172  -1.046   1.597  0.00  0.00    -0.107 A 
ATOM      5  C4  BZF d   1      -0.425  -1.890   2.640  0.00  0.00     0.055 A 
ATOM      6  C5  BZF d   1       0.210  -3.091   2.687  0.00  0.00    -0.016 A 
ATOM      7  C6  BZF d   1       1.098  -3.481   1.706  0.00  0.00     0.022 A 
ATOM      8  C7  BZF d   1       1.385  -2.676   0.655  0.00  0.00     0.029 A 
ATOM      9  C7A BZF d   1       0.770  -1.448   0.622  0.00  0.00     0.058 A 
ENDROOT
TORSDOF 0
ENDMDL
