MODEL 1
REMARK minimizedAffinity -2.06605244
REMARK minimizedRMSD -1
REMARK  0 active torsions:
REMARK  status: ('A' for Active; 'I' for Inactive)
ROOT
ATOM      1  O1  BZF d   1       1.100  -2.796   0.409  0.00  0.00    -0.204 OA
ATOM      2  C2  BZF d   1       1.747  -3.353   1.495  0.00  0.00     0.174 A 
ATOM      3  C3  BZF d   1       1.295  -2.818   2.647  0.00  0.00    -0.012 A 
ATOM      4  C3A BZF d   1       0.239  -1.933   2.262  0.00  0.00    -0.107 A 
ATOM      5  C4  BZF d   1      -0.609  -1.122   2.962  0.00  0.00     0.055 A 
ATOM      6  C5  BZF d   1      -1.478  -0.331   2.281  0.00  0.00    -0.016 A 
ATOM      7  C6  BZF d   1      -1.524  -0.321   0.902  0.00  0.00     0.022 A 
ATOM      8  C7  BZF d   1      -0.706  -1.111   0.165  0.00  0.00     0.029 A 
ATOM      9  C7A BZF d   1       0.151  -1.936   0.851  0.00  0.00     0.058 A 
ENDROOT
TORSDOF 0
ENDMDL
