MODEL 1
REMARK minimizedAffinity 2.7799201
REMARK minimizedRMSD -1
REMARK  0 active torsions:
REMARK  status: ('A' for Active; 'I' for Inactive)
ROOT
ATOM      1  O1  BZF d   1       0.492   0.716  -0.620  0.00  0.00    -0.204 OA
ATOM      2  C2  BZF d   1       1.806   0.688  -0.194  0.00  0.00     0.174 A 
ATOM      3  C3  BZF d   1       1.896   0.175   1.049  0.00  0.00    -0.012 A 
ATOM      4  C3A BZF d   1       0.564  -0.224   1.388  0.00  0.00    -0.107 A 
ATOM      5  C4  BZF d   1       0.013  -0.816   2.489  0.00  0.00     0.055 A 
ATOM      6  C5  BZF d   1      -1.332  -1.004   2.534  0.00  0.00    -0.016 A 
ATOM      7  C6  BZF d   1      -2.155  -0.609   1.499  0.00  0.00     0.022 A 
ATOM      8  C7  BZF d   1      -1.654  -0.022   0.385  0.00  0.00     0.029 A 
ATOM      9  C7A BZF d   1      -0.291   0.139   0.323  0.00  0.00     0.058 A 
ENDROOT
TORSDOF 0
ENDMDL
