MODEL 1
REMARK minimizedAffinity -0.553937078
REMARK minimizedRMSD -1
REMARK  0 active torsions:
REMARK  status: ('A' for Active; 'I' for Inactive)
ROOT
ATOM      1  C   UNL d   1      -0.624   2.087   3.897  0.00  0.00     0.077 C 
ATOM      2  C1  UNL d   1      -0.981   2.923   2.705  0.00  0.00    -0.074 A 
ATOM      3  C2  UNL d   1      -2.175   3.651   2.669  0.00  0.00    -0.005 A 
ATOM      4  C3  UNL d   1      -2.490   4.432   1.558  0.00  0.00     0.006 A 
ATOM      5  C4  UNL d   1      -1.615   4.494   0.472  0.00  0.00    -0.005 A 
ATOM      6  C5  UNL d   1      -0.416   3.774   0.490  0.00  0.00    -0.074 A 
ATOM      7  C6  UNL d   1       0.539   3.837  -0.664  0.00  0.00     0.077 C 
ATOM      8  C7  UNL d   1      -0.104   2.997   1.614  0.00  0.00    -0.001 A 
ENDROOT
TORSDOF 0
ENDMDL
