MODEL 1
REMARK minimizedAffinity 2.77535748
REMARK minimizedRMSD -1
REMARK  0 active torsions:
REMARK  status: ('A' for Active; 'I' for Inactive)
ROOT
ATOM      1  C   UNL d   1       2.102   2.830   2.330  0.00  0.00     0.077 C 
ATOM      2  C1  UNL d   1       0.874   3.109   1.515  0.00  0.00    -0.074 A 
ATOM      3  C2  UNL d   1      -0.403   2.883   2.038  0.00  0.00    -0.005 A 
ATOM      4  C3  UNL d   1      -1.536   3.156   1.271  0.00  0.00     0.006 A 
ATOM      5  C4  UNL d   1      -1.403   3.658  -0.024  0.00  0.00    -0.005 A 
ATOM      6  C5  UNL d   1      -0.134   3.891  -0.564  0.00  0.00    -0.074 A 
ATOM      7  C6  UNL d   1       0.026   4.439  -1.951  0.00  0.00     0.077 C 
ATOM      8  C7  UNL d   1       0.999   3.621   0.215  0.00  0.00    -0.001 A 
ENDROOT
TORSDOF 0
ENDMDL
