MODEL 1
REMARK minimizedAffinity 0.0438286252
REMARK minimizedRMSD -1
REMARK  0 active torsions:
REMARK  status: ('A' for Active; 'I' for Inactive)
ROOT
ATOM      1  C   UNL d   1      -5.628   1.175  -2.235  0.00  0.00     0.077 C 
ATOM      2  C1  UNL d   1      -5.765   2.595  -2.699  0.00  0.00    -0.074 A 
ATOM      3  C2  UNL d   1      -5.883   3.643  -1.780  0.00  0.00    -0.005 A 
ATOM      4  C3  UNL d   1      -6.000   4.960  -2.226  0.00  0.00     0.006 A 
ATOM      5  C4  UNL d   1      -6.000   5.241  -3.593  0.00  0.00    -0.005 A 
ATOM      6  C5  UNL d   1      -5.882   4.206  -4.526  0.00  0.00    -0.074 A 
ATOM      7  C6  UNL d   1      -5.870   4.492  -5.999  0.00  0.00     0.077 C 
ATOM      8  C7  UNL d   1      -5.758   2.887  -4.070  0.00  0.00    -0.001 A 
ENDROOT
TORSDOF 0
ENDMDL
