MODEL 1
REMARK minimizedAffinity 5.40923929
REMARK minimizedRMSD -1
REMARK  0 active torsions:
REMARK  status: ('A' for Active; 'I' for Inactive)
ROOT
ATOM      1  C   UNL d   1       0.039   1.380  -0.406  0.00  0.00     0.077 C 
ATOM      2  C1  UNL d   1       0.422  -0.031  -0.741  0.00  0.00    -0.074 A 
ATOM      3  C2  UNL d   1       1.764  -0.419  -0.791  0.00  0.00    -0.005 A 
ATOM      4  C3  UNL d   1       2.104  -1.737  -1.094  0.00  0.00     0.006 A 
ATOM      5  C4  UNL d   1       1.107  -2.679  -1.350  0.00  0.00    -0.005 A 
ATOM      6  C5  UNL d   1      -0.241  -2.309  -1.303  0.00  0.00    -0.074 A 
ATOM      7  C6  UNL d   1      -1.325  -3.312  -1.566  0.00  0.00     0.077 C 
ATOM      8  C7  UNL d   1      -0.575  -0.985  -0.991  0.00  0.00    -0.001 A 
ENDROOT
TORSDOF 0
ENDMDL
