MODEL 1
REMARK minimizedAffinity -1.55687952
REMARK minimizedRMSD -1
REMARK  0 active torsions:
REMARK  status: ('A' for Active; 'I' for Inactive)
ROOT
ATOM      1  C   UNL d   1      -5.997   3.733  -5.591  0.00  0.00     0.077 C 
ATOM      2  C1  UNL d   1      -5.461   3.760  -4.191  0.00  0.00    -0.074 A 
ATOM      3  C2  UNL d   1      -4.843   4.906  -3.680  0.00  0.00    -0.005 A 
ATOM      4  C3  UNL d   1      -4.357   4.920  -2.372  0.00  0.00     0.006 A 
ATOM      5  C4  UNL d   1      -4.485   3.790  -1.564  0.00  0.00    -0.005 A 
ATOM      6  C5  UNL d   1      -5.101   2.635  -2.057  0.00  0.00    -0.074 A 
ATOM      7  C6  UNL d   1      -5.255   1.416  -1.198  0.00  0.00     0.077 C 
ATOM      8  C7  UNL d   1      -5.592   2.632  -3.370  0.00  0.00    -0.001 A 
ENDROOT
TORSDOF 0
ENDMDL
