MODEL 1
REMARK minimizedAffinity -1.63331759
REMARK minimizedRMSD -1
REMARK  0 active torsions:
REMARK  status: ('A' for Active; 'I' for Inactive)
ROOT
ATOM      1  C   UNL d   1      -4.003   3.634  -6.000  0.00  0.00     0.077 C 
ATOM      2  C1  UNL d   1      -4.685   3.816  -4.676  0.00  0.00    -0.074 A 
ATOM      3  C2  UNL d   1      -5.360   5.003  -4.374  0.00  0.00    -0.005 A 
ATOM      4  C3  UNL d   1      -5.998   5.154  -3.142  0.00  0.00     0.006 A 
ATOM      5  C4  UNL d   1      -5.966   4.123  -2.203  0.00  0.00    -0.005 A 
ATOM      6  C5  UNL d   1      -5.296   2.929  -2.488  0.00  0.00    -0.074 A 
ATOM      7  C6  UNL d   1      -5.260   1.807  -1.494  0.00  0.00     0.077 C 
ATOM      8  C7  UNL d   1      -4.664   2.782  -3.731  0.00  0.00    -0.001 A 
ENDROOT
TORSDOF 0
ENDMDL
