MODEL 1
REMARK minimizedAffinity 9.17490196
REMARK minimizedRMSD -1
REMARK  0 active torsions:
REMARK  status: ('A' for Active; 'I' for Inactive)
ROOT
ATOM      1  C   UNL d   1      -3.383   6.000   1.144  0.00  0.00     0.077 C 
ATOM      2  C1  UNL d   1      -2.174   5.197   0.764  0.00  0.00    -0.074 A 
ATOM      3  C2  UNL d   1      -1.317   5.627  -0.254  0.00  0.00    -0.005 A 
ATOM      4  C3  UNL d   1      -0.191   4.875  -0.589  0.00  0.00     0.006 A 
ATOM      5  C4  UNL d   1       0.088   3.688   0.089  0.00  0.00    -0.005 A 
ATOM      6  C5  UNL d   1      -0.757   3.243   1.111  0.00  0.00    -0.074 A 
ATOM      7  C6  UNL d   1      -0.466   1.974   1.856  0.00  0.00     0.077 C 
ATOM      8  C7  UNL d   1      -1.883   4.008   1.446  0.00  0.00    -0.001 A 
ENDROOT
TORSDOF 0
ENDMDL
