MODEL 1
REMARK minimizedAffinity -4.80487776
REMARK minimizedRMSD -1
REMARK  0 active torsions:
REMARK  status: ('A' for Active; 'I' for Inactive)
ROOT
ATOM      1  C   UNL d   1      -6.000   2.327  -1.723  0.00  0.00     0.077 C 
ATOM      2  C1  UNL d   1      -5.516   2.973  -2.987  0.00  0.00    -0.074 A 
ATOM      3  C2  UNL d   1      -5.844   4.299  -3.288  0.00  0.00    -0.005 A 
ATOM      4  C3  UNL d   1      -5.379   4.889  -4.463  0.00  0.00     0.006 A 
ATOM      5  C4  UNL d   1      -4.583   4.161  -5.348  0.00  0.00    -0.005 A 
ATOM      6  C5  UNL d   1      -4.244   2.834  -5.064  0.00  0.00    -0.074 A 
ATOM      7  C6  UNL d   1      -3.381   2.041  -5.999  0.00  0.00     0.077 C 
ATOM      8  C7  UNL d   1      -4.709   2.250  -3.878  0.00  0.00    -0.001 A 
ENDROOT
TORSDOF 0
ENDMDL
