MODEL 1
REMARK minimizedAffinity -1.61962473
REMARK minimizedRMSD -1
REMARK  0 active torsions:
REMARK  status: ('A' for Active; 'I' for Inactive)
ROOT
ATOM      1  C   UNL d   1      -2.205   2.620  -5.964  0.00  0.00     0.077 C 
ATOM      2  C1  UNL d   1      -3.520   2.304  -5.314  0.00  0.00    -0.074 A 
ATOM      3  C2  UNL d   1      -4.157   3.239  -4.491  0.00  0.00    -0.005 A 
ATOM      4  C3  UNL d   1      -5.384   2.935  -3.901  0.00  0.00     0.006 A 
ATOM      5  C4  UNL d   1      -5.985   1.696  -4.127  0.00  0.00    -0.005 A 
ATOM      6  C5  UNL d   1      -5.363   0.749  -4.948  0.00  0.00    -0.074 A 
ATOM      7  C6  UNL d   1      -6.000  -0.583  -5.209  0.00  0.00     0.077 C 
ATOM      8  C7  UNL d   1      -4.134   1.065  -5.542  0.00  0.00    -0.001 A 
ENDROOT
TORSDOF 0
ENDMDL
