MODEL 1
REMARK minimizedAffinity -4.31384611
REMARK minimizedRMSD -1
REMARK  0 active torsions:
REMARK  status: ('A' for Active; 'I' for Inactive)
ROOT
ATOM      1  C   UNL d   1      -5.088   5.509  -5.313  0.00  0.00     0.077 C 
ATOM      2  C1  UNL d   1      -5.088   4.120  -4.748  0.00  0.00    -0.074 A 
ATOM      3  C2  UNL d   1      -5.999   3.748  -3.754  0.00  0.00    -0.005 A 
ATOM      4  C3  UNL d   1      -5.994   2.450  -3.244  0.00  0.00     0.006 A 
ATOM      5  C4  UNL d   1      -5.079   1.511  -3.723  0.00  0.00    -0.005 A 
ATOM      6  C5  UNL d   1      -4.162   1.864  -4.718  0.00  0.00    -0.074 A 
ATOM      7  C6  UNL d   1      -3.178   0.864  -5.250  0.00  0.00     0.077 C 
ATOM      8  C7  UNL d   1      -4.178   3.169  -5.229  0.00  0.00    -0.001 A 
ENDROOT
TORSDOF 0
ENDMDL
