MODEL 1
REMARK minimizedAffinity -2.04495788
REMARK minimizedRMSD -1
REMARK  0 active torsions:
REMARK  status: ('A' for Active; 'I' for Inactive)
ROOT
ATOM      1  C2' OXE d   1      -1.801   0.545  -0.033  0.00  0.00     0.078 C 
ATOM      2  C1' OXE d   1       0.611   1.944   0.297  0.00  0.00     0.078 C 
ATOM      3  C1  OXE d   1       0.689   0.466   0.008  0.00  0.00    -0.078 A 
ATOM      4  C2  OXE d   1      -0.497  -0.220  -0.106  0.00  0.00    -0.078 A 
ATOM      5  C3  OXE d   1      -0.482  -1.574  -0.426  0.00  0.00     0.003 A 
ATOM      6  C4  OXE d   1       0.728  -2.276  -0.482  0.00  0.00    -0.002 A 
ATOM      7  C5  OXE d   1       1.946  -1.605  -0.330  0.00  0.00    -0.002 A 
ATOM      8  C6  OXE d   1       1.945  -0.229  -0.127  0.00  0.00     0.003 A 
ENDROOT
TORSDOF 0
ENDMDL
