MODEL 1
REMARK minimizedAffinity -5.82717562
REMARK minimizedRMSD -1
REMARK  0 active torsions:
REMARK  status: ('A' for Active; 'I' for Inactive)
ROOT
ATOM      1  C2' OXE d   1      -0.517  -1.442  -1.183  0.00  0.00     0.078 C 
ATOM      2  C1' OXE d   1      -0.672   1.296  -0.583  0.00  0.00     0.078 C 
ATOM      3  C1  OXE d   1       0.597   0.567  -0.219  0.00  0.00    -0.078 A 
ATOM      4  C2  OXE d   1       0.646  -0.782  -0.474  0.00  0.00    -0.078 A 
ATOM      5  C3  OXE d   1       1.814  -1.492  -0.208  0.00  0.00     0.003 A 
ATOM      6  C4  OXE d   1       2.881  -0.877   0.457  0.00  0.00    -0.002 A 
ATOM      7  C5  OXE d   1       2.836   0.488   0.762  0.00  0.00    -0.002 A 
ATOM      8  C6  OXE d   1       1.721   1.232   0.393  0.00  0.00     0.003 A 
ENDROOT
TORSDOF 0
ENDMDL
