MODEL 1
REMARK minimizedAffinity -0.500879109
REMARK minimizedRMSD -1
REMARK  0 active torsions:
REMARK  status: ('A' for Active; 'I' for Inactive)
ROOT
ATOM      1  C2' OXE d   1       0.304   1.688  -0.306  0.00  0.00     0.078 C 
ATOM      2  C1' OXE d   1      -1.854   0.519   1.057  0.00  0.00     0.078 C 
ATOM      3  C1  OXE d   1      -0.859  -0.400   0.395  0.00  0.00    -0.078 A 
ATOM      4  C2  OXE d   1       0.168   0.181  -0.309  0.00  0.00    -0.078 A 
ATOM      5  C3  OXE d   1       1.144  -0.621  -0.893  0.00  0.00     0.003 A 
ATOM      6  C4  OXE d   1       1.006  -2.014  -0.900  0.00  0.00    -0.002 A 
ATOM      7  C5  OXE d   1      -0.054  -2.626  -0.222  0.00  0.00    -0.002 A 
ATOM      8  C6  OXE d   1      -0.970  -1.836   0.465  0.00  0.00     0.003 A 
ENDROOT
TORSDOF 0
ENDMDL
