MODEL 1
REMARK minimizedAffinity -0.814927757
REMARK minimizedRMSD -1
REMARK  0 active torsions:
REMARK  status: ('A' for Active; 'I' for Inactive)
ROOT
ATOM      1  C2' OXE d   1      -1.793   0.609   0.153  0.00  0.00     0.078 C 
ATOM      2  C1' OXE d   1       0.641   1.904  -0.376  0.00  0.00     0.078 C 
ATOM      3  C1  OXE d   1       0.639   0.396  -0.342  0.00  0.00    -0.078 A 
ATOM      4  C2  OXE d   1      -0.546  -0.228  -0.036  0.00  0.00    -0.078 A 
ATOM      5  C3  OXE d   1      -0.616  -1.618  -0.046  0.00  0.00     0.003 A 
ATOM      6  C4  OXE d   1       0.544  -2.385  -0.212  0.00  0.00    -0.002 A 
ATOM      7  C5  OXE d   1       1.769  -1.768  -0.485  0.00  0.00    -0.002 A 
ATOM      8  C6  OXE d   1       1.826  -0.383  -0.596  0.00  0.00     0.003 A 
ENDROOT
TORSDOF 0
ENDMDL
