MODEL 1
REMARK minimizedAffinity -3.91456676
REMARK minimizedRMSD -1
REMARK  0 active torsions:
REMARK  status: ('A' for Active; 'I' for Inactive)
ROOT
ATOM      1  C2' OXE d   1       2.931   1.869   1.174  0.00  0.00     0.078 C 
ATOM      2  C1' OXE d   1       3.143  -0.919   0.920  0.00  0.00     0.078 C 
ATOM      3  C1  OXE d   1       1.916  -0.252   0.350  0.00  0.00    -0.078 A 
ATOM      4  C2  OXE d   1       1.799   1.107   0.520  0.00  0.00    -0.078 A 
ATOM      5  C3  OXE d   1       0.714   1.780  -0.035  0.00  0.00     0.003 A 
ATOM      6  C4  OXE d   1      -0.334   1.066  -0.629  0.00  0.00    -0.002 A 
ATOM      7  C5  OXE d   1      -0.253  -0.323  -0.778  0.00  0.00    -0.002 A 
ATOM      8  C6  OXE d   1       0.883  -0.990  -0.332  0.00  0.00     0.003 A 
ENDROOT
TORSDOF 0
ENDMDL
