MODEL 1
REMARK minimizedAffinity -5.06360245
REMARK minimizedRMSD -1
REMARK  0 active torsions:
REMARK  status: ('A' for Active; 'I' for Inactive)
ROOT
ATOM      1  C2' OXE d   1       3.509   2.504   0.940  0.00  0.00     0.078 C 
ATOM      2  C1' OXE d   1       4.920   1.040  -0.995  0.00  0.00     0.078 C 
ATOM      3  C1  OXE d   1       3.712   0.392  -0.366  0.00  0.00    -0.078 A 
ATOM      4  C2  OXE d   1       3.055   1.098   0.614  0.00  0.00    -0.078 A 
ATOM      5  C3  OXE d   1       1.902   0.569   1.188  0.00  0.00     0.003 A 
ATOM      6  C4  OXE d   1       1.495  -0.736   0.887  0.00  0.00    -0.002 A 
ATOM      7  C5  OXE d   1       2.173  -1.487  -0.078  0.00  0.00    -0.002 A 
ATOM      8  C6  OXE d   1       3.256  -0.923  -0.743  0.00  0.00     0.003 A 
ENDROOT
TORSDOF 0
ENDMDL
