MODEL 1
REMARK minimizedAffinity -5.58904982
REMARK minimizedRMSD -1
REMARK  0 active torsions:
REMARK  status: ('A' for Active; 'I' for Inactive)
ROOT
ATOM      1  C2' OXE d   1       1.108  -2.241  -0.018  0.00  0.00     0.078 C 
ATOM      2  C1' OXE d   1       3.490  -0.859   0.528  0.00  0.00     0.078 C 
ATOM      3  C1  OXE d   1       2.263  -0.045   0.204  0.00  0.00    -0.078 A 
ATOM      4  C2  OXE d   1       1.113  -0.731  -0.108  0.00  0.00    -0.078 A 
ATOM      5  C3  OXE d   1      -0.061  -0.028  -0.361  0.00  0.00     0.003 A 
ATOM      6  C4  OXE d   1      -0.046   1.369  -0.453  0.00  0.00    -0.002 A 
ATOM      7  C5  OXE d   1       1.124   2.086  -0.178  0.00  0.00    -0.002 A 
ATOM      8  C6  OXE d   1       2.273   1.397   0.193  0.00  0.00     0.003 A 
ENDROOT
TORSDOF 0
ENDMDL
