MODEL 1
REMARK minimizedAffinity -4.93716764
REMARK minimizedRMSD -1
REMARK  0 active torsions:
REMARK  status: ('A' for Active; 'I' for Inactive)
ROOT
ATOM      1  C2' OXE d   1      -0.735   0.448  -0.123  0.00  0.00     0.078 C 
ATOM      2  C1' OXE d   1       1.165   2.514  -0.090  0.00  0.00     0.078 C 
ATOM      3  C1  OXE d   1       1.645   1.112   0.189  0.00  0.00    -0.078 A 
ATOM      4  C2  OXE d   1       0.701   0.114   0.217  0.00  0.00    -0.078 A 
ATOM      5  C3  OXE d   1       1.099  -1.205   0.416  0.00  0.00     0.003 A 
ATOM      6  C4  OXE d   1       2.427  -1.504   0.740  0.00  0.00    -0.002 A 
ATOM      7  C5  OXE d   1       3.398  -0.497   0.756  0.00  0.00    -0.002 A 
ATOM      8  C6  OXE d   1       3.032   0.807   0.442  0.00  0.00     0.003 A 
ENDROOT
TORSDOF 0
ENDMDL
