MODEL 1
REMARK minimizedAffinity -5.1668644
REMARK minimizedRMSD -1
REMARK  0 active torsions:
REMARK  status: ('A' for Active; 'I' for Inactive)
ROOT
ATOM      1  C2' OXE d   1       3.124  -0.741   1.251  0.00  0.00     0.078 C 
ATOM      2  C1' OXE d   1       2.386   1.805   0.327  0.00  0.00     0.078 C 
ATOM      3  C1  OXE d   1       1.509   0.638  -0.052  0.00  0.00    -0.078 A 
ATOM      4  C2  OXE d   1       1.903  -0.611   0.365  0.00  0.00    -0.078 A 
ATOM      5  C3  OXE d   1       1.102  -1.715   0.090  0.00  0.00     0.003 A 
ATOM      6  C4  OXE d   1      -0.020  -1.587  -0.738  0.00  0.00    -0.002 A 
ATOM      7  C5  OXE d   1      -0.418  -0.330  -1.207  0.00  0.00    -0.002 A 
ATOM      8  C6  OXE d   1       0.311   0.795  -0.839  0.00  0.00     0.003 A 
ENDROOT
TORSDOF 0
ENDMDL
