MODEL 1
REMARK minimizedAffinity -5.70291758
REMARK minimizedRMSD -1
REMARK  0 active torsions:
REMARK  status: ('A' for Active; 'I' for Inactive)
ROOT
ATOM      1  C2' OXE d   1       1.660   1.583   0.342  0.00  0.00     0.078 C 
ATOM      2  C1' OXE d   1       3.051  -0.838   0.634  0.00  0.00     0.078 C 
ATOM      3  C1  OXE d   1       1.710  -0.876  -0.055  0.00  0.00    -0.078 A 
ATOM      4  C2  OXE d   1       1.015   0.306  -0.152  0.00  0.00    -0.078 A 
ATOM      5  C3  OXE d   1      -0.202   0.336  -0.827  0.00  0.00     0.003 A 
ATOM      6  C4  OXE d   1      -0.795  -0.851  -1.272  0.00  0.00    -0.002 A 
ATOM      7  C5  OXE d   1      -0.123  -2.071  -1.148  0.00  0.00    -0.002 A 
ATOM      8  C6  OXE d   1       1.147  -2.095  -0.581  0.00  0.00     0.003 A 
ENDROOT
TORSDOF 0
ENDMDL
