MODEL 1
REMARK minimizedAffinity -2.86374998
REMARK minimizedRMSD -1
REMARK  0 active torsions:
REMARK  status: ('A' for Active; 'I' for Inactive)
ROOT
ATOM      1  C2' OXE d   1      -1.721   0.451  -0.360  0.00  0.00     0.078 C 
ATOM      2  C1' OXE d   1      -1.206  -1.600  -2.206  0.00  0.00     0.078 C 
ATOM      3  C1  OXE d   1      -0.101  -1.218  -1.254  0.00  0.00    -0.078 A 
ATOM      4  C2  OXE d   1      -0.346  -0.182  -0.385  0.00  0.00    -0.078 A 
ATOM      5  C3  OXE d   1       0.620   0.175   0.552  0.00  0.00     0.003 A 
ATOM      6  C4  OXE d   1       1.892  -0.408   0.515  0.00  0.00    -0.002 A 
ATOM      7  C5  OXE d   1       2.176  -1.438  -0.388  0.00  0.00    -0.002 A 
ATOM      8  C6  OXE d   1       1.179  -1.883  -1.249  0.00  0.00     0.003 A 
ENDROOT
TORSDOF 0
ENDMDL
