MODEL 1
REMARK minimizedAffinity -0.589702487
REMARK minimizedRMSD -1
REMARK  0 active torsions:
REMARK  status: ('A' for Active; 'I' for Inactive)
ROOT
ATOM      1  C   UNL d   1      -3.089  -1.623  -3.259  0.00  0.00     0.023 A 
ATOM      2  C1  UNL d   1      -2.064  -0.866  -3.827  0.00  0.00     0.003 A 
ATOM      3  C2  UNL d   1      -0.857  -0.698  -3.145  0.00  0.00     0.048 A 
ATOM      4  C3  UNL d   1      -0.682  -1.292  -1.895  0.00  0.00     0.023 A 
ATOM      5  C4  UNL d   1      -1.704  -2.051  -1.323  0.00  0.00     0.048 A 
ATOM      6  C5  UNL d   1      -2.909  -2.215  -2.009  0.00  0.00     0.003 A 
ATOM      7  I   UNL d   1       1.114  -1.044  -0.877  0.00  0.00    -0.146 I 
ENDROOT
TORSDOF 0
ENDMDL
