MODEL 1
REMARK minimizedAffinity -0.150023222
REMARK minimizedRMSD -1
REMARK  0 active torsions:
REMARK  status: ('A' for Active; 'I' for Inactive)
ROOT
ATOM      1  C   UNL d   1       0.950   0.522   0.968  0.00  0.00     0.023 A 
ATOM      2  C1  UNL d   1       1.397  -0.259  -0.098  0.00  0.00     0.003 A 
ATOM      3  C2  UNL d   1       0.506  -1.092  -0.778  0.00  0.00     0.048 A 
ATOM      4  C3  UNL d   1      -0.832  -1.139  -0.386  0.00  0.00     0.023 A 
ATOM      5  C4  UNL d   1      -1.284  -0.359   0.680  0.00  0.00     0.048 A 
ATOM      6  C5  UNL d   1      -0.389   0.472   1.356  0.00  0.00     0.003 A 
ATOM      7  I   UNL d   1      -2.161  -2.378  -1.396  0.00  0.00    -0.146 I 
ENDROOT
TORSDOF 0
ENDMDL
