MODEL 1
REMARK minimizedAffinity -1.08580816
REMARK minimizedRMSD -1
REMARK  0 active torsions:
REMARK  status: ('A' for Active; 'I' for Inactive)
ROOT
ATOM      1  C   UNL d   1      -0.141   1.155   1.393  0.00  0.00     0.023 A 
ATOM      2  C1  UNL d   1       0.178   1.801   2.587  0.00  0.00     0.003 A 
ATOM      3  C2  UNL d   1       1.514   2.028   2.924  0.00  0.00     0.048 A 
ATOM      4  C3  UNL d   1       2.526   1.607   2.061  0.00  0.00     0.023 A 
ATOM      5  C4  UNL d   1       2.211   0.960   0.865  0.00  0.00     0.048 A 
ATOM      6  C5  UNL d   1       0.873   0.735   0.533  0.00  0.00     0.003 A 
ATOM      7  I   UNL d   1       4.515   1.944   2.560  0.00  0.00    -0.146 I 
ENDROOT
TORSDOF 0
ENDMDL
