MODEL 1
REMARK minimizedAffinity 4.07904053
REMARK minimizedRMSD -1
REMARK  0 active torsions:
REMARK  status: ('A' for Active; 'I' for Inactive)
ROOT
ATOM      1  C   UNL d   1      -0.146   1.561   2.379  0.00  0.00     0.023 A 
ATOM      2  C1  UNL d   1      -0.714   0.398   1.858  0.00  0.00     0.003 A 
ATOM      3  C2  UNL d   1      -0.138  -0.226   0.750  0.00  0.00     0.048 A 
ATOM      4  C3  UNL d   1       1.007   0.316   0.168  0.00  0.00     0.023 A 
ATOM      5  C4  UNL d   1       1.580   1.479   0.686  0.00  0.00     0.048 A 
ATOM      6  C5  UNL d   1       1.000   2.100   1.794  0.00  0.00     0.003 A 
ATOM      7  I   UNL d   1       1.866  -0.612  -1.481  0.00  0.00    -0.146 I 
ENDROOT
TORSDOF 0
ENDMDL
