MODEL 1
REMARK minimizedAffinity 2.55869126
REMARK minimizedRMSD -1
REMARK  0 active torsions:
REMARK  status: ('A' for Active; 'I' for Inactive)
ROOT
ATOM      1  C   UNL d   1      -0.564  -3.762   2.175  0.00  0.00     0.023 A 
ATOM      2  C1  UNL d   1      -1.247  -2.876   1.342  0.00  0.00     0.003 A 
ATOM      3  C2  UNL d   1      -2.195  -3.356   0.436  0.00  0.00     0.048 A 
ATOM      4  C3  UNL d   1      -2.456  -4.724   0.369  0.00  0.00     0.023 A 
ATOM      5  C4  UNL d   1      -1.777  -5.615   1.202  0.00  0.00     0.048 A 
ATOM      6  C5  UNL d   1      -0.829  -5.130   2.105  0.00  0.00     0.003 A 
ATOM      7  I   UNL d   1      -3.867  -5.441  -0.978  0.00  0.00    -0.146 I 
ENDROOT
TORSDOF 0
ENDMDL
