MODEL 1
REMARK minimizedAffinity -1.38069475
REMARK minimizedRMSD -1
REMARK  0 active torsions:
REMARK  status: ('A' for Active; 'I' for Inactive)
ROOT
ATOM      1  C   UNL d   1       1.765   1.137  -1.453  0.00  0.00     0.023 A 
ATOM      2  C1  UNL d   1       0.901   1.630  -2.431  0.00  0.00     0.003 A 
ATOM      3  C2  UNL d   1      -0.060   0.793  -3.002  0.00  0.00     0.048 A 
ATOM      4  C3  UNL d   1      -0.153  -0.535  -2.589  0.00  0.00     0.023 A 
ATOM      5  C4  UNL d   1       0.709  -1.033  -1.610  0.00  0.00     0.048 A 
ATOM      6  C5  UNL d   1       1.669  -0.193  -1.043  0.00  0.00     0.003 A 
ATOM      7  I   UNL d   1      -1.583  -1.783  -3.437  0.00  0.00    -0.146 I 
ENDROOT
TORSDOF 0
ENDMDL
