MODEL 1
REMARK minimizedAffinity 2.23620009
REMARK minimizedRMSD -1
REMARK  0 active torsions:
REMARK  status: ('A' for Active; 'I' for Inactive)
ROOT
ATOM      1  C   UNL d   1       0.571   1.181   3.029  0.00  0.00     0.023 A 
ATOM      2  C1  UNL d   1      -0.795   1.450   2.943  0.00  0.00     0.003 A 
ATOM      3  C2  UNL d   1      -1.290   2.228   1.895  0.00  0.00     0.048 A 
ATOM      4  C3  UNL d   1      -0.414   2.734   0.936  0.00  0.00     0.023 A 
ATOM      5  C4  UNL d   1       0.953   2.467   1.017  0.00  0.00     0.048 A 
ATOM      6  C5  UNL d   1       1.444   1.689   2.067  0.00  0.00     0.003 A 
ATOM      7  I   UNL d   1      -1.149   3.892  -0.626  0.00  0.00    -0.146 I 
ENDROOT
TORSDOF 0
ENDMDL
