MODEL 1
REMARK minimizedAffinity 6.27998972
REMARK minimizedRMSD -1
REMARK  0 active torsions:
REMARK  status: ('A' for Active; 'I' for Inactive)
ROOT
ATOM      1  C   UNL d   1      -0.952   0.778   1.720  0.00  0.00     0.023 A 
ATOM      2  C1  UNL d   1      -2.256   1.067   1.316  0.00  0.00     0.003 A 
ATOM      3  C2  UNL d   1      -2.838   0.354   0.266  0.00  0.00     0.048 A 
ATOM      4  C3  UNL d   1      -2.111  -0.648  -0.376  0.00  0.00     0.023 A 
ATOM      5  C4  UNL d   1      -0.806  -0.941   0.025  0.00  0.00     0.048 A 
ATOM      6  C5  UNL d   1      -0.228  -0.225   1.075  0.00  0.00     0.003 A 
ATOM      7  I   UNL d   1      -2.975  -1.710  -1.939  0.00  0.00    -0.146 I 
ENDROOT
TORSDOF 0
ENDMDL
