MODEL 1
REMARK minimizedAffinity 12.4393692
REMARK minimizedRMSD -1
REMARK  0 active torsions:
REMARK  status: ('A' for Active; 'I' for Inactive)
ROOT
ATOM      1  C   UNL d   1      -0.449   1.363   2.989  0.00  0.00     0.023 A 
ATOM      2  C1  UNL d   1       0.348   2.395   2.491  0.00  0.00     0.003 A 
ATOM      3  C2  UNL d   1      -0.105   3.177   1.427  0.00  0.00     0.048 A 
ATOM      4  C3  UNL d   1      -1.356   2.924   0.865  0.00  0.00     0.023 A 
ATOM      5  C4  UNL d   1      -2.157   1.893   1.361  0.00  0.00     0.048 A 
ATOM      6  C5  UNL d   1      -1.700   1.113   2.424  0.00  0.00     0.003 A 
ATOM      7  I   UNL d   1      -2.032   4.087  -0.719  0.00  0.00    -0.146 I 
ENDROOT
TORSDOF 0
ENDMDL
