MODEL 1
REMARK minimizedAffinity 3.8441813
REMARK minimizedRMSD -1
REMARK  0 active torsions:
REMARK  status: ('A' for Active; 'I' for Inactive)
ROOT
ATOM      1  C   UNL d   1       1.917  -0.330  -3.233  0.00  0.00     0.023 A 
ATOM      2  C1  UNL d   1       2.885  -0.614  -2.270  0.00  0.00     0.003 A 
ATOM      3  C2  UNL d   1       2.669  -0.262  -0.936  0.00  0.00     0.048 A 
ATOM      4  C3  UNL d   1       1.482   0.373  -0.572  0.00  0.00     0.023 A 
ATOM      5  C4  UNL d   1       0.510   0.658  -1.532  0.00  0.00     0.048 A 
ATOM      6  C5  UNL d   1       0.731   0.305  -2.865  0.00  0.00     0.003 A 
ATOM      7  I   UNL d   1       1.159   0.898   1.413  0.00  0.00    -0.146 I 
ENDROOT
TORSDOF 0
ENDMDL
