MODEL 1
REMARK minimizedAffinity 2.6184361
REMARK minimizedRMSD -1
REMARK  0 active torsions:
REMARK  status: ('A' for Active; 'I' for Inactive)
ROOT
ATOM      1  C   UNL d   1       3.186  -0.238  -0.305  0.00  0.00     0.023 A 
ATOM      2  C1  UNL d   1       3.410   0.688   0.714  0.00  0.00     0.003 A 
ATOM      3  C2  UNL d   1       2.342   1.150   1.486  0.00  0.00     0.048 A 
ATOM      4  C3  UNL d   1       1.053   0.682   1.233  0.00  0.00     0.023 A 
ATOM      5  C4  UNL d   1       0.824  -0.245   0.215  0.00  0.00     0.048 A 
ATOM      6  C5  UNL d   1       1.895  -0.704  -0.554  0.00  0.00     0.003 A 
ATOM      7  I   UNL d   1      -0.539   1.369   2.380  0.00  0.00    -0.146 I 
ENDROOT
TORSDOF 0
ENDMDL
