MODEL 1
REMARK minimizedAffinity 13.4177322
REMARK minimizedRMSD -1
REMARK  0 active torsions:
REMARK  status: ('A' for Active; 'I' for Inactive)
ROOT
ATOM      1  C   UNL d   1       1.034   2.459   2.403  0.00  0.00     0.023 A 
ATOM      2  C1  UNL d   1      -0.030   2.711   1.537  0.00  0.00     0.003 A 
ATOM      3  C2  UNL d   1      -1.220   1.991   1.662  0.00  0.00     0.048 A 
ATOM      4  C3  UNL d   1      -1.340   1.021   2.656  0.00  0.00     0.023 A 
ATOM      5  C4  UNL d   1      -0.278   0.766   3.526  0.00  0.00     0.048 A 
ATOM      6  C5  UNL d   1       0.910   1.488   3.396  0.00  0.00     0.003 A 
ATOM      7  I   UNL d   1      -3.110  -0.052   2.845  0.00  0.00    -0.146 I 
ENDROOT
TORSDOF 0
ENDMDL
