MODEL 1
REMARK minimizedAffinity 10.6189632
REMARK minimizedRMSD -1
REMARK  0 active torsions:
REMARK  status: ('A' for Active; 'I' for Inactive)
ROOT
ATOM      1  C   UNL d   1      -2.254  -3.443  -4.728  0.00  0.00     0.023 A 
ATOM      2  C1  UNL d   1      -1.765  -4.739  -4.564  0.00  0.00     0.003 A 
ATOM      3  C2  UNL d   1      -2.100  -5.474  -3.425  0.00  0.00     0.048 A 
ATOM      4  C3  UNL d   1      -2.925  -4.907  -2.455  0.00  0.00     0.023 A 
ATOM      5  C4  UNL d   1      -3.418  -3.611  -2.615  0.00  0.00     0.048 A 
ATOM      6  C5  UNL d   1      -3.079  -2.879  -3.755  0.00  0.00     0.003 A 
ATOM      7  I   UNL d   1      -3.426  -6.000  -0.759  0.00  0.00    -0.146 I 
ENDROOT
TORSDOF 0
ENDMDL
