MODEL 1
REMARK minimizedAffinity -2.54024076
REMARK minimizedRMSD -1
REMARK  0 active torsions:
REMARK  status: ('A' for Active; 'I' for Inactive)
ROOT
ATOM      1  C   UNL d   1      -1.144   2.323   2.155  0.00  0.00     0.023 A 
ATOM      2  C1  UNL d   1      -0.117   3.145   1.692  0.00  0.00     0.003 A 
ATOM      3  C2  UNL d   1       0.938   2.600   0.958  0.00  0.00     0.048 A 
ATOM      4  C3  UNL d   1       0.960   1.232   0.690  0.00  0.00     0.023 A 
ATOM      5  C4  UNL d   1      -0.066   0.405   1.150  0.00  0.00     0.048 A 
ATOM      6  C5  UNL d   1      -1.119   0.954   1.884  0.00  0.00     0.003 A 
ATOM      7  I   UNL d   1       2.530   0.418  -0.403  0.00  0.00    -0.146 I 
ENDROOT
TORSDOF 0
ENDMDL
