MODEL 1
REMARK minimizedAffinity 5.99972296
REMARK minimizedRMSD -1
REMARK  0 active torsions:
REMARK  status: ('A' for Active; 'I' for Inactive)
ROOT
ATOM      1  C   UNL d   1      -0.643   1.868   2.877  0.00  0.00     0.023 A 
ATOM      2  C1  UNL d   1       0.353   2.671   2.320  0.00  0.00     0.003 A 
ATOM      3  C2  UNL d   1       1.194   2.156   1.332  0.00  0.00     0.048 A 
ATOM      4  C3  UNL d   1       1.034   0.839   0.904  0.00  0.00     0.023 A 
ATOM      5  C4  UNL d   1       0.039   0.032   1.458  0.00  0.00     0.048 A 
ATOM      6  C5  UNL d   1      -0.800   0.550   2.446  0.00  0.00     0.003 A 
ATOM      7  I   UNL d   1       2.285   0.072  -0.567  0.00  0.00    -0.146 I 
ENDROOT
TORSDOF 0
ENDMDL
