MODEL 1
REMARK minimizedAffinity 8.99850941
REMARK minimizedRMSD -1
REMARK  0 active torsions:
REMARK  status: ('A' for Active; 'I' for Inactive)
ROOT
ATOM      1  C   UNL d   1       2.868  -0.394  -0.619  0.00  0.00     0.023 A 
ATOM      2  C1  UNL d   1       3.312   0.728   0.081  0.00  0.00     0.003 A 
ATOM      3  C2  UNL d   1       2.405   1.512   0.796  0.00  0.00     0.048 A 
ATOM      4  C3  UNL d   1       1.053   1.167   0.808  0.00  0.00     0.023 A 
ATOM      5  C4  UNL d   1       0.604   0.045   0.110  0.00  0.00     0.048 A 
ATOM      6  C5  UNL d   1       1.515  -0.735  -0.604  0.00  0.00     0.003 A 
ATOM      7  I   UNL d   1      -0.300   2.332   1.872  0.00  0.00    -0.146 I 
ENDROOT
TORSDOF 0
ENDMDL
