MODEL 1
REMARK minimizedAffinity 8.17824554
REMARK minimizedRMSD -1
REMARK  1 active torsions:
REMARK  status: ('A' for Active; 'I' for Inactive)
REMARK    1  A    between atoms: C1_2  and  C2_3 
ROOT
ATOM      1  C2  UNL d   1       3.450   4.560  -5.269  0.00  0.00    -0.076 A 
ATOM      2  C3  UNL d   1       2.918   3.286  -5.006  0.00  0.00     0.004 A 
ATOM      3  C4  UNL d   1       3.680   2.136  -5.205  0.00  0.00    -0.003 A 
ATOM      4  C5  UNL d   1       4.986   2.241  -5.670  0.00  0.00     0.000 A 
ATOM      5  C6  UNL d   1       5.535   3.498  -5.919  0.00  0.00     0.000 A 
ATOM      6  C7  UNL d   1       4.786   4.669  -5.708  0.00  0.00    -0.073 A 
ATOM      7  C8  UNL d   1       5.427   5.998  -5.999  0.00  0.00     0.078 C 
ENDROOT
BRANCH   1   8
ATOM      8  C1  UNL d   1       2.567   5.770  -5.060  0.00  0.00     0.053 C 
ATOM      9  C   UNL d   1       1.331   5.749  -5.945  0.00  0.00     0.018 C 
ENDBRANCH   1   8
TORSDOF 1
ENDMDL
