MODEL 1
REMARK minimizedAffinity 11.1017952
REMARK minimizedRMSD -1
REMARK  1 active torsions:
REMARK  status: ('A' for Active; 'I' for Inactive)
REMARK    1  A    between atoms: C1_2  and  C2_3 
ROOT
ATOM      1  C2  UNL d   1       3.766   3.886  -5.390  0.00  0.00    -0.076 A 
ATOM      2  C3  UNL d   1       2.511   3.279  -5.213  0.00  0.00     0.004 A 
ATOM      3  C4  UNL d   1       1.334   4.012  -5.350  0.00  0.00    -0.003 A 
ATOM      4  C5  UNL d   1       1.392   5.365  -5.666  0.00  0.00     0.000 A 
ATOM      5  C6  UNL d   1       2.628   5.980  -5.863  0.00  0.00     0.000 A 
ATOM      6  C7  UNL d   1       3.824   5.251  -5.745  0.00  0.00    -0.073 A 
ATOM      7  C8  UNL d   1       5.129   5.967  -5.962  0.00  0.00     0.078 C 
ENDROOT
BRANCH   1   8
ATOM      8  C1  UNL d   1       5.010   3.047  -5.203  0.00  0.00     0.053 C 
ATOM      9  C   UNL d   1       4.721   1.724  -4.512  0.00  0.00     0.018 C 
ENDBRANCH   1   8
TORSDOF 1
ENDMDL
