MODEL 1
REMARK minimizedAffinity 11.5842762
REMARK minimizedRMSD -1
REMARK  1 active torsions:
REMARK  status: ('A' for Active; 'I' for Inactive)
REMARK    1  A    between atoms: C1_2  and  C2_3 
ROOT
ATOM      1  C2  UNL d   1      -2.937   0.959  -2.312  0.00  0.00    -0.076 A 
ATOM      2  C3  UNL d   1      -1.909   1.850  -1.960  0.00  0.00     0.004 A 
ATOM      3  C4  UNL d   1      -1.704   3.029  -2.676  0.00  0.00    -0.003 A 
ATOM      4  C5  UNL d   1      -2.526   3.336  -3.755  0.00  0.00     0.000 A 
ATOM      5  C6  UNL d   1      -3.563   2.472  -4.107  0.00  0.00     0.000 A 
ATOM      6  C7  UNL d   1      -3.793   1.288  -3.386  0.00  0.00    -0.073 A 
ATOM      7  C8  UNL d   1      -4.921   0.390  -3.813  0.00  0.00     0.078 C 
ENDROOT
BRANCH   1   8
ATOM      8  C1  UNL d   1      -3.094  -0.317  -1.516  0.00  0.00     0.053 C 
ATOM      9  C   UNL d   1      -1.786  -1.080  -1.375  0.00  0.00     0.018 C 
ENDBRANCH   1   8
TORSDOF 1
ENDMDL
