MODEL 1
REMARK minimizedAffinity 7.83140326
REMARK minimizedRMSD -1
REMARK  1 active torsions:
REMARK  status: ('A' for Active; 'I' for Inactive)
REMARK    1  A    between atoms: C1_2  and  C2_3 
ROOT
ATOM      1  C2  UNL d   1       3.150   4.223  -5.807  0.00  0.00    -0.076 A 
ATOM      2  C3  UNL d   1       3.648   5.530  -5.941  0.00  0.00     0.004 A 
ATOM      3  C4  UNL d   1       5.020   5.774  -5.987  0.00  0.00    -0.003 A 
ATOM      4  C5  UNL d   1       5.916   4.714  -5.902  0.00  0.00     0.000 A 
ATOM      5  C6  UNL d   1       5.439   3.409  -5.787  0.00  0.00     0.000 A 
ATOM      6  C7  UNL d   1       4.059   3.144  -5.754  0.00  0.00    -0.073 A 
ATOM      7  C8  UNL d   1       3.600   1.717  -5.623  0.00  0.00     0.078 C 
ENDROOT
BRANCH   1   8
ATOM      8  C1  UNL d   1       1.653   4.022  -5.734  0.00  0.00     0.053 C 
ATOM      9  C   UNL d   1       0.884   5.329  -5.847  0.00  0.00     0.018 C 
ENDBRANCH   1   8
TORSDOF 1
ENDMDL
