MODEL 1
REMARK minimizedAffinity 11.876502
REMARK minimizedRMSD -1
REMARK  1 active torsions:
REMARK  status: ('A' for Active; 'I' for Inactive)
REMARK    1  A    between atoms: C1_2  and  C2_3 
ROOT
ATOM      1  C2  UNL d   1       3.558   3.399  -4.934  0.00  0.00    -0.076 A 
ATOM      2  C3  UNL d   1       4.730   4.017  -5.405  0.00  0.00     0.004 A 
ATOM      3  C4  UNL d   1       4.698   5.306  -5.933  0.00  0.00    -0.003 A 
ATOM      4  C5  UNL d   1       3.494   5.999  -6.000  0.00  0.00     0.000 A 
ATOM      5  C6  UNL d   1       2.325   5.408  -5.521  0.00  0.00     0.000 A 
ATOM      6  C7  UNL d   1       2.343   4.115  -4.970  0.00  0.00    -0.073 A 
ATOM      7  C8  UNL d   1       1.051   3.524  -4.475  0.00  0.00     0.078 C 
ENDROOT
BRANCH   1   8
ATOM      8  C1  UNL d   1       3.649   1.988  -4.397  0.00  0.00     0.053 C 
ATOM      9  C   UNL d   1       5.066   1.607  -3.997  0.00  0.00     0.018 C 
ENDBRANCH   1   8
TORSDOF 1
ENDMDL
