MODEL 1
REMARK minimizedAffinity 9.09356976
REMARK minimizedRMSD -1
REMARK  0 active torsions:
REMARK  status: ('A' for Active; 'I' for Inactive)
ROOT
ATOM      1  C   UNL d   1      -0.750  -5.394  -4.169  0.00  0.00     0.023 A 
ATOM      2  C1  UNL d   1      -0.952  -5.912  -5.448  0.00  0.00     0.003 A 
ATOM      3  C2  UNL d   1      -2.243  -5.995  -5.974  0.00  0.00     0.048 A 
ATOM      4  C3  UNL d   1      -3.327  -5.557  -5.215  0.00  0.00     0.023 A 
ATOM      5  C4  UNL d   1      -3.130  -5.037  -3.934  0.00  0.00     0.048 A 
ATOM      6  C5  UNL d   1      -1.838  -4.957  -3.413  0.00  0.00     0.003 A 
ATOM      7  I   UNL d   1      -5.250  -5.679  -5.995  0.00  0.00    -0.146 I 
ENDROOT
TORSDOF 0
ENDMDL
