MODEL 1
REMARK minimizedAffinity 13.0204144
REMARK minimizedRMSD -1
REMARK  0 active torsions:
REMARK  status: ('A' for Active; 'I' for Inactive)
ROOT
ATOM      1  C   UNL d   1      -0.641   4.149  -1.604  0.00  0.00     0.023 A 
ATOM      2  C1  UNL d   1       0.741   4.224  -1.776  0.00  0.00     0.003 A 
ATOM      3  C2  UNL d   1       1.594   3.594  -0.868  0.00  0.00     0.048 A 
ATOM      4  C3  UNL d   1       1.059   2.890   0.210  0.00  0.00     0.023 A 
ATOM      5  C4  UNL d   1      -0.324   2.811   0.385  0.00  0.00     0.048 A 
ATOM      6  C5  UNL d   1      -1.173   3.443  -0.525  0.00  0.00     0.003 A 
ATOM      7  I   UNL d   1       2.327   1.951   1.563  0.00  0.00    -0.146 I 
ENDROOT
TORSDOF 0
ENDMDL
