MODEL 1
REMARK minimizedAffinity 5.63996792
REMARK minimizedRMSD -1
REMARK  0 active torsions:
REMARK  status: ('A' for Active; 'I' for Inactive)
ROOT
ATOM      1  C   UNL d   1      -0.534   1.673   2.655  0.00  0.00     0.023 A 
ATOM      2  C1  UNL d   1       0.803   1.614   2.263  0.00  0.00     0.003 A 
ATOM      3  C2  UNL d   1       1.213   2.227   1.077  0.00  0.00     0.048 A 
ATOM      4  C3  UNL d   1       0.279   2.898   0.288  0.00  0.00     0.023 A 
ATOM      5  C4  UNL d   1      -1.060   2.960   0.676  0.00  0.00     0.048 A 
ATOM      6  C5  UNL d   1      -1.465   2.345   1.862  0.00  0.00     0.003 A 
ATOM      7  I   UNL d   1       0.886   3.812  -1.477  0.00  0.00    -0.146 I 
ENDROOT
TORSDOF 0
ENDMDL
