MODEL 1
REMARK minimizedAffinity 9.08074856
REMARK minimizedRMSD -1
REMARK  0 active torsions:
REMARK  status: ('A' for Active; 'I' for Inactive)
ROOT
ATOM      1  C   UNL d   1      -1.384  -4.015  -5.924  0.00  0.00     0.023 A 
ATOM      2  C1  UNL d   1      -1.529  -5.401  -5.975  0.00  0.00     0.003 A 
ATOM      3  C2  UNL d   1      -2.803  -5.971  -5.991  0.00  0.00     0.048 A 
ATOM      4  C3  UNL d   1      -3.929  -5.149  -5.957  0.00  0.00     0.023 A 
ATOM      5  C4  UNL d   1      -3.789  -3.761  -5.907  0.00  0.00     0.048 A 
ATOM      6  C5  UNL d   1      -2.513  -3.196  -5.890  0.00  0.00     0.003 A 
ATOM      7  I   UNL d   1      -5.827  -5.995  -5.980  0.00  0.00    -0.146 I 
ENDROOT
TORSDOF 0
ENDMDL
