MODEL 1
REMARK minimizedAffinity 5.95184898
REMARK minimizedRMSD -1
REMARK  0 active torsions:
REMARK  status: ('A' for Active; 'I' for Inactive)
ROOT
ATOM      1  C   UNL d   1      -0.801   6.000  -2.127  0.00  0.00     0.023 A 
ATOM      2  C1  UNL d   1       0.506   5.588  -1.866  0.00  0.00     0.003 A 
ATOM      3  C2  UNL d   1       0.742   4.497  -1.027  0.00  0.00     0.048 A 
ATOM      4  C3  UNL d   1      -0.335   3.821  -0.453  0.00  0.00     0.023 A 
ATOM      5  C4  UNL d   1      -1.644   4.229  -0.713  0.00  0.00     0.048 A 
ATOM      6  C5  UNL d   1      -1.875   5.321  -1.551  0.00  0.00     0.003 A 
ATOM      7  I   UNL d   1       0.013   2.196   0.795  0.00  0.00    -0.146 I 
ENDROOT
TORSDOF 0
ENDMDL
