MODEL 1
REMARK minimizedAffinity 9.07725143
REMARK minimizedRMSD -1
REMARK  0 active torsions:
REMARK  status: ('A' for Active; 'I' for Inactive)
ROOT
ATOM      1  C   UNL d   1      -4.621  -4.967  -5.995  0.00  0.00     0.023 A 
ATOM      2  C1  UNL d   1      -4.172  -3.646  -5.999  0.00  0.00     0.003 A 
ATOM      3  C2  UNL d   1      -2.850  -3.355  -5.658  0.00  0.00     0.048 A 
ATOM      4  C3  UNL d   1      -1.981  -4.391  -5.316  0.00  0.00     0.023 A 
ATOM      5  C4  UNL d   1      -2.425  -5.714  -5.311  0.00  0.00     0.048 A 
ATOM      6  C5  UNL d   1      -3.748  -5.999  -5.651  0.00  0.00     0.003 A 
ATOM      7  I   UNL d   1      -0.012  -3.961  -4.808  0.00  0.00    -0.146 I 
ENDROOT
TORSDOF 0
ENDMDL
