MODEL 1
REMARK minimizedAffinity 7.61025238
REMARK minimizedRMSD -1
REMARK  0 active torsions:
REMARK  status: ('A' for Active; 'I' for Inactive)
ROOT
ATOM      1  C   UNL d   1      -3.924  -5.962  -5.622  0.00  0.00     0.023 A 
ATOM      2  C1  UNL d   1      -2.892  -5.032  -5.497  0.00  0.00     0.003 A 
ATOM      3  C2  UNL d   1      -3.164  -3.666  -5.604  0.00  0.00     0.048 A 
ATOM      4  C3  UNL d   1      -4.470  -3.238  -5.835  0.00  0.00     0.023 A 
ATOM      5  C4  UNL d   1      -5.506  -4.164  -5.960  0.00  0.00     0.048 A 
ATOM      6  C5  UNL d   1      -5.230  -5.529  -5.854  0.00  0.00     0.003 A 
ATOM      7  I   UNL d   1      -4.877  -1.206  -5.994  0.00  0.00    -0.146 I 
ENDROOT
TORSDOF 0
ENDMDL
