MODEL 1
REMARK minimizedAffinity 8.70641518
REMARK minimizedRMSD -1
REMARK  0 active torsions:
REMARK  status: ('A' for Active; 'I' for Inactive)
ROOT
ATOM      1  C   UNL d   1      -0.898   4.434  -0.661  0.00  0.00     0.023 A 
ATOM      2  C1  UNL d   1      -1.359   3.397   0.149  0.00  0.00     0.003 A 
ATOM      3  C2  UNL d   1      -0.557   2.277   0.377  0.00  0.00     0.048 A 
ATOM      4  C3  UNL d   1       0.706   2.201  -0.209  0.00  0.00     0.023 A 
ATOM      5  C4  UNL d   1       1.173   3.237  -1.019  0.00  0.00     0.048 A 
ATOM      6  C5  UNL d   1       0.367   4.354  -1.245  0.00  0.00     0.003 A 
ATOM      7  I   UNL d   1       1.902   0.535   0.128  0.00  0.00    -0.146 I 
ENDROOT
TORSDOF 0
ENDMDL
