MODEL 1
REMARK minimizedAffinity 6.86467123
REMARK minimizedRMSD -1
REMARK  0 active torsions:
REMARK  status: ('A' for Active; 'I' for Inactive)
ROOT
ATOM      1  C   UNL d   1      -0.684   4.087  -0.122  0.00  0.00     0.023 A 
ATOM      2  C1  UNL d   1       0.710   4.144  -0.089  0.00  0.00     0.003 A 
ATOM      3  C2  UNL d   1       1.460   2.971  -0.193  0.00  0.00     0.048 A 
ATOM      4  C3  UNL d   1       0.810   1.744  -0.330  0.00  0.00     0.023 A 
ATOM      5  C4  UNL d   1      -0.584   1.683  -0.364  0.00  0.00     0.048 A 
ATOM      6  C5  UNL d   1      -1.330   2.859  -0.259  0.00  0.00     0.003 A 
ATOM      7  I   UNL d   1       1.925  -0.003  -0.486  0.00  0.00    -0.146 I 
ENDROOT
TORSDOF 0
ENDMDL
