MODEL 1
REMARK minimizedAffinity 9.03023911
REMARK minimizedRMSD -1
REMARK  1 active torsions:
REMARK  status: ('A' for Active; 'I' for Inactive)
REMARK    1  A    between atoms: C1_2  and  C2_3 
ROOT
ATOM      1  C2  UNL d   1      -3.139  -1.581   5.706  0.00  0.00    -0.073 A 
ATOM      2  C3  UNL d   1      -2.073  -0.827   5.203  0.00  0.00    -0.002 A 
ATOM      3  C4  UNL d   1      -2.231   0.537   4.952  0.00  0.00     0.004 A 
ATOM      4  C5  UNL d   1      -3.452   1.161   5.207  0.00  0.00    -0.004 A 
ATOM      5  C6  UNL d   1      -4.526   0.427   5.721  0.00  0.00    -0.075 A 
ATOM      6  C7  UNL d   1      -5.846   1.083   5.998  0.00  0.00     0.076 C 
ATOM      7  C8  UNL d   1      -4.360  -0.943   5.968  0.00  0.00     0.001 A 
ENDROOT
BRANCH   1   8
ATOM      8  C1  UNL d   1      -2.972  -3.052   5.984  0.00  0.00     0.053 C 
ATOM      9  C   UNL d   1      -4.304  -3.785   5.999  0.00  0.00     0.018 C 
ENDBRANCH   1   8
TORSDOF 1
ENDMDL
