MODEL 1
REMARK minimizedAffinity 2.5757308
REMARK minimizedRMSD -1
REMARK  1 active torsions:
REMARK  status: ('A' for Active; 'I' for Inactive)
REMARK    1  A    between atoms: C1_2  and  C2_3 
ROOT
ATOM      1  C2  UNL d   1       4.886  -2.569  -4.178  0.00  0.00    -0.073 A 
ATOM      2  C3  UNL d   1       3.541  -2.500  -4.558  0.00  0.00    -0.002 A 
ATOM      3  C4  UNL d   1       2.997  -3.465  -5.407  0.00  0.00     0.004 A 
ATOM      4  C5  UNL d   1       3.790  -4.511  -5.878  0.00  0.00    -0.004 A 
ATOM      5  C6  UNL d   1       5.133  -4.605  -5.500  0.00  0.00    -0.075 A 
ATOM      6  C7  UNL d   1       6.000  -5.723  -6.000  0.00  0.00     0.076 C 
ATOM      7  C8  UNL d   1       5.672  -3.630  -4.649  0.00  0.00     0.001 A 
ENDROOT
BRANCH   1   8
ATOM      8  C1  UNL d   1       5.475  -1.533  -3.256  0.00  0.00     0.053 C 
ATOM      9  C   UNL d   1       6.000  -2.148  -1.969  0.00  0.00     0.018 C 
ENDBRANCH   1   8
TORSDOF 1
ENDMDL
