MODEL 1
REMARK minimizedAffinity 1.94142711
REMARK minimizedRMSD -1
REMARK  1 active torsions:
REMARK  status: ('A' for Active; 'I' for Inactive)
REMARK    1  A    between atoms: C1_2  and  C2_3 
ROOT
ATOM      1  C2  UNL d   1       5.375  -2.918  -3.800  0.00  0.00    -0.073 A 
ATOM      2  C3  UNL d   1       4.209  -2.409  -4.383  0.00  0.00    -0.002 A 
ATOM      3  C4  UNL d   1       3.630  -3.050  -5.479  0.00  0.00     0.004 A 
ATOM      4  C5  UNL d   1       4.207  -4.208  -5.999  0.00  0.00    -0.004 A 
ATOM      5  C6  UNL d   1       5.366  -4.739  -5.424  0.00  0.00    -0.075 A 
ATOM      6  C7  UNL d   1       5.999  -5.984  -5.973  0.00  0.00     0.076 C 
ATOM      7  C8  UNL d   1       5.942  -4.089  -4.325  0.00  0.00     0.001 A 
ENDROOT
BRANCH   1   8
ATOM      8  C1  UNL d   1       5.999  -2.233  -2.612  0.00  0.00     0.053 C 
ATOM      9  C   UNL d   1       5.281  -0.941  -2.257  0.00  0.00     0.018 C 
ENDBRANCH   1   8
TORSDOF 1
ENDMDL
