MODEL 1
REMARK minimizedAffinity 16.4354763
REMARK minimizedRMSD -1
REMARK  1 active torsions:
REMARK  status: ('A' for Active; 'I' for Inactive)
REMARK    1  A    between atoms: C1_2  and  C2_3 
ROOT
ATOM      1  C2  UNL d   1      -2.219  -2.253   2.534  0.00  0.00    -0.073 A 
ATOM      2  C3  UNL d   1      -2.879  -1.426   1.618  0.00  0.00    -0.002 A 
ATOM      3  C4  UNL d   1      -2.426  -1.328   0.302  0.00  0.00     0.004 A 
ATOM      4  C5  UNL d   1      -1.314  -2.060  -0.113  0.00  0.00    -0.004 A 
ATOM      5  C6  UNL d   1      -0.647  -2.901   0.784  0.00  0.00    -0.075 A 
ATOM      6  C7  UNL d   1       0.553  -3.693   0.353  0.00  0.00     0.076 C 
ATOM      7  C8  UNL d   1      -1.107  -2.991   2.105  0.00  0.00     0.001 A 
ENDROOT
BRANCH   1   8
ATOM      8  C1  UNL d   1      -2.708  -2.367   3.955  0.00  0.00     0.053 C 
ATOM      9  C   UNL d   1      -2.911  -1.004   4.599  0.00  0.00     0.018 C 
ENDBRANCH   1   8
TORSDOF 1
ENDMDL
