MODEL 1
REMARK minimizedAffinity 11.9884882
REMARK minimizedRMSD -1
REMARK  1 active torsions:
REMARK  status: ('A' for Active; 'I' for Inactive)
REMARK    1  A    between atoms: C1_2  and  C2_3 
ROOT
ATOM      1  C2  UNL d   1       3.992  -2.858   4.179  0.00  0.00    -0.073 A 
ATOM      2  C3  UNL d   1       4.929  -1.924   4.634  0.00  0.00    -0.002 A 
ATOM      3  C4  UNL d   1       5.926  -2.306   5.533  0.00  0.00     0.004 A 
ATOM      4  C5  UNL d   1       6.000  -3.626   5.980  0.00  0.00    -0.004 A 
ATOM      5  C6  UNL d   1       5.079  -4.576   5.527  0.00  0.00    -0.075 A 
ATOM      6  C7  UNL d   1       5.144  -5.999   6.000  0.00  0.00     0.076 C 
ATOM      7  C8  UNL d   1       4.080  -4.184   4.626  0.00  0.00     0.001 A 
ENDROOT
BRANCH   1   8
ATOM      8  C1  UNL d   1       2.918  -2.452   3.203  0.00  0.00     0.053 C 
ATOM      9  C   UNL d   1       3.439  -1.481   2.154  0.00  0.00     0.018 C 
ENDBRANCH   1   8
TORSDOF 1
ENDMDL
