MODEL 1
REMARK minimizedAffinity 17.4483223
REMARK minimizedRMSD -1
REMARK  1 active torsions:
REMARK  status: ('A' for Active; 'I' for Inactive)
REMARK    1  A    between atoms: C1_2  and  C2_3 
ROOT
ATOM      1  C2  UNL d   1      -2.530  -0.080   4.311  0.00  0.00    -0.073 A 
ATOM      2  C3  UNL d   1      -1.779   1.099   4.259  0.00  0.00    -0.002 A 
ATOM      3  C4  UNL d   1      -1.331   1.597   3.034  0.00  0.00     0.004 A 
ATOM      4  C5  UNL d   1      -1.636   0.925   1.850  0.00  0.00    -0.004 A 
ATOM      5  C6  UNL d   1      -2.396  -0.248   1.881  0.00  0.00    -0.075 A 
ATOM      6  C7  UNL d   1      -2.731  -0.984   0.616  0.00  0.00     0.076 C 
ATOM      7  C8  UNL d   1      -2.839  -0.743   3.115  0.00  0.00     0.001 A 
ENDROOT
BRANCH   1   8
ATOM      8  C1  UNL d   1      -3.021  -0.618   5.630  0.00  0.00     0.053 C 
ATOM      9  C   UNL d   1      -4.387  -0.062   6.000  0.00  0.00     0.018 C 
ENDBRANCH   1   8
TORSDOF 1
ENDMDL
