MODEL 1
REMARK minimizedAffinity 12.4648504
REMARK minimizedRMSD -1
REMARK  1 active torsions:
REMARK  status: ('A' for Active; 'I' for Inactive)
REMARK    1  A    between atoms: C1_2  and  C2_3 
ROOT
ATOM      1  C2  UNL d   1       3.712  -2.940  -4.107  0.00  0.00    -0.073 A 
ATOM      2  C3  UNL d   1       4.089  -1.974  -5.048  0.00  0.00    -0.002 A 
ATOM      3  C4  UNL d   1       5.085  -2.254  -5.984  0.00  0.00     0.004 A 
ATOM      4  C5  UNL d   1       5.709  -3.502  -5.994  0.00  0.00    -0.004 A 
ATOM      5  C6  UNL d   1       5.337  -4.483  -5.070  0.00  0.00    -0.075 A 
ATOM      6  C7  UNL d   1       6.000  -5.830  -5.066  0.00  0.00     0.076 C 
ATOM      7  C8  UNL d   1       4.338  -4.194  -4.131  0.00  0.00     0.001 A 
ENDROOT
BRANCH   1   8
ATOM      8  C1  UNL d   1       2.632  -2.644  -3.098  0.00  0.00     0.053 C 
ATOM      9  C   UNL d   1       2.423  -3.800  -2.133  0.00  0.00     0.018 C 
ENDBRANCH   1   8
TORSDOF 1
ENDMDL
