MODEL 1
REMARK minimizedAffinity 1.12794173
REMARK minimizedRMSD -1
REMARK  1 active torsions:
REMARK  status: ('A' for Active; 'I' for Inactive)
REMARK    1  A    between atoms: C1_2  and  C2_3 
ROOT
ATOM      1  C2  UNL d   1       5.140   5.325  -2.603  0.00  0.00    -0.073 A 
ATOM      2  C3  UNL d   1       3.800   5.694  -2.767  0.00  0.00    -0.002 A 
ATOM      3  C4  UNL d   1       3.007   5.063  -3.725  0.00  0.00     0.004 A 
ATOM      4  C5  UNL d   1       3.542   4.052  -4.524  0.00  0.00    -0.004 A 
ATOM      5  C6  UNL d   1       4.875   3.660  -4.367  0.00  0.00    -0.075 A 
ATOM      6  C7  UNL d   1       5.466   2.576  -5.220  0.00  0.00     0.076 C 
ATOM      7  C8  UNL d   1       5.666   4.301  -3.404  0.00  0.00     0.001 A 
ENDROOT
BRANCH   1   8
ATOM      8  C1  UNL d   1       5.999   6.000  -1.565  0.00  0.00     0.053 C 
ATOM      9  C   UNL d   1       6.000   5.243  -0.246  0.00  0.00     0.018 C 
ENDBRANCH   1   8
TORSDOF 1
ENDMDL
