MODEL 1
REMARK minimizedAffinity 7.15708303
REMARK minimizedRMSD -1
REMARK  1 active torsions:
REMARK  status: ('A' for Active; 'I' for Inactive)
REMARK    1  A    between atoms: C1_2  and  C2_3 
ROOT
ATOM      1  C2  UNL d   1      -3.736   5.630   3.104  0.00  0.00    -0.073 A 
ATOM      2  C3  UNL d   1      -3.853   5.999   1.759  0.00  0.00    -0.002 A 
ATOM      3  C4  UNL d   1      -2.737   5.978   0.922  0.00  0.00     0.004 A 
ATOM      4  C5  UNL d   1      -1.495   5.582   1.418  0.00  0.00    -0.004 A 
ATOM      5  C6  UNL d   1      -1.360   5.197   2.756  0.00  0.00    -0.075 A 
ATOM      6  C7  UNL d   1      -0.031   4.770   3.306  0.00  0.00     0.076 C 
ATOM      7  C8  UNL d   1      -2.485   5.224   3.591  0.00  0.00     0.001 A 
ENDROOT
BRANCH   1   8
ATOM      8  C1  UNL d   1      -4.940   5.645   4.010  0.00  0.00     0.053 C 
ATOM      9  C   UNL d   1      -5.533   4.257   4.192  0.00  0.00     0.018 C 
ENDBRANCH   1   8
TORSDOF 1
ENDMDL
