MODEL 1
REMARK minimizedAffinity -3.08120823
REMARK minimizedRMSD -1
REMARK  0 active torsions:
REMARK  status: ('A' for Active; 'I' for Inactive)
ROOT
ATOM      1  C2' OXE d   1       2.789  -0.746   0.591  0.00  0.00     0.078 C 
ATOM      2  C1' OXE d   1       1.989  -1.091   3.260  0.00  0.00     0.078 C 
ATOM      3  C1  OXE d   1       0.911  -0.972   2.212  0.00  0.00    -0.078 A 
ATOM      4  C2  OXE d   1       1.311  -0.756   0.915  0.00  0.00    -0.078 A 
ATOM      5  C3  OXE d   1       0.358  -0.693  -0.098  0.00  0.00     0.003 A 
ATOM      6  C4  OXE d   1      -1.007  -0.694   0.211  0.00  0.00    -0.002 A 
ATOM      7  C5  OXE d   1      -1.436  -0.872   1.531  0.00  0.00    -0.002 A 
ATOM      8  C6  OXE d   1      -0.492  -1.055   2.535  0.00  0.00     0.003 A 
ENDROOT
TORSDOF 0
ENDMDL
