MODEL 1
REMARK minimizedAffinity -5.93496323
REMARK minimizedRMSD -1
REMARK  0 active torsions:
REMARK  status: ('A' for Active; 'I' for Inactive)
ROOT
ATOM      1  C2' OXE d   1       1.874  -1.114   2.889  0.00  0.00     0.078 C 
ATOM      2  C1' OXE d   1       2.939  -1.959   0.432  0.00  0.00     0.078 C 
ATOM      3  C1  OXE d   1       1.564  -1.339   0.427  0.00  0.00    -0.078 A 
ATOM      4  C2  OXE d   1       1.032  -0.971   1.640  0.00  0.00    -0.078 A 
ATOM      5  C3  OXE d   1      -0.211  -0.345   1.686  0.00  0.00     0.003 A 
ATOM      6  C4  OXE d   1      -0.988  -0.226   0.528  0.00  0.00    -0.002 A 
ATOM      7  C5  OXE d   1      -0.481  -0.630  -0.712  0.00  0.00    -0.002 A 
ATOM      8  C6  OXE d   1       0.807  -1.148  -0.785  0.00  0.00     0.003 A 
ENDROOT
TORSDOF 0
ENDMDL
