MODEL 1
REMARK minimizedAffinity -4.45240307
REMARK minimizedRMSD -1
REMARK  0 active torsions:
REMARK  status: ('A' for Active; 'I' for Inactive)
ROOT
ATOM      1  C2' OXE d   1       2.198  -1.852   2.663  0.00  0.00     0.078 C 
ATOM      2  C1' OXE d   1       2.776  -1.892  -0.083  0.00  0.00     0.078 C 
ATOM      3  C1  OXE d   1       1.559  -1.125   0.368  0.00  0.00    -0.078 A 
ATOM      4  C2  OXE d   1       1.257  -1.150   1.708  0.00  0.00    -0.078 A 
ATOM      5  C3  OXE d   1       0.176  -0.414   2.185  0.00  0.00     0.003 A 
ATOM      6  C4  OXE d   1      -0.695   0.225   1.295  0.00  0.00    -0.002 A 
ATOM      7  C5  OXE d   1      -0.429   0.229  -0.079  0.00  0.00    -0.002 A 
ATOM      8  C6  OXE d   1       0.715  -0.404  -0.553  0.00  0.00     0.003 A 
ENDROOT
TORSDOF 0
ENDMDL
