MODEL 1
REMARK minimizedAffinity -3.14076519
REMARK minimizedRMSD -1
REMARK  0 active torsions:
REMARK  status: ('A' for Active; 'I' for Inactive)
ROOT
ATOM      1  C2' OXE d   1      -2.222  -0.341   0.877  0.00  0.00     0.078 C 
ATOM      2  C1' OXE d   1      -0.452   0.827  -0.963  0.00  0.00     0.078 C 
ATOM      3  C1  OXE d   1       0.131   0.233   0.294  0.00  0.00    -0.078 A 
ATOM      4  C2  OXE d   1      -0.746  -0.295   1.211  0.00  0.00    -0.078 A 
ATOM      5  C3  OXE d   1      -0.256  -0.905   2.362  0.00  0.00     0.003 A 
ATOM      6  C4  OXE d   1       1.109  -0.849   2.668  0.00  0.00    -0.002 A 
ATOM      7  C5  OXE d   1       2.016  -0.281   1.767  0.00  0.00    -0.002 A 
ATOM      8  C6  OXE d   1       1.549   0.225   0.558  0.00  0.00     0.003 A 
ENDROOT
TORSDOF 0
ENDMDL
