MODEL 1
REMARK minimizedAffinity -1.68696916
REMARK minimizedRMSD -1
REMARK  0 active torsions:
REMARK  status: ('A' for Active; 'I' for Inactive)
ROOT
ATOM      1  C2' OXE d   1      -0.466   3.013  -2.285  0.00  0.00     0.078 C 
ATOM      2  C1' OXE d   1      -2.705   1.325  -2.434  0.00  0.00     0.078 C 
ATOM      3  C1  OXE d   1      -1.502   0.832  -1.669  0.00  0.00    -0.078 A 
ATOM      4  C2  OXE d   1      -0.394   1.645  -1.641  0.00  0.00    -0.078 A 
ATOM      5  C3  OXE d   1       0.723   1.263  -0.904  0.00  0.00     0.003 A 
ATOM      6  C4  OXE d   1       0.786  -0.008  -0.319  0.00  0.00    -0.002 A 
ATOM      7  C5  OXE d   1      -0.317  -0.868  -0.370  0.00  0.00    -0.002 A 
ATOM      8  C6  OXE d   1      -1.481  -0.447  -1.003  0.00  0.00     0.003 A 
ENDROOT
TORSDOF 0
ENDMDL
