MODEL 1
REMARK minimizedAffinity -1.60929942
REMARK minimizedRMSD -1
REMARK  0 active torsions:
REMARK  status: ('A' for Active; 'I' for Inactive)
ROOT
ATOM      1  C2' OXE d   1      -0.298   0.037  -1.488  0.00  0.00     0.078 C 
ATOM      2  C1' OXE d   1       1.930  -1.478  -0.702  0.00  0.00     0.078 C 
ATOM      3  C1  OXE d   1       0.902  -1.141   0.349  0.00  0.00    -0.078 A 
ATOM      4  C2  OXE d   1      -0.161  -0.360  -0.034  0.00  0.00    -0.078 A 
ATOM      5  C3  OXE d   1      -1.166  -0.066   0.883  0.00  0.00     0.003 A 
ATOM      6  C4  OXE d   1      -1.027  -0.429   2.228  0.00  0.00    -0.002 A 
ATOM      7  C5  OXE d   1       0.068  -1.191   2.648  0.00  0.00    -0.002 A 
ATOM      8  C6  OXE d   1       1.018  -1.591   1.714  0.00  0.00     0.003 A 
ENDROOT
TORSDOF 0
ENDMDL
