MODEL 1
REMARK minimizedAffinity -3.71053147
REMARK minimizedRMSD -1
REMARK  0 active torsions:
REMARK  status: ('A' for Active; 'I' for Inactive)
ROOT
ATOM      1  C2' OXE d   1       0.415  -0.590  -1.376  0.00  0.00     0.078 C 
ATOM      2  C1' OXE d   1       2.618  -1.741  -0.072  0.00  0.00     0.078 C 
ATOM      3  C1  OXE d   1       1.459  -1.280   0.777  0.00  0.00    -0.078 A 
ATOM      4  C2  OXE d   1       0.406  -0.676   0.135  0.00  0.00    -0.078 A 
ATOM      5  C3  OXE d   1      -0.712  -0.282   0.864  0.00  0.00     0.003 A 
ATOM      6  C4  OXE d   1      -0.708  -0.356   2.262  0.00  0.00    -0.002 A 
ATOM      7  C5  OXE d   1       0.372  -0.932   2.940  0.00  0.00    -0.002 A 
ATOM      8  C6  OXE d   1       1.443  -1.437   2.210  0.00  0.00     0.003 A 
ENDROOT
TORSDOF 0
ENDMDL
