MODEL 1
REMARK minimizedAffinity -2.92617822
REMARK minimizedRMSD -1
REMARK  0 active torsions:
REMARK  status: ('A' for Active; 'I' for Inactive)
ROOT
ATOM      1  C2' OXE d   1      -1.872  -0.650   0.807  0.00  0.00     0.078 C 
ATOM      2  C1' OXE d   1      -0.470  -2.061   2.787  0.00  0.00     0.078 C 
ATOM      3  C1  OXE d   1       0.321  -1.489   1.638  0.00  0.00    -0.078 A 
ATOM      4  C2  OXE d   1      -0.379  -0.840   0.650  0.00  0.00    -0.078 A 
ATOM      5  C3  OXE d   1       0.308  -0.245  -0.405  0.00  0.00     0.003 A 
ATOM      6  C4  OXE d   1       1.688  -0.434  -0.548  0.00  0.00    -0.002 A 
ATOM      7  C5  OXE d   1       2.415  -1.126   0.427  0.00  0.00    -0.002 A 
ATOM      8  C6  OXE d   1       1.754  -1.622   1.545  0.00  0.00     0.003 A 
ENDROOT
TORSDOF 0
ENDMDL
