MODEL 1
REMARK minimizedAffinity -0.537682056
REMARK minimizedRMSD -1
REMARK  0 active torsions:
REMARK  status: ('A' for Active; 'I' for Inactive)
ROOT
ATOM      1  C2' OXE d   1      -0.479   0.722  -2.060  0.00  0.00     0.078 C 
ATOM      2  C1' OXE d   1       1.691  -1.057  -1.971  0.00  0.00     0.078 C 
ATOM      3  C1  OXE d   1       0.875  -0.879  -0.715  0.00  0.00    -0.078 A 
ATOM      4  C2  OXE d   1      -0.157   0.028  -0.754  0.00  0.00    -0.078 A 
ATOM      5  C3  OXE d   1      -0.975   0.189   0.360  0.00  0.00     0.003 A 
ATOM      6  C4  OXE d   1      -0.664  -0.449   1.567  0.00  0.00    -0.002 A 
ATOM      7  C5  OXE d   1       0.406  -1.347   1.640  0.00  0.00    -0.002 A 
ATOM      8  C6  OXE d   1       1.158  -1.605   0.499  0.00  0.00     0.003 A 
ENDROOT
TORSDOF 0
ENDMDL
