MODEL 1
REMARK minimizedAffinity -1.23481011
REMARK minimizedRMSD -1
REMARK  0 active torsions:
REMARK  status: ('A' for Active; 'I' for Inactive)
ROOT
ATOM      1  C2' OXE d   1       2.631  -0.780   0.484  0.00  0.00     0.078 C 
ATOM      2  C1' OXE d   1       2.147  -1.082   3.232  0.00  0.00     0.078 C 
ATOM      3  C1  OXE d   1       0.961  -1.111   2.302  0.00  0.00    -0.078 A 
ATOM      4  C2  OXE d   1       1.202  -0.916   0.963  0.00  0.00    -0.078 A 
ATOM      5  C3  OXE d   1       0.149  -0.987   0.055  0.00  0.00     0.003 A 
ATOM      6  C4  OXE d   1      -1.171  -1.103   0.508  0.00  0.00    -0.002 A 
ATOM      7  C5  OXE d   1      -1.442  -1.263   1.871  0.00  0.00    -0.002 A 
ATOM      8  C6  OXE d   1      -0.387  -1.312   2.775  0.00  0.00     0.003 A 
ENDROOT
TORSDOF 0
ENDMDL
