MODEL 1
REMARK minimizedAffinity 12.1759348
REMARK minimizedRMSD -1
REMARK  2 active torsions:
REMARK  status: ('A' for Active; 'I' for Inactive)
REMARK    1  A    between atoms: C2'_3  and  C1'_4 
REMARK    2  A    between atoms: C1'_4  and  C1_5 
ROOT
ATOM      1  C1  I4B d   1       1.825   1.140   1.791  0.00  0.00    -0.075 A 
ATOM      2  C2  I4B d   1       2.773   0.165   1.976  0.00  0.00     0.003 A 
ATOM      3  C3  I4B d   1       3.794  -0.029   1.013  0.00  0.00     0.002 A 
ATOM      4  C4  I4B d   1       3.798   0.736  -0.136  0.00  0.00    -0.004 A 
ATOM      5  C5  I4B d   1       2.849   1.740  -0.310  0.00  0.00     0.002 A 
ATOM      6  C6  I4B d   1       1.864   1.951   0.665  0.00  0.00     0.003 A 
ENDROOT
BRANCH   1   7
ATOM      7  C1' I4B d   1       0.743   1.295   2.812  0.00  0.00     0.060 C 
BRANCH   7   8
ATOM      8  C2' I4B d   1       0.897   0.182   3.829  0.00  0.00    -0.013 C 
ATOM      9  C4' I4B d   1       1.027   0.733   5.224  0.00  0.00     0.013 C 
ATOM     10  C3' I4B d   1      -0.295  -0.720   3.712  0.00  0.00     0.013 C 
ENDBRANCH   7   8
ENDBRANCH   1   7
TORSDOF 2
ENDMDL
