MODEL 1
REMARK minimizedAffinity 11.9928694
REMARK minimizedRMSD -1
REMARK  2 active torsions:
REMARK  status: ('A' for Active; 'I' for Inactive)
REMARK    1  A    between atoms: C2'_3  and  C1'_4 
REMARK    2  A    between atoms: C1'_4  and  C1_5 
ROOT
ATOM      1  C1  I4B d   1      -3.847  -4.948  -1.672  0.00  0.00    -0.075 A 
ATOM      2  C2  I4B d   1      -2.903  -5.844  -2.110  0.00  0.00     0.003 A 
ATOM      3  C3  I4B d   1      -1.842  -5.412  -2.942  0.00  0.00     0.002 A 
ATOM      4  C4  I4B d   1      -1.792  -4.095  -3.351  0.00  0.00    -0.004 A 
ATOM      5  C5  I4B d   1      -2.736  -3.183  -2.888  0.00  0.00     0.002 A 
ATOM      6  C6  I4B d   1      -3.763  -3.609  -2.033  0.00  0.00     0.003 A 
ENDROOT
BRANCH   1   7
ATOM      7  C1' I4B d   1      -4.972  -5.444  -0.822  0.00  0.00     0.060 C 
BRANCH   7   8
ATOM      8  C2' I4B d   1      -4.456  -5.592   0.595  0.00  0.00    -0.013 C 
ATOM      9  C4' I4B d   1      -3.830  -4.312   1.084  0.00  0.00     0.013 C 
ATOM     10  C3' I4B d   1      -5.607  -5.998   1.467  0.00  0.00     0.013 C 
ENDBRANCH   7   8
ENDBRANCH   1   7
TORSDOF 2
ENDMDL
