MODEL 1
REMARK minimizedAffinity 13.8928251
REMARK minimizedRMSD -1
REMARK  2 active torsions:
REMARK  status: ('A' for Active; 'I' for Inactive)
REMARK    1  A    between atoms: C2'_3  and  C1'_4 
REMARK    2  A    between atoms: C1'_4  and  C1_5 
ROOT
ATOM      1  C1  I4B d   1      -2.332  -1.998  -0.653  0.00  0.00    -0.075 A 
ATOM      2  C2  I4B d   1      -2.986  -2.791   0.256  0.00  0.00     0.003 A 
ATOM      3  C3  I4B d   1      -2.552  -2.838   1.603  0.00  0.00     0.002 A 
ATOM      4  C4  I4B d   1      -1.437  -2.120   1.983  0.00  0.00    -0.004 A 
ATOM      5  C5  I4B d   1      -0.789  -1.299   1.065  0.00  0.00     0.002 A 
ATOM      6  C6  I4B d   1      -1.246  -1.228  -0.258  0.00  0.00     0.003 A 
ENDROOT
BRANCH   1   7
ATOM      7  C1' I4B d   1      -2.797  -1.998  -2.075  0.00  0.00     0.060 C 
BRANCH   7   8
ATOM      8  C2' I4B d   1      -3.055  -3.434  -2.482  0.00  0.00    -0.013 C 
ATOM      9  C4' I4B d   1      -4.386  -3.575  -3.173  0.00  0.00     0.013 C 
ATOM     10  C3' I4B d   1      -1.933  -3.871  -3.375  0.00  0.00     0.013 C 
ENDBRANCH   7   8
ENDBRANCH   1   7
TORSDOF 2
ENDMDL
