MODEL 1
REMARK minimizedAffinity 15.7681608
REMARK minimizedRMSD -1
REMARK  2 active torsions:
REMARK  status: ('A' for Active; 'I' for Inactive)
REMARK    1  A    between atoms: C2'_3  and  C1'_4 
REMARK    2  A    between atoms: C1'_4  and  C1_5 
ROOT
ATOM      1  C1  I4B d   1       2.302   1.384   2.114  0.00  0.00    -0.075 A 
ATOM      2  C2  I4B d   1       3.554   0.849   2.285  0.00  0.00     0.003 A 
ATOM      3  C3  I4B d   1       3.858   0.104   3.450  0.00  0.00     0.002 A 
ATOM      4  C4  I4B d   1       2.902  -0.037   4.435  0.00  0.00    -0.004 A 
ATOM      5  C5  I4B d   1       1.626   0.486   4.250  0.00  0.00     0.002 A 
ATOM      6  C6  I4B d   1       1.319   1.191   3.077  0.00  0.00     0.003 A 
ENDROOT
BRANCH   1   7
ATOM      7  C1' I4B d   1       2.025   2.194   0.887  0.00  0.00     0.060 C 
BRANCH   7   8
ATOM      8  C2' I4B d   1       2.196   1.290  -0.317  0.00  0.00    -0.013 C 
ATOM      9  C4' I4B d   1       3.012   1.960  -1.390  0.00  0.00     0.013 C 
ATOM     10  C3' I4B d   1       2.846   0.020   0.146  0.00  0.00     0.013 C 
ENDBRANCH   7   8
ENDBRANCH   1   7
TORSDOF 2
ENDMDL
