MODEL 1
REMARK minimizedAffinity 16.4711933
REMARK minimizedRMSD -1
REMARK  2 active torsions:
REMARK  status: ('A' for Active; 'I' for Inactive)
REMARK    1  A    between atoms: C2'_3  and  C1'_4 
REMARK    2  A    between atoms: C1'_4  and  C1_5 
ROOT
ATOM      1  C1  I4B d   1      -3.571  -3.936  -3.014  0.00  0.00    -0.075 A 
ATOM      2  C2  I4B d   1      -4.696  -3.321  -3.502  0.00  0.00     0.003 A 
ATOM      3  C3  I4B d   1      -5.938  -4.000  -3.499  0.00  0.00     0.002 A 
ATOM      4  C4  I4B d   1      -6.000  -5.303  -3.048  0.00  0.00    -0.004 A 
ATOM      5  C5  I4B d   1      -4.862  -5.917  -2.532  0.00  0.00     0.002 A 
ATOM      6  C6  I4B d   1      -3.643  -5.226  -2.503  0.00  0.00     0.003 A 
ENDROOT
BRANCH   1   7
ATOM      7  C1' I4B d   1      -2.268  -3.202  -3.062  0.00  0.00     0.060 C 
BRANCH   7   8
ATOM      8  C2' I4B d   1      -1.520  -3.660  -4.297  0.00  0.00    -0.013 C 
ATOM      9  C4' I4B d   1      -1.106  -2.489  -5.150  0.00  0.00     0.013 C 
ATOM     10  C3' I4B d   1      -0.328  -4.452  -3.849  0.00  0.00     0.013 C 
ENDBRANCH   7   8
ENDBRANCH   1   7
TORSDOF 2
ENDMDL
