MODEL 1
REMARK minimizedAffinity 10.2771702
REMARK minimizedRMSD -1
REMARK  2 active torsions:
REMARK  status: ('A' for Active; 'I' for Inactive)
REMARK    1  A    between atoms: C2'_3  and  C1'_4 
REMARK    2  A    between atoms: C1'_4  and  C1_5 
ROOT
ATOM      1  C1  I4B d   1       2.852   1.119   0.839  0.00  0.00    -0.075 A 
ATOM      2  C2  I4B d   1       3.505   0.075   1.446  0.00  0.00     0.003 A 
ATOM      3  C3  I4B d   1       4.816  -0.277   1.043  0.00  0.00     0.002 A 
ATOM      4  C4  I4B d   1       5.412   0.404   0.001  0.00  0.00    -0.004 A 
ATOM      5  C5  I4B d   1       4.757   1.477  -0.598  0.00  0.00     0.002 A 
ATOM      6  C6  I4B d   1       3.474   1.844  -0.168  0.00  0.00     0.003 A 
ENDROOT
BRANCH   1   7
ATOM      7  C1' I4B d   1       1.456   1.442   1.268  0.00  0.00     0.060 C 
BRANCH   7   8
ATOM      8  C2' I4B d   1       0.994   0.353   2.214  0.00  0.00    -0.013 C 
ATOM      9  C4' I4B d   1       0.112   0.911   3.300  0.00  0.00     0.013 C 
ATOM     10  C3' I4B d   1       0.271  -0.685   1.409  0.00  0.00     0.013 C 
ENDBRANCH   7   8
ENDBRANCH   1   7
TORSDOF 2
ENDMDL
