MODEL 1
REMARK minimizedAffinity 20.5125237
REMARK minimizedRMSD -1
REMARK  2 active torsions:
REMARK  status: ('A' for Active; 'I' for Inactive)
REMARK    1  A    between atoms: C2'_3  and  C1'_4 
REMARK    2  A    between atoms: C1'_4  and  C1_5 
ROOT
ATOM      1  C1  I4B d   1       0.421  -0.045   1.745  0.00  0.00    -0.075 A 
ATOM      2  C2  I4B d   1       1.596  -0.689   1.447  0.00  0.00     0.003 A 
ATOM      3  C3  I4B d   1       2.730   0.052   1.034  0.00  0.00     0.002 A 
ATOM      4  C4  I4B d   1       2.630   1.420   0.884  0.00  0.00    -0.004 A 
ATOM      5  C5  I4B d   1       1.445   2.073   1.208  0.00  0.00     0.002 A 
ATOM      6  C6  I4B d   1       0.337   1.338   1.653  0.00  0.00     0.003 A 
ENDROOT
BRANCH   1   7
ATOM      7  C1' I4B d   1      -0.767  -0.861   2.146  0.00  0.00     0.060 C 
BRANCH   7   8
ATOM      8  C2' I4B d   1      -0.959  -1.948   1.108  0.00  0.00    -0.013 C 
ATOM      9  C4' I4B d   1      -1.654  -3.147   1.696  0.00  0.00     0.013 C 
ATOM     10  C3' I4B d   1      -1.748  -1.368  -0.028  0.00  0.00     0.013 C 
ENDBRANCH   7   8
ENDBRANCH   1   7
TORSDOF 2
ENDMDL
