MODEL 1
REMARK minimizedAffinity 16.7956409
REMARK minimizedRMSD -1
REMARK  2 active torsions:
REMARK  status: ('A' for Active; 'I' for Inactive)
REMARK    1  A    between atoms: C2'_3  and  C1'_4 
REMARK    2  A    between atoms: C1'_4  and  C1_5 
ROOT
ATOM      1  C1  I4B d   1      -3.470  -3.749  -2.656  0.00  0.00    -0.075 A 
ATOM      2  C2  I4B d   1      -4.616  -3.238  -3.213  0.00  0.00     0.003 A 
ATOM      3  C3  I4B d   1      -5.834  -3.953  -3.120  0.00  0.00     0.002 A 
ATOM      4  C4  I4B d   1      -5.852  -5.190  -2.510  0.00  0.00    -0.004 A 
ATOM      5  C5  I4B d   1      -4.694  -5.697  -1.925  0.00  0.00     0.002 A 
ATOM      6  C6  I4B d   1      -3.498  -4.967  -1.988  0.00  0.00     0.003 A 
ENDROOT
BRANCH   1   7
ATOM      7  C1' I4B d   1      -2.194  -2.983  -2.801  0.00  0.00     0.060 C 
BRANCH   7   8
ATOM      8  C2' I4B d   1      -1.579  -3.350  -4.137  0.00  0.00    -0.013 C 
ATOM      9  C4' I4B d   1      -0.915  -2.159  -4.777  0.00  0.00     0.013 C 
ATOM     10  C3' I4B d   1      -0.595  -4.458  -3.905  0.00  0.00     0.013 C 
ENDBRANCH   7   8
ENDBRANCH   1   7
TORSDOF 2
ENDMDL
