MODEL 1
REMARK minimizedAffinity 13.0879288
REMARK minimizedRMSD -1
REMARK  2 active torsions:
REMARK  status: ('A' for Active; 'I' for Inactive)
REMARK    1  A    between atoms: C2'_3  and  C1'_4 
REMARK    2  A    between atoms: C1'_4  and  C1_5 
ROOT
ATOM      1  C1  I4B d   1       3.007   1.649  -0.489  0.00  0.00    -0.075 A 
ATOM      2  C2  I4B d   1       1.823   1.938   0.141  0.00  0.00     0.003 A 
ATOM      3  C3  I4B d   1       1.293   1.047   1.106  0.00  0.00     0.002 A 
ATOM      4  C4  I4B d   1       1.950  -0.138   1.371  0.00  0.00    -0.004 A 
ATOM      5  C5  I4B d   1       3.162  -0.418   0.747  0.00  0.00     0.002 A 
ATOM      6  C6  I4B d   1       3.701   0.486  -0.180  0.00  0.00     0.003 A 
ENDROOT
BRANCH   1   7
ATOM      7  C1' I4B d   1       3.521   2.596  -1.527  0.00  0.00     0.060 C 
BRANCH   7   8
ATOM      8  C2' I4B d   1       2.766   2.333  -2.814  0.00  0.00    -0.013 C 
ATOM      9  C4' I4B d   1       2.322   3.619  -3.459  0.00  0.00     0.013 C 
ATOM     10  C3' I4B d   1       3.665   1.552  -3.726  0.00  0.00     0.013 C 
ENDBRANCH   7   8
ENDBRANCH   1   7
TORSDOF 2
ENDMDL
