MODEL 1
REMARK minimizedAffinity 25.1486511
REMARK minimizedRMSD -1
REMARK  2 active torsions:
REMARK  status: ('A' for Active; 'I' for Inactive)
REMARK    1  A    between atoms: C2'_3  and  C1'_4 
REMARK    2  A    between atoms: C1'_4  and  C1_5 
ROOT
ATOM      1  C1  I4B d   1      -3.472  -3.552  -2.130  0.00  0.00    -0.075 A 
ATOM      2  C2  I4B d   1      -3.439  -4.872  -1.755  0.00  0.00     0.003 A 
ATOM      3  C3  I4B d   1      -4.464  -5.757  -2.169  0.00  0.00     0.002 A 
ATOM      4  C4  I4B d   1      -5.522  -5.271  -2.910  0.00  0.00    -0.004 A 
ATOM      5  C5  I4B d   1      -5.542  -3.938  -3.309  0.00  0.00     0.002 A 
ATOM      6  C6  I4B d   1      -4.504  -3.075  -2.927  0.00  0.00     0.003 A 
ENDROOT
BRANCH   1   7
ATOM      7  C1' I4B d   1      -2.390  -2.639  -1.647  0.00  0.00     0.060 C 
BRANCH   7   8
ATOM      8  C2' I4B d   1      -2.201  -2.882  -0.164  0.00  0.00    -0.013 C 
ATOM      9  C4' I4B d   1      -0.781  -2.609   0.257  0.00  0.00     0.013 C 
ATOM     10  C3' I4B d   1      -3.164  -2.001   0.576  0.00  0.00     0.013 C 
ENDBRANCH   7   8
ENDBRANCH   1   7
TORSDOF 2
ENDMDL
