MODEL 1
REMARK minimizedAffinity 17.9128437
REMARK minimizedRMSD -1
REMARK  2 active torsions:
REMARK  status: ('A' for Active; 'I' for Inactive)
REMARK    1  A    between atoms: C2'_3  and  C1'_4 
REMARK    2  A    between atoms: C1'_4  and  C1_5 
ROOT
ATOM      1  C1  I4B d   1       3.040   1.850  -0.441  0.00  0.00    -0.075 A 
ATOM      2  C2  I4B d   1       2.007   2.323   0.329  0.00  0.00     0.003 A 
ATOM      3  C3  I4B d   1       1.420   1.499   1.319  0.00  0.00     0.002 A 
ATOM      4  C4  I4B d   1       1.860   0.200   1.470  0.00  0.00    -0.004 A 
ATOM      5  C5  I4B d   1       2.923  -0.271   0.705  0.00  0.00     0.002 A 
ATOM      6  C6  I4B d   1       3.525   0.563  -0.249  0.00  0.00     0.003 A 
ENDROOT
BRANCH   1   7
ATOM      7  C1' I4B d   1       3.614   2.736  -1.501  0.00  0.00     0.060 C 
BRANCH   7   8
ATOM      8  C2' I4B d   1       2.893   2.439  -2.800  0.00  0.00    -0.013 C 
ATOM      9  C4' I4B d   1       2.445   3.707  -3.477  0.00  0.00     0.013 C 
ATOM     10  C3' I4B d   1       3.823   1.656  -3.677  0.00  0.00     0.013 C 
ENDBRANCH   7   8
ENDBRANCH   1   7
TORSDOF 2
ENDMDL
