MODEL 1
REMARK minimizedAffinity 17.2560005
REMARK minimizedRMSD -1
REMARK  2 active torsions:
REMARK  status: ('A' for Active; 'I' for Inactive)
REMARK    1  A    between atoms: C2'_3  and  C1'_4 
REMARK    2  A    between atoms: C1'_4  and  C1_5 
ROOT
ATOM      1  C1  I4B d   1      -2.066   1.881   3.790  0.00  0.00    -0.075 A 
ATOM      2  C2  I4B d   1      -2.550   0.597   3.751  0.00  0.00     0.003 A 
ATOM      3  C3  I4B d   1      -3.946   0.362   3.701  0.00  0.00     0.002 A 
ATOM      4  C4  I4B d   1      -4.817   1.432   3.744  0.00  0.00    -0.004 A 
ATOM      5  C5  I4B d   1      -4.324   2.733   3.760  0.00  0.00     0.002 A 
ATOM      6  C6  I4B d   1      -2.940   2.960   3.771  0.00  0.00     0.003 A 
ENDROOT
BRANCH   1   7
ATOM      7  C1' I4B d   1      -0.588   2.091   3.875  0.00  0.00     0.060 C 
BRANCH   7   8
ATOM      8  C2' I4B d   1       0.092   0.838   3.363  0.00  0.00    -0.013 C 
ATOM      9  C4' I4B d   1       1.105   1.163   2.297  0.00  0.00     0.013 C 
ATOM     10  C3' I4B d   1       0.737   0.151   4.531  0.00  0.00     0.013 C 
ENDBRANCH   7   8
ENDBRANCH   1   7
TORSDOF 2
ENDMDL
