MODEL 1
REMARK minimizedAffinity 19.5283508
REMARK minimizedRMSD -1
REMARK  2 active torsions:
REMARK  status: ('A' for Active; 'I' for Inactive)
REMARK    1  A    between atoms: C2'_3  and  C1'_4 
REMARK    2  A    between atoms: C1'_4  and  C1_5 
ROOT
ATOM      1  C1  I4B d   1       3.799   0.453   0.760  0.00  0.00    -0.075 A 
ATOM      2  C2  I4B d   1       3.773   1.428  -0.206  0.00  0.00     0.003 A 
ATOM      3  C3  I4B d   1       4.869   1.587  -1.088  0.00  0.00     0.002 A 
ATOM      4  C4  I4B d   1       5.984   0.788  -0.937  0.00  0.00    -0.004 A 
ATOM      5  C5  I4B d   1       6.000  -0.215   0.028  0.00  0.00     0.002 A 
ATOM      6  C6  I4B d   1       4.895  -0.392   0.874  0.00  0.00     0.003 A 
ENDROOT
BRANCH   1   7
ATOM      7  C1' I4B d   1       2.638   0.335   1.696  0.00  0.00     0.060 C 
BRANCH   7   8
ATOM      8  C2' I4B d   1       1.923   1.670   1.724  0.00  0.00    -0.013 C 
ATOM      9  C4' I4B d   1       0.888   1.711   2.817  0.00  0.00     0.013 C 
ATOM     10  C3' I4B d   1       2.954   2.743   1.914  0.00  0.00     0.013 C 
ENDBRANCH   7   8
ENDBRANCH   1   7
TORSDOF 2
ENDMDL
