MODEL 1
REMARK minimizedAffinity 27.0474987
REMARK minimizedRMSD -1
REMARK  2 active torsions:
REMARK  status: ('A' for Active; 'I' for Inactive)
REMARK    1  A    between atoms: C2'_3  and  C1'_4 
REMARK    2  A    between atoms: C1'_4  and  C1_5 
ROOT
ATOM      1  C1  I4B d   1      -4.520  -5.397  -1.109  0.00  0.00    -0.075 A 
ATOM      2  C2  I4B d   1      -3.441  -5.483  -0.265  0.00  0.00     0.003 A 
ATOM      3  C3  I4B d   1      -3.628  -5.809   1.100  0.00  0.00     0.002 A 
ATOM      4  C4  I4B d   1      -4.907  -5.990   1.586  0.00  0.00    -0.004 A 
ATOM      5  C5  I4B d   1      -5.997  -5.926   0.724  0.00  0.00     0.002 A 
ATOM      6  C6  I4B d   1      -5.802  -5.639  -0.635  0.00  0.00     0.003 A 
ENDROOT
BRANCH   1   7
ATOM      7  C1' I4B d   1      -4.289  -5.019  -2.538  0.00  0.00     0.060 C 
BRANCH   7   8
ATOM      8  C2' I4B d   1      -4.225  -3.507  -2.616  0.00  0.00    -0.013 C 
ATOM      9  C4' I4B d   1      -2.845  -3.038  -2.994  0.00  0.00     0.013 C 
ATOM     10  C3' I4B d   1      -5.245  -3.052  -3.617  0.00  0.00     0.013 C 
ENDBRANCH   7   8
ENDBRANCH   1   7
TORSDOF 2
ENDMDL
