MODEL 1
REMARK minimizedAffinity 17.5548973
REMARK minimizedRMSD -1
REMARK  2 active torsions:
REMARK  status: ('A' for Active; 'I' for Inactive)
REMARK    1  A    between atoms: C2'_3  and  C1'_4 
REMARK    2  A    between atoms: C1'_4  and  C1_5 
ROOT
ATOM      1  C1  I4B d   1      -2.797  -4.079  -2.670  0.00  0.00    -0.075 A 
ATOM      2  C2  I4B d   1      -1.876  -3.345  -3.375  0.00  0.00     0.003 A 
ATOM      3  C3  I4B d   1      -0.664  -3.941  -3.799  0.00  0.00     0.002 A 
ATOM      4  C4  I4B d   1      -0.394  -5.250  -3.456  0.00  0.00    -0.004 A 
ATOM      5  C5  I4B d   1      -1.339  -6.000  -2.761  0.00  0.00     0.002 A 
ATOM      6  C6  I4B d   1      -2.554  -5.414  -2.376  0.00  0.00     0.003 A 
ENDROOT
BRANCH   1   7
ATOM      7  C1' I4B d   1      -4.052  -3.408  -2.209  0.00  0.00     0.060 C 
BRANCH   7   8
ATOM      8  C2' I4B d   1      -5.166  -3.795  -3.161  0.00  0.00    -0.013 C 
ATOM      9  C4' I4B d   1      -5.999  -4.916  -2.598  0.00  0.00     0.013 C 
ATOM     10  C3' I4B d   1      -6.000  -2.576  -3.418  0.00  0.00     0.013 C 
ENDBRANCH   7   8
ENDBRANCH   1   7
TORSDOF 2
ENDMDL
