MODEL 1
REMARK minimizedAffinity -0.807609379
REMARK minimizedRMSD -1
REMARK  2 active torsions:
REMARK  status: ('A' for Active; 'I' for Inactive)
REMARK    1  A    between atoms: C1_2  and  C2_3 
REMARK    2  A    between atoms: C2_3  and  C3_4 
ROOT
ATOM      1  C3  UNL d   1      -3.855  -0.788   2.617  0.00  0.00    -0.075 A 
ATOM      2  C4  UNL d   1      -2.865  -1.268   1.748  0.00  0.00     0.002 A 
ATOM      3  C5  UNL d   1      -1.563  -0.770   1.813  0.00  0.00     0.002 A 
ATOM      4  C6  UNL d   1      -1.238   0.219   2.739  0.00  0.00    -0.004 A 
ATOM      5  C7  UNL d   1      -2.218   0.716   3.595  0.00  0.00     0.002 A 
ATOM      6  C8  UNL d   1      -3.520   0.216   3.535  0.00  0.00     0.002 A 
ENDROOT
BRANCH   1   7
ATOM      7  C2  UNL d   1      -5.258  -1.344   2.571  0.00  0.00     0.056 C 
BRANCH   7   8
ATOM      8  C1  UNL d   1      -5.376  -2.783   3.086  0.00  0.00     0.007 C 
ATOM      9  C   UNL d   1      -5.457  -2.873   4.604  0.00  0.00     0.009 C 
ENDBRANCH   7   8
ENDBRANCH   1   7
TORSDOF 2
ENDMDL
