MODEL 1
REMARK minimizedAffinity 10.4661999
REMARK minimizedRMSD -1
REMARK  2 active torsions:
REMARK  status: ('A' for Active; 'I' for Inactive)
REMARK    1  A    between atoms: C1_2  and  C2_3 
REMARK    2  A    between atoms: C2_3  and  C3_4 
ROOT
ATOM      1  C3  UNL d   1      -1.528  -3.984  -2.966  0.00  0.00    -0.075 A 
ATOM      2  C4  UNL d   1      -1.003  -4.512  -1.777  0.00  0.00     0.002 A 
ATOM      3  C5  UNL d   1      -0.750  -3.682  -0.685  0.00  0.00     0.002 A 
ATOM      4  C6  UNL d   1      -1.008  -2.315  -0.769  0.00  0.00    -0.004 A 
ATOM      5  C7  UNL d   1      -1.514  -1.778  -1.951  0.00  0.00     0.002 A 
ATOM      6  C8  UNL d   1      -1.773  -2.606  -3.044  0.00  0.00     0.002 A 
ENDROOT
BRANCH   1   7
ATOM      7  C2  UNL d   1      -1.832  -4.881  -4.141  0.00  0.00     0.056 C 
BRANCH   7   8
ATOM      8  C1  UNL d   1      -3.309  -4.894  -4.551  0.00  0.00     0.007 C 
ATOM      9  C   UNL d   1      -3.526  -5.311  -6.000  0.00  0.00     0.009 C 
ENDBRANCH   7   8
ENDBRANCH   1   7
TORSDOF 2
ENDMDL
