MODEL 1
REMARK minimizedAffinity 10.5158215
REMARK minimizedRMSD -1
REMARK  2 active torsions:
REMARK  status: ('A' for Active; 'I' for Inactive)
REMARK    1  A    between atoms: C1_2  and  C2_3 
REMARK    2  A    between atoms: C2_3  and  C3_4 
ROOT
ATOM      1  C3  UNL d   1       3.427   3.186  -3.234  0.00  0.00    -0.075 A 
ATOM      2  C4  UNL d   1       3.492   2.867  -4.599  0.00  0.00     0.002 A 
ATOM      3  C5  UNL d   1       4.524   3.365  -5.395  0.00  0.00     0.002 A 
ATOM      4  C6  UNL d   1       5.496   4.195  -4.841  0.00  0.00    -0.004 A 
ATOM      5  C7  UNL d   1       5.433   4.531  -3.490  0.00  0.00     0.002 A 
ATOM      6  C8  UNL d   1       4.404   4.031  -2.691  0.00  0.00     0.002 A 
ENDROOT
BRANCH   1   7
ATOM      7  C2  UNL d   1       2.330   2.626  -2.361  0.00  0.00     0.056 C 
BRANCH   7   8
ATOM      8  C1  UNL d   1       2.773   1.457  -1.475  0.00  0.00     0.007 C 
ATOM      9  C   UNL d   1       3.009   1.859  -0.025  0.00  0.00     0.009 C 
ENDBRANCH   7   8
ENDBRANCH   1   7
TORSDOF 2
ENDMDL
