MODEL 1
REMARK minimizedAffinity 8.90249348
REMARK minimizedRMSD -1
REMARK  2 active torsions:
REMARK  status: ('A' for Active; 'I' for Inactive)
REMARK    1  A    between atoms: C1_2  and  C2_3 
REMARK    2  A    between atoms: C2_3  and  C3_4 
ROOT
ATOM      1  C3  UNL d   1      -4.027  -0.360   1.274  0.00  0.00    -0.075 A 
ATOM      2  C4  UNL d   1      -3.550   0.466   2.302  0.00  0.00     0.002 A 
ATOM      3  C5  UNL d   1      -2.249   0.319   2.783  0.00  0.00     0.002 A 
ATOM      4  C6  UNL d   1      -1.413  -0.661   2.251  0.00  0.00    -0.004 A 
ATOM      5  C7  UNL d   1      -1.881  -1.498   1.240  0.00  0.00     0.002 A 
ATOM      6  C8  UNL d   1      -3.182  -1.349   0.754  0.00  0.00     0.002 A 
ENDROOT
BRANCH   1   7
ATOM      7  C2  UNL d   1      -5.424  -0.186   0.728  0.00  0.00     0.056 C 
BRANCH   7   8
ATOM      8  C1  UNL d   1      -5.638   1.126  -0.034  0.00  0.00     0.007 C 
ATOM      9  C   UNL d   1      -6.000   0.918  -1.498  0.00  0.00     0.009 C 
ENDBRANCH   7   8
ENDBRANCH   1   7
TORSDOF 2
ENDMDL
