MODEL 1
REMARK minimizedAffinity 15.7569942
REMARK minimizedRMSD -1
REMARK  2 active torsions:
REMARK  status: ('A' for Active; 'I' for Inactive)
REMARK    1  A    between atoms: C1_2  and  C2_3 
REMARK    2  A    between atoms: C2_3  and  C3_4 
ROOT
ATOM      1  C3  UNL d   1       3.541   3.178  -3.155  0.00  0.00    -0.075 A 
ATOM      2  C4  UNL d   1       3.971   3.110  -4.488  0.00  0.00     0.002 A 
ATOM      3  C5  UNL d   1       5.196   3.660  -4.867  0.00  0.00     0.002 A 
ATOM      4  C6  UNL d   1       6.000   4.294  -3.922  0.00  0.00    -0.004 A 
ATOM      5  C7  UNL d   1       5.575   4.382  -2.598  0.00  0.00     0.002 A 
ATOM      6  C8  UNL d   1       4.352   3.829  -2.216  0.00  0.00     0.002 A 
ENDROOT
BRANCH   1   7
ATOM      7  C2  UNL d   1       2.230   2.559  -2.733  0.00  0.00     0.056 C 
BRANCH   7   8
ATOM      8  C1  UNL d   1       2.382   1.239  -1.969  0.00  0.00     0.007 C 
ATOM      9  C   UNL d   1       2.569   1.430  -0.470  0.00  0.00     0.009 C 
ENDBRANCH   7   8
ENDBRANCH   1   7
TORSDOF 2
ENDMDL
