MODEL 1
REMARK minimizedAffinity 18.7132378
REMARK minimizedRMSD -1
REMARK  2 active torsions:
REMARK  status: ('A' for Active; 'I' for Inactive)
REMARK    1  A    between atoms: C1_2  and  C2_3 
REMARK    2  A    between atoms: C2_3  and  C3_4 
ROOT
ATOM      1  C3  UNL d   1      -0.237  -2.014   1.840  0.00  0.00    -0.075 A 
ATOM      2  C4  UNL d   1      -0.378  -0.752   2.434  0.00  0.00     0.002 A 
ATOM      3  C5  UNL d   1      -1.548  -0.012   2.257  0.00  0.00     0.002 A 
ATOM      4  C6  UNL d   1      -2.585  -0.520   1.477  0.00  0.00    -0.004 A 
ATOM      5  C7  UNL d   1      -2.449  -1.766   0.868  0.00  0.00     0.002 A 
ATOM      6  C8  UNL d   1      -1.281  -2.510   1.048  0.00  0.00     0.002 A 
ENDROOT
BRANCH   1   7
ATOM      7  C2  UNL d   1       1.015  -2.832   2.052  0.00  0.00     0.056 C 
BRANCH   7   8
ATOM      8  C1  UNL d   1       1.879  -2.357   3.225  0.00  0.00     0.007 C 
ATOM      9  C   UNL d   1       3.261  -1.881   2.799  0.00  0.00     0.009 C 
ENDBRANCH   7   8
ENDBRANCH   1   7
TORSDOF 2
ENDMDL
