MODEL 1
REMARK minimizedAffinity 4.17212629
REMARK minimizedRMSD -1
REMARK  2 active torsions:
REMARK  status: ('A' for Active; 'I' for Inactive)
REMARK    1  A    between atoms: C1_2  and  C2_3 
REMARK    2  A    between atoms: C2_3  and  C3_4 
ROOT
ATOM      1  C3  UNL d   1      -5.141   0.479   3.439  0.00  0.00    -0.075 A 
ATOM      2  C4  UNL d   1      -3.767   0.390   3.708  0.00  0.00     0.002 A 
ATOM      3  C5  UNL d   1      -3.269   0.724   4.967  0.00  0.00     0.002 A 
ATOM      4  C6  UNL d   1      -4.133   1.161   5.968  0.00  0.00    -0.004 A 
ATOM      5  C7  UNL d   1      -5.497   1.269   5.707  0.00  0.00     0.002 A 
ATOM      6  C8  UNL d   1      -5.999   0.931   4.450  0.00  0.00     0.002 A 
ENDROOT
BRANCH   1   7
ATOM      7  C2  UNL d   1      -5.690   0.091   2.087  0.00  0.00     0.056 C 
BRANCH   7   8
ATOM      8  C1  UNL d   1      -4.872   0.622   0.905  0.00  0.00     0.007 C 
ATOM      9  C   UNL d   1      -5.651   1.589   0.023  0.00  0.00     0.009 C 
ENDBRANCH   7   8
ENDBRANCH   1   7
TORSDOF 2
ENDMDL
