MODEL 1
REMARK minimizedAffinity 7.32195234
REMARK minimizedRMSD -1
REMARK  2 active torsions:
REMARK  status: ('A' for Active; 'I' for Inactive)
REMARK    1  A    between atoms: C1_2  and  C2_3 
REMARK    2  A    between atoms: C2_3  and  C3_4 
ROOT
ATOM      1  C3  UNL d   1      -3.714   0.790   4.566  0.00  0.00    -0.075 A 
ATOM      2  C4  UNL d   1      -4.114   0.376   5.845  0.00  0.00     0.002 A 
ATOM      3  C5  UNL d   1      -5.148  -0.547   6.000  0.00  0.00     0.002 A 
ATOM      4  C6  UNL d   1      -5.802  -1.059   4.881  0.00  0.00    -0.004 A 
ATOM      5  C7  UNL d   1      -5.424  -0.642   3.606  0.00  0.00     0.002 A 
ATOM      6  C8  UNL d   1      -4.386   0.278   3.449  0.00  0.00     0.002 A 
ENDROOT
BRANCH   1   7
ATOM      7  C2  UNL d   1      -2.576   1.767   4.391  0.00  0.00     0.056 C 
BRANCH   7   8
ATOM      8  C1  UNL d   1      -1.197   1.106   4.284  0.00  0.00     0.007 C 
ATOM      9  C   UNL d   1      -0.706   0.526   5.604  0.00  0.00     0.009 C 
ENDBRANCH   7   8
ENDBRANCH   1   7
TORSDOF 2
ENDMDL
