MODEL 1
REMARK minimizedAffinity 11.7644587
REMARK minimizedRMSD -1
REMARK  2 active torsions:
REMARK  status: ('A' for Active; 'I' for Inactive)
REMARK    1  A    between atoms: C1_2  and  C2_3 
REMARK    2  A    between atoms: C2_3  and  C3_4 
ROOT
ATOM      1  C3  UNL d   1       0.394  -2.392   1.932  0.00  0.00    -0.075 A 
ATOM      2  C4  UNL d   1       0.027  -1.111   2.367  0.00  0.00     0.002 A 
ATOM      3  C5  UNL d   1      -1.226  -0.586   2.046  0.00  0.00     0.002 A 
ATOM      4  C6  UNL d   1      -2.120  -1.329   1.280  0.00  0.00    -0.004 A 
ATOM      5  C7  UNL d   1      -1.759  -2.596   0.828  0.00  0.00     0.002 A 
ATOM      6  C8  UNL d   1      -0.509  -3.126   1.151  0.00  0.00     0.002 A 
ENDROOT
BRANCH   1   7
ATOM      7  C2  UNL d   1       1.737  -2.978   2.300  0.00  0.00     0.056 C 
BRANCH   7   8
ATOM      8  C1  UNL d   1       2.469  -2.212   3.407  0.00  0.00     0.007 C 
ATOM      9  C   UNL d   1       3.903  -1.854   3.042  0.00  0.00     0.009 C 
ENDBRANCH   7   8
ENDBRANCH   1   7
TORSDOF 2
ENDMDL
