MODEL 1
REMARK minimizedAffinity 7.68929338
REMARK minimizedRMSD -1
REMARK  2 active torsions:
REMARK  status: ('A' for Active; 'I' for Inactive)
REMARK    1  A    between atoms: C1_2  and  C2_3 
REMARK    2  A    between atoms: C2_3  and  C3_4 
ROOT
ATOM      1  C3  UNL d   1      -1.326  -4.357  -3.380  0.00  0.00    -0.075 A 
ATOM      2  C4  UNL d   1      -2.406  -4.777  -4.170  0.00  0.00     0.002 A 
ATOM      3  C5  UNL d   1      -2.196  -5.597  -5.279  0.00  0.00     0.002 A 
ATOM      4  C6  UNL d   1      -0.906  -6.000  -5.618  0.00  0.00    -0.004 A 
ATOM      5  C7  UNL d   1       0.176  -5.575  -4.850  0.00  0.00     0.002 A 
ATOM      6  C8  UNL d   1      -0.031  -4.758  -3.737  0.00  0.00     0.002 A 
ENDROOT
BRANCH   1   7
ATOM      7  C2  UNL d   1      -1.549  -3.494  -2.162  0.00  0.00     0.056 C 
BRANCH   7   8
ATOM      8  C1  UNL d   1      -1.584  -4.273  -0.843  0.00  0.00     0.007 C 
ATOM      9  C   UNL d   1      -2.080  -3.441   0.332  0.00  0.00     0.009 C 
ENDBRANCH   7   8
ENDBRANCH   1   7
TORSDOF 2
ENDMDL
