MODEL 1
REMARK minimizedAffinity 9.43267822
REMARK minimizedRMSD -1
REMARK  2 active torsions:
REMARK  status: ('A' for Active; 'I' for Inactive)
REMARK    1  A    between atoms: C1_2  and  C2_3 
REMARK    2  A    between atoms: C2_3  and  C3_4 
ROOT
ATOM      1  C3  UNL d   1      -4.850  -3.450   2.754  0.00  0.00    -0.075 A 
ATOM      2  C4  UNL d   1      -4.551  -3.914   4.044  0.00  0.00     0.002 A 
ATOM      3  C5  UNL d   1      -4.962  -5.183   4.453  0.00  0.00     0.002 A 
ATOM      4  C6  UNL d   1      -5.683  -5.999   3.585  0.00  0.00    -0.004 A 
ATOM      5  C7  UNL d   1      -6.000  -5.542   2.307  0.00  0.00     0.002 A 
ATOM      6  C8  UNL d   1      -5.586  -4.275   1.893  0.00  0.00     0.002 A 
ENDROOT
BRANCH   1   7
ATOM      7  C2  UNL d   1      -4.383  -2.090   2.294  0.00  0.00     0.056 C 
BRANCH   7   8
ATOM      8  C1  UNL d   1      -2.892  -2.028   1.943  0.00  0.00     0.007 C 
ATOM      9  C   UNL d   1      -2.230  -0.723   2.364  0.00  0.00     0.009 C 
ENDBRANCH   7   8
ENDBRANCH   1   7
TORSDOF 2
ENDMDL
