MODEL 1
REMARK minimizedAffinity 15.1352062
REMARK minimizedRMSD -1
REMARK  2 active torsions:
REMARK  status: ('A' for Active; 'I' for Inactive)
REMARK    1  A    between atoms: C1_2  and  C2_3 
REMARK    2  A    between atoms: C2_3  and  C3_4 
ROOT
ATOM      1  C3  UNL d   1      -4.912  -3.888   3.424  0.00  0.00    -0.075 A 
ATOM      2  C4  UNL d   1      -4.945  -5.290   3.423  0.00  0.00     0.002 A 
ATOM      3  C5  UNL d   1      -5.029  -5.997   4.623  0.00  0.00     0.002 A 
ATOM      4  C6  UNL d   1      -5.071  -5.314   5.836  0.00  0.00    -0.004 A 
ATOM      5  C7  UNL d   1      -5.022  -3.921   5.850  0.00  0.00     0.002 A 
ATOM      6  C8  UNL d   1      -4.942  -3.211   4.651  0.00  0.00     0.002 A 
ENDROOT
BRANCH   1   7
ATOM      7  C2  UNL d   1      -4.850  -3.116   2.128  0.00  0.00     0.056 C 
BRANCH   7   8
ATOM      8  C1  UNL d   1      -4.725  -1.600   2.310  0.00  0.00     0.007 C 
ATOM      9  C   UNL d   1      -3.575  -0.993   1.518  0.00  0.00     0.009 C 
ENDBRANCH   7   8
ENDBRANCH   1   7
TORSDOF 2
ENDMDL
