MODEL 1
REMARK minimizedAffinity 5.78160334
REMARK minimizedRMSD -1
REMARK  2 active torsions:
REMARK  status: ('A' for Active; 'I' for Inactive)
REMARK    1  A    between atoms: C1_2  and  C2_3 
REMARK    2  A    between atoms: C2_3  and  C3_4 
ROOT
ATOM      1  C3  UNL d   1       4.216   2.338   0.056  0.00  0.00    -0.075 A 
ATOM      2  C4  UNL d   1       4.145   2.554   1.440  0.00  0.00     0.002 A 
ATOM      3  C5  UNL d   1       4.979   3.488   2.055  0.00  0.00     0.002 A 
ATOM      4  C6  UNL d   1       5.898   4.210   1.297  0.00  0.00    -0.004 A 
ATOM      5  C7  UNL d   1       5.989   3.993  -0.076  0.00  0.00     0.002 A 
ATOM      6  C8  UNL d   1       5.153   3.061  -0.694  0.00  0.00     0.002 A 
ENDROOT
BRANCH   1   7
ATOM      7  C2  UNL d   1       3.296   1.350  -0.620  0.00  0.00     0.056 C 
BRANCH   7   8
ATOM      8  C1  UNL d   1       2.817   1.791  -2.007  0.00  0.00     0.007 C 
ATOM      9  C   UNL d   1       1.300   1.848  -2.128  0.00  0.00     0.009 C 
ENDBRANCH   7   8
ENDBRANCH   1   7
TORSDOF 2
ENDMDL
