MODEL 1
REMARK minimizedAffinity 2.97613621
REMARK minimizedRMSD -1
REMARK  2 active torsions:
REMARK  status: ('A' for Active; 'I' for Inactive)
REMARK    1  A    between atoms: C1_2  and  C2_3 
REMARK    2  A    between atoms: C2_3  and  C3_4 
ROOT
ATOM      1  C3  UNL d   1      -0.381   0.361   3.859  0.00  0.00    -0.075 A 
ATOM      2  C4  UNL d   1      -0.448  -0.001   5.212  0.00  0.00     0.002 A 
ATOM      3  C5  UNL d   1      -1.527   0.401   6.000  0.00  0.00     0.002 A 
ATOM      4  C6  UNL d   1      -2.544   1.177   5.450  0.00  0.00    -0.004 A 
ATOM      5  C7  UNL d   1      -2.480   1.557   4.111  0.00  0.00     0.002 A 
ATOM      6  C8  UNL d   1      -1.404   1.152   3.319  0.00  0.00     0.002 A 
ENDROOT
BRANCH   1   7
ATOM      7  C2  UNL d   1       0.769  -0.095   2.993  0.00  0.00     0.056 C 
BRANCH   7   8
ATOM      8  C1  UNL d   1       1.592  -1.237   3.599  0.00  0.00     0.007 C 
ATOM      9  C   UNL d   1       0.992  -2.612   3.339  0.00  0.00     0.009 C 
ENDBRANCH   7   8
ENDBRANCH   1   7
TORSDOF 2
ENDMDL
