MODEL 1
REMARK minimizedAffinity 13.7749729
REMARK minimizedRMSD -1
REMARK  2 active torsions:
REMARK  status: ('A' for Active; 'I' for Inactive)
REMARK    1  A    between atoms: C1_2  and  C2_3 
REMARK    2  A    between atoms: C2_3  and  C3_4 
ROOT
ATOM      1  C3  UNL d   1       3.596   2.702  -2.887  0.00  0.00    -0.075 A 
ATOM      2  C4  UNL d   1       3.634   2.526  -4.278  0.00  0.00     0.002 A 
ATOM      3  C5  UNL d   1       4.533   3.254  -5.059  0.00  0.00     0.002 A 
ATOM      4  C6  UNL d   1       5.395   4.171  -4.463  0.00  0.00    -0.004 A 
ATOM      5  C7  UNL d   1       5.354   4.366  -3.084  0.00  0.00     0.002 A 
ATOM      6  C8  UNL d   1       4.460   3.636  -2.299  0.00  0.00     0.002 A 
ENDROOT
BRANCH   1   7
ATOM      7  C2  UNL d   1       2.647   1.896  -2.032  0.00  0.00     0.056 C 
BRANCH   7   8
ATOM      8  C1  UNL d   1       3.340   1.040  -0.968  0.00  0.00     0.007 C 
ATOM      9  C   UNL d   1       3.179   1.589   0.443  0.00  0.00     0.009 C 
ENDBRANCH   7   8
ENDBRANCH   1   7
TORSDOF 2
ENDMDL
