MODEL 1
REMARK minimizedAffinity 19.908884
REMARK minimizedRMSD -1
REMARK  2 active torsions:
REMARK  status: ('A' for Active; 'I' for Inactive)
REMARK    1  A    between atoms: C1_2  and  C2_3 
REMARK    2  A    between atoms: C2_3  and  C3_4 
ROOT
ATOM      1  C3  UNL d   1       0.990   2.675  -3.298  0.00  0.00    -0.075 A 
ATOM      2  C4  UNL d   1       2.280   3.120  -3.624  0.00  0.00     0.002 A 
ATOM      3  C5  UNL d   1       3.382   2.706  -2.876  0.00  0.00     0.002 A 
ATOM      4  C6  UNL d   1       3.209   1.853  -1.789  0.00  0.00    -0.004 A 
ATOM      5  C7  UNL d   1       1.931   1.418  -1.445  0.00  0.00     0.002 A 
ATOM      6  C8  UNL d   1       0.827   1.827  -2.195  0.00  0.00     0.002 A 
ENDROOT
BRANCH   1   7
ATOM      7  C2  UNL d   1      -0.204   3.096  -4.122  0.00  0.00     0.056 C 
BRANCH   7   8
ATOM      8  C1  UNL d   1      -0.561   4.580  -3.990  0.00  0.00     0.007 C 
ATOM      9  C   UNL d   1      -1.590   5.043  -5.012  0.00  0.00     0.009 C 
ENDBRANCH   7   8
ENDBRANCH   1   7
TORSDOF 2
ENDMDL
