MODEL 1
REMARK minimizedAffinity -5.01074839
REMARK minimizedRMSD -1
REMARK  3 active torsions:
REMARK  status: ('A' for Active; 'I' for Inactive)
REMARK    1  A    between atoms: C3'_2  and  C2'_3 
REMARK    2  A    between atoms: C2'_3  and  C1'_4 
REMARK    3  A    between atoms: C1'_4  and  C1_5 
ROOT
ATOM      1  C1  N4B d   1       0.144   0.235  -0.373  0.00  0.00    -0.075 A 
ATOM      2  C2  N4B d   1      -0.367  -0.776   0.470  0.00  0.00     0.002 A 
ATOM      3  C3  N4B d   1       0.493  -1.611   1.140  0.00  0.00     0.002 A 
ATOM      4  C4  N4B d   1       1.861  -1.467   0.968  0.00  0.00    -0.004 A 
ATOM      5  C5  N4B d   1       2.347  -0.472   0.171  0.00  0.00     0.002 A 
ATOM      6  C6  N4B d   1       1.495   0.378  -0.505  0.00  0.00     0.002 A 
ENDROOT
BRANCH   1   7
ATOM      7  C1' N4B d   1      -0.759   1.117  -1.193  0.00  0.00     0.057 C 
BRANCH   7   8
ATOM      8  C2' N4B d   1      -0.819   0.582  -2.621  0.00  0.00     0.009 C 
BRANCH   8   9
ATOM      9  C3' N4B d   1      -1.949   1.213  -3.416  0.00  0.00     0.004 C 
ATOM     10  C4' N4B d   1      -3.163   1.489  -2.581  0.00  0.00     0.003 C 
ENDBRANCH   8   9
ENDBRANCH   7   8
ENDBRANCH   1   7
TORSDOF 3
ENDMDL
