MODEL 1
REMARK minimizedAffinity -5.36220932
REMARK minimizedRMSD -1
REMARK  3 active torsions:
REMARK  status: ('A' for Active; 'I' for Inactive)
REMARK    1  A    between atoms: C3'_2  and  C2'_3 
REMARK    2  A    between atoms: C2'_3  and  C1'_4 
REMARK    3  A    between atoms: C1'_4  and  C1_5 
ROOT
ATOM      1  C1  N4B d   1      -0.827   0.590  -0.728  0.00  0.00    -0.075 A 
ATOM      2  C2  N4B d   1      -1.557   1.781  -0.524  0.00  0.00     0.002 A 
ATOM      3  C3  N4B d   1      -2.302   2.314  -1.547  0.00  0.00     0.002 A 
ATOM      4  C4  N4B d   1      -2.316   1.687  -2.784  0.00  0.00    -0.004 A 
ATOM      5  C5  N4B d   1      -1.628   0.523  -2.966  0.00  0.00     0.002 A 
ATOM      6  C6  N4B d   1      -0.879  -0.027  -1.945  0.00  0.00     0.002 A 
ENDROOT
BRANCH   1   7
ATOM      7  C1' N4B d   1       0.070   0.016   0.334  0.00  0.00     0.057 C 
BRANCH   7   8
ATOM      8  C2' N4B d   1       1.526   0.227  -0.071  0.00  0.00     0.009 C 
BRANCH   8   9
ATOM      9  C3' N4B d   1       2.329  -1.060   0.003  0.00  0.00     0.004 C 
ATOM     10  C4' N4B d   1       1.519  -2.222   0.496  0.00  0.00     0.003 C 
ENDBRANCH   8   9
ENDBRANCH   7   8
ENDBRANCH   1   7
TORSDOF 3
ENDMDL
