MODEL 1
REMARK minimizedAffinity -5.44753981
REMARK minimizedRMSD -1
REMARK  3 active torsions:
REMARK  status: ('A' for Active; 'I' for Inactive)
REMARK    1  A    between atoms: C3'_2  and  C2'_3 
REMARK    2  A    between atoms: C2'_3  and  C1'_4 
REMARK    3  A    between atoms: C1'_4  and  C1_5 
ROOT
ATOM      1  C1  N4B d   1       0.155  -0.058  -0.468  0.00  0.00    -0.075 A 
ATOM      2  C2  N4B d   1       1.195  -0.582  -1.265  0.00  0.00     0.002 A 
ATOM      3  C3  N4B d   1       1.828  -1.743  -0.893  0.00  0.00     0.002 A 
ATOM      4  C4  N4B d   1       1.451  -2.384   0.278  0.00  0.00    -0.004 A 
ATOM      5  C5  N4B d   1       0.428  -1.885   1.029  0.00  0.00     0.002 A 
ATOM      6  C6  N4B d   1      -0.219  -0.721   0.665  0.00  0.00     0.002 A 
ENDROOT
BRANCH   1   7
ATOM      7  C1' N4B d   1      -0.508   1.254  -0.789  0.00  0.00     0.057 C 
BRANCH   7   8
ATOM      8  C2' N4B d   1      -1.782   0.989  -1.586  0.00  0.00     0.009 C 
BRANCH   8   9
ATOM      9  C3' N4B d   1      -1.853   1.839  -2.843  0.00  0.00     0.004 C 
ATOM     10  C4' N4B d   1      -1.060   3.107  -2.732  0.00  0.00     0.003 C 
ENDBRANCH   8   9
ENDBRANCH   7   8
ENDBRANCH   1   7
TORSDOF 3
ENDMDL
