MODEL 1
REMARK minimizedAffinity -0.860680223
REMARK minimizedRMSD -1
REMARK  3 active torsions:
REMARK  status: ('A' for Active; 'I' for Inactive)
REMARK    1  A    between atoms: C3'_2  and  C2'_3 
REMARK    2  A    between atoms: C2'_3  and  C1'_4 
REMARK    3  A    between atoms: C1'_4  and  C1_5 
ROOT
ATOM      1  C1  N4B d   1      -0.514   0.150  -0.529  0.00  0.00    -0.075 A 
ATOM      2  C2  N4B d   1      -1.154   0.574  -1.714  0.00  0.00     0.002 A 
ATOM      3  C3  N4B d   1      -1.959   1.687  -1.699  0.00  0.00     0.002 A 
ATOM      4  C4  N4B d   1      -2.152   2.378  -0.512  0.00  0.00    -0.004 A 
ATOM      5  C5  N4B d   1      -1.510   1.977   0.622  0.00  0.00     0.002 A 
ATOM      6  C6  N4B d   1      -0.695   0.862   0.621  0.00  0.00     0.002 A 
ENDROOT
BRANCH   1   7
ATOM      7  C1' N4B d   1       0.306  -1.110  -0.477  0.00  0.00     0.057 C 
BRANCH   7   8
ATOM      8  C2' N4B d   1       1.646  -0.808   0.188  0.00  0.00     0.009 C 
BRANCH   8   9
ATOM      9  C3' N4B d   1       1.832  -1.593   1.475  0.00  0.00     0.004 C 
ATOM     10  C4' N4B d   1       2.411  -2.957   1.245  0.00  0.00     0.003 C 
ENDBRANCH   8   9
ENDBRANCH   7   8
ENDBRANCH   1   7
TORSDOF 3
ENDMDL
