MODEL 1
REMARK minimizedAffinity -5.17418861
REMARK minimizedRMSD -1
REMARK  3 active torsions:
REMARK  status: ('A' for Active; 'I' for Inactive)
REMARK    1  A    between atoms: C3'_2  and  C2'_3 
REMARK    2  A    between atoms: C2'_3  and  C1'_4 
REMARK    3  A    between atoms: C1'_4  and  C1_5 
ROOT
ATOM      1  C1  N4B d   1       0.172   0.136   0.305  0.00  0.00    -0.075 A 
ATOM      2  C2  N4B d   1      -0.339  -0.883   1.139  0.00  0.00     0.002 A 
ATOM      3  C3  N4B d   1       0.467  -1.928   1.517  0.00  0.00     0.002 A 
ATOM      4  C4  N4B d   1       1.775  -1.986   1.061  0.00  0.00    -0.004 A 
ATOM      5  C5  N4B d   1       2.268  -0.985   0.276  0.00  0.00     0.002 A 
ATOM      6  C6  N4B d   1       1.471   0.074  -0.109  0.00  0.00     0.002 A 
ENDROOT
BRANCH   1   7
ATOM      7  C1' N4B d   1      -0.695   1.254  -0.205  0.00  0.00     0.057 C 
BRANCH   7   8
ATOM      8  C2' N4B d   1      -0.850   1.118  -1.717  0.00  0.00     0.009 C 
BRANCH   8   9
ATOM      9  C3' N4B d   1      -1.915   2.052  -2.266  0.00  0.00     0.004 C 
ATOM     10  C4' N4B d   1      -3.047   1.320  -2.923  0.00  0.00     0.003 C 
ENDBRANCH   8   9
ENDBRANCH   7   8
ENDBRANCH   1   7
TORSDOF 3
ENDMDL
