MODEL 1
REMARK minimizedAffinity -3.02517819
REMARK minimizedRMSD -1
REMARK  3 active torsions:
REMARK  status: ('A' for Active; 'I' for Inactive)
REMARK    1  A    between atoms: C3'_2  and  C2'_3 
REMARK    2  A    between atoms: C2'_3  and  C1'_4 
REMARK    3  A    between atoms: C1'_4  and  C1_5 
ROOT
ATOM      1  C1  N4B d   1      -0.636   0.891  -0.247  0.00  0.00    -0.075 A 
ATOM      2  C2  N4B d   1       0.664   0.840  -0.797  0.00  0.00     0.002 A 
ATOM      3  C3  N4B d   1       1.539  -0.141  -0.401  0.00  0.00     0.002 A 
ATOM      4  C4  N4B d   1       1.145  -1.068   0.553  0.00  0.00    -0.004 A 
ATOM      5  C5  N4B d   1      -0.121  -1.027   1.060  0.00  0.00     0.002 A 
ATOM      6  C6  N4B d   1      -1.012  -0.049   0.669  0.00  0.00     0.002 A 
ENDROOT
BRANCH   1   7
ATOM      7  C1' N4B d   1      -1.599   1.996  -0.584  0.00  0.00     0.057 C 
BRANCH   7   8
ATOM      8  C2' N4B d   1      -1.248   2.564  -1.957  0.00  0.00     0.009 C 
BRANCH   8   9
ATOM      9  C3' N4B d   1      -2.136   1.994  -3.050  0.00  0.00     0.004 C 
ATOM     10  C4' N4B d   1      -3.411   1.412  -2.519  0.00  0.00     0.003 C 
ENDBRANCH   8   9
ENDBRANCH   7   8
ENDBRANCH   1   7
TORSDOF 3
ENDMDL
