MODEL 1
REMARK minimizedAffinity -1.74771118
REMARK minimizedRMSD -1
REMARK  1 active torsions:
REMARK  status: ('A' for Active; 'I' for Inactive)
REMARK    1  A    between atoms: C1_2  and  C2_3 
ROOT
ATOM      1  C2  UNL d   1      -0.998  -0.515   1.049  0.00  0.00    -0.081 A 
ATOM      2  C3  UNL d   1      -0.740  -0.206  -0.292  0.00  0.00     0.006 A 
ATOM      3  C4  UNL d   1       0.545  -0.358  -0.819  0.00  0.00     0.002 A 
ATOM      4  C5  UNL d   1       1.590  -0.828  -0.017  0.00  0.00    -0.080 A 
ATOM      5  C6  UNL d   1       2.967  -1.024  -0.578  0.00  0.00     0.076 C 
ATOM      6  C7  UNL d   1       1.336  -1.121   1.327  0.00  0.00     0.002 A 
ATOM      7  C8  UNL d   1       0.052  -0.969   1.855  0.00  0.00     0.006 A 
ENDROOT
BRANCH   1   8
ATOM      8  C1  UNL d   1      -2.396  -0.415   1.603  0.00  0.00     0.054 C 
ATOM      9  C   UNL d   1      -3.284  -1.530   1.071  0.00  0.00     0.018 C 
ENDBRANCH   1   8
TORSDOF 1
ENDMDL
