MODEL 1
REMARK minimizedAffinity -2.5124054
REMARK minimizedRMSD -1
REMARK  1 active torsions:
REMARK  status: ('A' for Active; 'I' for Inactive)
REMARK    1  A    between atoms: C1_2  and  C2_3 
ROOT
ATOM      1  C2  UNL d   1      -0.020  -0.028  -0.751  0.00  0.00    -0.081 A 
ATOM      2  C3  UNL d   1       1.342  -0.333  -0.643  0.00  0.00     0.006 A 
ATOM      3  C4  UNL d   1       1.914  -0.587   0.606  0.00  0.00     0.002 A 
ATOM      4  C5  UNL d   1       1.132  -0.549   1.766  0.00  0.00    -0.080 A 
ATOM      5  C6  UNL d   1       1.727  -0.850   3.109  0.00  0.00     0.076 C 
ATOM      6  C7  UNL d   1      -0.225  -0.227   1.660  0.00  0.00     0.002 A 
ATOM      7  C8  UNL d   1      -0.797   0.028   0.411  0.00  0.00     0.006 A 
ENDROOT
BRANCH   1   8
ATOM      8  C1  UNL d   1      -0.653   0.184  -2.103  0.00  0.00     0.054 C 
ATOM      9  C   UNL d   1      -1.388   1.515  -2.167  0.00  0.00     0.018 C 
ENDBRANCH   1   8
TORSDOF 1
ENDMDL
