MODEL 1
REMARK minimizedAffinity -2.5999136
REMARK minimizedRMSD -1
REMARK  1 active torsions:
REMARK  status: ('A' for Active; 'I' for Inactive)
REMARK    1  A    between atoms: C1_2  and  C2_3 
ROOT
ATOM      1  C2  UNL d   1       0.460  -0.152  -0.520  0.00  0.00    -0.081 A 
ATOM      2  C3  UNL d   1       1.006   0.267  -1.739  0.00  0.00     0.006 A 
ATOM      3  C4  UNL d   1       0.208   0.912  -2.688  0.00  0.00     0.002 A 
ATOM      4  C5  UNL d   1      -1.146   1.155  -2.429  0.00  0.00    -0.080 A 
ATOM      5  C6  UNL d   1      -2.006   1.873  -3.426  0.00  0.00     0.076 C 
ATOM      6  C7  UNL d   1      -1.695   0.720  -1.218  0.00  0.00     0.002 A 
ATOM      7  C8  UNL d   1      -0.897   0.074  -0.270  0.00  0.00     0.006 A 
ENDROOT
BRANCH   1   8
ATOM      8  C1  UNL d   1       1.333  -0.790   0.531  0.00  0.00     0.054 C 
ATOM      9  C   UNL d   1       2.292   0.222   1.142  0.00  0.00     0.018 C 
ENDBRANCH   1   8
TORSDOF 1
ENDMDL
