MODEL 1
REMARK minimizedAffinity -3.1489687
REMARK minimizedRMSD -1
REMARK  2 active torsions:
REMARK  status: ('A' for Active; 'I' for Inactive)
REMARK    1  A    between atoms: C1_2  and  C2_3 
REMARK    2  A    between atoms: C2_3  and  C3_4 
ROOT
ATOM      1  C3  UNL d   1      -0.313  -0.187  -0.082  0.00  0.00    -0.075 A 
ATOM      2  C4  UNL d   1       0.586   0.722   0.495  0.00  0.00     0.002 A 
ATOM      3  C5  UNL d   1       0.249   2.070   0.619  0.00  0.00     0.002 A 
ATOM      4  C6  UNL d   1      -0.984   2.528   0.160  0.00  0.00    -0.004 A 
ATOM      5  C7  UNL d   1      -1.878   1.638  -0.430  0.00  0.00     0.002 A 
ATOM      6  C8  UNL d   1      -1.546   0.287  -0.552  0.00  0.00     0.002 A 
ENDROOT
BRANCH   1   7
ATOM      7  C2  UNL d   1       0.033  -1.652  -0.192  0.00  0.00     0.056 C 
BRANCH   7   8
ATOM      8  C1  UNL d   1      -0.412  -2.301  -1.507  0.00  0.00     0.007 C 
ATOM      9  C   UNL d   1      -1.277  -3.538  -1.304  0.00  0.00     0.009 C 
ENDBRANCH   7   8
ENDBRANCH   1   7
TORSDOF 2
ENDMDL
