MODEL 1
REMARK minimizedAffinity -2.43487453
REMARK minimizedRMSD -1
REMARK  2 active torsions:
REMARK  status: ('A' for Active; 'I' for Inactive)
REMARK    1  A    between atoms: C1_2  and  C2_3 
REMARK    2  A    between atoms: C2_3  and  C3_4 
ROOT
ATOM      1  C3  UNL d   1      -0.494  -2.467  -0.800  0.00  0.00    -0.075 A 
ATOM      2  C4  UNL d   1       0.195  -2.450  -2.021  0.00  0.00     0.002 A 
ATOM      3  C5  UNL d   1      -0.330  -3.096  -3.140  0.00  0.00     0.002 A 
ATOM      4  C6  UNL d   1      -1.544  -3.774  -3.051  0.00  0.00    -0.004 A 
ATOM      5  C7  UNL d   1      -2.229  -3.811  -1.839  0.00  0.00     0.002 A 
ATOM      6  C8  UNL d   1      -1.708  -3.162  -0.718  0.00  0.00     0.002 A 
ENDROOT
BRANCH   1   7
ATOM      7  C2  UNL d   1       0.055  -1.745   0.408  0.00  0.00     0.056 C 
BRANCH   7   8
ATOM      8  C1  UNL d   1       0.601  -0.346   0.103  0.00  0.00     0.007 C 
ATOM      9  C   UNL d   1      -0.484   0.720   0.037  0.00  0.00     0.009 C 
ENDBRANCH   7   8
ENDBRANCH   1   7
TORSDOF 2
ENDMDL
