MODEL 1
REMARK minimizedAffinity -5.62278461
REMARK minimizedRMSD -1
REMARK  2 active torsions:
REMARK  status: ('A' for Active; 'I' for Inactive)
REMARK    1  A    between atoms: C1_2  and  C2_3 
REMARK    2  A    between atoms: C2_3  and  C3_4 
ROOT
ATOM      1  C3  UNL d   1      -0.160  -1.184  -0.469  0.00  0.00    -0.075 A 
ATOM      2  C4  UNL d   1      -0.964  -0.551  -1.427  0.00  0.00     0.002 A 
ATOM      3  C5  UNL d   1      -1.028   0.841  -1.491  0.00  0.00     0.002 A 
ATOM      4  C6  UNL d   1      -0.298   1.616  -0.592  0.00  0.00    -0.004 A 
ATOM      5  C7  UNL d   1       0.491   0.998   0.375  0.00  0.00     0.002 A 
ATOM      6  C8  UNL d   1       0.560  -0.395   0.438  0.00  0.00     0.002 A 
ENDROOT
BRANCH   1   7
ATOM      7  C2  UNL d   1      -0.063  -2.690  -0.414  0.00  0.00     0.056 C 
BRANCH   7   8
ATOM      8  C1  UNL d   1       0.090  -3.356  -1.785  0.00  0.00     0.007 C 
ATOM      9  C   UNL d   1      -0.976  -4.407  -2.065  0.00  0.00     0.009 C 
ENDBRANCH   7   8
ENDBRANCH   1   7
TORSDOF 2
ENDMDL
