MODEL 1
REMARK minimizedAffinity -4.49203491
REMARK minimizedRMSD -1
REMARK  2 active torsions:
REMARK  status: ('A' for Active; 'I' for Inactive)
REMARK    1  A    between atoms: C1_2  and  C2_3 
REMARK    2  A    between atoms: C2_3  and  C3_4 
ROOT
ATOM      1  C3  UNL d   1       0.704   0.574  -0.053  0.00  0.00    -0.075 A 
ATOM      2  C4  UNL d   1      -0.355   1.480  -0.210  0.00  0.00     0.002 A 
ATOM      3  C5  UNL d   1      -0.198   2.821   0.137  0.00  0.00     0.002 A 
ATOM      4  C6  UNL d   1       1.015   3.272   0.655  0.00  0.00    -0.004 A 
ATOM      5  C7  UNL d   1       2.069   2.378   0.831  0.00  0.00     0.002 A 
ATOM      6  C8  UNL d   1       1.915   1.036   0.479  0.00  0.00     0.002 A 
ENDROOT
BRANCH   1   7
ATOM      7  C2  UNL d   1       0.550  -0.873  -0.455  0.00  0.00     0.056 C 
BRANCH   7   8
ATOM      8  C1  UNL d   1      -0.608  -1.594   0.242  0.00  0.00     0.007 C 
ATOM      9  C   UNL d   1      -1.068  -2.845  -0.495  0.00  0.00     0.009 C 
ENDBRANCH   7   8
ENDBRANCH   1   7
TORSDOF 2
ENDMDL
