MODEL 1
REMARK minimizedAffinity -3.287462
REMARK minimizedRMSD -1
REMARK  2 active torsions:
REMARK  status: ('A' for Active; 'I' for Inactive)
REMARK    1  A    between atoms: C1_2  and  C2_3 
REMARK    2  A    between atoms: C2_3  and  C3_4 
ROOT
ATOM      1  C3  UNL d   1      -0.542   0.050  -0.023  0.00  0.00    -0.075 A 
ATOM      2  C4  UNL d   1      -1.886   0.112   0.371  0.00  0.00     0.002 A 
ATOM      3  C5  UNL d   1      -2.409   1.281   0.926  0.00  0.00     0.002 A 
ATOM      4  C6  UNL d   1      -1.593   2.396   1.103  0.00  0.00    -0.004 A 
ATOM      5  C7  UNL d   1      -0.251   2.340   0.731  0.00  0.00     0.002 A 
ATOM      6  C8  UNL d   1       0.273   1.173   0.172  0.00  0.00     0.002 A 
ENDROOT
BRANCH   1   7
ATOM      7  C2  UNL d   1       0.022  -1.203  -0.651  0.00  0.00     0.056 C 
BRANCH   7   8
ATOM      8  C1  UNL d   1      -0.969  -2.370  -0.712  0.00  0.00     0.007 C 
ATOM      9  C   UNL d   1      -1.190  -2.896  -2.124  0.00  0.00     0.009 C 
ENDBRANCH   7   8
ENDBRANCH   1   7
TORSDOF 2
ENDMDL
