MODEL 1
REMARK minimizedAffinity -4.44582415
REMARK minimizedRMSD -1
REMARK  2 active torsions:
REMARK  status: ('A' for Active; 'I' for Inactive)
REMARK    1  A    between atoms: C1_2  and  C2_3 
REMARK    2  A    between atoms: C2_3  and  C3_4 
ROOT
ATOM      1  C3  UNL d   1      -0.712  -1.061  -1.170  0.00  0.00    -0.075 A 
ATOM      2  C4  UNL d   1      -0.401  -1.001  -2.536  0.00  0.00     0.002 A 
ATOM      3  C5  UNL d   1      -0.436  -2.154  -3.322  0.00  0.00     0.002 A 
ATOM      4  C6  UNL d   1      -0.772  -3.379  -2.751  0.00  0.00    -0.004 A 
ATOM      5  C7  UNL d   1      -1.067  -3.453  -1.392  0.00  0.00     0.002 A 
ATOM      6  C8  UNL d   1      -1.037  -2.301  -0.604  0.00  0.00     0.002 A 
ENDROOT
BRANCH   1   7
ATOM      7  C2  UNL d   1      -0.705   0.187  -0.320  0.00  0.00     0.056 C 
BRANCH   7   8
ATOM      8  C1  UNL d   1       0.382   1.196  -0.704  0.00  0.00     0.007 C 
ATOM      9  C   UNL d   1       0.051   2.623  -0.288  0.00  0.00     0.009 C 
ENDBRANCH   7   8
ENDBRANCH   1   7
TORSDOF 2
ENDMDL
