MODEL 1
REMARK minimizedAffinity -2.88608837
REMARK minimizedRMSD -1
REMARK  2 active torsions:
REMARK  status: ('A' for Active; 'I' for Inactive)
REMARK    1  A    between atoms: C1_2  and  C2_3 
REMARK    2  A    between atoms: C2_3  and  C3_4 
ROOT
ATOM      1  C3  UNL d   1      -0.334   0.787   0.242  0.00  0.00    -0.075 A 
ATOM      2  C4  UNL d   1       0.636   1.347  -0.602  0.00  0.00     0.002 A 
ATOM      3  C5  UNL d   1       0.860   2.724  -0.608  0.00  0.00     0.002 A 
ATOM      4  C6  UNL d   1       0.112   3.558   0.220  0.00  0.00    -0.004 A 
ATOM      5  C7  UNL d   1      -0.865   3.015   1.051  0.00  0.00     0.002 A 
ATOM      6  C8  UNL d   1      -1.088   1.637   1.062  0.00  0.00     0.002 A 
ENDROOT
BRANCH   1   7
ATOM      7  C2  UNL d   1      -0.560  -0.705   0.275  0.00  0.00     0.056 C 
BRANCH   7   8
ATOM      8  C1  UNL d   1      -0.473  -1.380  -1.098  0.00  0.00     0.007 C 
ATOM      9  C   UNL d   1      -1.267  -2.677  -1.181  0.00  0.00     0.009 C 
ENDBRANCH   7   8
ENDBRANCH   1   7
TORSDOF 2
ENDMDL
