MODEL 1
REMARK minimizedAffinity -5.80687571
REMARK minimizedRMSD -1
REMARK  2 active torsions:
REMARK  status: ('A' for Active; 'I' for Inactive)
REMARK    1  A    between atoms: C1_2  and  C2_3 
REMARK    2  A    between atoms: C2_3  and  C3_4 
ROOT
ATOM      1  C3  UNL d   1       0.635   0.465   0.311  0.00  0.00    -0.075 A 
ATOM      2  C4  UNL d   1       2.023   0.661   0.351  0.00  0.00     0.002 A 
ATOM      3  C5  UNL d   1       2.554   1.909   0.677  0.00  0.00     0.002 A 
ATOM      4  C6  UNL d   1       1.706   2.978   0.957  0.00  0.00    -0.004 A 
ATOM      5  C7  UNL d   1       0.325   2.800   0.905  0.00  0.00     0.002 A 
ATOM      6  C8  UNL d   1      -0.209   1.551   0.583  0.00  0.00     0.002 A 
ENDROOT
BRANCH   1   7
ATOM      7  C2  UNL d   1       0.055  -0.891  -0.012  0.00  0.00     0.056 C 
BRANCH   7   8
ATOM      8  C1  UNL d   1      -0.245  -1.102  -1.500  0.00  0.00     0.007 C 
ATOM      9  C   UNL d   1      -0.104  -2.553  -1.941  0.00  0.00     0.009 C 
ENDBRANCH   7   8
ENDBRANCH   1   7
TORSDOF 2
ENDMDL
