MODEL 1
REMARK minimizedAffinity -3.52371573
REMARK minimizedRMSD -1
REMARK  2 active torsions:
REMARK  status: ('A' for Active; 'I' for Inactive)
REMARK    1  A    between atoms: C1_2  and  C2_3 
REMARK    2  A    between atoms: C2_3  and  C3_4 
ROOT
ATOM      1  C3  UNL d   1       0.391  -0.332   0.508  0.00  0.00    -0.075 A 
ATOM      2  C4  UNL d   1       1.733   0.076   0.545  0.00  0.00     0.002 A 
ATOM      3  C5  UNL d   1       2.061   1.403   0.821  0.00  0.00     0.002 A 
ATOM      4  C6  UNL d   1       1.056   2.340   1.052  0.00  0.00    -0.004 A 
ATOM      5  C7  UNL d   1      -0.280   1.949   1.000  0.00  0.00     0.002 A 
ATOM      6  C8  UNL d   1      -0.612   0.620   0.729  0.00  0.00     0.002 A 
ENDROOT
BRANCH   1   7
ATOM      7  C2  UNL d   1       0.030  -1.774   0.239  0.00  0.00     0.056 C 
BRANCH   7   8
ATOM      8  C1  UNL d   1       0.030  -2.150  -1.247  0.00  0.00     0.007 C 
ATOM      9  C   UNL d   1      -0.840  -3.361  -1.559  0.00  0.00     0.009 C 
ENDBRANCH   7   8
ENDBRANCH   1   7
TORSDOF 2
ENDMDL
