MODEL 1
REMARK minimizedAffinity -3.03527665
REMARK minimizedRMSD -1
REMARK  2 active torsions:
REMARK  status: ('A' for Active; 'I' for Inactive)
REMARK    1  A    between atoms: C1_2  and  C2_3 
REMARK    2  A    between atoms: C2_3  and  C3_4 
ROOT
ATOM      1  C3  UNL d   1      -0.054   0.150  -0.343  0.00  0.00    -0.075 A 
ATOM      2  C4  UNL d   1       1.289   0.450  -0.074  0.00  0.00     0.002 A 
ATOM      3  C5  UNL d   1       1.711   1.775   0.034  0.00  0.00     0.002 A 
ATOM      4  C6  UNL d   1       0.800   2.815  -0.135  0.00  0.00    -0.004 A 
ATOM      5  C7  UNL d   1      -0.534   2.529  -0.418  0.00  0.00     0.002 A 
ATOM      6  C8  UNL d   1      -0.960   1.204  -0.523  0.00  0.00     0.002 A 
ENDROOT
BRANCH   1   7
ATOM      7  C2  UNL d   1      -0.523  -1.283  -0.432  0.00  0.00     0.056 C 
BRANCH   7   8
ATOM      8  C1  UNL d   1       0.047  -2.052  -1.628  0.00  0.00     0.007 C 
ATOM      9  C   UNL d   1      -0.789  -3.265  -2.015  0.00  0.00     0.009 C 
ENDBRANCH   7   8
ENDBRANCH   1   7
TORSDOF 2
ENDMDL
