MODEL 1
REMARK minimizedAffinity 0.470850438
REMARK minimizedRMSD -1
REMARK  2 active torsions:
REMARK  status: ('A' for Active; 'I' for Inactive)
REMARK    1  A    between atoms: C1_2  and  C2_3 
REMARK    2  A    between atoms: C2_3  and  C3_4 
ROOT
ATOM      1  C3  UNL d   1      -0.112   1.172  -0.211  0.00  0.00    -0.075 A 
ATOM      2  C4  UNL d   1      -1.314   0.457  -0.104  0.00  0.00     0.002 A 
ATOM      3  C5  UNL d   1      -1.303  -0.933   0.019  0.00  0.00     0.002 A 
ATOM      4  C6  UNL d   1      -0.093  -1.624   0.027  0.00  0.00    -0.004 A 
ATOM      5  C7  UNL d   1       1.106  -0.925  -0.095  0.00  0.00     0.002 A 
ATOM      6  C8  UNL d   1       1.097   0.465  -0.214  0.00  0.00     0.002 A 
ENDROOT
BRANCH   1   7
ATOM      7  C2  UNL d   1      -0.117   2.679  -0.315  0.00  0.00     0.056 C 
BRANCH   7   8
ATOM      8  C1  UNL d   1       0.286   3.394   0.979  0.00  0.00     0.007 C 
ATOM      9  C   UNL d   1      -0.665   3.122   2.137  0.00  0.00     0.009 C 
ENDBRANCH   7   8
ENDBRANCH   1   7
TORSDOF 2
ENDMDL
