MODEL 1
REMARK minimizedAffinity 4.31072569
REMARK minimizedRMSD -1
REMARK  2 active torsions:
REMARK  status: ('A' for Active; 'I' for Inactive)
REMARK    1  A    between atoms: C1_2  and  C2_3 
REMARK    2  A    between atoms: C2_3  and  C3_4 
ROOT
ATOM      1  C3  UNL d   1       0.606  -2.222  -0.893  0.00  0.00    -0.075 A 
ATOM      2  C4  UNL d   1      -0.571  -2.982  -0.843  0.00  0.00     0.002 A 
ATOM      3  C5  UNL d   1      -0.898  -3.850  -1.886  0.00  0.00     0.002 A 
ATOM      4  C6  UNL d   1      -0.060  -3.961  -2.993  0.00  0.00    -0.004 A 
ATOM      5  C7  UNL d   1       1.104  -3.198  -3.060  0.00  0.00     0.002 A 
ATOM      6  C8  UNL d   1       1.435  -2.332  -2.017  0.00  0.00     0.002 A 
ENDROOT
BRANCH   1   7
ATOM      7  C2  UNL d   1       0.980  -1.303   0.245  0.00  0.00     0.056 C 
BRANCH   7   8
ATOM      8  C1  UNL d   1       2.491  -1.139   0.443  0.00  0.00     0.007 C 
ATOM      9  C   UNL d   1       2.954   0.310   0.359  0.00  0.00     0.009 C 
ENDBRANCH   7   8
ENDBRANCH   1   7
TORSDOF 2
ENDMDL
