MODEL 1
REMARK minimizedAffinity -4.04431295
REMARK minimizedRMSD -1
REMARK  0 active torsions:
REMARK  status: ('A' for Active; 'I' for Inactive)
ROOT
ATOM      1  C   UNL d   1      -0.003   2.097   0.343  0.00  0.00     0.078 C 
ATOM      2  C1  UNL d   1      -0.393   0.650   0.291  0.00  0.00    -0.077 A 
ATOM      3  C2  UNL d   1      -0.231  -0.098  -0.881  0.00  0.00    -0.001 A 
ATOM      4  C3  UNL d   1      -0.607  -1.442  -0.918  0.00  0.00     0.003 A 
ATOM      5  C4  UNL d   1      -1.149  -2.048   0.213  0.00  0.00    -0.005 A 
ATOM      6  C5  UNL d   1      -1.317  -1.311   1.383  0.00  0.00     0.003 A 
ATOM      7  C6  UNL d   1      -0.941   0.033   1.422  0.00  0.00    -0.001 A 
ENDROOT
TORSDOF 0
ENDMDL
