MODEL 1
REMARK minimizedAffinity -4.22812366
REMARK minimizedRMSD -1
REMARK  0 active torsions:
REMARK  status: ('A' for Active; 'I' for Inactive)
ROOT
ATOM      1  C   UNL d   1       0.375  -1.674  -2.656  0.00  0.00     0.078 C 
ATOM      2  C1  UNL d   1       0.125  -0.884  -1.407  0.00  0.00    -0.077 A 
ATOM      3  C2  UNL d   1       0.462   0.474  -1.333  0.00  0.00    -0.001 A 
ATOM      4  C3  UNL d   1       0.232   1.195  -0.160  0.00  0.00     0.003 A 
ATOM      5  C4  UNL d   1      -0.333   0.567   0.948  0.00  0.00    -0.005 A 
ATOM      6  C5  UNL d   1      -0.669  -0.784   0.885  0.00  0.00     0.003 A 
ATOM      7  C6  UNL d   1      -0.440  -1.507  -0.287  0.00  0.00    -0.001 A 
ENDROOT
TORSDOF 0
ENDMDL
