MODEL 1
REMARK minimizedAffinity -1.95476878
REMARK minimizedRMSD -1
REMARK  0 active torsions:
REMARK  status: ('A' for Active; 'I' for Inactive)
ROOT
ATOM      1  C   UNL d   1      -0.005   1.471   0.385  0.00  0.00     0.078 C 
ATOM      2  C1  UNL d   1      -0.295  -0.000   0.415  0.00  0.00    -0.077 A 
ATOM      3  C2  UNL d   1      -0.427  -0.685   1.629  0.00  0.00    -0.001 A 
ATOM      4  C3  UNL d   1      -0.688  -2.056   1.641  0.00  0.00     0.003 A 
ATOM      5  C4  UNL d   1      -0.818  -2.755   0.442  0.00  0.00    -0.005 A 
ATOM      6  C5  UNL d   1      -0.686  -2.082  -0.771  0.00  0.00     0.003 A 
ATOM      7  C6  UNL d   1      -0.425  -0.711  -0.785  0.00  0.00    -0.001 A 
ENDROOT
TORSDOF 0
ENDMDL
