MODEL 1
REMARK minimizedAffinity -2.22326899
REMARK minimizedRMSD -1
REMARK  0 active torsions:
REMARK  status: ('A' for Active; 'I' for Inactive)
ROOT
ATOM      1  C   UNL d   1       0.198   2.208   0.049  0.00  0.00     0.078 C 
ATOM      2  C1  UNL d   1      -0.163   0.780   0.330  0.00  0.00    -0.077 A 
ATOM      3  C2  UNL d   1       0.021  -0.214  -0.639  0.00  0.00    -0.001 A 
ATOM      4  C3  UNL d   1      -0.329  -1.538  -0.368  0.00  0.00     0.003 A 
ATOM      5  C4  UNL d   1      -0.865  -1.879   0.872  0.00  0.00    -0.005 A 
ATOM      6  C5  UNL d   1      -1.054  -0.897   1.842  0.00  0.00     0.003 A 
ATOM      7  C6  UNL d   1      -0.705   0.427   1.572  0.00  0.00    -0.001 A 
ENDROOT
TORSDOF 0
ENDMDL
