MODEL 1
REMARK minimizedAffinity -4.42055511
REMARK minimizedRMSD -1
REMARK  0 active torsions:
REMARK  status: ('A' for Active; 'I' for Inactive)
ROOT
ATOM      1  C   UNL d   1       0.784   0.138   0.012  0.00  0.00     0.078 C 
ATOM      2  C1  UNL d   1       0.443  -1.210  -0.549  0.00  0.00    -0.077 A 
ATOM      3  C2  UNL d   1       0.579  -1.478  -1.917  0.00  0.00    -0.001 A 
ATOM      4  C3  UNL d   1       0.248  -2.734  -2.427  0.00  0.00     0.003 A 
ATOM      5  C4  UNL d   1      -0.222  -3.733  -1.577  0.00  0.00    -0.005 A 
ATOM      6  C5  UNL d   1      -0.363  -3.475  -0.215  0.00  0.00     0.003 A 
ATOM      7  C6  UNL d   1      -0.033  -2.220   0.297  0.00  0.00    -0.001 A 
ENDROOT
TORSDOF 0
ENDMDL
