MODEL 1
REMARK minimizedAffinity -3.2606225
REMARK minimizedRMSD -1
REMARK  0 active torsions:
REMARK  status: ('A' for Active; 'I' for Inactive)
ROOT
ATOM      1  C   UNL d   1      -0.561  -3.338  -2.581  0.00  0.00     0.078 C 
ATOM      2  C1  UNL d   1      -0.580  -2.461  -1.365  0.00  0.00    -0.077 A 
ATOM      3  C2  UNL d   1      -1.136  -2.910  -0.160  0.00  0.00    -0.001 A 
ATOM      4  C3  UNL d   1      -1.155  -2.079   0.961  0.00  0.00     0.003 A 
ATOM      5  C4  UNL d   1      -0.622  -0.793   0.888  0.00  0.00    -0.005 A 
ATOM      6  C5  UNL d   1      -0.070  -0.337  -0.307  0.00  0.00     0.003 A 
ATOM      7  C6  UNL d   1      -0.049  -1.167  -1.429  0.00  0.00    -0.001 A 
ENDROOT
TORSDOF 0
ENDMDL
