MODEL 1
REMARK minimizedAffinity -0.954078317
REMARK minimizedRMSD -1
REMARK  0 active torsions:
REMARK  status: ('A' for Active; 'I' for Inactive)
ROOT
ATOM      1  C   UNL d   1      -0.055   1.948  -0.104  0.00  0.00     0.078 C 
ATOM      2  C1  UNL d   1      -0.509   0.579   0.307  0.00  0.00    -0.077 A 
ATOM      3  C2  UNL d   1      -1.433   0.407   1.345  0.00  0.00    -0.001 A 
ATOM      4  C3  UNL d   1      -1.838  -0.874   1.724  0.00  0.00     0.003 A 
ATOM      5  C4  UNL d   1      -1.325  -1.992   1.071  0.00  0.00    -0.005 A 
ATOM      6  C5  UNL d   1      -0.403  -1.831   0.038  0.00  0.00     0.003 A 
ATOM      7  C6  UNL d   1       0.004  -0.551  -0.342  0.00  0.00    -0.001 A 
ENDROOT
TORSDOF 0
ENDMDL
