MODEL 1
REMARK minimizedAffinity -4.45852375
REMARK minimizedRMSD -1
REMARK  0 active torsions:
REMARK  status: ('A' for Active; 'I' for Inactive)
ROOT
ATOM      1  C   UNL d   1       0.391   1.895   0.035  0.00  0.00     0.078 C 
ATOM      2  C1  UNL d   1      -0.245   0.582   0.381  0.00  0.00    -0.077 A 
ATOM      3  C2  UNL d   1       0.223  -0.615  -0.174  0.00  0.00    -0.001 A 
ATOM      4  C3  UNL d   1      -0.386  -1.829   0.150  0.00  0.00     0.003 A 
ATOM      5  C4  UNL d   1      -1.466  -1.857   1.030  0.00  0.00    -0.005 A 
ATOM      6  C5  UNL d   1      -1.940  -0.671   1.586  0.00  0.00     0.003 A 
ATOM      7  C6  UNL d   1      -1.333   0.544   1.263  0.00  0.00    -0.001 A 
ENDROOT
TORSDOF 0
ENDMDL
