MODEL 1
REMARK minimizedAffinity -3.29757643
REMARK minimizedRMSD -1
REMARK  0 active torsions:
REMARK  status: ('A' for Active; 'I' for Inactive)
ROOT
ATOM      1  C   UNL d   1       0.167   1.451  -0.387  0.00  0.00     0.078 C 
ATOM      2  C1  UNL d   1      -0.228   0.089   0.101  0.00  0.00    -0.077 A 
ATOM      3  C2  UNL d   1      -0.164  -1.026  -0.742  0.00  0.00    -0.001 A 
ATOM      4  C3  UNL d   1      -0.544  -2.286  -0.277  0.00  0.00     0.003 A 
ATOM      5  C4  UNL d   1      -0.992  -2.442   1.033  0.00  0.00    -0.005 A 
ATOM      6  C5  UNL d   1      -1.062  -1.337   1.879  0.00  0.00     0.003 A 
ATOM      7  C6  UNL d   1      -0.683  -0.077   1.416  0.00  0.00    -0.001 A 
ENDROOT
TORSDOF 0
ENDMDL
