MODEL 1
REMARK minimizedAffinity -3.25738692
REMARK minimizedRMSD -1
REMARK  0 active torsions:
REMARK  status: ('A' for Active; 'I' for Inactive)
ROOT
ATOM      1  C   UNL d   1      -0.256  -2.483  -2.463  0.00  0.00     0.078 C 
ATOM      2  C1  UNL d   1      -0.470  -1.729  -1.185  0.00  0.00    -0.077 A 
ATOM      3  C2  UNL d   1      -0.226  -0.352  -1.111  0.00  0.00    -0.001 A 
ATOM      4  C3  UNL d   1      -0.419   0.336   0.088  0.00  0.00     0.003 A 
ATOM      5  C4  UNL d   1      -0.857  -0.345   1.223  0.00  0.00    -0.005 A 
ATOM      6  C5  UNL d   1      -1.100  -1.716   1.159  0.00  0.00     0.003 A 
ATOM      7  C6  UNL d   1      -0.907  -2.405  -0.039  0.00  0.00    -0.001 A 
ENDROOT
TORSDOF 0
ENDMDL
