MODEL 1
REMARK minimizedAffinity -3.13290358
REMARK minimizedRMSD -1
REMARK  0 active torsions:
REMARK  status: ('A' for Active; 'I' for Inactive)
ROOT
ATOM      1  C   UNL d   1       0.172   1.429  -0.179  0.00  0.00     0.078 C 
ATOM      2  C1  UNL d   1      -0.169  -0.031  -0.128  0.00  0.00    -0.077 A 
ATOM      3  C2  UNL d   1      -0.018  -0.846  -1.257  0.00  0.00    -0.001 A 
ATOM      4  C3  UNL d   1      -0.349  -2.201  -1.198  0.00  0.00     0.003 A 
ATOM      5  C4  UNL d   1      -0.835  -2.752  -0.014  0.00  0.00    -0.005 A 
ATOM      6  C5  UNL d   1      -0.990  -1.948   1.114  0.00  0.00     0.003 A 
ATOM      7  C6  UNL d   1      -0.660  -0.593   1.057  0.00  0.00    -0.001 A 
ENDROOT
TORSDOF 0
ENDMDL
