MODEL 1
REMARK minimizedAffinity -3.24914336
REMARK minimizedRMSD -1
REMARK  0 active torsions:
REMARK  status: ('A' for Active; 'I' for Inactive)
ROOT
ATOM      1  C   UNL d   1       0.007   1.101  -0.011  0.00  0.00     0.078 C 
ATOM      2  C1  UNL d   1      -0.285  -0.359  -0.186  0.00  0.00    -0.077 A 
ATOM      3  C2  UNL d   1      -0.105  -0.987  -1.425  0.00  0.00    -0.001 A 
ATOM      4  C3  UNL d   1      -0.390  -2.345  -1.576  0.00  0.00     0.003 A 
ATOM      5  C4  UNL d   1      -0.858  -3.086  -0.493  0.00  0.00    -0.005 A 
ATOM      6  C5  UNL d   1      -1.043  -2.470   0.742  0.00  0.00     0.003 A 
ATOM      7  C6  UNL d   1      -0.758  -1.112   0.896  0.00  0.00    -0.001 A 
ENDROOT
TORSDOF 0
ENDMDL
