MODEL 1
REMARK minimizedAffinity -0.0569078997
REMARK minimizedRMSD -1
REMARK  0 active torsions:
REMARK  status: ('A' for Active; 'I' for Inactive)
ROOT
ATOM      1  C   UNL d   1       0.172   1.508  -0.366  0.00  0.00     0.078 C 
ATOM      2  C1  UNL d   1      -0.351   0.234   0.228  0.00  0.00    -0.077 A 
ATOM      3  C2  UNL d   1      -0.596   0.127   1.602  0.00  0.00    -0.001 A 
ATOM      4  C3  UNL d   1      -1.074  -1.068   2.143  0.00  0.00     0.003 A 
ATOM      5  C4  UNL d   1      -1.309  -2.165   1.316  0.00  0.00    -0.005 A 
ATOM      6  C5  UNL d   1      -1.065  -2.068  -0.052  0.00  0.00     0.003 A 
ATOM      7  C6  UNL d   1      -0.587  -0.874  -0.594  0.00  0.00    -0.001 A 
ENDROOT
TORSDOF 0
ENDMDL
