MODEL 1
REMARK minimizedAffinity -1.87906575
REMARK minimizedRMSD -1
REMARK  0 active torsions:
REMARK  status: ('A' for Active; 'I' for Inactive)
ROOT
ATOM      1  C1  BNZ d   1      -4.299   2.180  -3.344  0.00  0.00     0.000 A 
ATOM      2  C2  BNZ d   1      -5.189   1.189  -3.664  0.00  0.00     0.000 A 
ATOM      3  C3  BNZ d   1      -5.997   1.302  -4.761  0.00  0.00     0.000 A 
ATOM      4  C4  BNZ d   1      -5.944   2.421  -5.511  0.00  0.00     0.000 A 
ATOM      5  C5  BNZ d   1      -5.060   3.433  -5.196  0.00  0.00     0.000 A 
ATOM      6  C6  BNZ d   1      -4.220   3.299  -4.115  0.00  0.00     0.000 A 
ENDROOT
TORSDOF 0
ENDMDL
