MODEL 1
REMARK minimizedAffinity -1.72139335
REMARK minimizedRMSD -1
REMARK  0 active torsions:
REMARK  status: ('A' for Active; 'I' for Inactive)
ROOT
ATOM      1  C1  BNZ d   1      -1.171  -3.388   2.993  0.00  0.00     0.000 A 
ATOM      2  C2  BNZ d   1      -0.530  -4.532   2.596  0.00  0.00     0.000 A 
ATOM      3  C3  BNZ d   1       0.598  -4.470   1.827  0.00  0.00     0.000 A 
ATOM      4  C4  BNZ d   1       1.061  -3.269   1.423  0.00  0.00     0.000 A 
ATOM      5  C5  BNZ d   1       0.421  -2.108   1.808  0.00  0.00     0.000 A 
ATOM      6  C6  BNZ d   1      -0.692  -2.172   2.614  0.00  0.00     0.000 A 
ENDROOT
TORSDOF 0
ENDMDL
