MODEL 1
REMARK minimizedAffinity -0.803340912
REMARK minimizedRMSD -1
REMARK  0 active torsions:
REMARK  status: ('A' for Active; 'I' for Inactive)
ROOT
ATOM      1  C1  BNZ d   1      -1.263  -0.958   2.857  0.00  0.00     0.000 A 
ATOM      2  C2  BNZ d   1      -1.683  -0.265   1.752  0.00  0.00     0.000 A 
ATOM      3  C3  BNZ d   1      -1.100  -0.472   0.533  0.00  0.00     0.000 A 
ATOM      4  C4  BNZ d   1      -0.073  -1.340   0.428  0.00  0.00     0.000 A 
ATOM      5  C5  BNZ d   1       0.367  -2.039   1.534  0.00  0.00     0.000 A 
ATOM      6  C6  BNZ d   1      -0.247  -1.857   2.752  0.00  0.00     0.000 A 
ENDROOT
TORSDOF 0
ENDMDL
