MODEL 1
REMARK minimizedAffinity 4.15912008
REMARK minimizedRMSD -1
REMARK  0 active torsions:
REMARK  status: ('A' for Active; 'I' for Inactive)
ROOT
ATOM      1  C1  BNZ d   1      -1.442  -2.804   3.452  0.00  0.00     0.000 A 
ATOM      2  C2  BNZ d   1      -0.932  -4.041   3.160  0.00  0.00     0.000 A 
ATOM      3  C3  BNZ d   1       0.261  -4.170   2.505  0.00  0.00     0.000 A 
ATOM      4  C4  BNZ d   1       0.921  -3.063   2.107  0.00  0.00     0.000 A 
ATOM      5  C5  BNZ d   1       0.416  -1.809   2.386  0.00  0.00     0.000 A 
ATOM      6  C6  BNZ d   1      -0.766  -1.683   3.080  0.00  0.00     0.000 A 
ENDROOT
TORSDOF 0
ENDMDL
