MODEL 1
REMARK minimizedAffinity -2.57378173
REMARK minimizedRMSD -1
REMARK  0 active torsions:
REMARK  status: ('A' for Active; 'I' for Inactive)
ROOT
ATOM      1  C1  BNZ d   1      -0.358  -1.303   1.442  0.00  0.00     0.000 A 
ATOM      2  C2  BNZ d   1      -0.010  -0.443   0.434  0.00  0.00     0.000 A 
ATOM      3  C3  BNZ d   1       1.077   0.375   0.556  0.00  0.00     0.000 A 
ATOM      4  C4  BNZ d   1       1.792   0.363   1.700  0.00  0.00     0.000 A 
ATOM      5  C5  BNZ d   1       1.449  -0.492   2.729  0.00  0.00     0.000 A 
ATOM      6  C6  BNZ d   1       0.376  -1.342   2.587  0.00  0.00     0.000 A 
ENDROOT
TORSDOF 0
ENDMDL
