MODEL 1
REMARK minimizedAffinity -3.47554612
REMARK minimizedRMSD -1
REMARK  0 active torsions:
REMARK  status: ('A' for Active; 'I' for Inactive)
ROOT
ATOM      1  C   UNL d   1       1.935  -1.433   3.040  0.00  0.00     0.078 C 
ATOM      2  C1  UNL d   1       0.581  -1.138   2.466  0.00  0.00    -0.077 A 
ATOM      3  C2  UNL d   1      -0.559  -1.805   2.930  0.00  0.00    -0.001 A 
ATOM      4  C3  UNL d   1      -1.812  -1.528   2.380  0.00  0.00     0.003 A 
ATOM      5  C4  UNL d   1      -1.936  -0.584   1.363  0.00  0.00    -0.005 A 
ATOM      6  C5  UNL d   1      -0.806   0.083   0.893  0.00  0.00     0.003 A 
ATOM      7  C6  UNL d   1       0.447  -0.193   1.442  0.00  0.00    -0.001 A 
ENDROOT
TORSDOF 0
ENDMDL
