MODEL 1
REMARK minimizedAffinity -5.92403269
REMARK minimizedRMSD -1
REMARK  0 active torsions:
REMARK  status: ('A' for Active; 'I' for Inactive)
ROOT
ATOM      1  C   UNL d   1      -1.384   0.020   0.749  0.00  0.00     0.078 C 
ATOM      2  C1  UNL d   1       0.001  -0.462   1.060  0.00  0.00    -0.077 A 
ATOM      3  C2  UNL d   1       0.961  -0.600   0.050  0.00  0.00    -0.001 A 
ATOM      4  C3  UNL d   1       2.243  -1.059   0.353  0.00  0.00     0.003 A 
ATOM      5  C4  UNL d   1       2.578  -1.387   1.665  0.00  0.00    -0.005 A 
ATOM      6  C5  UNL d   1       1.629  -1.255   2.677  0.00  0.00     0.003 A 
ATOM      7  C6  UNL d   1       0.346  -0.796   2.376  0.00  0.00    -0.001 A 
ENDROOT
TORSDOF 0
ENDMDL
