MODEL 1
REMARK minimizedAffinity -5.98620987
REMARK minimizedRMSD -1
REMARK  0 active torsions:
REMARK  status: ('A' for Active; 'I' for Inactive)
ROOT
ATOM      1  C   UNL d   1      -0.278  -0.029  -0.288  0.00  0.00     0.078 C 
ATOM      2  C1  UNL d   1       0.697  -0.701   0.631  0.00  0.00    -0.077 A 
ATOM      3  C2  UNL d   1       0.607  -0.541   2.020  0.00  0.00    -0.001 A 
ATOM      4  C3  UNL d   1       1.528  -1.165   2.863  0.00  0.00     0.003 A 
ATOM      5  C4  UNL d   1       2.546  -1.952   2.328  0.00  0.00    -0.005 A 
ATOM      6  C5  UNL d   1       2.644  -2.115   0.948  0.00  0.00     0.003 A 
ATOM      7  C6  UNL d   1       1.725  -1.492   0.103  0.00  0.00    -0.001 A 
ENDROOT
TORSDOF 0
ENDMDL
