MODEL 1
REMARK minimizedAffinity -4.24859142
REMARK minimizedRMSD -1
REMARK  0 active torsions:
REMARK  status: ('A' for Active; 'I' for Inactive)
ROOT
ATOM      1  C   UNL d   1      -0.047   0.119  -0.929  0.00  0.00     0.078 C 
ATOM      2  C1  UNL d   1       0.549  -0.406   0.344  0.00  0.00    -0.077 A 
ATOM      3  C2  UNL d   1       1.731  -1.156   0.331  0.00  0.00    -0.001 A 
ATOM      4  C3  UNL d   1       2.269  -1.646   1.522  0.00  0.00     0.003 A 
ATOM      5  C4  UNL d   1       1.631  -1.393   2.734  0.00  0.00    -0.005 A 
ATOM      6  C5  UNL d   1       0.452  -0.650   2.757  0.00  0.00     0.003 A 
ATOM      7  C6  UNL d   1      -0.087  -0.159   1.567  0.00  0.00    -0.001 A 
ENDROOT
TORSDOF 0
ENDMDL
