MODEL 1
REMARK minimizedAffinity -3.77606821
REMARK minimizedRMSD -1
REMARK  0 active torsions:
REMARK  status: ('A' for Active; 'I' for Inactive)
ROOT
ATOM      1  C   UNL d   1       0.185   0.321  -0.828  0.00  0.00     0.078 C 
ATOM      2  C1  UNL d   1       0.950  -0.312   0.296  0.00  0.00    -0.077 A 
ATOM      3  C2  UNL d   1       2.057  -1.131   0.044  0.00  0.00    -0.001 A 
ATOM      4  C3  UNL d   1       2.754  -1.722   1.099  0.00  0.00     0.003 A 
ATOM      5  C4  UNL d   1       2.350  -1.500   2.415  0.00  0.00    -0.005 A 
ATOM      6  C5  UNL d   1       1.248  -0.689   2.675  0.00  0.00     0.003 A 
ATOM      7  C6  UNL d   1       0.550  -0.097   1.621  0.00  0.00    -0.001 A 
ENDROOT
TORSDOF 0
ENDMDL
