MODEL 1
REMARK minimizedAffinity -5.71118069
REMARK minimizedRMSD -1
REMARK  0 active torsions:
REMARK  status: ('A' for Active; 'I' for Inactive)
ROOT
ATOM      1  C   UNL d   1       1.468  -1.516   3.079  0.00  0.00     0.078 C 
ATOM      2  C1  UNL d   1       1.080  -1.125   1.684  0.00  0.00    -0.077 A 
ATOM      3  C2  UNL d   1       1.925  -1.388   0.599  0.00  0.00    -0.001 A 
ATOM      4  C3  UNL d   1       1.554  -1.009  -0.692  0.00  0.00     0.003 A 
ATOM      5  C4  UNL d   1       0.339  -0.363  -0.910  0.00  0.00    -0.005 A 
ATOM      6  C5  UNL d   1      -0.507  -0.095   0.164  0.00  0.00     0.003 A 
ATOM      7  C6  UNL d   1      -0.139  -0.473   1.456  0.00  0.00    -0.001 A 
ENDROOT
TORSDOF 0
ENDMDL
