MODEL 1
REMARK minimizedAffinity -3.28932238
REMARK minimizedRMSD -1
REMARK  3 active torsions:
REMARK  status: ('A' for Active; 'I' for Inactive)
REMARK    1  A    between atoms: C3'_2  and  C2'_3 
REMARK    2  A    between atoms: C2'_3  and  C1'_4 
REMARK    3  A    between atoms: C1'_4  and  C1_5 
ROOT
ATOM      1  C1  N4B d   1       2.625  -2.846  -0.235  0.00  0.00    -0.075 A 
ATOM      2  C2  N4B d   1       2.651  -1.448  -0.039  0.00  0.00     0.002 A 
ATOM      3  C3  N4B d   1       1.511  -0.787   0.348  0.00  0.00     0.002 A 
ATOM      4  C4  N4B d   1       0.334  -1.498   0.526  0.00  0.00    -0.004 A 
ATOM      5  C5  N4B d   1       0.323  -2.852   0.359  0.00  0.00     0.002 A 
ATOM      6  C6  N4B d   1       1.462  -3.529  -0.026  0.00  0.00     0.002 A 
ENDROOT
BRANCH   1   7
ATOM      7  C1' N4B d   1       3.824  -3.600  -0.742  0.00  0.00     0.057 C 
BRANCH   7   8
ATOM      8  C2' N4B d   1       3.951  -4.913   0.025  0.00  0.00     0.009 C 
BRANCH   8   9
ATOM      9  C3' N4B d   1       5.273  -5.607  -0.253  0.00  0.00     0.004 C 
ATOM     10  C4' N4B d   1       5.997  -6.000   1.000  0.00  0.00     0.003 C 
ENDBRANCH   8   9
ENDBRANCH   7   8
ENDBRANCH   1   7
TORSDOF 3
ENDMDL
