MODEL 1
REMARK minimizedAffinity -2.49936771
REMARK minimizedRMSD -1
REMARK  3 active torsions:
REMARK  status: ('A' for Active; 'I' for Inactive)
REMARK    1  A    between atoms: C3'_2  and  C2'_3 
REMARK    2  A    between atoms: C2'_3  and  C1'_4 
REMARK    3  A    between atoms: C1'_4  and  C1_5 
ROOT
ATOM      1  C1  N4B d   1       1.484  -0.955   0.214  0.00  0.00    -0.075 A 
ATOM      2  C2  N4B d   1       1.605  -2.341  -0.027  0.00  0.00     0.002 A 
ATOM      3  C3  N4B d   1       0.561  -3.183   0.269  0.00  0.00     0.002 A 
ATOM      4  C4  N4B d   1      -0.601  -2.666   0.823  0.00  0.00    -0.004 A 
ATOM      5  C5  N4B d   1      -0.719  -1.323   1.029  0.00  0.00     0.002 A 
ATOM      6  C6  N4B d   1       0.321  -0.465   0.732  0.00  0.00     0.002 A 
ENDROOT
BRANCH   1   7
ATOM      7  C1' N4B d   1       2.630  -0.007  -0.013  0.00  0.00     0.057 C 
BRANCH   7   8
ATOM      8  C2' N4B d   1       3.127   0.510   1.333  0.00  0.00     0.009 C 
BRANCH   8   9
ATOM      9  C3' N4B d   1       4.293  -0.309   1.860  0.00  0.00     0.004 C 
ATOM     10  C4' N4B d   1       5.185  -0.820   0.768  0.00  0.00     0.003 C 
ENDBRANCH   8   9
ENDBRANCH   7   8
ENDBRANCH   1   7
TORSDOF 3
ENDMDL
