MODEL 1
REMARK minimizedAffinity 4.55679321
REMARK minimizedRMSD -1
REMARK  3 active torsions:
REMARK  status: ('A' for Active; 'I' for Inactive)
REMARK    1  A    between atoms: C3'_2  and  C2'_3 
REMARK    2  A    between atoms: C2'_3  and  C1'_4 
REMARK    3  A    between atoms: C1'_4  and  C1_5 
ROOT
ATOM      1  C1  N4B d   1      -1.160  -1.362   1.494  0.00  0.00    -0.075 A 
ATOM      2  C2  N4B d   1      -0.634  -2.137   0.437  0.00  0.00     0.002 A 
ATOM      3  C3  N4B d   1       0.713  -2.114   0.174  0.00  0.00     0.002 A 
ATOM      4  C4  N4B d   1       1.548  -1.313   0.938  0.00  0.00    -0.004 A 
ATOM      5  C5  N4B d   1       1.036  -0.587   1.974  0.00  0.00     0.002 A 
ATOM      6  C6  N4B d   1      -0.316  -0.604   2.252  0.00  0.00     0.002 A 
ENDROOT
BRANCH   1   7
ATOM      7  C1' N4B d   1      -2.638  -1.288   1.765  0.00  0.00     0.057 C 
BRANCH   7   8
ATOM      8  C2' N4B d   1      -3.266  -2.652   1.495  0.00  0.00     0.009 C 
BRANCH   8   9
ATOM      9  C3' N4B d   1      -4.522  -2.873   2.321  0.00  0.00     0.004 C 
ATOM     10  C4' N4B d   1      -5.154  -4.209   2.070  0.00  0.00     0.003 C 
ENDBRANCH   8   9
ENDBRANCH   7   8
ENDBRANCH   1   7
TORSDOF 3
ENDMDL
