MODEL 1
REMARK minimizedAffinity 6.38254833
REMARK minimizedRMSD -1
REMARK  3 active torsions:
REMARK  status: ('A' for Active; 'I' for Inactive)
REMARK    1  A    between atoms: C3'_2  and  C2'_3 
REMARK    2  A    between atoms: C2'_3  and  C1'_4 
REMARK    3  A    between atoms: C1'_4  and  C1_5 
ROOT
ATOM      1  C1  N4B d   1       1.852  -1.775   0.345  0.00  0.00    -0.075 A 
ATOM      2  C2  N4B d   1       1.122  -2.742  -0.382  0.00  0.00     0.002 A 
ATOM      3  C3  N4B d   1      -0.156  -3.068   0.001  0.00  0.00     0.002 A 
ATOM      4  C4  N4B d   1      -0.715  -2.458   1.114  0.00  0.00    -0.004 A 
ATOM      5  C5  N4B d   1      -0.013  -1.507   1.795  0.00  0.00     0.002 A 
ATOM      6  C6  N4B d   1       1.271  -1.166   1.419  0.00  0.00     0.002 A 
ENDROOT
BRANCH   1   7
ATOM      7  C1' N4B d   1       3.283  -1.448   0.016  0.00  0.00     0.057 C 
BRANCH   7   8
ATOM      8  C2' N4B d   1       4.024  -1.095   1.303  0.00  0.00     0.009 C 
BRANCH   8   9
ATOM      9  C3' N4B d   1       5.522  -1.311   1.173  0.00  0.00     0.004 C 
ATOM     10  C4' N4B d   1       6.000  -2.527   1.908  0.00  0.00     0.003 C 
ENDBRANCH   8   9
ENDBRANCH   7   8
ENDBRANCH   1   7
TORSDOF 3
ENDMDL
