MODEL 1
REMARK minimizedAffinity -1.83898711
REMARK minimizedRMSD -1
REMARK  3 active torsions:
REMARK  status: ('A' for Active; 'I' for Inactive)
REMARK    1  A    between atoms: C3'_2  and  C2'_3 
REMARK    2  A    between atoms: C2'_3  and  C1'_4 
REMARK    3  A    between atoms: C1'_4  and  C1_5 
ROOT
ATOM      1  C1  N4B d   1       1.777  -2.076   0.235  0.00  0.00    -0.075 A 
ATOM      2  C2  N4B d   1       0.625  -2.869   0.037  0.00  0.00     0.002 A 
ATOM      3  C3  N4B d   1      -0.610  -2.386   0.396  0.00  0.00     0.002 A 
ATOM      4  C4  N4B d   1      -0.715  -1.128   0.969  0.00  0.00    -0.004 A 
ATOM      5  C5  N4B d   1       0.400  -0.359   1.133  0.00  0.00     0.002 A 
ATOM      6  C6  N4B d   1       1.647  -0.829   0.774  0.00  0.00     0.002 A 
ENDROOT
BRANCH   1   7
ATOM      7  C1' N4B d   1       3.158  -2.594  -0.061  0.00  0.00     0.057 C 
BRANCH   7   8
ATOM      8  C2' N4B d   1       3.127  -4.119  -0.083  0.00  0.00     0.009 C 
BRANCH   8   9
ATOM      9  C3' N4B d   1       4.463  -4.709  -0.502  0.00  0.00     0.004 C 
ATOM     10  C4' N4B d   1       4.773  -5.999   0.197  0.00  0.00     0.003 C 
ENDBRANCH   8   9
ENDBRANCH   7   8
ENDBRANCH   1   7
TORSDOF 3
ENDMDL
