MODEL 1
REMARK minimizedAffinity 11.9752188
REMARK minimizedRMSD -1
REMARK  3 active torsions:
REMARK  status: ('A' for Active; 'I' for Inactive)
REMARK    1  A    between atoms: C3'_2  and  C2'_3 
REMARK    2  A    between atoms: C2'_3  and  C1'_4 
REMARK    3  A    between atoms: C1'_4  and  C1_5 
ROOT
ATOM      1  C1  N4B d   1      -2.985  -3.226   0.773  0.00  0.00    -0.075 A 
ATOM      2  C2  N4B d   1      -2.049  -3.976   0.028  0.00  0.00     0.002 A 
ATOM      3  C3  N4B d   1      -1.084  -3.333  -0.708  0.00  0.00     0.002 A 
ATOM      4  C4  N4B d   1      -1.047  -1.947  -0.728  0.00  0.00    -0.004 A 
ATOM      5  C5  N4B d   1      -1.938  -1.230   0.015  0.00  0.00     0.002 A 
ATOM      6  C6  N4B d   1      -2.911  -1.863   0.762  0.00  0.00     0.002 A 
ENDROOT
BRANCH   1   7
ATOM      7  C1' N4B d   1      -4.111  -3.882   1.524  0.00  0.00     0.057 C 
BRANCH   7   8
ATOM      8  C2' N4B d   1      -3.704  -5.305   1.895  0.00  0.00     0.009 C 
BRANCH   8   9
ATOM      9  C3' N4B d   1      -4.743  -5.984   2.771  0.00  0.00     0.004 C 
ATOM     10  C4' N4B d   1      -4.364  -5.991   4.222  0.00  0.00     0.003 C 
ENDBRANCH   8   9
ENDBRANCH   7   8
ENDBRANCH   1   7
TORSDOF 3
ENDMDL
