MODEL 1
REMARK minimizedAffinity -3.76666164
REMARK minimizedRMSD -1
REMARK  3 active torsions:
REMARK  status: ('A' for Active; 'I' for Inactive)
REMARK    1  A    between atoms: C3'_2  and  C2'_3 
REMARK    2  A    between atoms: C2'_3  and  C1'_4 
REMARK    3  A    between atoms: C1'_4  and  C1_5 
ROOT
ATOM      1  C1  N4B d   1       2.817  -3.034   0.063  0.00  0.00    -0.075 A 
ATOM      2  C2  N4B d   1       2.761  -1.625   0.144  0.00  0.00     0.002 A 
ATOM      3  C3  N4B d   1       1.551  -0.995   0.307  0.00  0.00     0.002 A 
ATOM      4  C4  N4B d   1       0.389  -1.748   0.372  0.00  0.00    -0.004 A 
ATOM      5  C5  N4B d   1       0.455  -3.110   0.317  0.00  0.00     0.002 A 
ATOM      6  C6  N4B d   1       1.664  -3.757   0.158  0.00  0.00     0.002 A 
ENDROOT
BRANCH   1   7
ATOM      7  C1' N4B d   1       4.106  -3.763  -0.201  0.00  0.00     0.057 C 
BRANCH   7   8
ATOM      8  C2' N4B d   1       3.950  -5.223   0.213  0.00  0.00     0.009 C 
BRANCH   8   9
ATOM      9  C3' N4B d   1       5.266  -5.979   0.138  0.00  0.00     0.004 C 
ATOM     10  C4' N4B d   1       6.000  -5.999   1.445  0.00  0.00     0.003 C 
ENDBRANCH   8   9
ENDBRANCH   7   8
ENDBRANCH   1   7
TORSDOF 3
ENDMDL
