MODEL 1
REMARK minimizedAffinity 0.0613543838
REMARK minimizedRMSD -1
REMARK  3 active torsions:
REMARK  status: ('A' for Active; 'I' for Inactive)
REMARK    1  A    between atoms: C3'_2  and  C2'_3 
REMARK    2  A    between atoms: C2'_3  and  C1'_4 
REMARK    3  A    between atoms: C1'_4  and  C1_5 
ROOT
ATOM      1  C1  N4B d   1       0.917  -2.758   0.440  0.00  0.00    -0.075 A 
ATOM      2  C2  N4B d   1       1.597  -1.548   0.698  0.00  0.00     0.002 A 
ATOM      3  C3  N4B d   1       0.936  -0.502   1.294  0.00  0.00     0.002 A 
ATOM      4  C4  N4B d   1      -0.405  -0.637   1.622  0.00  0.00    -0.004 A 
ATOM      5  C5  N4B d   1      -1.048  -1.818   1.393  0.00  0.00     0.002 A 
ATOM      6  C6  N4B d   1      -0.394  -2.879   0.798  0.00  0.00     0.002 A 
ENDROOT
BRANCH   1   7
ATOM      7  C1' N4B d   1       1.575  -3.899  -0.287  0.00  0.00     0.057 C 
BRANCH   7   8
ATOM      8  C2' N4B d   1       3.062  -3.919   0.054  0.00  0.00     0.009 C 
BRANCH   8   9
ATOM      9  C3' N4B d   1       3.684  -5.283  -0.195  0.00  0.00     0.004 C 
ATOM     10  C4' N4B d   1       5.151  -5.318   0.115  0.00  0.00     0.003 C 
ENDBRANCH   8   9
ENDBRANCH   7   8
ENDBRANCH   1   7
TORSDOF 3
ENDMDL
