MODEL 1
REMARK minimizedAffinity 7.53000021
REMARK minimizedRMSD -1
REMARK  3 active torsions:
REMARK  status: ('A' for Active; 'I' for Inactive)
REMARK    1  A    between atoms: C3'_2  and  C2'_3 
REMARK    2  A    between atoms: C2'_3  and  C1'_4 
REMARK    3  A    between atoms: C1'_4  and  C1_5 
ROOT
ATOM      1  C1  N4B d   1       0.680   4.691   0.264  0.00  0.00    -0.075 A 
ATOM      2  C2  N4B d   1       1.733   3.864   0.713  0.00  0.00     0.002 A 
ATOM      3  C3  N4B d   1       2.996   4.020   0.196  0.00  0.00     0.002 A 
ATOM      4  C4  N4B d   1       3.225   4.980  -0.779  0.00  0.00    -0.004 A 
ATOM      5  C5  N4B d   1       2.208   5.792  -1.188  0.00  0.00     0.002 A 
ATOM      6  C6  N4B d   1       0.934   5.649  -0.675  0.00  0.00     0.002 A 
ENDROOT
BRANCH   1   7
ATOM      7  C1' N4B d   1      -0.735   4.501   0.737  0.00  0.00     0.057 C 
BRANCH   7   8
ATOM      8  C2' N4B d   1      -0.850   3.154   1.445  0.00  0.00     0.009 C 
BRANCH   8   9
ATOM      9  C3' N4B d   1      -2.291   2.807   1.776  0.00  0.00     0.004 C 
ATOM     10  C4' N4B d   1      -2.407   1.790   2.872  0.00  0.00     0.003 C 
ENDBRANCH   8   9
ENDBRANCH   7   8
ENDBRANCH   1   7
TORSDOF 3
ENDMDL
