MODEL 1
REMARK minimizedAffinity 0.905415952
REMARK minimizedRMSD -1
REMARK  3 active torsions:
REMARK  status: ('A' for Active; 'I' for Inactive)
REMARK    1  A    between atoms: C3'_2  and  C2'_3 
REMARK    2  A    between atoms: C2'_3  and  C1'_4 
REMARK    3  A    between atoms: C1'_4  and  C1_5 
ROOT
ATOM      1  C1  N4B d   1       2.861  -3.447   0.113  0.00  0.00    -0.075 A 
ATOM      2  C2  N4B d   1       1.650  -4.161  -0.026  0.00  0.00     0.002 A 
ATOM      3  C3  N4B d   1       0.484  -3.640   0.479  0.00  0.00     0.002 A 
ATOM      4  C4  N4B d   1       0.507  -2.421   1.141  0.00  0.00    -0.004 A 
ATOM      5  C5  N4B d   1       1.676  -1.726   1.248  0.00  0.00     0.002 A 
ATOM      6  C6  N4B d   1       2.855  -2.236   0.742  0.00  0.00     0.002 A 
ENDROOT
BRANCH   1   7
ATOM      7  C1' N4B d   1       4.175  -4.016  -0.347  0.00  0.00     0.057 C 
BRANCH   7   8
ATOM      8  C2' N4B d   1       4.227  -5.501   0.000  0.00  0.00     0.009 C 
BRANCH   8   9
ATOM      9  C3' N4B d   1       5.646  -5.972   0.268  0.00  0.00     0.004 C 
ATOM     10  C4' N4B d   1       5.983  -5.998   1.729  0.00  0.00     0.003 C 
ENDBRANCH   8   9
ENDBRANCH   7   8
ENDBRANCH   1   7
TORSDOF 3
ENDMDL
