MODEL 1
REMARK minimizedAffinity -3.1853013
REMARK minimizedRMSD -1
REMARK  0 active torsions:
REMARK  status: ('A' for Active; 'I' for Inactive)
ROOT
ATOM      1  C4' PXY d   1       0.067   2.302  -0.561  0.00  0.00     0.077 C 
ATOM      2  C1' PXY d   1       0.310  -3.380   0.476  0.00  0.00     0.077 C 
ATOM      3  C1  PXY d   1       0.235  -1.889   0.211  0.00  0.00    -0.082 A 
ATOM      4  C2  PXY d   1       0.871  -1.377  -0.831  0.00  0.00     0.003 A 
ATOM      5  C3  PXY d   1       0.840  -0.027  -1.067  0.00  0.00     0.003 A 
ATOM      6  C4  PXY d   1       0.107   0.801  -0.260  0.00  0.00    -0.082 A 
ATOM      7  C5  PXY d   1      -0.554   0.285   0.798  0.00  0.00     0.003 A 
ATOM      8  C6  PXY d   1      -0.476  -1.083   1.045  0.00  0.00     0.003 A 
ENDROOT
TORSDOF 0
ENDMDL
