MODEL 1
REMARK minimizedAffinity -5.26677513
REMARK minimizedRMSD -1
REMARK  0 active torsions:
REMARK  status: ('A' for Active; 'I' for Inactive)
ROOT
ATOM      1  C4' PXY d   1      -0.038   1.505  -0.032  0.00  0.00     0.077 C 
ATOM      2  C1' PXY d   1      -0.124  -4.259  -0.463  0.00  0.00     0.077 C 
ATOM      3  C1  PXY d   1      -0.110  -2.748  -0.340  0.00  0.00    -0.082 A 
ATOM      4  C2  PXY d   1       0.297  -2.012  -1.362  0.00  0.00     0.003 A 
ATOM      5  C3  PXY d   1       0.345  -0.646  -1.258  0.00  0.00     0.003 A 
ATOM      6  C4  PXY d   1      -0.077  -0.023  -0.114  0.00  0.00    -0.082 A 
ATOM      7  C5  PXY d   1      -0.504  -0.766   0.929  0.00  0.00     0.003 A 
ATOM      8  C6  PXY d   1      -0.506  -2.153   0.818  0.00  0.00     0.003 A 
ENDROOT
TORSDOF 0
ENDMDL
