MODEL 1
REMARK minimizedAffinity -3.41204476
REMARK minimizedRMSD -1
REMARK  0 active torsions:
REMARK  status: ('A' for Active; 'I' for Inactive)
ROOT
ATOM      1  C4' PXY d   1      -0.086   2.997  -0.051  0.00  0.00     0.077 C 
ATOM      2  C1' PXY d   1      -0.644  -2.724   0.560  0.00  0.00     0.077 C 
ATOM      3  C1  PXY d   1      -0.488  -1.225   0.392  0.00  0.00    -0.082 A 
ATOM      4  C2  PXY d   1      -0.926  -0.411   1.338  0.00  0.00     0.003 A 
ATOM      5  C3  PXY d   1      -0.822   0.947   1.187  0.00  0.00     0.003 A 
ATOM      6  C4  PXY d   1      -0.215   1.477   0.081  0.00  0.00    -0.082 A 
ATOM      7  C5  PXY d   1       0.245   0.653  -0.885  0.00  0.00     0.003 A 
ATOM      8  C6  PXY d   1       0.092  -0.722  -0.732  0.00  0.00     0.003 A 
ENDROOT
TORSDOF 0
ENDMDL
