MODEL 1
REMARK minimizedAffinity -3.78387952
REMARK minimizedRMSD -1
REMARK  0 active torsions:
REMARK  status: ('A' for Active; 'I' for Inactive)
ROOT
ATOM      1  C4' PXY d   1      -0.437  -2.925   0.419  0.00  0.00     0.077 C 
ATOM      2  C1' PXY d   1       0.456   2.774   0.050  0.00  0.00     0.077 C 
ATOM      3  C1  PXY d   1       0.223   1.279   0.134  0.00  0.00    -0.082 A 
ATOM      4  C2  PXY d   1      -0.489   0.782   1.133  0.00  0.00     0.003 A 
ATOM      5  C3  PXY d   1      -0.681  -0.571   1.241  0.00  0.00     0.003 A 
ATOM      6  C4  PXY d   1      -0.185  -1.420   0.289  0.00  0.00    -0.082 A 
ATOM      7  C5  PXY d   1       0.533  -0.921  -0.739  0.00  0.00     0.003 A 
ATOM      8  C6  PXY d   1       0.753   0.452  -0.809  0.00  0.00     0.003 A 
ENDROOT
TORSDOF 0
ENDMDL
