MODEL 1
REMARK minimizedAffinity -3.62149668
REMARK minimizedRMSD -1
REMARK  0 active torsions:
REMARK  status: ('A' for Active; 'I' for Inactive)
ROOT
ATOM      1  C4' PXY d   1       0.027   1.732  -0.039  0.00  0.00     0.077 C 
ATOM      2  C1' PXY d   1       0.129  -4.046   0.120  0.00  0.00     0.077 C 
ATOM      3  C1  PXY d   1       0.091  -2.531   0.084  0.00  0.00    -0.082 A 
ATOM      4  C2  PXY d   1       0.856  -1.877  -0.775  0.00  0.00     0.003 A 
ATOM      5  C3  PXY d   1       0.857  -0.507  -0.800  0.00  0.00     0.003 A 
ATOM      6  C4  PXY d   1       0.027   0.202   0.027  0.00  0.00    -0.082 A 
ATOM      7  C5  PXY d   1      -0.765  -0.458   0.899  0.00  0.00     0.003 A 
ATOM      8  C6  PXY d   1      -0.721  -1.848   0.937  0.00  0.00     0.003 A 
ENDROOT
TORSDOF 0
ENDMDL
