MODEL 1
REMARK minimizedAffinity -3.23056245
REMARK minimizedRMSD -1
REMARK  0 active torsions:
REMARK  status: ('A' for Active; 'I' for Inactive)
ROOT
ATOM      1  C4' PXY d   1       0.326  -3.234   0.388  0.00  0.00     0.077 C 
ATOM      2  C1' PXY d   1      -0.170   2.490  -0.252  0.00  0.00     0.077 C 
ATOM      3  C1  PXY d   1      -0.037   0.988  -0.097  0.00  0.00    -0.082 A 
ATOM      4  C2  PXY d   1      -0.662   0.375   0.896  0.00  0.00     0.003 A 
ATOM      5  C3  PXY d   1      -0.527  -0.979   1.069  0.00  0.00     0.003 A 
ATOM      6  C4  PXY d   1       0.212  -1.720   0.187  0.00  0.00    -0.082 A 
ATOM      7  C5  PXY d   1       0.844  -1.103  -0.834  0.00  0.00     0.003 A 
ATOM      8  C6  PXY d   1       0.728   0.277  -0.969  0.00  0.00     0.003 A 
ENDROOT
TORSDOF 0
ENDMDL
