MODEL 1
REMARK minimizedAffinity -4.29370689
REMARK minimizedRMSD -1
REMARK  0 active torsions:
REMARK  status: ('A' for Active; 'I' for Inactive)
ROOT
ATOM      1  C4' PXY d   1       0.737   1.773  -1.126  0.00  0.00     0.077 C 
ATOM      2  C1' PXY d   1      -0.012  -3.695   0.595  0.00  0.00     0.077 C 
ATOM      3  C1  PXY d   1       0.195  -2.264   0.137  0.00  0.00    -0.082 A 
ATOM      4  C2  PXY d   1      -0.285  -1.269   0.865  0.00  0.00     0.003 A 
ATOM      5  C3  PXY d   1      -0.135   0.029   0.448  0.00  0.00     0.003 A 
ATOM      6  C4  PXY d   1       0.560   0.314  -0.697  0.00  0.00    -0.082 A 
ATOM      7  C5  PXY d   1       1.061  -0.696  -1.439  0.00  0.00     0.003 A 
ATOM      8  C6  PXY d   1       0.862  -2.009  -1.021  0.00  0.00     0.003 A 
ENDROOT
TORSDOF 0
ENDMDL
