MODEL 1
REMARK minimizedAffinity -5.92587566
REMARK minimizedRMSD -1
REMARK  0 active torsions:
REMARK  status: ('A' for Active; 'I' for Inactive)
ROOT
ATOM      1  C4' PXY d   1      -0.466  -3.780   0.179  0.00  0.00     0.077 C 
ATOM      2  C1' PXY d   1       0.543   1.911   0.081  0.00  0.00     0.077 C 
ATOM      3  C1  PXY d   1       0.279   0.419   0.120  0.00  0.00    -0.082 A 
ATOM      4  C2  PXY d   1       0.569  -0.324  -0.936  0.00  0.00     0.003 A 
ATOM      5  C3  PXY d   1       0.307  -1.670  -0.930  0.00  0.00     0.003 A 
ATOM      6  C4  PXY d   1      -0.207  -2.270   0.188  0.00  0.00    -0.082 A 
ATOM      7  C5  PXY d   1      -0.495  -1.521   1.273  0.00  0.00     0.003 A 
ATOM      8  C6  PXY d   1      -0.260  -0.150   1.232  0.00  0.00     0.003 A 
ENDROOT
TORSDOF 0
ENDMDL
