MODEL 1
REMARK minimizedAffinity 1.3193779
REMARK minimizedRMSD -1
REMARK  0 active torsions:
REMARK  status: ('A' for Active; 'I' for Inactive)
ROOT
ATOM      1  C4' PXY d   1       1.640  -1.816  -3.035  0.00  0.00     0.077 C 
ATOM      2  C1' PXY d   1      -1.033   0.616   1.477  0.00  0.00     0.077 C 
ATOM      3  C1  PXY d   1      -0.325  -0.030   0.302  0.00  0.00    -0.082 A 
ATOM      4  C2  PXY d   1      -0.204   0.637  -0.835  0.00  0.00     0.003 A 
ATOM      5  C3  PXY d   1       0.405   0.056  -1.918  0.00  0.00     0.003 A 
ATOM      6  C4  PXY d   1       0.942  -1.200  -1.820  0.00  0.00    -0.082 A 
ATOM      7  C5  PXY d   1       0.832  -1.882  -0.660  0.00  0.00     0.003 A 
ATOM      8  C6  PXY d   1       0.174  -1.290   0.415  0.00  0.00     0.003 A 
ENDROOT
TORSDOF 0
ENDMDL
