MODEL 1
REMARK minimizedAffinity -3.1727674
REMARK minimizedRMSD -1
REMARK  0 active torsions:
REMARK  status: ('A' for Active; 'I' for Inactive)
ROOT
ATOM      1  C4' PXY d   1      -0.024   2.179  -0.272  0.00  0.00     0.077 C 
ATOM      2  C1' PXY d   1      -0.238  -3.560   0.385  0.00  0.00     0.077 C 
ATOM      3  C1  PXY d   1      -0.174  -2.056   0.202  0.00  0.00    -0.082 A 
ATOM      4  C2  PXY d   1      -0.347  -1.262   1.246  0.00  0.00     0.003 A 
ATOM      5  C3  PXY d   1      -0.325   0.100   1.093  0.00  0.00     0.003 A 
ATOM      6  C4  PXY d   1      -0.071   0.655  -0.133  0.00  0.00    -0.082 A 
ATOM      7  C5  PXY d   1       0.117  -0.148  -1.201  0.00  0.00     0.003 A 
ATOM      8  C6  PXY d   1       0.050  -1.528  -1.032  0.00  0.00     0.003 A 
ENDROOT
TORSDOF 0
ENDMDL
