MODEL 1
REMARK minimizedAffinity -5.76643991
REMARK minimizedRMSD -1
REMARK  0 active torsions:
REMARK  status: ('A' for Active; 'I' for Inactive)
ROOT
ATOM      1  C4' PXY d   1      -0.063   1.468   0.124  0.00  0.00     0.077 C 
ATOM      2  C1' PXY d   1      -0.134  -4.041  -1.624  0.00  0.00     0.077 C 
ATOM      3  C1  PXY d   1      -0.124  -2.599  -1.156  0.00  0.00    -0.082 A 
ATOM      4  C2  PXY d   1       0.243  -1.643  -1.993  0.00  0.00     0.003 A 
ATOM      5  C3  PXY d   1       0.289  -0.337  -1.577  0.00  0.00     0.003 A 
ATOM      6  C4  PXY d   1      -0.097  -0.001  -0.307  0.00  0.00    -0.082 A 
ATOM      7  C5  PXY d   1      -0.484  -0.970   0.549  0.00  0.00     0.003 A 
ATOM      8  C6  PXY d   1      -0.483  -2.294   0.120  0.00  0.00     0.003 A 
ENDROOT
TORSDOF 0
ENDMDL
