MODEL 1
REMARK minimizedAffinity -3.07588077
REMARK minimizedRMSD -1
REMARK  0 active torsions:
REMARK  status: ('A' for Active; 'I' for Inactive)
ROOT
ATOM      1  C4' PXY d   1       0.007  -3.553   0.483  0.00  0.00     0.077 C 
ATOM      2  C1' PXY d   1      -0.280   2.042  -0.944  0.00  0.00     0.077 C 
ATOM      3  C1  PXY d   1      -0.207   0.577  -0.557  0.00  0.00    -0.082 A 
ATOM      4  C2  PXY d   1       0.521  -0.256  -1.283  0.00  0.00     0.003 A 
ATOM      5  C3  PXY d   1       0.572  -1.589  -0.966  0.00  0.00     0.003 A 
ATOM      6  C4  PXY d   1      -0.087  -2.065   0.135  0.00  0.00    -0.082 A 
ATOM      7  C5  PXY d   1      -0.824  -1.219   0.887  0.00  0.00     0.003 A 
ATOM      8  C6  PXY d   1      -0.896   0.123   0.525  0.00  0.00     0.003 A 
ENDROOT
TORSDOF 0
ENDMDL
