MODEL 1
REMARK minimizedAffinity -5.24579239
REMARK minimizedRMSD -1
REMARK  0 active torsions:
REMARK  status: ('A' for Active; 'I' for Inactive)
ROOT
ATOM      1  C4' PXY d   1      -0.393   2.256  -0.104  0.00  0.00     0.077 C 
ATOM      2  C1' PXY d   1       0.010  -3.509  -0.000  0.00  0.00     0.077 C 
ATOM      3  C1  PXY d   1      -0.085  -1.997  -0.035  0.00  0.00    -0.082 A 
ATOM      4  C2  PXY d   1      -0.701  -1.357   0.946  0.00  0.00     0.003 A 
ATOM      5  C3  PXY d   1      -0.824   0.008   0.914  0.00  0.00     0.003 A 
ATOM      6  C4  PXY d   1      -0.264   0.731  -0.105  0.00  0.00    -0.082 A 
ATOM      7  C5  PXY d   1       0.375   0.086  -1.104  0.00  0.00     0.003 A 
ATOM      8  C6  PXY d   1       0.453  -1.303  -1.075  0.00  0.00     0.003 A 
ENDROOT
TORSDOF 0
ENDMDL
