MODEL 1
REMARK minimizedAffinity -4.02528095
REMARK minimizedRMSD -1
REMARK  0 active torsions:
REMARK  status: ('A' for Active; 'I' for Inactive)
ROOT
ATOM      1  C4' PXY d   1       0.108  -2.537  -2.817  0.00  0.00     0.077 C 
ATOM      2  C1' PXY d   1      -1.101  -0.665   2.517  0.00  0.00     0.077 C 
ATOM      3  C1  PXY d   1      -0.781  -1.168   1.123  0.00  0.00    -0.082 A 
ATOM      4  C2  PXY d   1      -0.415  -0.308   0.185  0.00  0.00     0.003 A 
ATOM      5  C3  PXY d   1      -0.153  -0.742  -1.089  0.00  0.00     0.003 A 
ATOM      6  C4  PXY d   1      -0.215  -2.075  -1.394  0.00  0.00    -0.082 A 
ATOM      7  C5  PXY d   1      -0.577  -2.959  -0.440  0.00  0.00     0.003 A 
ATOM      8  C6  PXY d   1      -0.879  -2.494   0.837  0.00  0.00     0.003 A 
ENDROOT
TORSDOF 0
ENDMDL
