MODEL 1
REMARK minimizedAffinity -4.62532377
REMARK minimizedRMSD -1
REMARK  0 active torsions:
REMARK  status: ('A' for Active; 'I' for Inactive)
ROOT
ATOM      1  C4' PXY d   1      -0.183   1.997   0.021  0.00  0.00     0.077 C 
ATOM      2  C1' PXY d   1       0.304  -3.755   0.329  0.00  0.00     0.077 C 
ATOM      3  C1  PXY d   1       0.187  -2.246   0.241  0.00  0.00    -0.082 A 
ATOM      4  C2  PXY d   1      -0.456  -1.583   1.188  0.00  0.00     0.003 A 
ATOM      5  C3  PXY d   1      -0.598  -0.222   1.108  0.00  0.00     0.003 A 
ATOM      6  C4  PXY d   1      -0.032   0.474   0.074  0.00  0.00    -0.082 A 
ATOM      7  C5  PXY d   1       0.635  -0.194  -0.891  0.00  0.00     0.003 A 
ATOM      8  C6  PXY d   1       0.733  -1.580  -0.813  0.00  0.00     0.003 A 
ENDROOT
TORSDOF 0
ENDMDL
