MODEL 1
REMARK minimizedAffinity -4.42080927
REMARK minimizedRMSD -1
REMARK  0 active torsions:
REMARK  status: ('A' for Active; 'I' for Inactive)
ROOT
ATOM      1  C4' PXY d   1       1.629   2.642   0.542  0.00  0.00     0.077 C 
ATOM      2  C1' PXY d   1      -1.073  -2.451   0.123  0.00  0.00     0.077 C 
ATOM      3  C1  PXY d   1      -0.358  -1.120   0.244  0.00  0.00    -0.082 A 
ATOM      4  C2  PXY d   1      -0.901  -0.035  -0.286  0.00  0.00     0.003 A 
ATOM      5  C3  PXY d   1      -0.253   1.171  -0.214  0.00  0.00     0.003 A 
ATOM      6  C4  PXY d   1       0.938   1.278   0.453  0.00  0.00    -0.082 A 
ATOM      7  C5  PXY d   1       1.493   0.179   1.005  0.00  0.00     0.003 A 
ATOM      8  C6  PXY d   1       0.839  -1.044   0.885  0.00  0.00     0.003 A 
ENDROOT
TORSDOF 0
ENDMDL
