MODEL 1
REMARK minimizedAffinity -4.80020952
REMARK minimizedRMSD -1
REMARK  0 active torsions:
REMARK  status: ('A' for Active; 'I' for Inactive)
ROOT
ATOM      1  C4' PXY d   1       1.133   2.869   0.613  0.00  0.00     0.077 C 
ATOM      2  C1' PXY d   1      -0.842  -2.563   0.590  0.00  0.00     0.077 C 
ATOM      3  C1  PXY d   1      -0.313  -1.143   0.591  0.00  0.00    -0.082 A 
ATOM      4  C2  PXY d   1      -0.808  -0.261   1.444  0.00  0.00     0.003 A 
ATOM      5  C3  PXY d   1      -0.363   1.037   1.437  0.00  0.00     0.003 A 
ATOM      6  C4  PXY d   1       0.636   1.422   0.583  0.00  0.00    -0.082 A 
ATOM      7  C5  PXY d   1       1.154   0.525  -0.283  0.00  0.00     0.003 A 
ATOM      8  C6  PXY d   1       0.660  -0.776  -0.288  0.00  0.00     0.003 A 
ENDROOT
TORSDOF 0
ENDMDL
