MODEL 1
REMARK minimizedAffinity -3.28088284
REMARK minimizedRMSD -1
REMARK  0 active torsions:
REMARK  status: ('A' for Active; 'I' for Inactive)
ROOT
ATOM      1  C4' PXY d   1      -0.035   2.268  -0.376  0.00  0.00     0.077 C 
ATOM      2  C1' PXY d   1      -0.165  -3.413   0.684  0.00  0.00     0.077 C 
ATOM      3  C1  PXY d   1      -0.122  -1.925   0.397  0.00  0.00    -0.082 A 
ATOM      4  C2  PXY d   1      -0.521  -1.068   1.323  0.00  0.00     0.003 A 
ATOM      5  C3  PXY d   1      -0.519   0.279   1.068  0.00  0.00     0.003 A 
ATOM      6  C4  PXY d   1      -0.053   0.758  -0.127  0.00  0.00    -0.082 A 
ATOM      7  C5  PXY d   1       0.367  -0.109  -1.072  0.00  0.00     0.003 A 
ATOM      8  C6  PXY d   1       0.318  -1.475  -0.810  0.00  0.00     0.003 A 
ENDROOT
TORSDOF 0
ENDMDL
