MODEL 1
REMARK minimizedAffinity -3.0975709
REMARK minimizedRMSD -1
REMARK  0 active torsions:
REMARK  status: ('A' for Active; 'I' for Inactive)
ROOT
ATOM      1  C4' PXY d   1       1.506   3.163   0.006  0.00  0.00     0.077 C 
ATOM      2  C1' PXY d   1      -1.179  -1.950   0.277  0.00  0.00     0.077 C 
ATOM      3  C1  PXY d   1      -0.481  -0.607   0.195  0.00  0.00    -0.082 A 
ATOM      4  C2  PXY d   1       0.654  -0.418   0.849  0.00  0.00     0.003 A 
ATOM      5  C3  PXY d   1       1.282   0.801   0.811  0.00  0.00     0.003 A 
ATOM      6  C4  PXY d   1       0.771   1.820   0.053  0.00  0.00    -0.082 A 
ATOM      7  C5  PXY d   1      -0.380   1.632  -0.626  0.00  0.00     0.003 A 
ATOM      8  C6  PXY d   1      -1.024   0.401  -0.541  0.00  0.00     0.003 A 
ENDROOT
TORSDOF 0
ENDMDL
