MODEL 1
REMARK minimizedAffinity -1.46764183
REMARK minimizedRMSD -1
REMARK  0 active torsions:
REMARK  status: ('A' for Active; 'I' for Inactive)
ROOT
ATOM      1  C2' OXE d   1       1.827   0.285  -2.049  0.00  0.00     0.078 C 
ATOM      2  C1' OXE d   1       1.579   2.288  -0.097  0.00  0.00     0.078 C 
ATOM      3  C1  OXE d   1       0.966   0.941   0.195  0.00  0.00    -0.078 A 
ATOM      4  C2  OXE d   1       1.052  -0.018  -0.785  0.00  0.00    -0.078 A 
ATOM      5  C3  OXE d   1       0.551  -1.295  -0.546  0.00  0.00     0.003 A 
ATOM      6  C4  OXE d   1      -0.174  -1.564   0.622  0.00  0.00    -0.002 A 
ATOM      7  C5  OXE d   1      -0.307  -0.589   1.616  0.00  0.00    -0.002 A 
ATOM      8  C6  OXE d   1       0.292   0.653   1.437  0.00  0.00     0.003 A 
ENDROOT
TORSDOF 0
ENDMDL
