MODEL 1
REMARK minimizedAffinity -4.13614559
REMARK minimizedRMSD -1
REMARK  0 active torsions:
REMARK  status: ('A' for Active; 'I' for Inactive)
ROOT
ATOM      1  C2' OXE d   1       1.716  -0.037  -2.604  0.00  0.00     0.078 C 
ATOM      2  C1' OXE d   1       1.076   1.786  -0.568  0.00  0.00     0.078 C 
ATOM      3  C1  OXE d   1       0.851   0.319  -0.296  0.00  0.00    -0.078 A 
ATOM      4  C2  OXE d   1       1.123  -0.562  -1.315  0.00  0.00    -0.078 A 
ATOM      5  C3  OXE d   1       0.984  -1.930  -1.098  0.00  0.00     0.003 A 
ATOM      6  C4  OXE d   1       0.425  -2.406   0.094  0.00  0.00    -0.002 A 
ATOM      7  C5  OXE d   1       0.104  -1.522   1.130  0.00  0.00    -0.002 A 
ATOM      8  C6  OXE d   1       0.350  -0.163   0.968  0.00  0.00     0.003 A 
ENDROOT
TORSDOF 0
ENDMDL
