MODEL 1
REMARK minimizedAffinity 1.71009064
REMARK minimizedRMSD -1
REMARK  0 active torsions:
REMARK  status: ('A' for Active; 'I' for Inactive)
ROOT
ATOM      1  C2' OXE d   1      -3.020   0.358  -5.991  0.00  0.00     0.078 C 
ATOM      2  C1' OXE d   1      -1.479   2.701  -5.851  0.00  0.00     0.078 C 
ATOM      3  C1  OXE d   1      -2.980   2.847  -5.883  0.00  0.00    -0.078 A 
ATOM      4  C2  OXE d   1      -3.725   1.698  -5.999  0.00  0.00    -0.078 A 
ATOM      5  C3  OXE d   1      -5.114   1.772  -5.978  0.00  0.00     0.003 A 
ATOM      6  C4  OXE d   1      -5.758   3.015  -5.995  0.00  0.00    -0.002 A 
ATOM      7  C5  OXE d   1      -5.017   4.199  -5.918  0.00  0.00    -0.002 A 
ATOM      8  C6  OXE d   1      -3.632   4.131  -5.819  0.00  0.00     0.003 A 
ENDROOT
TORSDOF 0
ENDMDL
