MODEL 1
REMARK minimizedAffinity -2.41761184
REMARK minimizedRMSD -1
REMARK  0 active torsions:
REMARK  status: ('A' for Active; 'I' for Inactive)
ROOT
ATOM      1  C2' OXE d   1      -5.934   5.130  -5.922  0.00  0.00     0.078 C 
ATOM      2  C1' OXE d   1      -3.144   5.443  -5.903  0.00  0.00     0.078 C 
ATOM      3  C1  OXE d   1      -3.694   4.040  -5.944  0.00  0.00    -0.078 A 
ATOM      4  C2  OXE d   1      -5.060   3.894  -5.906  0.00  0.00    -0.078 A 
ATOM      5  C3  OXE d   1      -5.621   2.624  -5.996  0.00  0.00     0.003 A 
ATOM      6  C4  OXE d   1      -4.806   1.486  -5.970  0.00  0.00    -0.002 A 
ATOM      7  C5  OXE d   1      -3.413   1.610  -5.969  0.00  0.00    -0.002 A 
ATOM      8  C6  OXE d   1      -2.842   2.878  -5.999  0.00  0.00     0.003 A 
ENDROOT
TORSDOF 0
ENDMDL
