MODEL 1
REMARK minimizedAffinity -0.281112909
REMARK minimizedRMSD -1
REMARK  0 active torsions:
REMARK  status: ('A' for Active; 'I' for Inactive)
ROOT
ATOM      1  C2' OXE d   1      -2.322   1.030  -5.956  0.00  0.00     0.078 C 
ATOM      2  C1' OXE d   1      -5.033   1.757  -5.992  0.00  0.00     0.078 C 
ATOM      3  C1  OXE d   1      -4.699   0.286  -5.970  0.00  0.00    -0.078 A 
ATOM      4  C2  OXE d   1      -3.370  -0.061  -6.000  0.00  0.00    -0.078 A 
ATOM      5  C3  OXE d   1      -3.005  -1.402  -5.926  0.00  0.00     0.003 A 
ATOM      6  C4  OXE d   1      -3.981  -2.405  -5.977  0.00  0.00    -0.002 A 
ATOM      7  C5  OXE d   1      -5.340  -2.074  -5.987  0.00  0.00    -0.002 A 
ATOM      8  C6  OXE d   1      -5.716  -0.736  -5.941  0.00  0.00     0.003 A 
ENDROOT
TORSDOF 0
ENDMDL
