MODEL 1
REMARK minimizedAffinity -2.39729309
REMARK minimizedRMSD -1
REMARK  0 active torsions:
REMARK  status: ('A' for Active; 'I' for Inactive)
ROOT
ATOM      1  C2' OXE d   1      -5.097   0.049  -5.958  0.00  0.00     0.078 C 
ATOM      2  C1' OXE d   1      -2.372  -0.626  -5.937  0.00  0.00     0.078 C 
ATOM      3  C1  OXE d   1      -3.375  -1.752  -5.961  0.00  0.00    -0.078 A 
ATOM      4  C2  OXE d   1      -4.707  -1.413  -5.924  0.00  0.00    -0.078 A 
ATOM      5  C3  OXE d   1      -5.674  -2.411  -6.000  0.00  0.00     0.003 A 
ATOM      6  C4  OXE d   1      -5.305  -3.761  -5.958  0.00  0.00    -0.002 A 
ATOM      7  C5  OXE d   1      -3.955  -4.128  -5.955  0.00  0.00    -0.002 A 
ATOM      8  C6  OXE d   1      -2.980  -3.138  -5.999  0.00  0.00     0.003 A 
ENDROOT
TORSDOF 0
ENDMDL
