MODEL 1
REMARK minimizedAffinity 5.39605379
REMARK minimizedRMSD -1
REMARK  0 active torsions:
REMARK  status: ('A' for Active; 'I' for Inactive)
ROOT
ATOM      1  C2' OXE d   1      -5.625   2.994  -6.000  0.00  0.00     0.078 C 
ATOM      2  C1' OXE d   1      -2.948   3.836  -5.976  0.00  0.00     0.078 C 
ATOM      3  C1  OXE d   1      -3.218   2.352  -5.979  0.00  0.00    -0.078 A 
ATOM      4  C2  OXE d   1      -4.532   1.949  -5.943  0.00  0.00    -0.078 A 
ATOM      5  C3  OXE d   1      -4.838   0.593  -6.000  0.00  0.00     0.003 A 
ATOM      6  C4  OXE d   1      -3.821  -0.367  -5.937  0.00  0.00    -0.002 A 
ATOM      7  C5  OXE d   1      -2.477   0.022  -5.933  0.00  0.00    -0.002 A 
ATOM      8  C6  OXE d   1      -2.159   1.374  -5.996  0.00  0.00     0.003 A 
ENDROOT
TORSDOF 0
ENDMDL
