MODEL 1
REMARK minimizedAffinity 2.93434024
REMARK minimizedRMSD -1
REMARK  0 active torsions:
REMARK  status: ('A' for Active; 'I' for Inactive)
ROOT
ATOM      1  C2' OXE d   1      -2.796  -0.654  -5.951  0.00  0.00     0.078 C 
ATOM      2  C1' OXE d   1      -5.602  -0.601  -5.998  0.00  0.00     0.078 C 
ATOM      3  C1  OXE d   1      -4.925  -1.948  -5.973  0.00  0.00    -0.078 A 
ATOM      4  C2  OXE d   1      -3.551  -1.965  -5.998  0.00  0.00    -0.078 A 
ATOM      5  C3  OXE d   1      -2.875  -3.180  -5.921  0.00  0.00     0.003 A 
ATOM      6  C4  OXE d   1      -3.580  -4.388  -5.975  0.00  0.00    -0.002 A 
ATOM      7  C5  OXE d   1      -4.979  -4.393  -5.990  0.00  0.00    -0.002 A 
ATOM      8  C6  OXE d   1      -5.666  -3.185  -5.947  0.00  0.00     0.003 A 
ENDROOT
TORSDOF 0
ENDMDL
