MODEL 1
REMARK minimizedAffinity -1.74857306
REMARK minimizedRMSD -1
REMARK  0 active torsions:
REMARK  status: ('A' for Active; 'I' for Inactive)
ROOT
ATOM      1  C2' OXE d   1       1.928   1.693  -1.302  0.00  0.00     0.078 C 
ATOM      2  C1' OXE d   1       1.543   0.110  -3.588  0.00  0.00     0.078 C 
ATOM      3  C1  OXE d   1       0.916  -0.354  -2.298  0.00  0.00    -0.078 A 
ATOM      4  C2  OXE d   1       1.148   0.402  -1.174  0.00  0.00    -0.078 A 
ATOM      5  C3  OXE d   1       0.548   0.049   0.031  0.00  0.00     0.003 A 
ATOM      6  C4  OXE d   1      -0.164  -1.152   0.143  0.00  0.00    -0.002 A 
ATOM      7  C5  OXE d   1      -0.379  -1.957  -0.980  0.00  0.00    -0.002 A 
ATOM      8  C6  OXE d   1       0.117  -1.552  -2.214  0.00  0.00     0.003 A 
ENDROOT
TORSDOF 0
ENDMDL
