MODEL 1
REMARK minimizedAffinity 2.11390424
REMARK minimizedRMSD -1
REMARK  0 active torsions:
REMARK  status: ('A' for Active; 'I' for Inactive)
ROOT
ATOM      1  C2' OXE d   1       0.665   0.346   1.105  0.00  0.00     0.078 C 
ATOM      2  C1' OXE d   1      -0.378   2.137  -0.789  0.00  0.00     0.078 C 
ATOM      3  C1  OXE d   1       0.138   0.809  -1.285  0.00  0.00    -0.078 A 
ATOM      4  C2  OXE d   1       0.689  -0.042  -0.357  0.00  0.00    -0.078 A 
ATOM      5  C3  OXE d   1       1.129  -1.302  -0.753  0.00  0.00     0.003 A 
ATOM      6  C4  OXE d   1       1.157  -1.649  -2.109  0.00  0.00    -0.002 A 
ATOM      7  C5  OXE d   1       0.637  -0.781  -3.075  0.00  0.00    -0.002 A 
ATOM      8  C6  OXE d   1       0.086   0.431  -2.676  0.00  0.00     0.003 A 
ENDROOT
TORSDOF 0
ENDMDL
