MODEL 1
REMARK minimizedAffinity 6.64996004
REMARK minimizedRMSD -1
REMARK  0 active torsions:
REMARK  status: ('A' for Active; 'I' for Inactive)
ROOT
ATOM      1  C2' OXE d   1      -4.877   1.616  -5.995  0.00  0.00     0.078 C 
ATOM      2  C1' OXE d   1      -2.366   2.863  -5.855  0.00  0.00     0.078 C 
ATOM      3  C1  OXE d   1      -3.588   3.745  -5.884  0.00  0.00    -0.078 A 
ATOM      4  C2  OXE d   1      -4.811   3.128  -6.000  0.00  0.00    -0.078 A 
ATOM      5  C3  OXE d   1      -5.974   3.893  -5.976  0.00  0.00     0.003 A 
ATOM      6  C4  OXE d   1      -5.903   5.291  -5.990  0.00  0.00    -0.002 A 
ATOM      7  C5  OXE d   1      -4.666   5.940  -5.912  0.00  0.00    -0.002 A 
ATOM      8  C6  OXE d   1      -3.504   5.183  -5.816  0.00  0.00     0.003 A 
ENDROOT
TORSDOF 0
ENDMDL
