MODEL 1
REMARK minimizedAffinity 6.58272982
REMARK minimizedRMSD -1
REMARK  0 active torsions:
REMARK  status: ('A' for Active; 'I' for Inactive)
ROOT
ATOM      1  C2' OXE d   1      -3.602   3.451  -3.237  0.00  0.00     0.078 C 
ATOM      2  C1' OXE d   1      -3.250   3.102  -6.000  0.00  0.00     0.078 C 
ATOM      3  C1  OXE d   1      -2.379   4.116  -5.303  0.00  0.00    -0.078 A 
ATOM      4  C2  OXE d   1      -2.590   4.314  -3.959  0.00  0.00    -0.078 A 
ATOM      5  C3  OXE d   1      -1.776   5.198  -3.257  0.00  0.00     0.003 A 
ATOM      6  C4  OXE d   1      -0.850   6.000  -3.935  0.00  0.00    -0.002 A 
ATOM      7  C5  OXE d   1      -0.647   5.843  -5.310  0.00  0.00    -0.002 A 
ATOM      8  C6  OXE d   1      -1.372   4.877  -6.000  0.00  0.00     0.003 A 
ENDROOT
TORSDOF 0
ENDMDL
