MODEL 1
REMARK minimizedAffinity 15.9464712
REMARK minimizedRMSD -1
REMARK  0 active torsions:
REMARK  status: ('A' for Active; 'I' for Inactive)
ROOT
ATOM      1  C2' OXE d   1       0.842  -5.010  -3.199  0.00  0.00     0.078 C 
ATOM      2  C1' OXE d   1       2.550  -4.939  -0.973  0.00  0.00     0.078 C 
ATOM      3  C1  OXE d   1       1.555  -3.817  -1.132  0.00  0.00    -0.078 A 
ATOM      4  C2  OXE d   1       0.755  -3.836  -2.249  0.00  0.00    -0.078 A 
ATOM      5  C3  OXE d   1      -0.218  -2.854  -2.416  0.00  0.00     0.003 A 
ATOM      6  C4  OXE d   1      -0.285  -1.766  -1.538  0.00  0.00    -0.002 A 
ATOM      7  C5  OXE d   1       0.547  -1.707  -0.415  0.00  0.00    -0.002 A 
ATOM      8  C6  OXE d   1       1.441  -2.744  -0.175  0.00  0.00     0.003 A 
ENDROOT
TORSDOF 0
ENDMDL
