MODEL 1
REMARK minimizedAffinity 5.7772789
REMARK minimizedRMSD -1
REMARK  0 active torsions:
REMARK  status: ('A' for Active; 'I' for Inactive)
ROOT
ATOM      1  C2' OXE d   1      -5.097  -0.318   2.735  0.00  0.00     0.078 C 
ATOM      2  C1' OXE d   1      -4.231   1.928   1.291  0.00  0.00     0.078 C 
ATOM      3  C1  OXE d   1      -3.654   1.711   2.668  0.00  0.00    -0.078 A 
ATOM      4  C2  OXE d   1      -4.119   0.635   3.386  0.00  0.00    -0.078 A 
ATOM      5  C3  OXE d   1      -3.580   0.359   4.639  0.00  0.00     0.003 A 
ATOM      6  C4  OXE d   1      -2.683   1.251   5.238  0.00  0.00    -0.002 A 
ATOM      7  C5  OXE d   1      -2.227   2.375   4.540  0.00  0.00    -0.002 A 
ATOM      8  C6  OXE d   1      -2.669   2.596   3.240  0.00  0.00     0.003 A 
ENDROOT
TORSDOF 0
ENDMDL
