MODEL 1
REMARK minimizedAffinity 6.66246176
REMARK minimizedRMSD -1
REMARK  0 active torsions:
REMARK  status: ('A' for Active; 'I' for Inactive)
ROOT
ATOM      1  C2' OXE d   1       1.305   5.999  -0.408  0.00  0.00     0.078 C 
ATOM      2  C1' OXE d   1       1.827   5.220   2.238  0.00  0.00     0.078 C 
ATOM      3  C1  OXE d   1       1.540   4.136   1.229  0.00  0.00    -0.078 A 
ATOM      4  C2  OXE d   1       1.240   4.529  -0.053  0.00  0.00    -0.078 A 
ATOM      5  C3  OXE d   1       1.021   3.567  -1.036  0.00  0.00     0.003 A 
ATOM      6  C4  OXE d   1       0.952   2.210  -0.697  0.00  0.00    -0.002 A 
ATOM      7  C5  OXE d   1       1.216   1.791   0.612  0.00  0.00    -0.002 A 
ATOM      8  C6  OXE d   1       1.552   2.736   1.575  0.00  0.00     0.003 A 
ENDROOT
TORSDOF 0
ENDMDL
