MODEL 1
REMARK minimizedAffinity 20.1998348
REMARK minimizedRMSD -1
REMARK  0 active torsions:
REMARK  status: ('A' for Active; 'I' for Inactive)
ROOT
ATOM      1  C2' OXE d   1      -3.164   1.479   5.161  0.00  0.00     0.078 C 
ATOM      2  C1' OXE d   1      -4.675   0.595   2.967  0.00  0.00     0.078 C 
ATOM      3  C1  OXE d   1      -3.816   1.821   2.781  0.00  0.00    -0.078 A 
ATOM      4  C2  OXE d   1      -3.116   2.274   3.874  0.00  0.00    -0.078 A 
ATOM      5  C3  OXE d   1      -2.266   3.368   3.743  0.00  0.00     0.003 A 
ATOM      6  C4  OXE d   1      -2.235   4.103   2.552  0.00  0.00    -0.002 A 
ATOM      7  C5  OXE d   1      -2.970   3.682   1.439  0.00  0.00    -0.002 A 
ATOM      8  C6  OXE d   1      -3.731   2.521   1.524  0.00  0.00     0.003 A 
ENDROOT
TORSDOF 0
ENDMDL
