MODEL 1
REMARK minimizedAffinity 11.1100712
REMARK minimizedRMSD -1
REMARK  0 active torsions:
REMARK  status: ('A' for Active; 'I' for Inactive)
ROOT
ATOM      1  C2' OXE d   1      -2.933   1.365   5.167  0.00  0.00     0.078 C 
ATOM      2  C1' OXE d   1      -4.999   0.617   3.421  0.00  0.00     0.078 C 
ATOM      3  C1  OXE d   1      -4.135   1.789   3.027  0.00  0.00    -0.078 A 
ATOM      4  C2  OXE d   1      -3.156   2.178   3.910  0.00  0.00    -0.078 A 
ATOM      5  C3  OXE d   1      -2.296   3.218   3.571  0.00  0.00     0.003 A 
ATOM      6  C4  OXE d   1      -2.516   3.971   2.411  0.00  0.00    -0.002 A 
ATOM      7  C5  OXE d   1      -3.533   3.617   1.518  0.00  0.00    -0.002 A 
ATOM      8  C6  OXE d   1      -4.323   2.505   1.789  0.00  0.00     0.003 A 
ENDROOT
TORSDOF 0
ENDMDL
