MODEL 1
REMARK minimizedAffinity -1.28172219
REMARK minimizedRMSD -1
REMARK  0 active torsions:
REMARK  status: ('A' for Active; 'I' for Inactive)
ROOT
ATOM      1  C2' OXE d   1      -0.681  -1.184   0.018  0.00  0.00     0.078 C 
ATOM      2  C1' OXE d   1       0.028  -0.093   2.505  0.00  0.00     0.078 C 
ATOM      3  C1  OXE d   1       0.603   0.548   1.267  0.00  0.00    -0.078 A 
ATOM      4  C2  OXE d   1       0.287  -0.021   0.056  0.00  0.00    -0.078 A 
ATOM      5  C3  OXE d   1       0.746   0.563  -1.121  0.00  0.00     0.003 A 
ATOM      6  C4  OXE d   1       1.650   1.632  -1.076  0.00  0.00    -0.002 A 
ATOM      7  C5  OXE d   1       2.015   2.202   0.148  0.00  0.00    -0.002 A 
ATOM      8  C6  OXE d   1       1.468   1.700   1.324  0.00  0.00     0.003 A 
ENDROOT
TORSDOF 0
ENDMDL
