MODEL 1
REMARK minimizedAffinity 10.3102875
REMARK minimizedRMSD -1
REMARK  1 active torsions:
REMARK  status: ('A' for Active; 'I' for Inactive)
REMARK    1  A    between atoms: C1_2  and  C2_3 
ROOT
ATOM      1  C2  UNL d   1      -0.589   3.770   0.125  0.00  0.00    -0.076 A 
ATOM      2  C3  UNL d   1       0.115   2.982  -0.802  0.00  0.00     0.004 A 
ATOM      3  C4  UNL d   1       0.273   3.397  -2.123  0.00  0.00    -0.003 A 
ATOM      4  C5  UNL d   1      -0.270   4.608  -2.539  0.00  0.00     0.000 A 
ATOM      5  C6  UNL d   1      -0.957   5.410  -1.628  0.00  0.00     0.000 A 
ATOM      6  C7  UNL d   1      -1.111   5.014  -0.288  0.00  0.00    -0.073 A 
ATOM      7  C8  UNL d   1      -1.866   5.916   0.649  0.00  0.00     0.078 C 
ENDROOT
BRANCH   1   8
ATOM      8  C1  UNL d   1      -0.751   3.255   1.537  0.00  0.00     0.053 C 
ATOM      9  C   UNL d   1       0.188   2.099   1.848  0.00  0.00     0.018 C 
ENDBRANCH   1   8
TORSDOF 1
ENDMDL
