MODEL 1
REMARK minimizedAffinity 8.08869839
REMARK minimizedRMSD -1
REMARK  1 active torsions:
REMARK  status: ('A' for Active; 'I' for Inactive)
REMARK    1  A    between atoms: C1_2  and  C2_3 
ROOT
ATOM      1  C2  UNL d   1      -0.690   4.530  -1.120  0.00  0.00    -0.076 A 
ATOM      2  C3  UNL d   1       0.626   4.616  -1.606  0.00  0.00     0.004 A 
ATOM      3  C4  UNL d   1       0.905   5.256  -2.812  0.00  0.00    -0.003 A 
ATOM      4  C5  UNL d   1      -0.128   5.821  -3.552  0.00  0.00     0.000 A 
ATOM      5  C6  UNL d   1      -1.437   5.761  -3.076  0.00  0.00     0.000 A 
ATOM      6  C7  UNL d   1      -1.733   5.134  -1.854  0.00  0.00    -0.073 A 
ATOM      7  C8  UNL d   1      -3.164   5.093  -1.391  0.00  0.00     0.078 C 
ENDROOT
BRANCH   1   8
ATOM      8  C1  UNL d   1      -0.935   3.800   0.181  0.00  0.00     0.053 C 
ATOM      9  C   UNL d   1      -0.290   2.423   0.207  0.00  0.00     0.018 C 
ENDBRANCH   1   8
TORSDOF 1
ENDMDL
