MODEL 1
REMARK minimizedAffinity 5.63598919
REMARK minimizedRMSD -1
REMARK  1 active torsions:
REMARK  status: ('A' for Active; 'I' for Inactive)
REMARK    1  A    between atoms: C1_2  and  C2_3 
ROOT
ATOM      1  C2  UNL d   1       0.547   4.325  -0.242  0.00  0.00    -0.076 A 
ATOM      2  C3  UNL d   1      -0.284   3.470   0.502  0.00  0.00     0.004 A 
ATOM      3  C4  UNL d   1       0.154   2.907   1.699  0.00  0.00    -0.003 A 
ATOM      4  C5  UNL d   1       1.430   3.190   2.172  0.00  0.00     0.000 A 
ATOM      5  C6  UNL d   1       2.262   4.050   1.456  0.00  0.00     0.000 A 
ATOM      6  C7  UNL d   1       1.830   4.639   0.256  0.00  0.00    -0.073 A 
ATOM      7  C8  UNL d   1       2.771   5.555  -0.479  0.00  0.00     0.078 C 
ENDROOT
BRANCH   1   8
ATOM      8  C1  UNL d   1       0.028   4.886  -1.547  0.00  0.00     0.053 C 
ATOM      9  C   UNL d   1      -1.269   5.661  -1.373  0.00  0.00     0.018 C 
ENDBRANCH   1   8
TORSDOF 1
ENDMDL
