MODEL 1
REMARK minimizedAffinity 12.256464
REMARK minimizedRMSD -1
REMARK  1 active torsions:
REMARK  status: ('A' for Active; 'I' for Inactive)
REMARK    1  A    between atoms: C1_2  and  C2_3 
ROOT
ATOM      1  C2  UNL d   1      -5.976   1.866  -4.238  0.00  0.00    -0.076 A 
ATOM      2  C3  UNL d   1      -5.950   3.209  -4.651  0.00  0.00     0.004 A 
ATOM      3  C4  UNL d   1      -5.957   4.247  -3.719  0.00  0.00    -0.003 A 
ATOM      4  C5  UNL d   1      -5.990   3.957  -2.360  0.00  0.00     0.000 A 
ATOM      5  C6  UNL d   1      -5.999   2.630  -1.932  0.00  0.00     0.000 A 
ATOM      6  C7  UNL d   1      -5.975   1.572  -2.857  0.00  0.00    -0.073 A 
ATOM      7  C8  UNL d   1      -5.992   0.160  -2.340  0.00  0.00     0.078 C 
ENDROOT
BRANCH   1   8
ATOM      8  C1  UNL d   1      -5.994   0.784  -5.294  0.00  0.00     0.053 C 
ATOM      9  C   UNL d   1      -4.599   0.414  -5.772  0.00  0.00     0.018 C 
ENDBRANCH   1   8
TORSDOF 1
ENDMDL
