MODEL 1
REMARK minimizedAffinity -2.84977055
REMARK minimizedRMSD -1
REMARK  0 active torsions:
REMARK  status: ('A' for Active; 'I' for Inactive)
ROOT
ATOM      1  C   UNL d   1       1.443  -1.132   3.023  0.00  0.00     0.172 C 
ATOM      2  N   UNL d   1       0.176  -0.918   2.363  0.00  0.00    -0.070 N 
ATOM      3  C1  UNL d   1      -1.021  -1.471   2.733  0.00  0.00    -0.004 A 
ATOM      4  C2  UNL d   1      -1.983  -1.021   1.856  0.00  0.00    -0.047 A 
ATOM      5  C3  UNL d   1      -1.343  -0.168   0.926  0.00  0.00    -0.047 A 
ATOM      6  C4  UNL d   1      -0.007  -0.122   1.263  0.00  0.00    -0.004 A 
ENDROOT
TORSDOF 0
ENDMDL
