MODEL 1
REMARK minimizedAffinity -3.52957273
REMARK minimizedRMSD -1
REMARK  0 active torsions:
REMARK  status: ('A' for Active; 'I' for Inactive)
ROOT
ATOM      1  C   UNL d   1      -0.211   0.188  -0.746  0.00  0.00     0.172 C 
ATOM      2  N   UNL d   1       0.392  -0.124   0.528  0.00  0.00    -0.070 N 
ATOM      3  C1  UNL d   1       1.736  -0.171   0.786  0.00  0.00    -0.004 A 
ATOM      4  C2  UNL d   1       1.901  -0.501   2.114  0.00  0.00    -0.047 A 
ATOM      5  C3  UNL d   1       0.610  -0.658   2.674  0.00  0.00    -0.047 A 
ATOM      6  C4  UNL d   1      -0.305  -0.419   1.670  0.00  0.00    -0.004 A 
ENDROOT
TORSDOF 0
ENDMDL
