MODEL 1
REMARK minimizedAffinity -3.89562416
REMARK minimizedRMSD -1
REMARK  0 active torsions:
REMARK  status: ('A' for Active; 'I' for Inactive)
ROOT
ATOM      1  C   UNL d   1       0.092  -0.052  -0.699  0.00  0.00     0.172 C 
ATOM      2  N   UNL d   1       0.983  -0.756   0.193  0.00  0.00    -0.070 N 
ATOM      3  C1  UNL d   1       0.869  -0.808   1.557  0.00  0.00    -0.004 A 
ATOM      4  C2  UNL d   1       1.907  -1.576   2.038  0.00  0.00    -0.047 A 
ATOM      5  C3  UNL d   1       2.672  -2.000   0.925  0.00  0.00    -0.047 A 
ATOM      6  C4  UNL d   1       2.077  -1.478  -0.204  0.00  0.00    -0.004 A 
ENDROOT
TORSDOF 0
ENDMDL
