MODEL 1
REMARK minimizedAffinity -2.52121067
REMARK minimizedRMSD -1
REMARK  0 active torsions:
REMARK  status: ('A' for Active; 'I' for Inactive)
ROOT
ATOM      1  C   UNL d   1       0.508   0.260  -0.623  0.00  0.00     0.172 C 
ATOM      2  N   UNL d   1       1.144  -0.342   0.525  0.00  0.00    -0.070 N 
ATOM      3  C1  UNL d   1       0.796  -0.131   1.833  0.00  0.00    -0.004 A 
ATOM      4  C2  UNL d   1       1.638  -0.885   2.621  0.00  0.00    -0.047 A 
ATOM      5  C3  UNL d   1       2.523  -1.573   1.757  0.00  0.00    -0.047 A 
ATOM      6  C4  UNL d   1       2.195  -1.219   0.466  0.00  0.00    -0.004 A 
ENDROOT
TORSDOF 0
ENDMDL
