MODEL 1
REMARK minimizedAffinity -3.52195883
REMARK minimizedRMSD -1
REMARK  0 active torsions:
REMARK  status: ('A' for Active; 'I' for Inactive)
ROOT
ATOM      1  C   UNL d   1      -0.192   0.647  -0.040  0.00  0.00     0.172 C 
ATOM      2  N   UNL d   1       0.463  -0.209   0.921  0.00  0.00    -0.070 N 
ATOM      3  C1  UNL d   1       1.684  -0.807   0.756  0.00  0.00    -0.004 A 
ATOM      4  C2  UNL d   1       1.953  -1.537   1.893  0.00  0.00    -0.047 A 
ATOM      5  C3  UNL d   1       0.856  -1.373   2.772  0.00  0.00    -0.047 A 
ATOM      6  C4  UNL d   1      -0.052  -0.546   2.145  0.00  0.00    -0.004 A 
ENDROOT
TORSDOF 0
ENDMDL
