MODEL 1
REMARK minimizedAffinity -4.01522112
REMARK minimizedRMSD -1
REMARK  0 active torsions:
REMARK  status: ('A' for Active; 'I' for Inactive)
ROOT
ATOM      1  C   UNL d   1       0.908  -0.701  -1.183  0.00  0.00     0.172 C 
ATOM      2  N   UNL d   1       1.120  -0.896   0.232  0.00  0.00    -0.070 N 
ATOM      3  C1  UNL d   1       0.480  -0.219   1.236  0.00  0.00    -0.004 A 
ATOM      4  C2  UNL d   1       0.960  -0.693   2.438  0.00  0.00    -0.047 A 
ATOM      5  C3  UNL d   1       1.923  -1.689   2.146  0.00  0.00    -0.047 A 
ATOM      6  C4  UNL d   1       2.002  -1.794   0.773  0.00  0.00    -0.004 A 
ENDROOT
TORSDOF 0
ENDMDL
