MODEL 1
REMARK minimizedAffinity -3.70365477
REMARK minimizedRMSD -1
REMARK  0 active torsions:
REMARK  status: ('A' for Active; 'I' for Inactive)
ROOT
ATOM      1  C   UNL d   1      -1.038  -0.008   0.660  0.00  0.00     0.172 C 
ATOM      2  N   UNL d   1       0.145  -0.405   1.386  0.00  0.00    -0.070 N 
ATOM      3  C1  UNL d   1       1.199  -1.112   0.870  0.00  0.00    -0.004 A 
ATOM      4  C2  UNL d   1       2.122  -1.288   1.878  0.00  0.00    -0.047 A 
ATOM      5  C3  UNL d   1       1.605  -0.667   3.040  0.00  0.00    -0.047 A 
ATOM      6  C4  UNL d   1       0.380  -0.129   2.707  0.00  0.00    -0.004 A 
ENDROOT
TORSDOF 0
ENDMDL
