MODEL 1
REMARK minimizedAffinity 8.24436569
REMARK minimizedRMSD -1
REMARK  1 active torsions:
REMARK  status: ('A' for Active; 'I' for Inactive)
REMARK    1  A    between atoms: C1_2  and  C2_3 
ROOT
ATOM      1  C2  UNL d   1      -3.815  -0.936   1.511  0.00  0.00    -0.076 A 
ATOM      2  C3  UNL d   1      -3.053  -1.106   0.342  0.00  0.00     0.004 A 
ATOM      3  C4  UNL d   1      -3.559  -1.815  -0.746  0.00  0.00    -0.003 A 
ATOM      4  C5  UNL d   1      -4.834  -2.365  -0.683  0.00  0.00     0.000 A 
ATOM      5  C6  UNL d   1      -5.610  -2.191   0.462  0.00  0.00     0.000 A 
ATOM      6  C7  UNL d   1      -5.122  -1.465   1.562  0.00  0.00    -0.073 A 
ATOM      7  C8  UNL d   1      -6.000  -1.313   2.774  0.00  0.00     0.078 C 
ENDROOT
BRANCH   1   8
ATOM      8  C1  UNL d   1      -3.204  -0.180   2.670  0.00  0.00     0.053 C 
ATOM      9  C   UNL d   1      -2.212   0.880   2.216  0.00  0.00     0.018 C 
ENDBRANCH   1   8
TORSDOF 1
ENDMDL
