MODEL 1
REMARK minimizedAffinity 9.41557884
REMARK minimizedRMSD -1
REMARK  1 active torsions:
REMARK  status: ('A' for Active; 'I' for Inactive)
REMARK    1  A    between atoms: C1_2  and  C2_3 
ROOT
ATOM      1  C2  UNL d   1      -3.426   5.116   3.647  0.00  0.00    -0.076 A 
ATOM      2  C3  UNL d   1      -2.025   5.086   3.757  0.00  0.00     0.004 A 
ATOM      3  C4  UNL d   1      -1.387   5.510   4.921  0.00  0.00    -0.003 A 
ATOM      4  C5  UNL d   1      -2.141   5.971   5.995  0.00  0.00     0.000 A 
ATOM      5  C6  UNL d   1      -3.532   5.991   5.910  0.00  0.00     0.000 A 
ATOM      6  C7  UNL d   1      -4.191   5.552   4.749  0.00  0.00    -0.073 A 
ATOM      7  C8  UNL d   1      -5.694   5.601   4.710  0.00  0.00     0.078 C 
ENDROOT
BRANCH   1   8
ATOM      8  C1  UNL d   1      -4.060   4.669   2.349  0.00  0.00     0.053 C 
ATOM      9  C   UNL d   1      -4.435   3.195   2.361  0.00  0.00     0.018 C 
ENDBRANCH   1   8
TORSDOF 1
ENDMDL
