MODEL 1
REMARK minimizedAffinity 8.3768034
REMARK minimizedRMSD -1
REMARK  1 active torsions:
REMARK  status: ('A' for Active; 'I' for Inactive)
REMARK    1  A    between atoms: C1_2  and  C2_3 
ROOT
ATOM      1  C2  UNL d   1       4.720   5.303   2.693  0.00  0.00    -0.076 A 
ATOM      2  C3  UNL d   1       4.566   5.999   3.905  0.00  0.00     0.004 A 
ATOM      3  C4  UNL d   1       5.079   5.487   5.095  0.00  0.00    -0.003 A 
ATOM      4  C5  UNL d   1       5.756   4.272   5.094  0.00  0.00     0.000 A 
ATOM      5  C6  UNL d   1       5.933   3.578   3.898  0.00  0.00     0.000 A 
ATOM      6  C7  UNL d   1       5.436   4.087   2.686  0.00  0.00    -0.073 A 
ATOM      7  C8  UNL d   1       5.651   3.293   1.426  0.00  0.00     0.078 C 
ENDROOT
BRANCH   1   8
ATOM      8  C1  UNL d   1       4.118   5.893   1.438  0.00  0.00     0.053 C 
ATOM      9  C   UNL d   1       5.081   5.866   0.261  0.00  0.00     0.018 C 
ENDBRANCH   1   8
TORSDOF 1
ENDMDL
