MODEL 1
REMARK minimizedAffinity 14.6805706
REMARK minimizedRMSD -1
REMARK  1 active torsions:
REMARK  status: ('A' for Active; 'I' for Inactive)
REMARK    1  A    between atoms: C1_2  and  C2_3 
ROOT
ATOM      1  C2  UNL d   1       2.195   1.962  -4.524  0.00  0.00    -0.076 A 
ATOM      2  C3  UNL d   1       2.767   2.074  -3.245  0.00  0.00     0.004 A 
ATOM      3  C4  UNL d   1       2.065   1.676  -2.108  0.00  0.00    -0.003 A 
ATOM      4  C5  UNL d   1       0.780   1.159  -2.232  0.00  0.00     0.000 A 
ATOM      5  C6  UNL d   1       0.204   1.024  -3.495  0.00  0.00     0.000 A 
ATOM      6  C7  UNL d   1       0.904   1.405  -4.652  0.00  0.00    -0.073 A 
ATOM      7  C8  UNL d   1       0.233   1.243  -5.988  0.00  0.00     0.078 C 
ENDROOT
BRANCH   1   8
ATOM      8  C1  UNL d   1       2.993   2.434  -5.718  0.00  0.00     0.053 C 
ATOM      9  C   UNL d   1       4.419   1.905  -5.713  0.00  0.00     0.018 C 
ENDBRANCH   1   8
TORSDOF 1
ENDMDL
