MODEL 1
REMARK minimizedAffinity 18.2820778
REMARK minimizedRMSD -1
REMARK  1 active torsions:
REMARK  status: ('A' for Active; 'I' for Inactive)
REMARK    1  A    between atoms: C1_2  and  C2_3 
ROOT
ATOM      1  C2  UNL d   1      -3.875  -0.923   1.292  0.00  0.00    -0.076 A 
ATOM      2  C3  UNL d   1      -3.260  -0.909   0.028  0.00  0.00     0.004 A 
ATOM      3  C4  UNL d   1      -4.001  -1.120  -1.133  0.00  0.00    -0.003 A 
ATOM      4  C5  UNL d   1      -5.370  -1.349  -1.050  0.00  0.00     0.000 A 
ATOM      5  C6  UNL d   1      -6.000  -1.349   0.194  0.00  0.00     0.000 A 
ATOM      6  C7  UNL d   1      -5.270  -1.122   1.374  0.00  0.00    -0.073 A 
ATOM      7  C8  UNL d   1      -5.999  -1.139   2.689  0.00  0.00     0.078 C 
ENDROOT
BRANCH   1   8
ATOM      8  C1  UNL d   1      -3.016  -0.715   2.518  0.00  0.00     0.053 C 
ATOM      9  C   UNL d   1      -2.621   0.741   2.713  0.00  0.00     0.018 C 
ENDBRANCH   1   8
TORSDOF 1
ENDMDL
