MODEL 1
REMARK minimizedAffinity 19.0455055
REMARK minimizedRMSD -1
REMARK  1 active torsions:
REMARK  status: ('A' for Active; 'I' for Inactive)
REMARK    1  A    between atoms: C1_2  and  C2_3 
ROOT
ATOM      1  C2  UNL d   1      -1.376   3.535   3.697  0.00  0.00    -0.076 A 
ATOM      2  C3  UNL d   1      -1.121   3.721   5.067  0.00  0.00     0.004 A 
ATOM      3  C4  UNL d   1      -1.465   4.910   5.706  0.00  0.00    -0.003 A 
ATOM      4  C5  UNL d   1      -2.072   5.934   4.986  0.00  0.00     0.000 A 
ATOM      5  C6  UNL d   1      -2.348   5.760   3.630  0.00  0.00     0.000 A 
ATOM      6  C7  UNL d   1      -2.022   4.560   2.975  0.00  0.00    -0.073 A 
ATOM      7  C8  UNL d   1      -2.337   4.430   1.510  0.00  0.00     0.078 C 
ENDROOT
BRANCH   1   8
ATOM      8  C1  UNL d   1      -0.955   2.234   3.052  0.00  0.00     0.053 C 
ATOM      9  C   UNL d   1      -1.897   1.087   3.385  0.00  0.00     0.018 C 
ENDBRANCH   1   8
TORSDOF 1
ENDMDL
