MODEL 1
REMARK minimizedAffinity 11.6287956
REMARK minimizedRMSD -1
REMARK  1 active torsions:
REMARK  status: ('A' for Active; 'I' for Inactive)
REMARK    1  A    between atoms: C1_2  and  C2_3 
ROOT
ATOM      1  C2  UNL d   1      -0.621  -0.861  -1.275  0.00  0.00    -0.076 A 
ATOM      2  C3  UNL d   1       0.273   0.224  -1.266  0.00  0.00     0.004 A 
ATOM      3  C4  UNL d   1       1.523   0.129  -1.874  0.00  0.00    -0.003 A 
ATOM      4  C5  UNL d   1       1.900  -1.053  -2.503  0.00  0.00     0.000 A 
ATOM      5  C6  UNL d   1       1.019  -2.133  -2.538  0.00  0.00     0.000 A 
ATOM      6  C7  UNL d   1      -0.252  -2.049  -1.943  0.00  0.00    -0.073 A 
ATOM      7  C8  UNL d   1      -1.159  -3.247  -2.004  0.00  0.00     0.078 C 
ENDROOT
BRANCH   1   8
ATOM      8  C1  UNL d   1      -1.952  -0.709  -0.575  0.00  0.00     0.053 C 
ATOM      9  C   UNL d   1      -1.807  -0.588   0.934  0.00  0.00     0.018 C 
ENDBRANCH   1   8
TORSDOF 1
ENDMDL
