MODEL 1
REMARK minimizedAffinity 8.48952579
REMARK minimizedRMSD -1
REMARK  1 active torsions:
REMARK  status: ('A' for Active; 'I' for Inactive)
REMARK    1  A    between atoms: C1_2  and  C2_3 
ROOT
ATOM      1  C2  UNL d   1      -2.266   0.938   0.197  0.00  0.00    -0.076 A 
ATOM      2  C3  UNL d   1      -1.774  -0.354   0.454  0.00  0.00     0.004 A 
ATOM      3  C4  UNL d   1      -1.827  -0.900   1.736  0.00  0.00    -0.003 A 
ATOM      4  C5  UNL d   1      -2.372  -0.162   2.781  0.00  0.00     0.000 A 
ATOM      5  C6  UNL d   1      -2.880   1.114   2.540  0.00  0.00     0.000 A 
ATOM      6  C7  UNL d   1      -2.850   1.672   1.251  0.00  0.00    -0.073 A 
ATOM      7  C8  UNL d   1      -3.406   3.055   1.049  0.00  0.00     0.078 C 
ENDROOT
BRANCH   1   8
ATOM      8  C1  UNL d   1      -2.157   1.487  -1.208  0.00  0.00     0.053 C 
ATOM      9  C   UNL d   1      -0.779   1.271  -1.814  0.00  0.00     0.018 C 
ENDBRANCH   1   8
TORSDOF 1
ENDMDL
