MODEL 1
REMARK minimizedAffinity 8.76703548
REMARK minimizedRMSD -1
REMARK  1 active torsions:
REMARK  status: ('A' for Active; 'I' for Inactive)
REMARK    1  A    between atoms: C1_2  and  C2_3 
ROOT
ATOM      1  C2  UNL d   1      -2.720  -0.686   0.502  0.00  0.00    -0.076 A 
ATOM      2  C3  UNL d   1      -3.487  -0.495   1.664  0.00  0.00     0.004 A 
ATOM      3  C4  UNL d   1      -2.967   0.186   2.763  0.00  0.00    -0.003 A 
ATOM      4  C5  UNL d   1      -1.672   0.690   2.718  0.00  0.00     0.000 A 
ATOM      5  C6  UNL d   1      -0.903   0.526   1.566  0.00  0.00     0.000 A 
ATOM      6  C7  UNL d   1      -1.417  -0.145   0.443  0.00  0.00    -0.073 A 
ATOM      7  C8  UNL d   1      -0.542  -0.298  -0.770  0.00  0.00     0.078 C 
ENDROOT
BRANCH   1   8
ATOM      8  C1  UNL d   1      -3.326  -1.457  -0.649  0.00  0.00     0.053 C 
ATOM      9  C   UNL d   1      -4.846  -1.492  -0.589  0.00  0.00     0.018 C 
ENDBRANCH   1   8
TORSDOF 1
ENDMDL
