MODEL 1
REMARK minimizedAffinity 7.92373371
REMARK minimizedRMSD -1
REMARK  1 active torsions:
REMARK  status: ('A' for Active; 'I' for Inactive)
REMARK    1  A    between atoms: C1_2  and  C2_3 
ROOT
ATOM      1  C2  UNL d   1       4.403   4.866  -0.388  0.00  0.00    -0.076 A 
ATOM      2  C3  UNL d   1       5.648   4.515   0.162  0.00  0.00     0.004 A 
ATOM      3  C4  UNL d   1       6.000   4.908   1.452  0.00  0.00    -0.003 A 
ATOM      4  C5  UNL d   1       5.111   5.658   2.214  0.00  0.00     0.000 A 
ATOM      5  C6  UNL d   1       3.864   6.000   1.692  0.00  0.00     0.000 A 
ATOM      6  C7  UNL d   1       3.488   5.598   0.399  0.00  0.00    -0.073 A 
ATOM      7  C8  UNL d   1       2.133   6.000  -0.116  0.00  0.00     0.078 C 
ENDROOT
BRANCH   1   8
ATOM      8  C1  UNL d   1       4.088   4.435  -1.802  0.00  0.00     0.053 C 
ATOM      9  C   UNL d   1       3.292   3.140  -1.853  0.00  0.00     0.018 C 
ENDBRANCH   1   8
TORSDOF 1
ENDMDL
