MODEL 1
REMARK minimizedAffinity 11.8760347
REMARK minimizedRMSD -1
REMARK  1 active torsions:
REMARK  status: ('A' for Active; 'I' for Inactive)
REMARK    1  A    between atoms: C1_2  and  C2_3 
ROOT
ATOM      1  C2  UNL d   1       3.817   5.586   1.071  0.00  0.00    -0.076 A 
ATOM      2  C3  UNL d   1       2.784   5.998   0.212  0.00  0.00     0.004 A 
ATOM      3  C4  UNL d   1       2.800   5.666  -1.141  0.00  0.00    -0.003 A 
ATOM      4  C5  UNL d   1       3.850   4.914  -1.657  0.00  0.00     0.000 A 
ATOM      5  C6  UNL d   1       4.874   4.481  -0.816  0.00  0.00     0.000 A 
ATOM      6  C7  UNL d   1       4.864   4.794   0.554  0.00  0.00    -0.073 A 
ATOM      7  C8  UNL d   1       5.998   4.306   1.414  0.00  0.00     0.078 C 
ENDROOT
BRANCH   1   8
ATOM      8  C1  UNL d   1       3.759   6.000   2.524  0.00  0.00     0.053 C 
ATOM      9  C   UNL d   1       5.129   6.000   3.185  0.00  0.00     0.018 C 
ENDBRANCH   1   8
TORSDOF 1
ENDMDL
