MODEL 1
REMARK minimizedAffinity -3.2725029
REMARK minimizedRMSD -1
REMARK  1 active torsions:
REMARK  status: ('A' for Active; 'I' for Inactive)
REMARK    1  A    between atoms: C1_2  and  C2_3 
ROOT
ATOM      1  C2  UNL d   1       0.334  -0.738   1.529  0.00  0.00    -0.077 A 
ATOM      2  C3  UNL d   1       1.462  -1.562   1.412  0.00  0.00     0.002 A 
ATOM      3  C4  UNL d   1       2.335  -1.416   0.332  0.00  0.00     0.002 A 
ATOM      4  C5  UNL d   1       2.091  -0.445  -0.637  0.00  0.00    -0.004 A 
ATOM      5  C6  UNL d   1       0.971   0.378  -0.531  0.00  0.00     0.002 A 
ATOM      6  C7  UNL d   1       0.097   0.233   0.547  0.00  0.00     0.002 A 
ENDROOT
BRANCH   1   7
ATOM      7  C1  UNL d   1      -0.581  -0.861   2.718  0.00  0.00     0.055 C 
ATOM      8  C   UNL d   1       0.077  -1.646   3.844  0.00  0.00     0.019 C 
ENDBRANCH   1   7
TORSDOF 1
ENDMDL
