MODEL 1
REMARK minimizedAffinity -2.65062404
REMARK minimizedRMSD -1
REMARK  1 active torsions:
REMARK  status: ('A' for Active; 'I' for Inactive)
REMARK    1  A    between atoms: C1_2  and  C2_3 
ROOT
ATOM      1  C2  UNL d   1      -1.117   0.492  -1.548  0.00  0.00    -0.077 A 
ATOM      2  C3  UNL d   1      -0.913   0.955  -0.240  0.00  0.00     0.002 A 
ATOM      3  C4  UNL d   1       0.204   0.544   0.489  0.00  0.00     0.002 A 
ATOM      4  C5  UNL d   1       1.129  -0.328  -0.083  0.00  0.00    -0.004 A 
ATOM      5  C6  UNL d   1       0.934  -0.796  -1.382  0.00  0.00     0.002 A 
ATOM      6  C7  UNL d   1      -0.183  -0.387  -2.111  0.00  0.00     0.002 A 
ENDROOT
BRANCH   1   7
ATOM      7  C1  UNL d   1      -2.296   0.973  -2.353  0.00  0.00     0.055 C 
ATOM      8  C   UNL d   1      -2.043   2.359  -2.930  0.00  0.00     0.019 C 
ENDBRANCH   1   7
TORSDOF 1
ENDMDL
