MODEL 1
REMARK minimizedAffinity 1.93129158
REMARK minimizedRMSD -1
REMARK  1 active torsions:
REMARK  status: ('A' for Active; 'I' for Inactive)
REMARK    1  A    between atoms: C1_2  and  C2_3 
ROOT
ATOM      1  C2  UNL d   1      -1.056   3.762  -1.866  0.00  0.00    -0.077 A 
ATOM      2  C3  UNL d   1      -0.744   3.382  -0.553  0.00  0.00     0.002 A 
ATOM      3  C4  UNL d   1      -0.865   4.297   0.495  0.00  0.00     0.002 A 
ATOM      4  C5  UNL d   1      -1.302   5.595   0.241  0.00  0.00    -0.004 A 
ATOM      5  C6  UNL d   1      -1.612   5.984  -1.062  0.00  0.00     0.002 A 
ATOM      6  C7  UNL d   1      -1.491   5.071  -2.110  0.00  0.00     0.002 A 
ENDROOT
BRANCH   1   7
ATOM      7  C1  UNL d   1      -0.973   2.762  -2.990  0.00  0.00     0.055 C 
ATOM      8  C   UNL d   1      -2.200   1.862  -3.022  0.00  0.00     0.019 C 
ENDBRANCH   1   7
TORSDOF 1
ENDMDL
