MODEL 1
REMARK minimizedAffinity -4.25036001
REMARK minimizedRMSD -1
REMARK  1 active torsions:
REMARK  status: ('A' for Active; 'I' for Inactive)
REMARK    1  A    between atoms: C1_2  and  C2_3 
ROOT
ATOM      1  C2  UNL d   1      -1.334   0.520  -1.455  0.00  0.00    -0.077 A 
ATOM      2  C3  UNL d   1      -0.862  -0.773  -1.719  0.00  0.00     0.002 A 
ATOM      3  C4  UNL d   1       0.268  -1.260  -1.061  0.00  0.00     0.002 A 
ATOM      4  C5  UNL d   1       0.934  -0.463  -0.132  0.00  0.00    -0.004 A 
ATOM      5  C6  UNL d   1       0.473   0.825   0.136  0.00  0.00     0.002 A 
ATOM      6  C7  UNL d   1      -0.656   1.315  -0.522  0.00  0.00     0.002 A 
ENDROOT
BRANCH   1   7
ATOM      7  C1  UNL d   1      -2.582   1.030  -2.128  0.00  0.00     0.055 C 
ATOM      8  C   UNL d   1      -2.258   1.725  -3.443  0.00  0.00     0.019 C 
ENDBRANCH   1   7
TORSDOF 1
ENDMDL
