MODEL 1
REMARK minimizedAffinity 4.75044394
REMARK minimizedRMSD -1
REMARK  1 active torsions:
REMARK  status: ('A' for Active; 'I' for Inactive)
REMARK    1  A    between atoms: C1_2  and  C2_3 
ROOT
ATOM      1  C2  UNL d   1       1.688   0.590   0.038  0.00  0.00    -0.077 A 
ATOM      2  C3  UNL d   1       0.804   0.545   1.124  0.00  0.00     0.002 A 
ATOM      3  C4  UNL d   1      -0.435  -0.088   1.001  0.00  0.00     0.002 A 
ATOM      4  C5  UNL d   1      -0.797  -0.685  -0.205  0.00  0.00    -0.004 A 
ATOM      5  C6  UNL d   1       0.075  -0.643  -1.292  0.00  0.00     0.002 A 
ATOM      6  C7  UNL d   1       1.312  -0.010  -1.171  0.00  0.00     0.002 A 
ENDROOT
BRANCH   1   7
ATOM      7  C1  UNL d   1       3.044   1.230   0.183  0.00  0.00     0.055 C 
ATOM      8  C   UNL d   1       3.710   1.429  -1.170  0.00  0.00     0.019 C 
ENDBRANCH   1   7
TORSDOF 1
ENDMDL
