MODEL 1
REMARK minimizedAffinity -3.15381837
REMARK minimizedRMSD -1
REMARK  1 active torsions:
REMARK  status: ('A' for Active; 'I' for Inactive)
REMARK    1  A    between atoms: C1_2  and  C2_3 
ROOT
ATOM      1  C2  UNL d   1      -4.316  -5.962   0.400  0.00  0.00    -0.077 A 
ATOM      2  C3  UNL d   1      -5.390  -5.982  -0.501  0.00  0.00     0.002 A 
ATOM      3  C4  UNL d   1      -5.156  -5.999  -1.878  0.00  0.00     0.002 A 
ATOM      4  C5  UNL d   1      -3.851  -5.999  -2.365  0.00  0.00    -0.004 A 
ATOM      5  C6  UNL d   1      -2.776  -5.977  -1.477  0.00  0.00     0.002 A 
ATOM      6  C7  UNL d   1      -3.008  -5.959  -0.101  0.00  0.00     0.002 A 
ENDROOT
BRANCH   1   7
ATOM      7  C1  UNL d   1      -4.565  -5.994   1.885  0.00  0.00     0.055 C 
ATOM      8  C   UNL d   1      -3.442  -5.309   2.650  0.00  0.00     0.019 C 
ENDBRANCH   1   7
TORSDOF 1
ENDMDL
