MODEL 1
REMARK minimizedAffinity -2.19192147
REMARK minimizedRMSD -1
REMARK  1 active torsions:
REMARK  status: ('A' for Active; 'I' for Inactive)
REMARK    1  A    between atoms: C1_2  and  C2_3 
ROOT
ATOM      1  C2  UNL d   1      -0.108   0.493  -0.892  0.00  0.00    -0.077 A 
ATOM      2  C3  UNL d   1      -0.108  -0.185  -2.119  0.00  0.00     0.002 A 
ATOM      3  C4  UNL d   1      -0.835   0.314  -3.202  0.00  0.00     0.002 A 
ATOM      4  C5  UNL d   1      -1.562   1.495  -3.070  0.00  0.00    -0.004 A 
ATOM      5  C6  UNL d   1      -1.569   2.176  -1.853  0.00  0.00     0.002 A 
ATOM      6  C7  UNL d   1      -0.845   1.678  -0.770  0.00  0.00     0.002 A 
ENDROOT
BRANCH   1   7
ATOM      7  C1  UNL d   1       0.715  -0.018   0.262  0.00  0.00     0.055 C 
ATOM      8  C   UNL d   1       2.136  -0.345  -0.173  0.00  0.00     0.019 C 
ENDBRANCH   1   7
TORSDOF 1
ENDMDL
