MODEL 1
REMARK minimizedAffinity -3.66113591
REMARK minimizedRMSD -1
REMARK  1 active torsions:
REMARK  status: ('A' for Active; 'I' for Inactive)
REMARK    1  A    between atoms: C1_2  and  C2_3 
ROOT
ATOM      1  C2  UNL d   1      -0.671   0.942  -1.459  0.00  0.00    -0.077 A 
ATOM      2  C3  UNL d   1       0.074   1.275  -0.319  0.00  0.00     0.002 A 
ATOM      3  C4  UNL d   1       1.232   0.563   0.001  0.00  0.00     0.002 A 
ATOM      4  C5  UNL d   1       1.658  -0.482  -0.817  0.00  0.00    -0.004 A 
ATOM      5  C6  UNL d   1       0.922  -0.822  -1.951  0.00  0.00     0.002 A 
ATOM      6  C7  UNL d   1      -0.236  -0.113  -2.272  0.00  0.00     0.002 A 
ENDROOT
BRANCH   1   7
ATOM      7  C1  UNL d   1      -1.893   1.740  -1.832  0.00  0.00     0.055 C 
ATOM      8  C   UNL d   1      -2.287   1.503  -3.283  0.00  0.00     0.019 C 
ENDBRANCH   1   7
TORSDOF 1
ENDMDL
