MODEL 1
REMARK minimizedAffinity -4.97897863
REMARK minimizedRMSD -1
REMARK  1 active torsions:
REMARK  status: ('A' for Active; 'I' for Inactive)
REMARK    1  A    between atoms: C1_2  and  C2_3 
ROOT
ATOM      1  C2  UNL d   1      -0.847   0.261  -2.092  0.00  0.00    -0.077 A 
ATOM      2  C3  UNL d   1      -0.712   1.011  -0.915  0.00  0.00     0.002 A 
ATOM      3  C4  UNL d   1       0.380   0.807  -0.068  0.00  0.00     0.002 A 
ATOM      4  C5  UNL d   1       1.346  -0.143  -0.392  0.00  0.00    -0.004 A 
ATOM      5  C6  UNL d   1       1.220  -0.895  -1.559  0.00  0.00     0.002 A 
ATOM      6  C7  UNL d   1       0.129  -0.694  -2.405  0.00  0.00     0.002 A 
ENDROOT
BRANCH   1   7
ATOM      7  C1  UNL d   1      -1.997   0.513  -3.031  0.00  0.00     0.055 C 
ATOM      8  C   UNL d   1      -2.584   1.902  -2.826  0.00  0.00     0.019 C 
ENDBRANCH   1   7
TORSDOF 1
ENDMDL
