MODEL 1
REMARK minimizedAffinity -2.2761631
REMARK minimizedRMSD -1
REMARK  1 active torsions:
REMARK  status: ('A' for Active; 'I' for Inactive)
REMARK    1  A    between atoms: C1_2  and  C2_3 
ROOT
ATOM      1  C2  UNL d   1      -0.171   0.280  -1.167  0.00  0.00    -0.077 A 
ATOM      2  C3  UNL d   1      -0.692   0.985  -2.260  0.00  0.00     0.002 A 
ATOM      3  C4  UNL d   1      -1.714   1.919  -2.076  0.00  0.00     0.002 A 
ATOM      4  C5  UNL d   1      -2.219   2.158  -0.800  0.00  0.00    -0.004 A 
ATOM      5  C6  UNL d   1      -1.708   1.460   0.294  0.00  0.00     0.002 A 
ATOM      6  C7  UNL d   1      -0.688   0.526   0.111  0.00  0.00     0.002 A 
ENDROOT
BRANCH   1   7
ATOM      7  C1  UNL d   1       0.965  -0.692  -1.357  0.00  0.00     0.055 C 
ATOM      8  C   UNL d   1       1.947  -0.629  -0.196  0.00  0.00     0.019 C 
ENDBRANCH   1   7
TORSDOF 1
ENDMDL
