MODEL 1
REMARK minimizedAffinity 10.4898596
REMARK minimizedRMSD -1
REMARK  0 active torsions:
REMARK  status: ('A' for Active; 'I' for Inactive)
ROOT
ATOM      1  O1  BZF d   1       0.197  -0.522   2.518  0.00  0.00    -0.204 OA
ATOM      2  C2  BZF d   1       0.894  -0.521   1.325  0.00  0.00     0.174 A 
ATOM      3  C3  BZF d   1       1.918  -1.397   1.369  0.00  0.00    -0.012 A 
ATOM      4  C3A BZF d   1       1.802  -2.048   2.638  0.00  0.00    -0.107 A 
ATOM      5  C4  BZF d   1       2.520  -3.030   3.258  0.00  0.00     0.055 A 
ATOM      6  C5  BZF d   1       2.190  -3.390   4.526  0.00  0.00    -0.016 A 
ATOM      7  C6  BZF d   1       1.152  -2.786   5.204  0.00  0.00     0.022 A 
ATOM      8  C7  BZF d   1       0.407  -1.810   4.629  0.00  0.00     0.029 A 
ATOM      9  C7A BZF d   1       0.718  -1.468   3.336  0.00  0.00     0.058 A 
ENDROOT
TORSDOF 0
ENDMDL
