MODEL 1
REMARK minimizedAffinity 12.4054003
REMARK minimizedRMSD -1
REMARK  0 active torsions:
REMARK  status: ('A' for Active; 'I' for Inactive)
ROOT
ATOM      1  O1  BZF d   1      -0.006  -1.877   4.667  0.00  0.00    -0.204 OA
ATOM      2  C2  BZF d   1       0.376  -1.555   3.379  0.00  0.00     0.174 A 
ATOM      3  C3  BZF d   1       0.910  -2.626   2.757  0.00  0.00    -0.012 A 
ATOM      4  C3A BZF d   1       0.774  -3.707   3.685  0.00  0.00    -0.107 A 
ATOM      5  C4  BZF d   1       1.104  -5.031   3.639  0.00  0.00     0.055 A 
ATOM      6  C5  BZF d   1       0.903  -5.800   4.741  0.00  0.00    -0.016 A 
ATOM      7  C6  BZF d   1       0.381  -5.278   5.906  0.00  0.00     0.022 A 
ATOM      8  C7  BZF d   1       0.034  -3.971   5.998  0.00  0.00     0.029 A 
ATOM      9  C7A BZF d   1       0.204  -3.198   4.875  0.00  0.00     0.058 A 
ENDROOT
TORSDOF 0
ENDMDL
