MODEL 1
REMARK minimizedAffinity 2.29382539
REMARK minimizedRMSD -1
REMARK  0 active torsions:
REMARK  status: ('A' for Active; 'I' for Inactive)
ROOT
ATOM      1  O1  BZF d   1      -3.703  -5.071  -4.271  0.00  0.00    -0.204 OA
ATOM      2  C2  BZF d   1      -4.123  -5.993  -5.210  0.00  0.00     0.174 A 
ATOM      3  C3  BZF d   1      -5.083  -5.470  -5.999  0.00  0.00    -0.012 A 
ATOM      4  C3A BZF d   1      -5.211  -4.107  -5.583  0.00  0.00    -0.107 A 
ATOM      5  C4  BZF d   1      -5.992  -3.067  -5.999  0.00  0.00     0.055 A 
ATOM      6  C5  BZF d   1      -5.926  -1.883  -5.335  0.00  0.00    -0.016 A 
ATOM      7  C6  BZF d   1      -5.095  -1.706  -4.248  0.00  0.00     0.022 A 
ATOM      8  C7  BZF d   1      -4.297  -2.707  -3.801  0.00  0.00     0.029 A 
ATOM      9  C7A BZF d   1      -4.338  -3.894  -4.491  0.00  0.00     0.058 A 
ENDROOT
TORSDOF 0
ENDMDL
