MODEL 1
REMARK minimizedAffinity 5.26792192
REMARK minimizedRMSD -1
REMARK  0 active torsions:
REMARK  status: ('A' for Active; 'I' for Inactive)
ROOT
ATOM      1  O1  BZF d   1      -5.912  -2.466  -5.253  0.00  0.00    -0.204 OA
ATOM      2  C2  BZF d   1      -4.966  -1.703  -4.598  0.00  0.00     0.174 A 
ATOM      3  C3  BZF d   1      -3.887  -2.447  -4.281  0.00  0.00    -0.012 A 
ATOM      4  C3A BZF d   1      -4.138  -3.735  -4.850  0.00  0.00    -0.107 A 
ATOM      5  C4  BZF d   1      -3.426  -4.900  -4.886  0.00  0.00     0.055 A 
ATOM      6  C5  BZF d   1      -3.985  -5.998  -5.459  0.00  0.00    -0.016 A 
ATOM      7  C6  BZF d   1      -5.254  -5.968  -6.000  0.00  0.00     0.022 A 
ATOM      8  C7  BZF d   1      -5.996  -4.834  -5.992  0.00  0.00     0.029 A 
ATOM      9  C7A BZF d   1      -5.421  -3.715  -5.443  0.00  0.00     0.058 A 
ENDROOT
TORSDOF 0
ENDMDL
