MODEL 1
REMARK minimizedAffinity 16.3670559
REMARK minimizedRMSD -1
REMARK  0 active torsions:
REMARK  status: ('A' for Active; 'I' for Inactive)
ROOT
ATOM      1  O1  BZF d   1       0.609  -0.885   2.793  0.00  0.00    -0.204 OA
ATOM      2  C2  BZF d   1       0.917  -2.155   2.343  0.00  0.00     0.174 A 
ATOM      3  C3  BZF d   1       1.898  -2.110   1.418  0.00  0.00    -0.012 A 
ATOM      4  C3A BZF d   1       2.287  -0.735   1.349  0.00  0.00    -0.107 A 
ATOM      5  C4  BZF d   1       3.226  -0.060   0.622  0.00  0.00     0.055 A 
ATOM      6  C5  BZF d   1       3.303   1.292   0.735  0.00  0.00    -0.016 A 
ATOM      7  C6  BZF d   1       2.454   2.001   1.559  0.00  0.00     0.022 A 
ATOM      8  C7  BZF d   1       1.509   1.376   2.303  0.00  0.00     0.029 A 
ATOM      9  C7A BZF d   1       1.451   0.006   2.217  0.00  0.00     0.058 A 
ENDROOT
TORSDOF 0
ENDMDL
