MODEL 1
REMARK minimizedAffinity 15.2620153
REMARK minimizedRMSD -1
REMARK  0 active torsions:
REMARK  status: ('A' for Active; 'I' for Inactive)
ROOT
ATOM      1  O1  BZF d   1       0.812  -0.507   3.008  0.00  0.00    -0.204 OA
ATOM      2  C2  BZF d   1       1.033  -1.448   2.021  0.00  0.00     0.174 A 
ATOM      3  C3  BZF d   1       1.750  -0.920   1.008  0.00  0.00    -0.012 A 
ATOM      4  C3A BZF d   1       2.070   0.410   1.427  0.00  0.00    -0.107 A 
ATOM      5  C4  BZF d   1       2.778   1.430   0.857  0.00  0.00     0.055 A 
ATOM      6  C5  BZF d   1       2.842   2.627   1.495  0.00  0.00    -0.016 A 
ATOM      7  C6  BZF d   1       2.206   2.842   2.701  0.00  0.00     0.022 A 
ATOM      8  C7  BZF d   1       1.496   1.860   3.308  0.00  0.00     0.029 A 
ATOM      9  C7A BZF d   1       1.458   0.639   2.681  0.00  0.00     0.058 A 
ENDROOT
TORSDOF 0
ENDMDL
