MODEL 1
REMARK minimizedAffinity 20.0371513
REMARK minimizedRMSD -1
REMARK  0 active torsions:
REMARK  status: ('A' for Active; 'I' for Inactive)
ROOT
ATOM      1  O1  BZF d   1      -2.998   0.726  -3.557  0.00  0.00    -0.204 OA
ATOM      2  C2  BZF d   1      -2.716   0.383  -2.249  0.00  0.00     0.174 A 
ATOM      3  C3  BZF d   1      -3.489   1.082  -1.393  0.00  0.00    -0.012 A 
ATOM      4  C3A BZF d   1      -4.370   1.847  -2.222  0.00  0.00    -0.107 A 
ATOM      5  C4  BZF d   1      -5.381   2.726  -1.957  0.00  0.00     0.055 A 
ATOM      6  C5  BZF d   1      -5.995   3.357  -2.991  0.00  0.00    -0.016 A 
ATOM      7  C6  BZF d   1      -5.622   3.138  -4.301  0.00  0.00     0.022 A 
ATOM      8  C7  BZF d   1      -4.628   2.271  -4.614  0.00  0.00     0.029 A 
ATOM      9  C7A BZF d   1      -4.027   1.606  -3.572  0.00  0.00     0.058 A 
ENDROOT
TORSDOF 0
ENDMDL
