MODEL 1
REMARK minimizedAffinity -4.5559454
REMARK minimizedRMSD -1
REMARK  0 active torsions:
REMARK  status: ('A' for Active; 'I' for Inactive)
ROOT
ATOM      1  C1  BNZ d   1       0.968   2.611  -0.132  0.00  0.00     0.000 A 
ATOM      2  C2  BNZ d   1       0.522   1.318  -0.202  0.00  0.00     0.000 A 
ATOM      3  C3  BNZ d   1       1.384   0.271  -0.035  0.00  0.00     0.000 A 
ATOM      4  C4  BNZ d   1       2.695   0.516   0.163  0.00  0.00     0.000 A 
ATOM      5  C5  BNZ d   1       3.162   1.814   0.227  0.00  0.00     0.000 A 
ATOM      6  C6  BNZ d   1       2.285   2.866   0.097  0.00  0.00     0.000 A 
ENDROOT
TORSDOF 0
ENDMDL
