MODEL 1
REMARK minimizedAffinity -3.87883806
REMARK minimizedRMSD -1
REMARK  0 active torsions:
REMARK  status: ('A' for Active; 'I' for Inactive)
ROOT
ATOM      1  C1  BNZ d   1       0.287   0.960   0.352  0.00  0.00     0.000 A 
ATOM      2  C2  BNZ d   1       1.447   1.683   0.270  0.00  0.00     0.000 A 
ATOM      3  C3  BNZ d   1       1.419   3.048   0.207  0.00  0.00     0.000 A 
ATOM      4  C4  BNZ d   1       0.230   3.686   0.185  0.00  0.00     0.000 A 
ATOM      5  C5  BNZ d   1      -0.948   2.970   0.257  0.00  0.00     0.000 A 
ATOM      6  C6  BNZ d   1      -0.914   1.599   0.361  0.00  0.00     0.000 A 
ENDROOT
TORSDOF 0
ENDMDL
