MODEL 1
REMARK minimizedAffinity -5.02678156
REMARK minimizedRMSD -1
REMARK  0 active torsions:
REMARK  status: ('A' for Active; 'I' for Inactive)
ROOT
ATOM      1  C1  BNZ d   1       2.476   2.574   0.504  0.00  0.00     0.000 A 
ATOM      2  C2  BNZ d   1       1.447   3.470   0.385  0.00  0.00     0.000 A 
ATOM      3  C3  BNZ d   1       0.220   3.072  -0.066  0.00  0.00     0.000 A 
ATOM      4  C4  BNZ d   1       0.034   1.788  -0.435  0.00  0.00     0.000 A 
ATOM      5  C5  BNZ d   1       1.064   0.874  -0.329  0.00  0.00     0.000 A 
ATOM      6  C6  BNZ d   1       2.286   1.270   0.162  0.00  0.00     0.000 A 
ENDROOT
TORSDOF 0
ENDMDL
