MODEL 1
REMARK minimizedAffinity -4.12117052
REMARK minimizedRMSD -1
REMARK  0 active torsions:
REMARK  status: ('A' for Active; 'I' for Inactive)
ROOT
ATOM      1  C1  BNZ d   1       0.430   3.657   0.355  0.00  0.00     0.000 A 
ATOM      2  C2  BNZ d   1      -0.753   2.995   0.158  0.00  0.00     0.000 A 
ATOM      3  C3  BNZ d   1      -0.793   1.629   0.125  0.00  0.00     0.000 A 
ATOM      4  C4  BNZ d   1       0.353   0.929   0.248  0.00  0.00     0.000 A 
ATOM      5  C5  BNZ d   1       1.554   1.582   0.438  0.00  0.00     0.000 A 
ATOM      6  C6  BNZ d   1       1.586   2.956   0.509  0.00  0.00     0.000 A 
ENDROOT
TORSDOF 0
ENDMDL
