MODEL 1
REMARK minimizedAffinity -4.92715359
REMARK minimizedRMSD -1
REMARK  0 active torsions:
REMARK  status: ('A' for Active; 'I' for Inactive)
ROOT
ATOM      1  C1  BNZ d   1       0.433   3.786   0.283  0.00  0.00     0.000 A 
ATOM      2  C2  BNZ d   1      -0.698   3.109  -0.090  0.00  0.00     0.000 A 
ATOM      3  C3  BNZ d   1      -0.694   1.747  -0.200  0.00  0.00     0.000 A 
ATOM      4  C4  BNZ d   1       0.449   1.067   0.023  0.00  0.00     0.000 A 
ATOM      5  C5  BNZ d   1       1.600   1.735   0.390  0.00  0.00     0.000 A 
ATOM      6  C6  BNZ d   1       1.583   3.103   0.538  0.00  0.00     0.000 A 
ENDROOT
TORSDOF 0
ENDMDL
