MODEL 1
REMARK minimizedAffinity -4.2059226
REMARK minimizedRMSD -1
REMARK  0 active torsions:
REMARK  status: ('A' for Active; 'I' for Inactive)
ROOT
ATOM      1  C1  BNZ d   1       0.758   2.472  -0.605  0.00  0.00     0.000 A 
ATOM      2  C2  BNZ d   1       0.651   1.107  -0.638  0.00  0.00     0.000 A 
ATOM      3  C3  BNZ d   1      -0.253   0.456   0.153  0.00  0.00     0.000 A 
ATOM      4  C4  BNZ d   1      -1.021   1.165   1.004  0.00  0.00     0.000 A 
ATOM      5  C5  BNZ d   1      -0.919   2.541   1.056  0.00  0.00     0.000 A 
ATOM      6  C6  BNZ d   1      -0.035   3.196   0.231  0.00  0.00     0.000 A 
ENDROOT
TORSDOF 0
ENDMDL
