MODEL 1
REMARK minimizedAffinity -3.47466516
REMARK minimizedRMSD -1
REMARK  0 active torsions:
REMARK  status: ('A' for Active; 'I' for Inactive)
ROOT
ATOM      1  C1  BNZ d   1      -1.872  -3.343  -1.725  0.00  0.00     0.000 A 
ATOM      2  C2  BNZ d   1      -1.066  -3.568  -2.809  0.00  0.00     0.000 A 
ATOM      3  C3  BNZ d   1       0.234  -3.144  -2.815  0.00  0.00     0.000 A 
ATOM      4  C4  BNZ d   1       0.712  -2.460  -1.755  0.00  0.00     0.000 A 
ATOM      5  C5  BNZ d   1      -0.091  -2.216  -0.659  0.00  0.00     0.000 A 
ATOM      6  C6  BNZ d   1      -1.387  -2.679  -0.641  0.00  0.00     0.000 A 
ENDROOT
TORSDOF 0
ENDMDL
