MODEL 1
REMARK minimizedAffinity -4.83008194
REMARK minimizedRMSD -1
REMARK  0 active torsions:
REMARK  status: ('A' for Active; 'I' for Inactive)
ROOT
ATOM      1  C1  BNZ d   1       0.498   3.518   0.540  0.00  0.00     0.000 A 
ATOM      2  C2  BNZ d   1      -0.665   2.959   0.082  0.00  0.00     0.000 A 
ATOM      3  C3  BNZ d   1      -0.758   1.612  -0.131  0.00  0.00     0.000 A 
ATOM      4  C4  BNZ d   1       0.323   0.832   0.076  0.00  0.00     0.000 A 
ATOM      5  C5  BNZ d   1       1.505   1.382   0.529  0.00  0.00     0.000 A 
ATOM      6  C6  BNZ d   1       1.583   2.732   0.779  0.00  0.00     0.000 A 
ENDROOT
TORSDOF 0
ENDMDL
