MODEL 1
REMARK minimizedAffinity -3.82484055
REMARK minimizedRMSD -1
REMARK  0 active torsions:
REMARK  status: ('A' for Active; 'I' for Inactive)
ROOT
ATOM      1  C1  BNZ d   1       0.806   0.577  -0.253  0.00  0.00     0.000 A 
ATOM      2  C2  BNZ d   1       0.383  -0.716  -0.094  0.00  0.00     0.000 A 
ATOM      3  C3  BNZ d   1      -0.865  -0.990   0.391  0.00  0.00     0.000 A 
ATOM      4  C4  BNZ d   1      -1.673   0.028   0.754  0.00  0.00     0.000 A 
ATOM      5  C5  BNZ d   1      -1.258   1.336   0.609  0.00  0.00     0.000 A 
ATOM      6  C6  BNZ d   1      -0.015   1.608   0.083  0.00  0.00     0.000 A 
ENDROOT
TORSDOF 0
ENDMDL
