MODEL 1
REMARK minimizedAffinity -5.42524672
REMARK minimizedRMSD -1
REMARK  0 active torsions:
REMARK  status: ('A' for Active; 'I' for Inactive)
ROOT
ATOM      1  C1  BNZ d   1       2.205   3.150   0.181  0.00  0.00     0.000 A 
ATOM      2  C2  BNZ d   1       1.036   3.850   0.322  0.00  0.00     0.000 A 
ATOM      3  C3  BNZ d   1      -0.169   3.206   0.320  0.00  0.00     0.000 A 
ATOM      4  C4  BNZ d   1      -0.207   1.870   0.137  0.00  0.00     0.000 A 
ATOM      5  C5  BNZ d   1       0.962   1.152  -0.017  0.00  0.00     0.000 A 
ATOM      6  C6  BNZ d   1       2.176   1.799   0.025  0.00  0.00     0.000 A 
ENDROOT
TORSDOF 0
ENDMDL
