MODEL 1
REMARK minimizedAffinity -4.33053064
REMARK minimizedRMSD -1
REMARK  0 active torsions:
REMARK  status: ('A' for Active; 'I' for Inactive)
ROOT
ATOM      1  C1  BNZ d   1       1.992   0.886   0.024  0.00  0.00     0.000 A 
ATOM      2  C2  BNZ d   1       2.320   2.163   0.394  0.00  0.00     0.000 A 
ATOM      3  C3  BNZ d   1       1.376   3.152   0.408  0.00  0.00     0.000 A 
ATOM      4  C4  BNZ d   1       0.117   2.872   0.013  0.00  0.00     0.000 A 
ATOM      5  C5  BNZ d   1      -0.227   1.592  -0.372  0.00  0.00     0.000 A 
ATOM      6  C6  BNZ d   1       0.716   0.590  -0.347  0.00  0.00     0.000 A 
ENDROOT
TORSDOF 0
ENDMDL
