MODEL 1
REMARK minimizedAffinity -2.95877004
REMARK minimizedRMSD -1
REMARK  0 active torsions:
REMARK  status: ('A' for Active; 'I' for Inactive)
ROOT
ATOM      1  C1  BNZ d   1      -0.925  -0.482   0.639  0.00  0.00     0.000 A 
ATOM      2  C2  BNZ d   1      -1.458   0.774   0.753  0.00  0.00     0.000 A 
ATOM      3  C3  BNZ d   1      -0.676   1.884   0.594  0.00  0.00     0.000 A 
ATOM      4  C4  BNZ d   1       0.644   1.737   0.361  0.00  0.00     0.000 A 
ATOM      5  C5  BNZ d   1       1.198   0.477   0.252  0.00  0.00     0.000 A 
ATOM      6  C6  BNZ d   1       0.401  -0.638   0.374  0.00  0.00     0.000 A 
ENDROOT
TORSDOF 0
ENDMDL
