MODEL 1
REMARK minimizedAffinity -4.92692566
REMARK minimizedRMSD -1
REMARK  0 active torsions:
REMARK  status: ('A' for Active; 'I' for Inactive)
ROOT
ATOM      1  C1  BNZ d   1       1.580   3.686  -0.149  0.00  0.00     0.000 A 
ATOM      2  C2  BNZ d   1       0.405   3.460  -0.815  0.00  0.00     0.000 A 
ATOM      3  C3  BNZ d   1       0.034   2.193  -1.170  0.00  0.00     0.000 A 
ATOM      4  C4  BNZ d   1       0.855   1.160  -0.895  0.00  0.00     0.000 A 
ATOM      5  C5  BNZ d   1       2.048   1.372  -0.232  0.00  0.00     0.000 A 
ATOM      6  C6  BNZ d   1       2.400   2.644   0.158  0.00  0.00     0.000 A 
ENDROOT
TORSDOF 0
ENDMDL
