MODEL 1
REMARK minimizedAffinity -4.62792015
REMARK minimizedRMSD -1
REMARK  0 active torsions:
REMARK  status: ('A' for Active; 'I' for Inactive)
ROOT
ATOM      1  C1  BNZ d   1      -0.078   1.068   0.079  0.00  0.00     0.000 A 
ATOM      2  C2  BNZ d   1      -1.094   1.931  -0.232  0.00  0.00     0.000 A 
ATOM      3  C3  BNZ d   1      -0.890   3.283  -0.232  0.00  0.00     0.000 A 
ATOM      4  C4  BNZ d   1       0.318   3.770   0.119  0.00  0.00     0.000 A 
ATOM      5  C5  BNZ d   1       1.350   2.913   0.444  0.00  0.00     0.000 A 
ATOM      6  C6  BNZ d   1       1.151   1.552   0.405  0.00  0.00     0.000 A 
ENDROOT
TORSDOF 0
ENDMDL
