MODEL 1
REMARK minimizedAffinity -5.12479734
REMARK minimizedRMSD -1
REMARK  0 active torsions:
REMARK  status: ('A' for Active; 'I' for Inactive)
ROOT
ATOM      1  C1  BNZ d   1       1.636   2.686   0.227  0.00  0.00     0.000 A 
ATOM      2  C2  BNZ d   1       1.770   1.344   0.464  0.00  0.00     0.000 A 
ATOM      3  C3  BNZ d   1       0.686   0.512   0.411  0.00  0.00     0.000 A 
ATOM      4  C4  BNZ d   1      -0.534   1.029   0.162  0.00  0.00     0.000 A 
ATOM      5  C5  BNZ d   1      -0.687   2.381  -0.070  0.00  0.00     0.000 A 
ATOM      6  C6  BNZ d   1       0.411   3.209  -0.055  0.00  0.00     0.000 A 
ENDROOT
TORSDOF 0
ENDMDL
