MODEL 1
REMARK minimizedAffinity -4.05005884
REMARK minimizedRMSD -1
REMARK  0 active torsions:
REMARK  status: ('A' for Active; 'I' for Inactive)
ROOT
ATOM      1  C1  BNZ d   1      -1.193  -3.897  -1.313  0.00  0.00     0.000 A 
ATOM      2  C2  BNZ d   1      -1.118  -3.394  -0.041  0.00  0.00     0.000 A 
ATOM      3  C3  BNZ d   1      -0.211  -2.421   0.274  0.00  0.00     0.000 A 
ATOM      4  C4  BNZ d   1       0.644  -1.981  -0.671  0.00  0.00     0.000 A 
ATOM      5  C5  BNZ d   1       0.587  -2.484  -1.955  0.00  0.00     0.000 A 
ATOM      6  C6  BNZ d   1      -0.353  -3.435  -2.279  0.00  0.00     0.000 A 
ENDROOT
TORSDOF 0
ENDMDL
