MODEL 1
REMARK minimizedAffinity -4.33762932
REMARK minimizedRMSD -1
REMARK  0 active torsions:
REMARK  status: ('A' for Active; 'I' for Inactive)
ROOT
ATOM      1  C1  BNZ d   1       1.576   2.454  -0.471  0.00  0.00     0.000 A 
ATOM      2  C2  BNZ d   1       1.204   1.143  -0.608  0.00  0.00     0.000 A 
ATOM      3  C3  BNZ d   1      -0.059   0.737  -0.282  0.00  0.00     0.000 A 
ATOM      4  C4  BNZ d   1      -0.935   1.632   0.219  0.00  0.00     0.000 A 
ATOM      5  C5  BNZ d   1      -0.572   2.955   0.373  0.00  0.00     0.000 A 
ATOM      6  C6  BNZ d   1       0.688   3.368   0.006  0.00  0.00     0.000 A 
ENDROOT
TORSDOF 0
ENDMDL
