MODEL 1
REMARK minimizedAffinity -2.51325274
REMARK minimizedRMSD -1
REMARK  0 active torsions:
REMARK  status: ('A' for Active; 'I' for Inactive)
ROOT
ATOM      1  C1  BNZ d   1      -0.675  -3.807  -0.832  0.00  0.00     0.000 A 
ATOM      2  C2  BNZ d   1      -0.367  -2.702  -0.085  0.00  0.00     0.000 A 
ATOM      3  C3  BNZ d   1      -0.060  -1.513  -0.686  0.00  0.00     0.000 A 
ATOM      4  C4  BNZ d   1      -0.023  -1.441  -2.032  0.00  0.00     0.000 A 
ATOM      5  C5  BNZ d   1      -0.323  -2.549  -2.800  0.00  0.00     0.000 A 
ATOM      6  C6  BNZ d   1      -0.669  -3.733  -2.191  0.00  0.00     0.000 A 
ENDROOT
TORSDOF 0
ENDMDL
