MODEL 1
REMARK minimizedAffinity 15.6394844
REMARK minimizedRMSD -1
REMARK  0 active torsions:
REMARK  status: ('A' for Active; 'I' for Inactive)
ROOT
ATOM      1  C   UNL d   1       1.496  -0.993   3.393  0.00  0.00    -0.002 A 
ATOM      2  C1  UNL d   1       1.937  -0.336   2.253  0.00  0.00     0.010 A 
ATOM      3  C2  UNL d   1       3.268  -0.439   1.844  0.00  0.00     0.041 A 
ATOM      4  C3  UNL d   1       4.157  -1.223   2.606  0.00  0.00    -0.075 A 
ATOM      5  S   UNL d   1       5.831  -1.495   2.296  0.00  0.00     0.015 SA
ATOM      6  C4  UNL d   1       6.000  -2.491   3.669  0.00  0.00     0.022 A 
ATOM      7  C5  UNL d   1       4.818  -2.623   4.359  0.00  0.00     0.026 A 
ATOM      8  C6  UNL d   1       3.736  -1.895   3.757  0.00  0.00    -0.082 A 
ATOM      9  C7  UNL d   1       2.380  -1.770   4.146  0.00  0.00     0.045 A 
ENDROOT
TORSDOF 0
ENDMDL
