MODEL 1
REMARK minimizedAffinity 20.2460136
REMARK minimizedRMSD -1
REMARK  0 active torsions:
REMARK  status: ('A' for Active; 'I' for Inactive)
ROOT
ATOM      1  C   UNL d   1      -0.044  -5.258   6.000  0.00  0.00    -0.002 A 
ATOM      2  C1  UNL d   1       0.666  -6.000   5.066  0.00  0.00     0.010 A 
ATOM      3  C2  UNL d   1       1.448  -5.364   4.101  0.00  0.00     0.041 A 
ATOM      4  C3  UNL d   1       1.507  -3.956   4.090  0.00  0.00    -0.075 A 
ATOM      5  S   UNL d   1       2.400  -2.961   3.001  0.00  0.00     0.015 SA
ATOM      6  C4  UNL d   1       1.861  -1.529   3.750  0.00  0.00     0.022 A 
ATOM      7  C5  UNL d   1       1.019  -1.784   4.807  0.00  0.00     0.026 A 
ATOM      8  C6  UNL d   1       0.802  -3.188   5.020  0.00  0.00    -0.082 A 
ATOM      9  C7  UNL d   1       0.017  -3.862   5.986  0.00  0.00     0.045 A 
ENDROOT
TORSDOF 0
ENDMDL
