MODEL 1
REMARK minimizedAffinity 6.28224421
REMARK minimizedRMSD -1
REMARK  0 active torsions:
REMARK  status: ('A' for Active; 'I' for Inactive)
ROOT
ATOM      1  C   UNL d   1       5.944  -2.431   4.900  0.00  0.00    -0.002 A 
ATOM      2  C1  UNL d   1       5.226  -2.975   5.956  0.00  0.00     0.010 A 
ATOM      3  C2  UNL d   1       3.831  -2.916   5.970  0.00  0.00     0.041 A 
ATOM      4  C3  UNL d   1       3.164  -2.297   4.895  0.00  0.00    -0.075 A 
ATOM      5  S   UNL d   1       1.461  -2.109   4.697  0.00  0.00     0.015 SA
ATOM      6  C4  UNL d   1       1.648  -1.304   3.207  0.00  0.00     0.022 A 
ATOM      7  C5  UNL d   1       2.970  -1.172   2.854  0.00  0.00     0.026 A 
ATOM      8  C6  UNL d   1       3.865  -1.743   3.820  0.00  0.00    -0.082 A 
ATOM      9  C7  UNL d   1       5.279  -1.818   3.835  0.00  0.00     0.045 A 
ENDROOT
TORSDOF 0
ENDMDL
