MODEL 1
REMARK minimizedAffinity 6.98718023
REMARK minimizedRMSD -1
REMARK  0 active torsions:
REMARK  status: ('A' for Active; 'I' for Inactive)
ROOT
ATOM      1  C   UNL d   1       6.000  -2.712   5.439  0.00  0.00    -0.002 A 
ATOM      2  C1  UNL d   1       6.000  -3.559   4.340  0.00  0.00     0.010 A 
ATOM      3  C2  UNL d   1       4.798  -3.964   3.755  0.00  0.00     0.041 A 
ATOM      4  C3  UNL d   1       3.585  -3.496   4.297  0.00  0.00    -0.075 A 
ATOM      5  S   UNL d   1       1.992  -3.858   3.746  0.00  0.00     0.015 SA
ATOM      6  C4  UNL d   1       1.274  -2.896   4.955  0.00  0.00     0.022 A 
ATOM      7  C5  UNL d   1       2.212  -2.306   5.769  0.00  0.00     0.026 A 
ATOM      8  C6  UNL d   1       3.559  -2.642   5.403  0.00  0.00    -0.082 A 
ATOM      9  C7  UNL d   1       4.794  -2.251   5.974  0.00  0.00     0.045 A 
ENDROOT
TORSDOF 0
ENDMDL
