MODEL 1
REMARK minimizedAffinity -1.92087984
REMARK minimizedRMSD -1
REMARK  0 active torsions:
REMARK  status: ('A' for Active; 'I' for Inactive)
ROOT
ATOM      1  O1  BZF d   1       1.483   0.106   0.710  0.00  0.00    -0.204 OA
ATOM      2  C2  BZF d   1       1.187  -1.206   0.394  0.00  0.00     0.174 A 
ATOM      3  C3  BZF d   1      -0.081  -1.316  -0.052  0.00  0.00    -0.012 A 
ATOM      4  C3A BZF d   1      -0.580   0.024  -0.100  0.00  0.00    -0.107 A 
ATOM      5  C4  BZF d   1      -1.775   0.568  -0.477  0.00  0.00     0.055 A 
ATOM      6  C5  BZF d   1      -1.966   1.906  -0.335  0.00  0.00    -0.016 A 
ATOM      7  C6  BZF d   1      -0.988   2.728   0.185  0.00  0.00     0.022 A 
ATOM      8  C7  BZF d   1       0.216   2.235   0.568  0.00  0.00     0.029 A 
ATOM      9  C7A BZF d   1       0.424   0.889   0.394  0.00  0.00     0.058 A 
ENDROOT
TORSDOF 0
ENDMDL
