MODEL 1
REMARK minimizedAffinity 0.529518008
REMARK minimizedRMSD -1
REMARK  0 active torsions:
REMARK  status: ('A' for Active; 'I' for Inactive)
ROOT
ATOM      1  O1  BZF d   1      -1.130   1.878   0.455  0.00  0.00    -0.204 OA
ATOM      2  C2  BZF d   1      -0.385   3.035   0.581  0.00  0.00     0.174 A 
ATOM      3  C3  BZF d   1       0.926   2.747   0.709  0.00  0.00    -0.012 A 
ATOM      4  C3A BZF d   1       1.015   1.326   0.567  0.00  0.00    -0.107 A 
ATOM      5  C4  BZF d   1       2.058   0.444   0.584  0.00  0.00     0.055 A 
ATOM      6  C5  BZF d   1       1.799  -0.887   0.491  0.00  0.00    -0.016 A 
ATOM      7  C6  BZF d   1       0.511  -1.370   0.385  0.00  0.00     0.022 A 
ATOM      8  C7  BZF d   1      -0.555  -0.534   0.359  0.00  0.00     0.029 A 
ATOM      9  C7A BZF d   1      -0.294   0.813   0.420  0.00  0.00     0.058 A 
ENDROOT
TORSDOF 0
ENDMDL
