MODEL 1
REMARK minimizedAffinity -5.34571362
REMARK minimizedRMSD -1
REMARK  0 active torsions:
REMARK  status: ('A' for Active; 'I' for Inactive)
ROOT
ATOM      1  O1  BZF d   1       1.350  -0.496   0.298  0.00  0.00    -0.204 OA
ATOM      2  C2  BZF d   1       0.178  -0.987  -0.243  0.00  0.00     0.174 A 
ATOM      3  C3  BZF d   1      -0.705   0.010  -0.457  0.00  0.00    -0.012 A 
ATOM      4  C3A BZF d   1      -0.009   1.210  -0.108  0.00  0.00    -0.107 A 
ATOM      5  C4  BZF d   1      -0.352   2.532  -0.122  0.00  0.00     0.055 A 
ATOM      6  C5  BZF d   1       0.533   3.449   0.351  0.00  0.00    -0.016 A 
ATOM      7  C6  BZF d   1       1.766   3.079   0.848  0.00  0.00     0.022 A 
ATOM      8  C7  BZF d   1       2.152   1.780   0.878  0.00  0.00     0.029 A 
ATOM      9  C7A BZF d   1       1.273   0.855   0.371  0.00  0.00     0.058 A 
ENDROOT
TORSDOF 0
ENDMDL
