MODEL 1
REMARK minimizedAffinity -2.55831456
REMARK minimizedRMSD -1
REMARK  0 active torsions:
REMARK  status: ('A' for Active; 'I' for Inactive)
ROOT
ATOM      1  O1  BZF d   1       1.364   2.244   0.528  0.00  0.00    -0.204 OA
ATOM      2  C2  BZF d   1       0.410   3.209   0.789  0.00  0.00     0.174 A 
ATOM      3  C3  BZF d   1      -0.831   2.691   0.696  0.00  0.00    -0.012 A 
ATOM      4  C3A BZF d   1      -0.639   1.295   0.445  0.00  0.00    -0.107 A 
ATOM      5  C4  BZF d   1      -1.496   0.246   0.271  0.00  0.00     0.055 A 
ATOM      6  C5  BZF d   1      -0.988  -0.978  -0.029  0.00  0.00    -0.016 A 
ATOM      7  C6  BZF d   1       0.368  -1.187  -0.168  0.00  0.00     0.022 A 
ATOM      8  C7  BZF d   1       1.258  -0.178  -0.000  0.00  0.00     0.029 A 
ATOM      9  C7A BZF d   1       0.750   1.053   0.336  0.00  0.00     0.058 A 
ENDROOT
TORSDOF 0
ENDMDL
