MODEL 1
REMARK minimizedAffinity -3.47128344
REMARK minimizedRMSD -1
REMARK  0 active torsions:
REMARK  status: ('A' for Active; 'I' for Inactive)
ROOT
ATOM      1  O1  BZF d   1      -0.675  -1.157  -1.412  0.00  0.00    -0.204 OA
ATOM      2  C2  BZF d   1       0.108  -2.027  -0.678  0.00  0.00     0.174 A 
ATOM      3  C3  BZF d   1       0.806  -1.362   0.265  0.00  0.00    -0.012 A 
ATOM      4  C3A BZF d   1       0.366  -0.004   0.172  0.00  0.00    -0.107 A 
ATOM      5  C4  BZF d   1       0.681   1.135   0.856  0.00  0.00     0.055 A 
ATOM      6  C5  BZF d   1       0.127   2.314   0.469  0.00  0.00    -0.016 A 
ATOM      7  C6  BZF d   1      -0.741   2.391  -0.600  0.00  0.00     0.022 A 
ATOM      8  C7  BZF d   1      -1.088   1.288  -1.307  0.00  0.00     0.029 A 
ATOM      9  C7A BZF d   1      -0.555   0.090  -0.897  0.00  0.00     0.058 A 
ENDROOT
TORSDOF 0
ENDMDL
