MODEL 1
REMARK minimizedAffinity -2.93386626
REMARK minimizedRMSD -1
REMARK  0 active torsions:
REMARK  status: ('A' for Active; 'I' for Inactive)
ROOT
ATOM      1  O1  BZF d   1      -0.177   0.175  -1.843  0.00  0.00    -0.204 OA
ATOM      2  C2  BZF d   1      -0.318   0.404  -0.488  0.00  0.00     0.174 A 
ATOM      3  C3  BZF d   1      -0.717  -0.717   0.147  0.00  0.00    -0.012 A 
ATOM      4  C3A BZF d   1      -0.743  -1.732  -0.861  0.00  0.00    -0.107 A 
ATOM      5  C4  BZF d   1      -1.045  -3.064  -0.844  0.00  0.00     0.055 A 
ATOM      6  C5  BZF d   1      -1.043  -3.756  -2.014  0.00  0.00    -0.016 A 
ATOM      7  C6  BZF d   1      -0.751  -3.148  -3.217  0.00  0.00     0.022 A 
ATOM      8  C7  BZF d   1      -0.440  -1.830  -3.283  0.00  0.00     0.029 A 
ATOM      9  C7A BZF d   1      -0.408  -1.135  -2.098  0.00  0.00     0.058 A 
ENDROOT
TORSDOF 0
ENDMDL
