MODEL 1
REMARK minimizedAffinity -3.72991157
REMARK minimizedRMSD -1
REMARK  0 active torsions:
REMARK  status: ('A' for Active; 'I' for Inactive)
ROOT
ATOM      1  O1  BZF d   1       1.035   0.019  -0.095  0.00  0.00    -0.204 OA
ATOM      2  C2  BZF d   1       0.607  -1.240  -0.468  0.00  0.00     0.174 A 
ATOM      3  C3  BZF d   1      -0.724  -1.365  -0.291  0.00  0.00    -0.012 A 
ATOM      4  C3A BZF d   1      -1.170  -0.075   0.137  0.00  0.00    -0.107 A 
ATOM      5  C4  BZF d   1      -2.395   0.437   0.458  0.00  0.00     0.055 A 
ATOM      6  C5  BZF d   1      -2.479   1.716   0.910  0.00  0.00    -0.016 A 
ATOM      7  C6  BZF d   1      -1.359   2.508   1.058  0.00  0.00     0.022 A 
ATOM      8  C7  BZF d   1      -0.123   2.047   0.747  0.00  0.00     0.029 A 
ATOM      9  C7A BZF d   1      -0.039   0.766   0.260  0.00  0.00     0.058 A 
ENDROOT
TORSDOF 0
ENDMDL
