MODEL 1
REMARK minimizedAffinity -4.66231823
REMARK minimizedRMSD -1
REMARK  0 active torsions:
REMARK  status: ('A' for Active; 'I' for Inactive)
ROOT
ATOM      1  O1  BZF d   1      -0.924   3.213   0.866  0.00  0.00    -0.204 OA
ATOM      2  C2  BZF d   1       0.055   3.883   0.158  0.00  0.00     0.174 A 
ATOM      3  C3  BZF d   1       0.868   3.013  -0.475  0.00  0.00    -0.012 A 
ATOM      4  C3A BZF d   1       0.311   1.721  -0.217  0.00  0.00    -0.107 A 
ATOM      5  C4  BZF d   1       0.661   0.455  -0.591  0.00  0.00     0.055 A 
ATOM      6  C5  BZF d   1      -0.051  -0.597  -0.109  0.00  0.00    -0.016 A 
ATOM      7  C6  BZF d   1      -1.115  -0.421   0.751  0.00  0.00     0.022 A 
ATOM      8  C7  BZF d   1      -1.503   0.816   1.146  0.00  0.00     0.029 A 
ATOM      9  C7A BZF d   1      -0.806   1.883   0.635  0.00  0.00     0.058 A 
ENDROOT
TORSDOF 0
ENDMDL
