MODEL 1
REMARK minimizedAffinity -4.45618057
REMARK minimizedRMSD -1
REMARK  0 active torsions:
REMARK  status: ('A' for Active; 'I' for Inactive)
ROOT
ATOM      1  O1  BZF d   1      -0.248  -0.718  -1.693  0.00  0.00    -0.204 OA
ATOM      2  C2  BZF d   1      -0.350  -1.838  -0.891  0.00  0.00     0.174 A 
ATOM      3  C3  BZF d   1      -0.645  -1.492   0.379  0.00  0.00    -0.012 A 
ATOM      4  C3A BZF d   1      -0.824  -0.073   0.351  0.00  0.00    -0.107 A 
ATOM      5  C4  BZF d   1      -1.147   0.852   1.302  0.00  0.00     0.055 A 
ATOM      6  C5  BZF d   1      -1.170   2.168   0.964  0.00  0.00    -0.016 A 
ATOM      7  C6  BZF d   1      -0.871   2.594  -0.314  0.00  0.00     0.022 A 
ATOM      8  C7  BZF d   1      -0.550   1.713  -1.293  0.00  0.00     0.029 A 
ATOM      9  C7A BZF d   1      -0.558   0.380  -0.962  0.00  0.00     0.058 A 
ENDROOT
TORSDOF 0
ENDMDL
