MODEL 1
REMARK minimizedAffinity -2.21491671
REMARK minimizedRMSD -1
REMARK  0 active torsions:
REMARK  status: ('A' for Active; 'I' for Inactive)
ROOT
ATOM      1  O1  BZF d   1      -1.246  -1.973  -2.193  0.00  0.00    -0.204 OA
ATOM      2  C2  BZF d   1      -0.984  -3.326  -2.086  0.00  0.00     0.174 A 
ATOM      3  C3  BZF d   1      -0.158  -3.572  -1.049  0.00  0.00    -0.012 A 
ATOM      4  C3A BZF d   1       0.039  -2.305  -0.415  0.00  0.00    -0.107 A 
ATOM      5  C4  BZF d   1       0.748  -1.904   0.681  0.00  0.00     0.055 A 
ATOM      6  C5  BZF d   1       0.792  -0.581   0.991  0.00  0.00    -0.016 A 
ATOM      7  C6  BZF d   1       0.144   0.366   0.226  0.00  0.00     0.022 A 
ATOM      8  C7  BZF d   1      -0.576   0.015  -0.867  0.00  0.00     0.029 A 
ATOM      9  C7A BZF d   1      -0.650  -1.324  -1.164  0.00  0.00     0.058 A 
ENDROOT
TORSDOF 0
ENDMDL
