MODEL 1
REMARK minimizedAffinity -6.20286751
REMARK minimizedRMSD -1
REMARK  0 active torsions:
REMARK  status: ('A' for Active; 'I' for Inactive)
ROOT
ATOM      1  O1  BZF d   1       1.246  -0.529   0.630  0.00  0.00    -0.204 OA
ATOM      2  C2  BZF d   1      -0.055  -0.761   0.229  0.00  0.00     0.174 A 
ATOM      3  C3  BZF d   1      -0.713   0.401   0.043  0.00  0.00    -0.012 A 
ATOM      4  C3A BZF d   1       0.263   1.425   0.259  0.00  0.00    -0.107 A 
ATOM      5  C4  BZF d   1       0.221   2.789   0.205  0.00  0.00     0.055 A 
ATOM      6  C5  BZF d   1       1.330   3.498   0.542  0.00  0.00    -0.016 A 
ATOM      7  C6  BZF d   1       2.495   2.876   0.942  0.00  0.00     0.022 A 
ATOM      8  C7  BZF d   1       2.586   1.526   1.007  0.00  0.00     0.029 A 
ATOM      9  C7A BZF d   1       1.477   0.806   0.635  0.00  0.00     0.058 A 
ENDROOT
TORSDOF 0
ENDMDL
