MODEL 1
REMARK minimizedAffinity 1.40521479
REMARK minimizedRMSD -1
REMARK  0 active torsions:
REMARK  status: ('A' for Active; 'I' for Inactive)
ROOT
ATOM      1  O1  BZF d   1      -1.123  -0.384   1.328  0.00  0.00    -0.204 OA
ATOM      2  C2  BZF d   1      -0.607  -1.022   0.216  0.00  0.00     0.174 A 
ATOM      3  C3  BZF d   1      -0.022  -0.135  -0.616  0.00  0.00    -0.012 A 
ATOM      4  C3A BZF d   1      -0.102   1.123   0.060  0.00  0.00    -0.107 A 
ATOM      5  C4  BZF d   1       0.320   2.384  -0.252  0.00  0.00     0.055 A 
ATOM      6  C5  BZF d   1       0.021   3.408   0.591  0.00  0.00    -0.016 A 
ATOM      7  C6  BZF d   1      -0.700   3.207   1.750  0.00  0.00     0.022 A 
ATOM      8  C7  BZF d   1      -1.135   1.973   2.104  0.00  0.00     0.029 A 
ATOM      9  C7A BZF d   1      -0.807   0.932   1.271  0.00  0.00     0.058 A 
ENDROOT
TORSDOF 0
ENDMDL
