MODEL 1
REMARK minimizedAffinity 1.17214823
REMARK minimizedRMSD -1
REMARK  0 active torsions:
REMARK  status: ('A' for Active; 'I' for Inactive)
ROOT
ATOM      1  O1  BZF d   1       0.861   2.068   0.573  0.00  0.00    -0.204 OA
ATOM      2  C2  BZF d   1      -0.470   2.436   0.542  0.00  0.00     0.174 A 
ATOM      3  C3  BZF d   1      -1.262   1.355   0.387  0.00  0.00    -0.012 A 
ATOM      4  C3A BZF d   1      -0.375   0.233   0.409  0.00  0.00    -0.107 A 
ATOM      5  C4  BZF d   1      -0.565  -1.116   0.316  0.00  0.00     0.055 A 
ATOM      6  C5  BZF d   1       0.518  -1.937   0.298  0.00  0.00    -0.016 A 
ATOM      7  C6  BZF d   1       1.804  -1.442   0.367  0.00  0.00     0.022 A 
ATOM      8  C7  BZF d   1       2.043  -0.112   0.466  0.00  0.00     0.029 A 
ATOM      9  C7A BZF d   1       0.949   0.717   0.517  0.00  0.00     0.058 A 
ENDROOT
TORSDOF 0
ENDMDL
