MODEL 1
REMARK minimizedAffinity 7.69475222
REMARK minimizedRMSD -1
REMARK  0 active torsions:
REMARK  status: ('A' for Active; 'I' for Inactive)
ROOT
ATOM      1  O1  BZF d   1       0.072  -1.794   0.519  0.00  0.00    -0.204 OA
ATOM      2  C2  BZF d   1       1.251  -1.076   0.540  0.00  0.00     0.174 A 
ATOM      3  C3  BZF d   1       1.986  -1.330  -0.563  0.00  0.00    -0.012 A 
ATOM      4  C3A BZF d   1       1.175  -2.195  -1.364  0.00  0.00    -0.107 A 
ATOM      5  C4  BZF d   1       1.349  -2.781  -2.585  0.00  0.00     0.055 A 
ATOM      6  C5  BZF d   1       0.396  -3.629  -3.053  0.00  0.00    -0.016 A 
ATOM      7  C6  BZF d   1      -0.740  -3.917  -2.325  0.00  0.00     0.022 A 
ATOM      8  C7  BZF d   1      -0.959  -3.356  -1.111  0.00  0.00     0.029 A 
ATOM      9  C7A BZF d   1      -0.014  -2.473  -0.650  0.00  0.00     0.058 A 
ENDROOT
TORSDOF 0
ENDMDL
