MODEL 1
REMARK minimizedAffinity -0.389885813
REMARK minimizedRMSD -1
REMARK  0 active torsions:
REMARK  status: ('A' for Active; 'I' for Inactive)
ROOT
ATOM      1  O1  BZF d   1       0.492  -0.602   0.999  0.00  0.00    -0.204 OA
ATOM      2  C2  BZF d   1       0.182  -1.551   0.044  0.00  0.00     0.174 A 
ATOM      3  C3  BZF d   1      -0.635  -1.034  -0.896  0.00  0.00    -0.012 A 
ATOM      4  C3A BZF d   1      -0.775   0.349  -0.554  0.00  0.00    -0.107 A 
ATOM      5  C4  BZF d   1      -1.452   1.392  -1.119  0.00  0.00     0.055 A 
ATOM      6  C5  BZF d   1      -1.442   2.600  -0.496  0.00  0.00    -0.016 A 
ATOM      7  C6  BZF d   1      -0.773   2.798   0.693  0.00  0.00     0.022 A 
ATOM      8  C7  BZF d   1      -0.083   1.795   1.289  0.00  0.00     0.029 A 
ATOM      9  C7A BZF d   1      -0.063   0.582   0.645  0.00  0.00     0.058 A 
ENDROOT
TORSDOF 0
ENDMDL
