MODEL 1
REMARK minimizedAffinity 17.3143482
REMARK minimizedRMSD -1
REMARK  0 active torsions:
REMARK  status: ('A' for Active; 'I' for Inactive)
ROOT
ATOM      1  C   UNL d   1       0.810   2.485  -5.979  0.00  0.00     0.077 C 
ATOM      2  C1  UNL d   1       2.160   3.136  -5.912  0.00  0.00    -0.074 A 
ATOM      3  C2  UNL d   1       2.292   4.526  -6.000  0.00  0.00    -0.005 A 
ATOM      4  C3  UNL d   1       3.553   5.118  -5.927  0.00  0.00     0.006 A 
ATOM      5  C4  UNL d   1       4.692   4.328  -5.766  0.00  0.00    -0.005 A 
ATOM      6  C5  UNL d   1       4.579   2.937  -5.676  0.00  0.00    -0.074 A 
ATOM      7  C6  UNL d   1       5.792   2.074  -5.493  0.00  0.00     0.077 C 
ATOM      8  C7  UNL d   1       3.308   2.350  -5.743  0.00  0.00    -0.001 A 
ENDROOT
TORSDOF 0
ENDMDL
