MODEL 1
REMARK minimizedAffinity 8.90228844
REMARK minimizedRMSD -1
REMARK  0 active torsions:
REMARK  status: ('A' for Active; 'I' for Inactive)
ROOT
ATOM      1  C   UNL d   1       5.999  -6.000  -1.682  0.00  0.00     0.077 C 
ATOM      2  C1  UNL d   1       5.294  -5.006  -0.806  0.00  0.00    -0.074 A 
ATOM      3  C2  UNL d   1       4.526  -3.977  -1.361  0.00  0.00    -0.005 A 
ATOM      4  C3  UNL d   1       3.869  -3.067  -0.534  0.00  0.00     0.006 A 
ATOM      5  C4  UNL d   1       3.973  -3.175   0.854  0.00  0.00    -0.005 A 
ATOM      6  C5  UNL d   1       4.736  -4.198   1.426  0.00  0.00    -0.074 A 
ATOM      7  C6  UNL d   1       4.850  -4.335   2.915  0.00  0.00     0.077 C 
ATOM      8  C7  UNL d   1       5.388  -5.114   0.588  0.00  0.00    -0.001 A 
ENDROOT
TORSDOF 0
ENDMDL
