MODEL 1
REMARK minimizedAffinity -0.000135493188
REMARK minimizedRMSD -1
REMARK  0 active torsions:
REMARK  status: ('A' for Active; 'I' for Inactive)
ROOT
ATOM      1  C   UNL d   1       1.088  -2.347   0.837  0.00  0.00     0.077 C 
ATOM      2  C1  UNL d   1       2.355  -3.122   1.048  0.00  0.00    -0.074 A 
ATOM      3  C2  UNL d   1       3.037  -3.693  -0.031  0.00  0.00    -0.005 A 
ATOM      4  C3  UNL d   1       4.219  -4.403   0.180  0.00  0.00     0.006 A 
ATOM      5  C4  UNL d   1       4.730  -4.548   1.470  0.00  0.00    -0.005 A 
ATOM      6  C5  UNL d   1       4.063  -3.983   2.561  0.00  0.00    -0.074 A 
ATOM      7  C6  UNL d   1       4.604  -4.122   3.953  0.00  0.00     0.077 C 
ATOM      8  C7  UNL d   1       2.879  -3.266   2.340  0.00  0.00    -0.001 A 
ENDROOT
TORSDOF 0
ENDMDL
