MODEL 1
REMARK minimizedAffinity -0.0648954883
REMARK minimizedRMSD -1
REMARK  0 active torsions:
REMARK  status: ('A' for Active; 'I' for Inactive)
ROOT
ATOM      1  C   UNL d   1       0.959   2.282  -5.988  0.00  0.00     0.077 C 
ATOM      2  C1  UNL d   1       2.305   2.943  -5.996  0.00  0.00    -0.074 A 
ATOM      3  C2  UNL d   1       2.421   4.337  -5.999  0.00  0.00    -0.005 A 
ATOM      4  C3  UNL d   1       3.680   4.938  -5.997  0.00  0.00     0.006 A 
ATOM      5  C4  UNL d   1       4.833   4.152  -5.992  0.00  0.00    -0.005 A 
ATOM      6  C5  UNL d   1       4.737   2.757  -5.988  0.00  0.00    -0.074 A 
ATOM      7  C6  UNL d   1       5.966   1.898  -5.973  0.00  0.00     0.077 C 
ATOM      8  C7  UNL d   1       3.468   2.161  -5.983  0.00  0.00    -0.001 A 
ENDROOT
TORSDOF 0
ENDMDL
