MODEL 1
REMARK minimizedAffinity 3.74764562
REMARK minimizedRMSD -1
REMARK  0 active torsions:
REMARK  status: ('A' for Active; 'I' for Inactive)
ROOT
ATOM      1  C   UNL d   1       0.879   0.846  -5.957  0.00  0.00     0.077 C 
ATOM      2  C1  UNL d   1       1.567   2.178  -5.959  0.00  0.00    -0.074 A 
ATOM      3  C2  UNL d   1       0.830   3.367  -5.977  0.00  0.00    -0.005 A 
ATOM      4  C3  UNL d   1       1.484   4.600  -5.970  0.00  0.00     0.006 A 
ATOM      5  C4  UNL d   1       2.878   4.655  -5.943  0.00  0.00    -0.005 A 
ATOM      6  C5  UNL d   1       3.631   3.477  -5.924  0.00  0.00    -0.074 A 
ATOM      7  C6  UNL d   1       5.130   3.519  -5.885  0.00  0.00     0.077 C 
ATOM      8  C7  UNL d   1       2.967   2.243  -5.925  0.00  0.00    -0.001 A 
ENDROOT
TORSDOF 0
ENDMDL
