MODEL 1
REMARK minimizedAffinity 2.1709826
REMARK minimizedRMSD -1
REMARK  0 active torsions:
REMARK  status: ('A' for Active; 'I' for Inactive)
ROOT
ATOM      1  C   UNL d   1       1.109  -1.898   1.181  0.00  0.00     0.077 C 
ATOM      2  C1  UNL d   1       2.356  -2.729   1.229  0.00  0.00    -0.074 A 
ATOM      3  C2  UNL d   1       3.034  -3.076   0.056  0.00  0.00    -0.005 A 
ATOM      4  C3  UNL d   1       4.198  -3.842   0.117  0.00  0.00     0.006 A 
ATOM      5  C4  UNL d   1       4.696  -4.268   1.349  0.00  0.00    -0.005 A 
ATOM      6  C5  UNL d   1       4.032  -3.930   2.533  0.00  0.00    -0.074 A 
ATOM      7  C6  UNL d   1       4.558  -4.371   3.866  0.00  0.00     0.077 C 
ATOM      8  C7  UNL d   1       2.867  -3.154   2.464  0.00  0.00    -0.001 A 
ENDROOT
TORSDOF 0
ENDMDL
