MODEL 1
REMARK minimizedAffinity 4.1014719
REMARK minimizedRMSD -1
REMARK  0 active torsions:
REMARK  status: ('A' for Active; 'I' for Inactive)
ROOT
ATOM      1  C   UNL d   1       4.581  -6.000   5.996  0.00  0.00     0.077 C 
ATOM      2  C1  UNL d   1       4.827  -4.699   5.290  0.00  0.00    -0.074 A 
ATOM      3  C2  UNL d   1       5.236  -3.564   5.997  0.00  0.00    -0.005 A 
ATOM      4  C3  UNL d   1       5.470  -2.364   5.326  0.00  0.00     0.006 A 
ATOM      5  C4  UNL d   1       5.296  -2.287   3.944  0.00  0.00    -0.005 A 
ATOM      6  C5  UNL d   1       4.888  -3.411   3.220  0.00  0.00    -0.074 A 
ATOM      7  C6  UNL d   1       4.707  -3.348   1.732  0.00  0.00     0.077 C 
ATOM      8  C7  UNL d   1       4.662  -4.616   3.901  0.00  0.00    -0.001 A 
ENDROOT
TORSDOF 0
ENDMDL
