MODEL 1
REMARK minimizedAffinity 5.11640167
REMARK minimizedRMSD -1
REMARK  0 active torsions:
REMARK  status: ('A' for Active; 'I' for Inactive)
ROOT
ATOM      1  C   UNL d   1       3.527   0.075  -0.553  0.00  0.00     0.077 C 
ATOM      2  C1  UNL d   1       2.737  -0.828   0.347  0.00  0.00    -0.074 A 
ATOM      3  C2  UNL d   1       2.966  -2.207   0.364  0.00  0.00    -0.005 A 
ATOM      4  C3  UNL d   1       2.230  -3.032   1.214  0.00  0.00     0.006 A 
ATOM      5  C4  UNL d   1       1.259  -2.487   2.055  0.00  0.00    -0.005 A 
ATOM      6  C5  UNL d   1       1.016  -1.110   2.053  0.00  0.00    -0.074 A 
ATOM      7  C6  UNL d   1      -0.017  -0.507   2.957  0.00  0.00     0.077 C 
ATOM      8  C7  UNL d   1       1.765  -0.287   1.201  0.00  0.00    -0.001 A 
ENDROOT
TORSDOF 0
ENDMDL
