MODEL 1
REMARK minimizedAffinity 2.90367508
REMARK minimizedRMSD -1
REMARK  0 active torsions:
REMARK  status: ('A' for Active; 'I' for Inactive)
ROOT
ATOM      1  C   UNL d   1      -5.998   0.060  -4.482  0.00  0.00     0.077 C 
ATOM      2  C1  UNL d   1      -5.450   1.454  -4.400  0.00  0.00    -0.074 A 
ATOM      3  C2  UNL d   1      -5.999   2.488  -5.165  0.00  0.00    -0.005 A 
ATOM      4  C3  UNL d   1      -5.485   3.782  -5.071  0.00  0.00     0.006 A 
ATOM      5  C4  UNL d   1      -4.419   4.053  -4.211  0.00  0.00    -0.005 A 
ATOM      6  C5  UNL d   1      -3.859   3.032  -3.438  0.00  0.00    -0.074 A 
ATOM      7  C6  UNL d   1      -2.719   3.309  -2.502  0.00  0.00     0.077 C 
ATOM      8  C7  UNL d   1      -4.385   1.736  -3.533  0.00  0.00    -0.001 A 
ENDROOT
TORSDOF 0
ENDMDL
