MODEL 1
REMARK minimizedAffinity -2.20871139
REMARK minimizedRMSD -1
REMARK  0 active torsions:
REMARK  status: ('A' for Active; 'I' for Inactive)
ROOT
ATOM      1  C1  BNZ d   1      -1.007  -3.422  -0.698  0.00  0.00     0.000 A 
ATOM      2  C2  BNZ d   1      -0.893  -2.541   0.345  0.00  0.00     0.000 A 
ATOM      3  C3  BNZ d   1      -0.452  -1.264   0.136  0.00  0.00     0.000 A 
ATOM      4  C4  BNZ d   1      -0.089  -0.882  -1.105  0.00  0.00     0.000 A 
ATOM      5  C5  BNZ d   1      -0.189  -1.761  -2.164  0.00  0.00     0.000 A 
ATOM      6  C6  BNZ d   1      -0.670  -3.034  -1.958  0.00  0.00     0.000 A 
ENDROOT
TORSDOF 0
ENDMDL
