MODEL 1
REMARK minimizedAffinity -3.47599077
REMARK minimizedRMSD -1
REMARK  0 active torsions:
REMARK  status: ('A' for Active; 'I' for Inactive)
ROOT
ATOM      1  C1  BNZ d   1      -0.584  -1.393  -0.881  0.00  0.00     0.000 A 
ATOM      2  C2  BNZ d   1      -0.379  -0.044  -0.769  0.00  0.00     0.000 A 
ATOM      3  C3  BNZ d   1      -0.607   0.603   0.413  0.00  0.00     0.000 A 
ATOM      4  C4  BNZ d   1      -1.077  -0.092   1.469  0.00  0.00     0.000 A 
ATOM      5  C5  BNZ d   1      -1.297  -1.451   1.369  0.00  0.00     0.000 A 
ATOM      6  C6  BNZ d   1      -1.030  -2.106   0.189  0.00  0.00     0.000 A 
ENDROOT
TORSDOF 0
ENDMDL
