MODEL 1
REMARK minimizedAffinity -3.58742166
REMARK minimizedRMSD -1
REMARK  0 active torsions:
REMARK  status: ('A' for Active; 'I' for Inactive)
ROOT
ATOM      1  C1  BNZ d   1       0.050   1.059   0.434  0.00  0.00     0.000 A 
ATOM      2  C2  BNZ d   1       0.451   1.025  -0.875  0.00  0.00     0.000 A 
ATOM      3  C3  BNZ d   1       0.319  -0.115  -1.617  0.00  0.00     0.000 A 
ATOM      4  C4  BNZ d   1      -0.177  -1.229  -1.040  0.00  0.00     0.000 A 
ATOM      5  C5  BNZ d   1      -0.578  -1.212   0.281  0.00  0.00     0.000 A 
ATOM      6  C6  BNZ d   1      -0.479  -0.052   1.014  0.00  0.00     0.000 A 
ENDROOT
TORSDOF 0
ENDMDL
