MODEL 1
REMARK minimizedAffinity -1.77997816
REMARK minimizedRMSD -1
REMARK  0 active torsions:
REMARK  status: ('A' for Active; 'I' for Inactive)
ROOT
ATOM      1  C1  BNZ d   1       0.029  -0.104  -0.535  0.00  0.00     0.000 A 
ATOM      2  C2  BNZ d   1      -0.242  -1.444  -0.452  0.00  0.00     0.000 A 
ATOM      3  C3  BNZ d   1      -0.809  -1.975   0.673  0.00  0.00     0.000 A 
ATOM      4  C4  BNZ d   1      -1.068  -1.174   1.726  0.00  0.00     0.000 A 
ATOM      5  C5  BNZ d   1      -0.793   0.178   1.662  0.00  0.00     0.000 A 
ATOM      6  C6  BNZ d   1      -0.258   0.715   0.514  0.00  0.00     0.000 A 
ENDROOT
TORSDOF 0
ENDMDL
