MODEL 1
REMARK minimizedAffinity -2.45259881
REMARK minimizedRMSD -1
REMARK  0 active torsions:
REMARK  status: ('A' for Active; 'I' for Inactive)
ROOT
ATOM      1  C1  BNZ d   1      -0.772  -1.243   0.704  0.00  0.00     0.000 A 
ATOM      2  C2  BNZ d   1      -1.173  -2.529   0.458  0.00  0.00     0.000 A 
ATOM      3  C3  BNZ d   1      -0.945  -3.113  -0.757  0.00  0.00     0.000 A 
ATOM      4  C4  BNZ d   1      -0.352  -2.398  -1.735  0.00  0.00     0.000 A 
ATOM      5  C5  BNZ d   1       0.049  -1.097  -1.506  0.00  0.00     0.000 A 
ATOM      6  C6  BNZ d   1      -0.147  -0.526  -0.270  0.00  0.00     0.000 A 
ENDROOT
TORSDOF 0
ENDMDL
