MODEL 1
REMARK minimizedAffinity -4.26770067
REMARK minimizedRMSD -1
REMARK  0 active torsions:
REMARK  status: ('A' for Active; 'I' for Inactive)
ROOT
ATOM      1  C1  BNZ d   1       0.241  -1.141  -0.046  0.00  0.00     0.000 A 
ATOM      2  C2  BNZ d   1       0.123   0.194   0.232  0.00  0.00     0.000 A 
ATOM      3  C3  BNZ d   1      -0.894   0.658   1.019  0.00  0.00     0.000 A 
ATOM      4  C4  BNZ d   1      -1.813  -0.208   1.494  0.00  0.00     0.000 A 
ATOM      5  C5  BNZ d   1      -1.713  -1.556   1.215  0.00  0.00     0.000 A 
ATOM      6  C6  BNZ d   1      -0.666  -2.024   0.454  0.00  0.00     0.000 A 
ENDROOT
TORSDOF 0
ENDMDL
