MODEL 1
REMARK minimizedAffinity -1.62770367
REMARK minimizedRMSD -1
REMARK  0 active torsions:
REMARK  status: ('A' for Active; 'I' for Inactive)
ROOT
ATOM      1  C1  BNZ d   1       3.482  -3.986   5.926  0.00  0.00     0.000 A 
ATOM      2  C2  BNZ d   1       4.594  -4.785   5.931  0.00  0.00     0.000 A 
ATOM      3  C3  BNZ d   1       5.847  -4.240   5.988  0.00  0.00     0.000 A 
ATOM      4  C4  BNZ d   1       5.987  -2.899   6.000  0.00  0.00     0.000 A 
ATOM      5  C5  BNZ d   1       4.876  -2.080   5.985  0.00  0.00     0.000 A 
ATOM      6  C6  BNZ d   1       3.615  -2.632   5.967  0.00  0.00     0.000 A 
ENDROOT
TORSDOF 0
ENDMDL
