MODEL 1
REMARK minimizedAffinity -2.60679269
REMARK minimizedRMSD -1
REMARK  0 active torsions:
REMARK  status: ('A' for Active; 'I' for Inactive)
ROOT
ATOM      1  C1  BNZ d   1      -1.067  -1.776   1.192  0.00  0.00     0.000 A 
ATOM      2  C2  BNZ d   1      -0.933  -0.435   1.439  0.00  0.00     0.000 A 
ATOM      3  C3  BNZ d   1      -0.574   0.427   0.441  0.00  0.00     0.000 A 
ATOM      4  C4  BNZ d   1      -0.311  -0.056  -0.790  0.00  0.00     0.000 A 
ATOM      5  C5  BNZ d   1      -0.432  -1.406  -1.052  0.00  0.00     0.000 A 
ATOM      6  C6  BNZ d   1      -0.832  -2.266  -0.056  0.00  0.00     0.000 A 
ENDROOT
TORSDOF 0
ENDMDL
