MODEL 1
REMARK minimizedAffinity -2.75552678
REMARK minimizedRMSD -1
REMARK  0 active torsions:
REMARK  status: ('A' for Active; 'I' for Inactive)
ROOT
ATOM      1  C1  BNZ d   1       1.457   3.552   1.924  0.00  0.00     0.000 A 
ATOM      2  C2  BNZ d   1       0.353   3.020   1.314  0.00  0.00     0.000 A 
ATOM      3  C3  BNZ d   1       0.408   2.588   0.019  0.00  0.00     0.000 A 
ATOM      4  C4  BNZ d   1       1.555   2.726  -0.677  0.00  0.00     0.000 A 
ATOM      5  C5  BNZ d   1       2.675   3.269  -0.080  0.00  0.00     0.000 A 
ATOM      6  C6  BNZ d   1       2.626   3.667   1.237  0.00  0.00     0.000 A 
ENDROOT
TORSDOF 0
ENDMDL
