MODEL 1
REMARK minimizedAffinity -2.62679029
REMARK minimizedRMSD -1
REMARK  0 active torsions:
REMARK  status: ('A' for Active; 'I' for Inactive)
ROOT
ATOM      1  C1  BNZ d   1      -1.023  -3.004   0.029  0.00  0.00     0.000 A 
ATOM      2  C2  BNZ d   1      -1.015  -2.060   1.021  0.00  0.00     0.000 A 
ATOM      3  C3  BNZ d   1      -0.581  -0.788   0.773  0.00  0.00     0.000 A 
ATOM      4  C4  BNZ d   1      -0.120  -0.472  -0.454  0.00  0.00     0.000 A 
ATOM      5  C5  BNZ d   1      -0.113  -1.415  -1.462  0.00  0.00     0.000 A 
ATOM      6  C6  BNZ d   1      -0.586  -2.684  -1.220  0.00  0.00     0.000 A 
ENDROOT
TORSDOF 0
ENDMDL
