MODEL 1
REMARK minimizedAffinity -2.13346267
REMARK minimizedRMSD -1
REMARK  0 active torsions:
REMARK  status: ('A' for Active; 'I' for Inactive)
ROOT
ATOM      1  C1  BNZ d   1      -0.485  -1.310  -0.196  0.00  0.00     0.000 A 
ATOM      2  C2  BNZ d   1       0.055  -0.184  -0.758  0.00  0.00     0.000 A 
ATOM      3  C3  BNZ d   1       0.044   1.007  -0.088  0.00  0.00     0.000 A 
ATOM      4  C4  BNZ d   1      -0.542   1.081   1.124  0.00  0.00     0.000 A 
ATOM      5  C5  BNZ d   1      -1.099  -0.043   1.701  0.00  0.00     0.000 A 
ATOM      6  C6  BNZ d   1      -1.052  -1.250   1.040  0.00  0.00     0.000 A 
ENDROOT
TORSDOF 0
ENDMDL
