MODEL 1
REMARK minimizedAffinity -2.00846314
REMARK minimizedRMSD -1
REMARK  0 active torsions:
REMARK  status: ('A' for Active; 'I' for Inactive)
ROOT
ATOM      1  C1  BNZ d   1      -0.703  -0.629  -0.830  0.00  0.00     0.000 A 
ATOM      2  C2  BNZ d   1      -0.237   0.647  -1.003  0.00  0.00     0.000 A 
ATOM      3  C3  BNZ d   1       0.258   1.361   0.053  0.00  0.00     0.000 A 
ATOM      4  C4  BNZ d   1       0.248   0.814   1.285  0.00  0.00     0.000 A 
ATOM      5  C5  BNZ d   1      -0.227  -0.468   1.478  0.00  0.00     0.000 A 
ATOM      6  C6  BNZ d   1      -0.688  -1.198   0.407  0.00  0.00     0.000 A 
ENDROOT
TORSDOF 0
ENDMDL
