MODEL 1
REMARK minimizedAffinity -0.835899353
REMARK minimizedRMSD -1
REMARK  0 active torsions:
REMARK  status: ('A' for Active; 'I' for Inactive)
ROOT
ATOM      1  C1  BNZ d   1      -0.549   1.388  -0.361  0.00  0.00     0.000 A 
ATOM      2  C2  BNZ d   1      -1.082   0.954   0.824  0.00  0.00     0.000 A 
ATOM      3  C3  BNZ d   1      -0.991  -0.359   1.193  0.00  0.00     0.000 A 
ATOM      4  C4  BNZ d   1      -0.402  -1.242   0.361  0.00  0.00     0.000 A 
ATOM      5  C5  BNZ d   1       0.132  -0.822  -0.841  0.00  0.00     0.000 A 
ATOM      6  C6  BNZ d   1       0.072   0.508  -1.191  0.00  0.00     0.000 A 
ENDROOT
TORSDOF 0
ENDMDL
