MODEL 1
REMARK minimizedAffinity -0.35322842
REMARK minimizedRMSD -1
REMARK  0 active torsions:
REMARK  status: ('A' for Active; 'I' for Inactive)
ROOT
ATOM      1  C1  BNZ d   1      -0.412  -0.019  -0.261  0.00  0.00     0.000 A 
ATOM      2  C2  BNZ d   1      -0.520   0.348   1.054  0.00  0.00     0.000 A 
ATOM      3  C3  BNZ d   1      -0.901  -0.559   2.004  0.00  0.00     0.000 A 
ATOM      4  C4  BNZ d   1      -1.210  -1.818   1.633  0.00  0.00     0.000 A 
ATOM      5  C5  BNZ d   1      -1.115  -2.200   0.309  0.00  0.00     0.000 A 
ATOM      6  C6  BNZ d   1      -0.695  -1.295  -0.638  0.00  0.00     0.000 A 
ENDROOT
TORSDOF 0
ENDMDL
