MODEL 1
REMARK minimizedAffinity -4.24689007
REMARK minimizedRMSD -1
REMARK  0 active torsions:
REMARK  status: ('A' for Active; 'I' for Inactive)
ROOT
ATOM      1  C1  BNZ d   1      -0.136  -2.229  -2.071  0.00  0.00     0.000 A 
ATOM      2  C2  BNZ d   1       0.142  -0.912  -1.814  0.00  0.00     0.000 A 
ATOM      3  C3  BNZ d   1      -0.097  -0.375  -0.580  0.00  0.00     0.000 A 
ATOM      4  C4  BNZ d   1      -0.650  -1.141   0.381  0.00  0.00     0.000 A 
ATOM      5  C5  BNZ d   1      -0.944  -2.468   0.135  0.00  0.00     0.000 A 
ATOM      6  C6  BNZ d   1      -0.666  -3.016  -1.096  0.00  0.00     0.000 A 
ENDROOT
TORSDOF 0
ENDMDL
