MODEL 1
REMARK minimizedAffinity -0.589320481
REMARK minimizedRMSD -1
REMARK  0 active torsions:
REMARK  status: ('A' for Active; 'I' for Inactive)
ROOT
ATOM      1  C   UNL d   1      -3.188  -3.961  -0.172  0.00  0.00     0.078 C 
ATOM      2  C1  UNL d   1      -1.744  -3.640   0.075  0.00  0.00    -0.077 A 
ATOM      3  C2  UNL d   1      -1.321  -2.318   0.261  0.00  0.00    -0.001 A 
ATOM      4  C3  UNL d   1       0.028  -2.033   0.480  0.00  0.00     0.003 A 
ATOM      5  C4  UNL d   1       0.964  -3.064   0.515  0.00  0.00    -0.005 A 
ATOM      6  C5  UNL d   1       0.553  -4.382   0.329  0.00  0.00     0.003 A 
ATOM      7  C6  UNL d   1      -0.795  -4.669   0.110  0.00  0.00    -0.001 A 
ENDROOT
TORSDOF 0
ENDMDL
