MODEL 1
REMARK minimizedAffinity -0.42475155
REMARK minimizedRMSD -1
REMARK  0 active torsions:
REMARK  status: ('A' for Active; 'I' for Inactive)
ROOT
ATOM      1  C   UNL d   1       5.835  -4.513   4.799  0.00  0.00     0.078 C 
ATOM      2  C1  UNL d   1       4.783  -3.444   4.789  0.00  0.00    -0.077 A 
ATOM      3  C2  UNL d   1       4.333  -2.888   3.585  0.00  0.00    -0.001 A 
ATOM      4  C3  UNL d   1       3.360  -1.887   3.591  0.00  0.00     0.003 A 
ATOM      5  C4  UNL d   1       2.831  -1.433   4.797  0.00  0.00    -0.005 A 
ATOM      6  C5  UNL d   1       3.274  -1.979   6.000  0.00  0.00     0.003 A 
ATOM      7  C6  UNL d   1       4.247  -2.980   5.996  0.00  0.00    -0.001 A 
ENDROOT
TORSDOF 0
ENDMDL
