MODEL 1
REMARK minimizedAffinity -3.570297
REMARK minimizedRMSD -1
REMARK  0 active torsions:
REMARK  status: ('A' for Active; 'I' for Inactive)
ROOT
ATOM      1  C   UNL d   1      -0.042  -1.700   1.954  0.00  0.00     0.078 C 
ATOM      2  C1  UNL d   1       0.034  -2.321   0.592  0.00  0.00    -0.077 A 
ATOM      3  C2  UNL d   1       0.463  -1.579  -0.516  0.00  0.00    -0.001 A 
ATOM      4  C3  UNL d   1       0.520  -2.167  -1.780  0.00  0.00     0.003 A 
ATOM      5  C4  UNL d   1       0.148  -3.500  -1.949  0.00  0.00    -0.005 A 
ATOM      6  C5  UNL d   1      -0.282  -4.245  -0.854  0.00  0.00     0.003 A 
ATOM      7  C6  UNL d   1      -0.340  -3.658   0.412  0.00  0.00    -0.001 A 
ENDROOT
TORSDOF 0
ENDMDL
