MODEL 1
REMARK minimizedAffinity -1.24625695
REMARK minimizedRMSD -1
REMARK  0 active torsions:
REMARK  status: ('A' for Active; 'I' for Inactive)
ROOT
ATOM      1  C   UNL d   1      -1.524  -2.084   2.988  0.00  0.00     0.078 C 
ATOM      2  C1  UNL d   1      -0.952  -2.213   1.608  0.00  0.00    -0.077 A 
ATOM      3  C2  UNL d   1       0.056  -3.144   1.329  0.00  0.00    -0.001 A 
ATOM      4  C3  UNL d   1       0.585  -3.247   0.042  0.00  0.00     0.003 A 
ATOM      5  C4  UNL d   1       0.114  -2.422  -0.977  0.00  0.00    -0.005 A 
ATOM      6  C5  UNL d   1      -0.888  -1.491  -0.709  0.00  0.00     0.003 A 
ATOM      7  C6  UNL d   1      -1.418  -1.386   0.578  0.00  0.00    -0.001 A 
ENDROOT
TORSDOF 0
ENDMDL
