MODEL 1
REMARK minimizedAffinity 5.22878313
REMARK minimizedRMSD -1
REMARK  0 active torsions:
REMARK  status: ('A' for Active; 'I' for Inactive)
ROOT
ATOM      1  C   UNL d   1       0.641  -0.413  -2.096  0.00  0.00     0.078 C 
ATOM      2  C1  UNL d   1       0.398  -1.523  -1.118  0.00  0.00    -0.077 A 
ATOM      3  C2  UNL d   1       1.349  -2.532  -0.921  0.00  0.00    -0.001 A 
ATOM      4  C3  UNL d   1       1.105  -3.565  -0.015  0.00  0.00     0.003 A 
ATOM      5  C4  UNL d   1      -0.090  -3.600   0.701  0.00  0.00    -0.005 A 
ATOM      6  C5  UNL d   1      -1.043  -2.602   0.511  0.00  0.00     0.003 A 
ATOM      7  C6  UNL d   1      -0.801  -1.568  -0.395  0.00  0.00    -0.001 A 
ENDROOT
TORSDOF 0
ENDMDL
