MODEL 1
REMARK minimizedAffinity 7.32964516
REMARK minimizedRMSD -1
REMARK  0 active torsions:
REMARK  status: ('A' for Active; 'I' for Inactive)
ROOT
ATOM      1  C   UNL d   1       0.752  -0.941  -1.941  0.00  0.00     0.078 C 
ATOM      2  C1  UNL d   1       0.360  -1.972  -0.924  0.00  0.00    -0.077 A 
ATOM      3  C2  UNL d   1      -0.859  -1.884  -0.241  0.00  0.00    -0.001 A 
ATOM      4  C3  UNL d   1      -1.206  -2.845   0.709  0.00  0.00     0.003 A 
ATOM      5  C4  UNL d   1      -0.339  -3.900   0.987  0.00  0.00    -0.005 A 
ATOM      6  C5  UNL d   1       0.877  -3.994   0.314  0.00  0.00     0.003 A 
ATOM      7  C6  UNL d   1       1.226  -3.034  -0.637  0.00  0.00    -0.001 A 
ENDROOT
TORSDOF 0
ENDMDL
