MODEL 1
REMARK minimizedAffinity 7.25738287
REMARK minimizedRMSD -1
REMARK  0 active torsions:
REMARK  status: ('A' for Active; 'I' for Inactive)
ROOT
ATOM      1  C   UNL d   1       0.727  -0.902  -1.840  0.00  0.00     0.078 C 
ATOM      2  C1  UNL d   1       0.395  -2.017  -0.894  0.00  0.00    -0.077 A 
ATOM      3  C2  UNL d   1      -0.783  -1.995  -0.138  0.00  0.00    -0.001 A 
ATOM      4  C3  UNL d   1      -1.075  -3.035   0.746  0.00  0.00     0.003 A 
ATOM      5  C4  UNL d   1      -0.193  -4.105   0.883  0.00  0.00    -0.005 A 
ATOM      6  C5  UNL d   1       0.983  -4.135   0.136  0.00  0.00     0.003 A 
ATOM      7  C6  UNL d   1       1.277  -3.096  -0.748  0.00  0.00    -0.001 A 
ENDROOT
TORSDOF 0
ENDMDL
