MODEL 1
REMARK minimizedAffinity 5.44033718
REMARK minimizedRMSD -1
REMARK  0 active torsions:
REMARK  status: ('A' for Active; 'I' for Inactive)
ROOT
ATOM      1  C   UNL d   1       1.177  -1.422  -2.898  0.00  0.00     0.078 C 
ATOM      2  C1  UNL d   1       1.603  -0.372  -1.916  0.00  0.00    -0.077 A 
ATOM      3  C2  UNL d   1       0.870   0.811  -1.761  0.00  0.00    -0.001 A 
ATOM      4  C3  UNL d   1       1.284   1.784  -0.850  0.00  0.00     0.003 A 
ATOM      5  C4  UNL d   1       2.433   1.585  -0.088  0.00  0.00    -0.005 A 
ATOM      6  C5  UNL d   1       3.171   0.412  -0.236  0.00  0.00     0.003 A 
ATOM      7  C6  UNL d   1       2.758  -0.562  -1.147  0.00  0.00    -0.001 A 
ENDROOT
TORSDOF 0
ENDMDL
