MODEL 1
REMARK minimizedAffinity -0.666515946
REMARK minimizedRMSD -1
REMARK  0 active torsions:
REMARK  status: ('A' for Active; 'I' for Inactive)
ROOT
ATOM      1  C   UNL d   1       3.023   2.403  -2.585  0.00  0.00     0.078 C 
ATOM      2  C1  UNL d   1       3.873   3.579  -2.962  0.00  0.00    -0.077 A 
ATOM      3  C2  UNL d   1       5.216   3.411  -3.324  0.00  0.00    -0.001 A 
ATOM      4  C3  UNL d   1       5.999   4.516  -3.663  0.00  0.00     0.003 A 
ATOM      5  C4  UNL d   1       5.449   5.796  -3.642  0.00  0.00    -0.005 A 
ATOM      6  C5  UNL d   1       4.115   5.973  -3.281  0.00  0.00     0.003 A 
ATOM      7  C6  UNL d   1       3.330   4.870  -2.942  0.00  0.00    -0.001 A 
ENDROOT
TORSDOF 0
ENDMDL
