MODEL 1
REMARK minimizedAffinity 6.48102331
REMARK minimizedRMSD -1
REMARK  0 active torsions:
REMARK  status: ('A' for Active; 'I' for Inactive)
ROOT
ATOM      1  C   UNL d   1       1.000  -2.165  -2.777  0.00  0.00     0.078 C 
ATOM      2  C1  UNL d   1       0.549  -2.594  -1.413  0.00  0.00    -0.077 A 
ATOM      3  C2  UNL d   1      -0.398  -1.850  -0.699  0.00  0.00    -0.001 A 
ATOM      4  C3  UNL d   1      -0.801  -2.255   0.574  0.00  0.00     0.003 A 
ATOM      5  C4  UNL d   1      -0.261  -3.406   1.146  0.00  0.00    -0.005 A 
ATOM      6  C5  UNL d   1       0.684  -4.152   0.444  0.00  0.00     0.003 A 
ATOM      7  C6  UNL d   1       1.088  -3.748  -0.830  0.00  0.00    -0.001 A 
ENDROOT
TORSDOF 0
ENDMDL
