MODEL 1
REMARK minimizedAffinity -0.237726361
REMARK minimizedRMSD -1
REMARK  0 active torsions:
REMARK  status: ('A' for Active; 'I' for Inactive)
ROOT
ATOM      1  C   UNL d   1      -0.675  -2.245   1.954  0.00  0.00     0.078 C 
ATOM      2  C1  UNL d   1      -0.087  -2.665   0.640  0.00  0.00    -0.077 A 
ATOM      3  C2  UNL d   1       0.162  -1.728  -0.371  0.00  0.00    -0.001 A 
ATOM      4  C3  UNL d   1       0.701  -2.135  -1.592  0.00  0.00     0.003 A 
ATOM      5  C4  UNL d   1       0.994  -3.478  -1.815  0.00  0.00    -0.005 A 
ATOM      6  C5  UNL d   1       0.748  -4.418  -0.817  0.00  0.00     0.003 A 
ATOM      7  C6  UNL d   1       0.209  -4.014   0.406  0.00  0.00    -0.001 A 
ENDROOT
TORSDOF 0
ENDMDL
