MODEL 1
REMARK minimizedAffinity -1.63610291
REMARK minimizedRMSD -1
REMARK  0 active torsions:
REMARK  status: ('A' for Active; 'I' for Inactive)
ROOT
ATOM      1  C   UNL d   1       0.532   3.677   1.530  0.00  0.00     0.078 C 
ATOM      2  C1  UNL d   1       0.476   2.391   0.762  0.00  0.00    -0.077 A 
ATOM      3  C2  UNL d   1      -0.179   1.268   1.282  0.00  0.00    -0.001 A 
ATOM      4  C3  UNL d   1      -0.215   0.074   0.560  0.00  0.00     0.003 A 
ATOM      5  C4  UNL d   1       0.404  -0.009  -0.686  0.00  0.00    -0.005 A 
ATOM      6  C5  UNL d   1       1.059   1.103  -1.211  0.00  0.00     0.003 A 
ATOM      7  C6  UNL d   1       1.096   2.297  -0.491  0.00  0.00    -0.001 A 
ENDROOT
TORSDOF 0
ENDMDL
