MODEL 1
REMARK minimizedAffinity 4.87825871
REMARK minimizedRMSD -1
REMARK  0 active torsions:
REMARK  status: ('A' for Active; 'I' for Inactive)
ROOT
ATOM      1  C   UNL d   1       5.473  -0.912   5.740  0.00  0.00     0.078 C 
ATOM      2  C1  UNL d   1       5.041  -2.346   5.816  0.00  0.00    -0.077 A 
ATOM      3  C2  UNL d   1       3.686  -2.687   5.919  0.00  0.00    -0.001 A 
ATOM      4  C3  UNL d   1       3.300  -4.026   6.000  0.00  0.00     0.003 A 
ATOM      5  C4  UNL d   1       4.261  -5.034   5.980  0.00  0.00    -0.005 A 
ATOM      6  C5  UNL d   1       5.611  -4.705   5.880  0.00  0.00     0.003 A 
ATOM      7  C6  UNL d   1       6.000  -3.367   5.799  0.00  0.00    -0.001 A 
ENDROOT
TORSDOF 0
ENDMDL
