MODEL 1
REMARK minimizedAffinity 2.10200548
REMARK minimizedRMSD -1
REMARK  0 active torsions:
REMARK  status: ('A' for Active; 'I' for Inactive)
ROOT
ATOM      1  C   UNL d   1      -0.653   0.628   2.245  0.00  0.00     0.078 C 
ATOM      2  C1  UNL d   1      -0.798  -0.388   1.152  0.00  0.00    -0.077 A 
ATOM      3  C2  UNL d   1      -0.184  -0.201  -0.093  0.00  0.00    -0.001 A 
ATOM      4  C3  UNL d   1      -0.336  -1.151  -1.104  0.00  0.00     0.003 A 
ATOM      5  C4  UNL d   1      -1.101  -2.294  -0.882  0.00  0.00    -0.005 A 
ATOM      6  C5  UNL d   1      -1.717  -2.488   0.353  0.00  0.00     0.003 A 
ATOM      7  C6  UNL d   1      -1.567  -1.539   1.365  0.00  0.00    -0.001 A 
ENDROOT
TORSDOF 0
ENDMDL
