MODEL 1
REMARK minimizedAffinity -0.954665542
REMARK minimizedRMSD -1
REMARK  0 active torsions:
REMARK  status: ('A' for Active; 'I' for Inactive)
ROOT
ATOM      1  C   UNL d   1      -1.385   0.858   0.627  0.00  0.00     0.078 C 
ATOM      2  C1  UNL d   1      -0.820  -0.528   0.732  0.00  0.00    -0.077 A 
ATOM      3  C2  UNL d   1       0.456  -0.748   1.265  0.00  0.00    -0.001 A 
ATOM      4  C3  UNL d   1       0.972  -2.042   1.347  0.00  0.00     0.003 A 
ATOM      5  C4  UNL d   1       0.221  -3.126   0.897  0.00  0.00    -0.005 A 
ATOM      6  C5  UNL d   1      -1.049  -2.916   0.363  0.00  0.00     0.003 A 
ATOM      7  C6  UNL d   1      -1.568  -1.623   0.280  0.00  0.00    -0.001 A 
ENDROOT
TORSDOF 0
ENDMDL
