MODEL 1
REMARK minimizedAffinity -3.91654158
REMARK minimizedRMSD -1
REMARK  0 active torsions:
REMARK  status: ('A' for Active; 'I' for Inactive)
ROOT
ATOM      1  C   UNL d   1      -2.026   0.512   1.631  0.00  0.00     0.078 C 
ATOM      2  C1  UNL d   1      -1.136  -0.422   0.867  0.00  0.00    -0.077 A 
ATOM      3  C2  UNL d   1      -1.384  -1.800   0.847  0.00  0.00    -0.001 A 
ATOM      4  C3  UNL d   1      -0.541  -2.659   0.140  0.00  0.00     0.003 A 
ATOM      5  C4  UNL d   1       0.556  -2.150  -0.551  0.00  0.00    -0.005 A 
ATOM      6  C5  UNL d   1       0.813  -0.781  -0.535  0.00  0.00     0.003 A 
ATOM      7  C6  UNL d   1      -0.029   0.080   0.172  0.00  0.00    -0.001 A 
ENDROOT
TORSDOF 0
ENDMDL
