MODEL 1
REMARK minimizedAffinity -5.71400595
REMARK minimizedRMSD -1
REMARK  0 active torsions:
REMARK  status: ('A' for Active; 'I' for Inactive)
ROOT
ATOM      1  C2' OXE d   1       2.866  -0.411   0.440  0.00  0.00     0.078 C 
ATOM      2  C1' OXE d   1       0.771  -2.274   0.568  0.00  0.00     0.078 C 
ATOM      3  C1  OXE d   1       0.410  -0.821   0.386  0.00  0.00    -0.078 A 
ATOM      4  C2  OXE d   1       1.439   0.089   0.372  0.00  0.00    -0.078 A 
ATOM      5  C3  OXE d   1       1.166   1.436   0.152  0.00  0.00     0.003 A 
ATOM      6  C4  OXE d   1      -0.157   1.891   0.100  0.00  0.00    -0.002 A 
ATOM      7  C5  OXE d   1      -1.222   0.986   0.152  0.00  0.00    -0.002 A 
ATOM      8  C6  OXE d   1      -0.955  -0.375   0.252  0.00  0.00     0.003 A 
ENDROOT
TORSDOF 0
ENDMDL
