MODEL 1
REMARK minimizedAffinity 2.73804903
REMARK minimizedRMSD -1
REMARK  0 active torsions:
REMARK  status: ('A' for Active; 'I' for Inactive)
ROOT
ATOM      1  C2' OXE d   1       0.105  -2.042   1.613  0.00  0.00     0.078 C 
ATOM      2  C1' OXE d   1       1.941   0.027   2.095  0.00  0.00     0.078 C 
ATOM      3  C1  OXE d   1       0.843   0.280   1.092  0.00  0.00    -0.078 A 
ATOM      4  C2  OXE d   1      -0.023  -0.754   0.828  0.00  0.00    -0.078 A 
ATOM      5  C3  OXE d   1      -1.087  -0.555  -0.048  0.00  0.00     0.003 A 
ATOM      6  C4  OXE d   1      -1.192   0.635  -0.777  0.00  0.00    -0.002 A 
ATOM      7  C5  OXE d   1      -0.297   1.687  -0.552  0.00  0.00    -0.002 A 
ATOM      8  C6  OXE d   1       0.699   1.541   0.408  0.00  0.00     0.003 A 
ENDROOT
TORSDOF 0
ENDMDL
