MODEL 1
REMARK minimizedAffinity -4.07578993
REMARK minimizedRMSD -1
REMARK  0 active torsions:
REMARK  status: ('A' for Active; 'I' for Inactive)
ROOT
ATOM      1  C2' OXE d   1       1.393   1.813  -0.250  0.00  0.00     0.078 C 
ATOM      2  C1' OXE d   1       2.999  -0.417   0.321  0.00  0.00     0.078 C 
ATOM      3  C1  OXE d   1       1.503  -0.583   0.421  0.00  0.00    -0.078 A 
ATOM      4  C2  OXE d   1       0.727   0.526   0.186  0.00  0.00    -0.078 A 
ATOM      5  C3  OXE d   1      -0.660   0.414   0.211  0.00  0.00     0.003 A 
ATOM      6  C4  OXE d   1      -1.268  -0.777   0.625  0.00  0.00    -0.002 A 
ATOM      7  C5  OXE d   1      -0.494  -1.908   0.908  0.00  0.00    -0.002 A 
ATOM      8  C6  OXE d   1       0.888  -1.840   0.770  0.00  0.00     0.003 A 
ENDROOT
TORSDOF 0
ENDMDL
