MODEL 1
REMARK minimizedAffinity -0.992482483
REMARK minimizedRMSD -1
REMARK  0 active torsions:
REMARK  status: ('A' for Active; 'I' for Inactive)
ROOT
ATOM      1  C2' OXE d   1       3.042  -0.456   1.134  0.00  0.00     0.078 C 
ATOM      2  C1' OXE d   1       1.002  -2.359   1.446  0.00  0.00     0.078 C 
ATOM      3  C1  OXE d   1       0.623  -1.006   0.899  0.00  0.00    -0.078 A 
ATOM      4  C2  OXE d   1       1.620  -0.065   0.794  0.00  0.00    -0.078 A 
ATOM      5  C3  OXE d   1       1.336   1.182   0.244  0.00  0.00     0.003 A 
ATOM      6  C4  OXE d   1       0.016   1.539  -0.059  0.00  0.00    -0.002 A 
ATOM      7  C5  OXE d   1      -1.020   0.609   0.078  0.00  0.00    -0.002 A 
ATOM      8  C6  OXE d   1      -0.727  -0.678   0.514  0.00  0.00     0.003 A 
ENDROOT
TORSDOF 0
ENDMDL
