MODEL 1
REMARK minimizedAffinity -5.47011328
REMARK minimizedRMSD -1
REMARK  0 active torsions:
REMARK  status: ('A' for Active; 'I' for Inactive)
ROOT
ATOM      1  C2' OXE d   1       3.752  -1.086   1.713  0.00  0.00     0.078 C 
ATOM      2  C1' OXE d   1       2.712   1.417   2.443  0.00  0.00     0.078 C 
ATOM      3  C1  OXE d   1       2.264   0.825   1.130  0.00  0.00    -0.078 A 
ATOM      4  C2  OXE d   1       2.813  -0.379   0.759  0.00  0.00    -0.078 A 
ATOM      5  C3  OXE d   1       2.393  -0.995  -0.416  0.00  0.00     0.003 A 
ATOM      6  C4  OXE d   1       1.533  -0.330  -1.297  0.00  0.00    -0.002 A 
ATOM      7  C5  OXE d   1       0.992   0.915  -0.957  0.00  0.00    -0.002 A 
ATOM      8  C6  OXE d   1       1.313   1.485   0.270  0.00  0.00     0.003 A 
ENDROOT
TORSDOF 0
ENDMDL
