MODEL 1
REMARK minimizedAffinity -2.9466002
REMARK minimizedRMSD -1
REMARK  0 active torsions:
REMARK  status: ('A' for Active; 'I' for Inactive)
ROOT
ATOM      1  C2' OXE d   1       1.374   1.735  -0.286  0.00  0.00     0.078 C 
ATOM      2  C1' OXE d   1       3.103  -0.202   0.781  0.00  0.00     0.078 C 
ATOM      3  C1  OXE d   1       1.651  -0.573   0.609  0.00  0.00    -0.078 A 
ATOM      4  C2  OXE d   1       0.803   0.396   0.130  0.00  0.00    -0.078 A 
ATOM      5  C3  OXE d   1      -0.535   0.090  -0.099  0.00  0.00     0.003 A 
ATOM      6  C4  OXE d   1      -1.057  -1.147   0.298  0.00  0.00    -0.002 A 
ATOM      7  C5  OXE d   1      -0.218  -2.135   0.825  0.00  0.00    -0.002 A 
ATOM      8  C6  OXE d   1       1.143  -1.880   0.947  0.00  0.00     0.003 A 
ENDROOT
TORSDOF 0
ENDMDL
