MODEL 1
REMARK minimizedAffinity -4.6355052
REMARK minimizedRMSD -1
REMARK  0 active torsions:
REMARK  status: ('A' for Active; 'I' for Inactive)
ROOT
ATOM      1  C2' OXE d   1       0.574  -2.395  -0.505  0.00  0.00     0.078 C 
ATOM      2  C1' OXE d   1      -0.782  -0.229   0.656  0.00  0.00     0.078 C 
ATOM      3  C1  OXE d   1       0.723  -0.246   0.746  0.00  0.00    -0.078 A 
ATOM      4  C2  OXE d   1       1.376  -1.333   0.216  0.00  0.00    -0.078 A 
ATOM      5  C3  OXE d   1       2.767  -1.373   0.224  0.00  0.00     0.003 A 
ATOM      6  C4  OXE d   1       3.501  -0.392   0.902  0.00  0.00    -0.002 A 
ATOM      7  C5  OXE d   1       2.853   0.703   1.484  0.00  0.00    -0.002 A 
ATOM      8  C6  OXE d   1       1.471   0.813   1.378  0.00  0.00     0.003 A 
ENDROOT
TORSDOF 0
ENDMDL
