MODEL 1
REMARK minimizedAffinity -1.23434353
REMARK minimizedRMSD -1
REMARK  0 active torsions:
REMARK  status: ('A' for Active; 'I' for Inactive)
ROOT
ATOM      1  C   UNL d   1       2.496  -0.944   0.640  0.00  0.00    -0.002 A 
ATOM      2  C1  UNL d   1       1.172  -1.345   0.757  0.00  0.00     0.010 A 
ATOM      3  C2  UNL d   1       0.776  -2.195   1.792  0.00  0.00     0.041 A 
ATOM      4  C3  UNL d   1       1.741  -2.637   2.718  0.00  0.00    -0.075 A 
ATOM      5  S   UNL d   1       1.487  -3.681   4.066  0.00  0.00     0.015 SA
ATOM      6  C4  UNL d   1       3.128  -3.618   4.520  0.00  0.00     0.022 A 
ATOM      7  C5  UNL d   1       3.867  -2.826   3.674  0.00  0.00     0.026 A 
ATOM      8  C6  UNL d   1       3.080  -2.247   2.622  0.00  0.00    -0.082 A 
ATOM      9  C7  UNL d   1       3.450  -1.386   1.561  0.00  0.00     0.045 A 
ENDROOT
TORSDOF 0
ENDMDL
