MODEL 1
REMARK minimizedAffinity 12.2190866
REMARK minimizedRMSD -1
REMARK  0 active torsions:
REMARK  status: ('A' for Active; 'I' for Inactive)
ROOT
ATOM      1  C   UNL d   1       2.787   0.886   1.337  0.00  0.00    -0.002 A 
ATOM      2  C1  UNL d   1       1.803   1.628   0.700  0.00  0.00     0.010 A 
ATOM      3  C2  UNL d   1       0.535   1.086   0.480  0.00  0.00     0.041 A 
ATOM      4  C3  UNL d   1       0.270  -0.226   0.917  0.00  0.00    -0.075 A 
ATOM      5  S   UNL d   1      -1.210  -1.096   0.757  0.00  0.00     0.015 SA
ATOM      6  C4  UNL d   1      -0.571  -2.474   1.531  0.00  0.00     0.022 A 
ATOM      7  C5  UNL d   1       0.739  -2.292   1.909  0.00  0.00     0.026 A 
ATOM      8  C6  UNL d   1       1.245  -0.994   1.561  0.00  0.00    -0.082 A 
ATOM      9  C7  UNL d   1       2.521  -0.416   1.769  0.00  0.00     0.045 A 
ENDROOT
TORSDOF 0
ENDMDL
