MODEL 1
REMARK minimizedAffinity 1.13968372
REMARK minimizedRMSD -1
REMARK  0 active torsions:
REMARK  status: ('A' for Active; 'I' for Inactive)
ROOT
ATOM      1  C   UNL d   1       3.433  -2.718   2.886  0.00  0.00    -0.002 A 
ATOM      2  C1  UNL d   1       2.126  -3.177   2.803  0.00  0.00     0.010 A 
ATOM      3  C2  UNL d   1       1.152  -2.431   2.136  0.00  0.00     0.041 A 
ATOM      4  C3  UNL d   1       1.518  -1.205   1.547  0.00  0.00    -0.075 A 
ATOM      5  S   UNL d   1       0.494  -0.123   0.678  0.00  0.00     0.015 SA
ATOM      6  C4  UNL d   1       1.768   0.973   0.396  0.00  0.00     0.022 A 
ATOM      7  C5  UNL d   1       2.952   0.541   0.944  0.00  0.00     0.026 A 
ATOM      8  C6  UNL d   1       2.828  -0.722   1.616  0.00  0.00    -0.082 A 
ATOM      9  C7  UNL d   1       3.792  -1.501   2.299  0.00  0.00     0.045 A 
ENDROOT
TORSDOF 0
ENDMDL
