MODEL 1
REMARK minimizedAffinity 8.9392519
REMARK minimizedRMSD -1
REMARK  0 active torsions:
REMARK  status: ('A' for Active; 'I' for Inactive)
ROOT
ATOM      1  C   UNL d   1       1.275  -2.527  -1.275  0.00  0.00    -0.002 A 
ATOM      2  C1  UNL d   1       1.506  -2.434   0.090  0.00  0.00     0.010 A 
ATOM      3  C2  UNL d   1       0.619  -1.741   0.915  0.00  0.00     0.041 A 
ATOM      4  C3  UNL d   1      -0.517  -1.138   0.340  0.00  0.00    -0.075 A 
ATOM      5  S   UNL d   1      -1.742  -0.238   1.154  0.00  0.00     0.015 SA
ATOM      6  C4  UNL d   1      -2.601   0.043  -0.290  0.00  0.00     0.022 A 
ATOM      7  C5  UNL d   1      -1.983  -0.528  -1.377  0.00  0.00     0.026 A 
ATOM      8  C6  UNL d   1      -0.772  -1.218  -1.032  0.00  0.00    -0.082 A 
ATOM      9  C7  UNL d   1       0.147  -1.927  -1.842  0.00  0.00     0.045 A 
ENDROOT
TORSDOF 0
ENDMDL
