MODEL 1
REMARK minimizedAffinity 13.0149803
REMARK minimizedRMSD -1
REMARK  0 active torsions:
REMARK  status: ('A' for Active; 'I' for Inactive)
ROOT
ATOM      1  C   UNL d   1       3.500  -6.000  -0.386  0.00  0.00    -0.002 A 
ATOM      2  C1  UNL d   1       3.446  -5.180  -1.504  0.00  0.00     0.010 A 
ATOM      3  C2  UNL d   1       2.878  -3.906  -1.424  0.00  0.00     0.041 A 
ATOM      4  C3  UNL d   1       2.363  -3.466  -0.188  0.00  0.00    -0.075 A 
ATOM      5  S   UNL d   1       1.623  -1.946   0.147  0.00  0.00     0.015 SA
ATOM      6  C4  UNL d   1       1.363  -2.349   1.782  0.00  0.00     0.022 A 
ATOM      7  C5  UNL d   1       1.823  -3.609   2.082  0.00  0.00     0.026 A 
ATOM      8  C6  UNL d   1       2.407  -4.274   0.952  0.00  0.00    -0.082 A 
ATOM      9  C7  UNL d   1       2.988  -5.560   0.837  0.00  0.00     0.045 A 
ENDROOT
TORSDOF 0
ENDMDL
