MODEL 1
REMARK minimizedAffinity 8.09959698
REMARK minimizedRMSD -1
REMARK  0 active torsions:
REMARK  status: ('A' for Active; 'I' for Inactive)
ROOT
ATOM      1  C   UNL d   1      -0.772  -2.401   1.637  0.00  0.00    -0.002 A 
ATOM      2  C1  UNL d   1      -1.026  -1.053   1.433  0.00  0.00     0.010 A 
ATOM      3  C2  UNL d   1       0.025  -0.141   1.317  0.00  0.00     0.041 A 
ATOM      4  C3  UNL d   1       1.349  -0.613   1.409  0.00  0.00    -0.075 A 
ATOM      5  S   UNL d   1       2.795   0.320   1.295  0.00  0.00     0.015 SA
ATOM      6  C4  UNL d   1       3.785  -1.051   1.514  0.00  0.00     0.022 A 
ATOM      7  C5  UNL d   1       3.047  -2.200   1.671  0.00  0.00     0.026 A 
ATOM      8  C6  UNL d   1       1.631  -1.967   1.613  0.00  0.00    -0.082 A 
ATOM      9  C7  UNL d   1       0.543  -2.866   1.727  0.00  0.00     0.045 A 
ENDROOT
TORSDOF 0
ENDMDL
