MODEL 1
REMARK minimizedAffinity 5.00313854
REMARK minimizedRMSD -1
REMARK  0 active torsions:
REMARK  status: ('A' for Active; 'I' for Inactive)
ROOT
ATOM      1  C   UNL d   1       0.708  -1.769   2.846  0.00  0.00    -0.002 A 
ATOM      2  C1  UNL d   1       2.019  -2.034   2.474  0.00  0.00     0.010 A 
ATOM      3  C2  UNL d   1       2.381  -2.069   1.126  0.00  0.00     0.041 A 
ATOM      4  C3  UNL d   1       1.396  -1.828   0.149  0.00  0.00    -0.075 A 
ATOM      5  S   UNL d   1       1.609  -1.818  -1.562  0.00  0.00     0.015 SA
ATOM      6  C4  UNL d   1      -0.035  -1.461  -1.840  0.00  0.00     0.022 A 
ATOM      7  C5  UNL d   1      -0.743  -1.349  -0.667  0.00  0.00     0.026 A 
ATOM      8  C6  UNL d   1       0.069  -1.558   0.498  0.00  0.00    -0.082 A 
ATOM      9  C7  UNL d   1      -0.267  -1.531   1.873  0.00  0.00     0.045 A 
ENDROOT
TORSDOF 0
ENDMDL
