MODEL 1
REMARK minimizedAffinity 2.32020402
REMARK minimizedRMSD -1
REMARK  0 active torsions:
REMARK  status: ('A' for Active; 'I' for Inactive)
ROOT
ATOM      1  C   UNL d   1      -0.555  -0.542  -0.553  0.00  0.00    -0.002 A 
ATOM      2  C1  UNL d   1       0.339  -0.718   0.494  0.00  0.00     0.010 A 
ATOM      3  C2  UNL d   1       1.487  -1.494   0.324  0.00  0.00     0.041 A 
ATOM      4  C3  UNL d   1       1.726  -2.093  -0.928  0.00  0.00    -0.075 A 
ATOM      5  S   UNL d   1       3.067  -3.083  -1.368  0.00  0.00     0.015 SA
ATOM      6  C4  UNL d   1       2.486  -3.295  -2.956  0.00  0.00     0.022 A 
ATOM      7  C5  UNL d   1       1.299  -2.633  -3.163  0.00  0.00     0.026 A 
ATOM      8  C6  UNL d   1       0.842  -1.929  -1.998  0.00  0.00    -0.082 A 
ATOM      9  C7  UNL d   1      -0.315  -1.138  -1.794  0.00  0.00     0.045 A 
ENDROOT
TORSDOF 0
ENDMDL
