MODEL 1
REMARK minimizedAffinity 11.8578987
REMARK minimizedRMSD -1
REMARK  0 active torsions:
REMARK  status: ('A' for Active; 'I' for Inactive)
ROOT
ATOM      1  C   UNL d   1       2.820   1.527   1.985  0.00  0.00    -0.002 A 
ATOM      2  C1  UNL d   1       3.701   0.946   1.085  0.00  0.00     0.010 A 
ATOM      3  C2  UNL d   1       3.576  -0.401   0.736  0.00  0.00     0.041 A 
ATOM      4  C3  UNL d   1       2.539  -1.160   1.313  0.00  0.00    -0.075 A 
ATOM      5  S   UNL d   1       2.192  -2.826   1.034  0.00  0.00     0.015 SA
ATOM      6  C4  UNL d   1       0.865  -2.805   2.104  0.00  0.00     0.022 A 
ATOM      7  C5  UNL d   1       0.678  -1.566   2.669  0.00  0.00     0.026 A 
ATOM      8  C6  UNL d   1       1.639  -0.597   2.222  0.00  0.00    -0.082 A 
ATOM      9  C7  UNL d   1       1.793   0.770   2.555  0.00  0.00     0.045 A 
ENDROOT
TORSDOF 0
ENDMDL
