MODEL 1
REMARK minimizedAffinity -1.41355038
REMARK minimizedRMSD -1
REMARK  1 active torsions:
REMARK  status: ('A' for Active; 'I' for Inactive)
REMARK    1  A    between atoms: C3_4  and  O_7 
ROOT
ATOM      1  C   UNL d   1      -5.997   4.848   2.263  0.00  0.00    -0.033 A 
ATOM      2  C1  UNL d   1      -6.000   6.000   3.052  0.00  0.00     0.039 A 
ATOM      3  C2  UNL d   1      -5.396   5.988   4.311  0.00  0.00    -0.080 A 
ATOM      4  C3  UNL d   1      -4.794   4.819   4.769  0.00  0.00     0.150 A 
ATOM      5  C4  UNL d   1      -4.784   3.669   3.987  0.00  0.00    -0.007 A 
ATOM      6  C5  UNL d   1      -5.387   3.683   2.730  0.00  0.00     0.039 A 
ENDROOT
BRANCH   4   7
ATOM      7  O   UNL d   1      -4.197   4.757   5.993  0.00  0.00    -0.526 OA
ATOM      8  H5  UNL d   1      -4.306   5.617   6.432  0.00  0.00     0.418 HD
ENDBRANCH   4   7
TORSDOF 1
ENDMDL
