MODEL 1
REMARK minimizedAffinity 7.87549353
REMARK minimizedRMSD -1
REMARK  1 active torsions:
REMARK  status: ('A' for Active; 'I' for Inactive)
REMARK    1  A    between atoms: C3_4  and  O_7 
ROOT
ATOM      1  C   UNL d   1      -5.122   0.283  -3.044  0.00  0.00    -0.033 A 
ATOM      2  C1  UNL d   1      -3.782  -0.094  -2.933  0.00  0.00     0.039 A 
ATOM      3  C2  UNL d   1      -3.146  -0.062  -1.690  0.00  0.00    -0.080 A 
ATOM      4  C3  UNL d   1      -3.861   0.348  -0.568  0.00  0.00     0.150 A 
ATOM      5  C4  UNL d   1      -5.197   0.721  -0.671  0.00  0.00    -0.007 A 
ATOM      6  C5  UNL d   1      -5.830   0.689  -1.913  0.00  0.00     0.039 A 
ENDROOT
BRANCH   4   7
ATOM      7  O   UNL d   1      -3.282   0.401   0.665  0.00  0.00    -0.526 OA
ATOM      8  H5  UNL d   1      -2.349   0.143   0.578  0.00  0.00     0.418 HD
ENDBRANCH   4   7
TORSDOF 1
ENDMDL
