MODEL 1
REMARK minimizedAffinity 8.6482029
REMARK minimizedRMSD -1
REMARK  1 active torsions:
REMARK  status: ('A' for Active; 'I' for Inactive)
REMARK    1  A    between atoms: C3_4  and  O_7 
ROOT
ATOM      1  C   UNL d   1       2.568  -1.426   0.899  0.00  0.00    -0.033 A 
ATOM      2  C1  UNL d   1       1.885  -1.315  -0.314  0.00  0.00     0.039 A 
ATOM      3  C2  UNL d   1       2.013  -0.159  -1.086  0.00  0.00    -0.080 A 
ATOM      4  C3  UNL d   1       2.827   0.877  -0.636  0.00  0.00     0.150 A 
ATOM      5  C4  UNL d   1       3.513   0.772   0.570  0.00  0.00    -0.007 A 
ATOM      6  C5  UNL d   1       3.383  -0.383   1.340  0.00  0.00     0.039 A 
ENDROOT
BRANCH   4   7
ATOM      7  O   UNL d   1       2.979   2.027  -1.352  0.00  0.00    -0.526 OA
ATOM      8  H5  UNL d   1       2.424   1.969  -2.148  0.00  0.00     0.418 HD
ENDBRANCH   4   7
TORSDOF 1
ENDMDL
