MODEL 1
REMARK minimizedAffinity 9.46596241
REMARK minimizedRMSD -1
REMARK  1 active torsions:
REMARK  status: ('A' for Active; 'I' for Inactive)
REMARK    1  A    between atoms: C3_4  and  O_7 
ROOT
ATOM      1  C   UNL d   1      -4.874   5.999   5.992  0.00  0.00    -0.033 A 
ATOM      2  C1  UNL d   1      -5.999   5.198   5.789  0.00  0.00     0.039 A 
ATOM      3  C2  UNL d   1      -5.995   4.225   4.787  0.00  0.00    -0.080 A 
ATOM      4  C3  UNL d   1      -4.860   4.062   3.998  0.00  0.00     0.150 A 
ATOM      5  C4  UNL d   1      -3.733   4.853   4.198  0.00  0.00    -0.007 A 
ATOM      6  C5  UNL d   1      -3.740   5.825   5.197  0.00  0.00     0.039 A 
ENDROOT
BRANCH   4   7
ATOM      7  O   UNL d   1      -4.810   3.129   3.006  0.00  0.00    -0.526 OA
ATOM      8  H5  UNL d   1      -5.669   2.676   2.965  0.00  0.00     0.418 HD
ENDBRANCH   4   7
TORSDOF 1
ENDMDL
