MODEL 1
REMARK minimizedAffinity 1.95308197
REMARK minimizedRMSD -1
REMARK  1 active torsions:
REMARK  status: ('A' for Active; 'I' for Inactive)
REMARK    1  A    between atoms: C3_4  and  O_7 
ROOT
ATOM      1  C   UNL d   1      -4.911   5.986   6.000  0.00  0.00    -0.033 A 
ATOM      2  C1  UNL d   1      -3.744   6.000   5.234  0.00  0.00     0.039 A 
ATOM      3  C2  UNL d   1      -3.661   5.233   4.070  0.00  0.00    -0.080 A 
ATOM      4  C3  UNL d   1      -4.751   4.459   3.683  0.00  0.00     0.150 A 
ATOM      5  C4  UNL d   1      -5.919   4.443   4.439  0.00  0.00    -0.007 A 
ATOM      6  C5  UNL d   1      -5.999   5.208   5.602  0.00  0.00     0.039 A 
ENDROOT
BRANCH   4   7
ATOM      7  O   UNL d   1      -4.715   3.690   2.557  0.00  0.00    -0.526 OA
ATOM      8  H5  UNL d   1      -3.837   3.779   2.152  0.00  0.00     0.418 HD
ENDBRANCH   4   7
TORSDOF 1
ENDMDL
