MODEL 1
REMARK minimizedAffinity 2.7178185
REMARK minimizedRMSD -1
REMARK  1 active torsions:
REMARK  status: ('A' for Active; 'I' for Inactive)
REMARK    1  A    between atoms: C3_4  and  O_7 
ROOT
ATOM      1  C   UNL d   1       3.593   1.548  -0.735  0.00  0.00    -0.033 A 
ATOM      2  C1  UNL d   1       2.519   0.980  -1.424  0.00  0.00     0.039 A 
ATOM      3  C2  UNL d   1       2.048  -0.285  -1.066  0.00  0.00    -0.080 A 
ATOM      4  C3  UNL d   1       2.657  -0.969  -0.018  0.00  0.00     0.150 A 
ATOM      5  C4  UNL d   1       3.725  -0.408   0.675  0.00  0.00    -0.007 A 
ATOM      6  C5  UNL d   1       4.195   0.854   0.315  0.00  0.00     0.039 A 
ENDROOT
BRANCH   4   7
ATOM      7  O   UNL d   1       2.235  -2.208   0.364  0.00  0.00    -0.526 OA
ATOM      8  H5  UNL d   1       1.510  -2.481  -0.222  0.00  0.00     0.418 HD
ENDBRANCH   4   7
TORSDOF 1
ENDMDL
