MODEL 1
REMARK minimizedAffinity 2.94064498
REMARK minimizedRMSD -1
REMARK  1 active torsions:
REMARK  status: ('A' for Active; 'I' for Inactive)
REMARK    1  A    between atoms: C3_4  and  O_7 
ROOT
ATOM      1  C   UNL d   1      -3.994   0.324  -1.123  0.00  0.00    -0.033 A 
ATOM      2  C1  UNL d   1      -5.355   0.629  -1.194  0.00  0.00     0.039 A 
ATOM      3  C2  UNL d   1      -5.996   0.685  -2.433  0.00  0.00    -0.080 A 
ATOM      4  C3  UNL d   1      -5.267   0.433  -3.592  0.00  0.00     0.150 A 
ATOM      5  C4  UNL d   1      -3.912   0.124  -3.528  0.00  0.00    -0.007 A 
ATOM      6  C5  UNL d   1      -3.273   0.069  -2.290  0.00  0.00     0.039 A 
ENDROOT
BRANCH   4   7
ATOM      7  O   UNL d   1      -5.848   0.480  -4.824  0.00  0.00    -0.526 OA
ATOM      8  H5  UNL d   1      -6.780   0.734  -4.715  0.00  0.00     0.418 HD
ENDBRANCH   4   7
TORSDOF 1
ENDMDL
