MODEL 1
REMARK minimizedAffinity 3.29782248
REMARK minimizedRMSD -1
REMARK  1 active torsions:
REMARK  status: ('A' for Active; 'I' for Inactive)
REMARK    1  A    between atoms: C3_4  and  O_7 
ROOT
ATOM      1  C   UNL d   1      -4.878   5.614   5.996  0.00  0.00    -0.033 A 
ATOM      2  C1  UNL d   1      -3.753   4.816   5.777  0.00  0.00     0.039 A 
ATOM      3  C2  UNL d   1      -3.750   3.880   4.741  0.00  0.00    -0.080 A 
ATOM      4  C3  UNL d   1      -4.876   3.753   3.932  0.00  0.00     0.150 A 
ATOM      5  C4  UNL d   1      -5.998   4.547   4.142  0.00  0.00    -0.007 A 
ATOM      6  C5  UNL d   1      -6.000   5.480   5.177  0.00  0.00     0.039 A 
ENDROOT
BRANCH   4   7
ATOM      7  O   UNL d   1      -4.921   2.850   2.911  0.00  0.00    -0.526 OA
ATOM      8  H5  UNL d   1      -4.087   2.352   2.904  0.00  0.00     0.418 HD
ENDBRANCH   4   7
TORSDOF 1
ENDMDL
