MODEL 1
REMARK minimizedAffinity 11.9827518
REMARK minimizedRMSD -1
REMARK  1 active torsions:
REMARK  status: ('A' for Active; 'I' for Inactive)
REMARK    1  A    between atoms: C3_4  and  O_7 
ROOT
ATOM      1  C   UNL d   1      -4.189   2.433   0.615  0.00  0.00    -0.033 A 
ATOM      2  C1  UNL d   1      -4.397   1.089   0.302  0.00  0.00     0.039 A 
ATOM      3  C2  UNL d   1      -5.005   0.737  -0.905  0.00  0.00    -0.080 A 
ATOM      4  C3  UNL d   1      -5.398   1.738  -1.789  0.00  0.00     0.150 A 
ATOM      5  C4  UNL d   1      -5.190   3.080  -1.485  0.00  0.00    -0.007 A 
ATOM      6  C5  UNL d   1      -4.584   3.429  -0.279  0.00  0.00     0.039 A 
ENDROOT
BRANCH   4   7
ATOM      7  O   UNL d   1      -6.000   1.445  -2.977  0.00  0.00    -0.526 OA
ATOM      8  H5  UNL d   1      -6.104   0.480  -3.038  0.00  0.00     0.418 HD
ENDBRANCH   4   7
TORSDOF 1
ENDMDL
