MODEL 1
REMARK minimizedAffinity -1.70954442
REMARK minimizedRMSD -1
REMARK  0 active torsions:
REMARK  status: ('A' for Active; 'I' for Inactive)
ROOT
ATOM      1  C1  DEN d   1      -0.904   1.012   2.907  0.00  0.00     0.130 A 
ATOM      2  C2  DEN d   1      -0.632   2.345   3.439  0.00  0.00    -0.031 A 
ATOM      3  C3  DEN d   1       0.662   2.799   2.892  0.00  0.00     0.027 A 
ATOM      4  C4  DEN d   1       2.260   1.578   1.277  0.00  0.00     0.027 A 
ATOM      5  C5  DEN d   1       2.462   0.418   0.562  0.00  0.00    -0.003 A 
ATOM      6  C6  DEN d   1       1.581  -0.629   0.604  0.00  0.00     0.001 A 
ATOM      7  C7  DEN d   1       0.433  -0.521   1.343  0.00  0.00     0.017 A 
ATOM      8  C8  DEN d   1       0.225   0.642   2.073  0.00  0.00    -0.094 A 
ATOM      9  C9  DEN d   1       1.122   1.695   2.007  0.00  0.00    -0.072 A 
ENDROOT
TORSDOF 0
ENDMDL
