MODEL 1
REMARK minimizedAffinity 2.82531548
REMARK minimizedRMSD -1
REMARK  0 active torsions:
REMARK  status: ('A' for Active; 'I' for Inactive)
ROOT
ATOM      1  C1  DEN d   1      -0.418   1.612  -3.024  0.00  0.00     0.130 A 
ATOM      2  C2  DEN d   1       0.240   0.555  -3.787  0.00  0.00    -0.031 A 
ATOM      3  C3  DEN d   1       0.133  -0.699  -3.015  0.00  0.00     0.027 A 
ATOM      4  C4  DEN d   1      -0.983  -1.106  -0.726  0.00  0.00     0.027 A 
ATOM      5  C5  DEN d   1      -1.663  -0.509   0.313  0.00  0.00    -0.003 A 
ATOM      6  C6  DEN d   1      -1.943   0.831   0.328  0.00  0.00     0.001 A 
ATOM      7  C7  DEN d   1      -1.581   1.613  -0.737  0.00  0.00     0.017 A 
ATOM      8  C8  DEN d   1      -0.889   1.020  -1.785  0.00  0.00    -0.094 A 
ATOM      9  C9  DEN d   1      -0.626  -0.339  -1.788  0.00  0.00    -0.072 A 
ENDROOT
TORSDOF 0
ENDMDL
