MODEL 1
REMARK minimizedAffinity 4.51839972
REMARK minimizedRMSD -1
REMARK  0 active torsions:
REMARK  status: ('A' for Active; 'I' for Inactive)
ROOT
ATOM      1  C1  DEN d   1       1.412   1.207  -0.445  0.00  0.00     0.130 A 
ATOM      2  C2  DEN d   1       2.252   0.032  -0.230  0.00  0.00    -0.031 A 
ATOM      3  C3  DEN d   1       1.367  -1.130  -0.017  0.00  0.00     0.027 A 
ATOM      4  C4  DEN d   1      -1.211  -1.225  -0.005  0.00  0.00     0.027 A 
ATOM      5  C5  DEN d   1      -2.362  -0.479  -0.131  0.00  0.00    -0.003 A 
ATOM      6  C6  DEN d   1      -2.337   0.875  -0.334  0.00  0.00     0.001 A 
ATOM      7  C7  DEN d   1      -1.135   1.519  -0.464  0.00  0.00     0.017 A 
ATOM      8  C8  DEN d   1       0.031   0.776  -0.331  0.00  0.00    -0.094 A 
ATOM      9  C9  DEN d   1      -0.016  -0.595  -0.137  0.00  0.00    -0.072 A 
ENDROOT
TORSDOF 0
ENDMDL
