MODEL 1
REMARK minimizedAffinity -2.64387536
REMARK minimizedRMSD -1
REMARK  0 active torsions:
REMARK  status: ('A' for Active; 'I' for Inactive)
ROOT
ATOM      1  C1  DEN d   1       2.123  -0.394   1.129  0.00  0.00     0.130 A 
ATOM      2  C2  DEN d   1       2.315  -1.154   2.361  0.00  0.00    -0.031 A 
ATOM      3  C3  DEN d   1       1.294  -0.713   3.333  0.00  0.00     0.027 A 
ATOM      4  C4  DEN d   1      -0.557   1.061   3.049  0.00  0.00     0.027 A 
ATOM      5  C5  DEN d   1      -1.108   1.980   2.184  0.00  0.00    -0.003 A 
ATOM      6  C6  DEN d   1      -0.603   2.194   0.929  0.00  0.00     0.001 A 
ATOM      7  C7  DEN d   1       0.457   1.448   0.486  0.00  0.00     0.017 A 
ATOM      8  C8  DEN d   1       1.022   0.525   1.356  0.00  0.00    -0.094 A 
ATOM      9  C9  DEN d   1       0.490   0.314   2.617  0.00  0.00    -0.072 A 
ENDROOT
TORSDOF 0
ENDMDL
