MODEL 1
REMARK minimizedAffinity 1.26448417
REMARK minimizedRMSD -1
REMARK  0 active torsions:
REMARK  status: ('A' for Active; 'I' for Inactive)
ROOT
ATOM      1  C1  DEN d   1      -2.225   0.709   1.393  0.00  0.00     0.130 A 
ATOM      2  C2  DEN d   1      -2.808   0.865   0.063  0.00  0.00    -0.031 A 
ATOM      3  C3  DEN d   1      -1.810   0.418  -0.929  0.00  0.00     0.027 A 
ATOM      4  C4  DEN d   1       0.569  -0.498  -0.537  0.00  0.00     0.027 A 
ATOM      5  C5  DEN d   1       1.511  -0.803   0.421  0.00  0.00    -0.003 A 
ATOM      6  C6  DEN d   1       1.289  -0.595   1.756  0.00  0.00     0.001 A 
ATOM      7  C7  DEN d   1       0.078  -0.109   2.175  0.00  0.00     0.017 A 
ATOM      8  C8  DEN d   1      -0.874   0.207   1.215  0.00  0.00    -0.094 A 
ATOM      9  C9  DEN d   1      -0.634  -0.022  -0.130  0.00  0.00    -0.072 A 
ENDROOT
TORSDOF 0
ENDMDL
