MODEL 1
REMARK minimizedAffinity 0.35589394
REMARK minimizedRMSD -1
REMARK  0 active torsions:
REMARK  status: ('A' for Active; 'I' for Inactive)
ROOT
ATOM      1  C1  DEN d   1       1.217   0.074   0.344  0.00  0.00     0.130 A 
ATOM      2  C2  DEN d   1       1.180  -0.137  -1.101  0.00  0.00    -0.031 A 
ATOM      3  C3  DEN d   1      -0.236  -0.205  -1.516  0.00  0.00     0.027 A 
ATOM      4  C4  DEN d   1      -2.362  -0.001  -0.070  0.00  0.00     0.027 A 
ATOM      5  C5  DEN d   1      -2.835   0.172   1.212  0.00  0.00    -0.003 A 
ATOM      6  C6  DEN d   1      -1.998   0.290   2.290  0.00  0.00     0.001 A 
ATOM      7  C7  DEN d   1      -0.642   0.281   2.100  0.00  0.00     0.017 A 
ATOM      8  C8  DEN d   1      -0.157   0.099   0.811  0.00  0.00    -0.094 A 
ATOM      9  C9  DEN d   1      -1.019  -0.006  -0.267  0.00  0.00    -0.072 A 
ENDROOT
TORSDOF 0
ENDMDL
