MODEL 1
REMARK minimizedAffinity 3.27550554
REMARK minimizedRMSD -1
REMARK  0 active torsions:
REMARK  status: ('A' for Active; 'I' for Inactive)
ROOT
ATOM      1  C1  DEN d   1      -3.825  -2.657  -0.819  0.00  0.00     0.130 A 
ATOM      2  C2  DEN d   1      -5.140  -2.093  -1.112  0.00  0.00    -0.031 A 
ATOM      3  C3  DEN d   1      -5.103  -0.654  -0.782  0.00  0.00     0.027 A 
ATOM      4  C4  DEN d   1      -3.147   0.749   0.143  0.00  0.00     0.027 A 
ATOM      5  C5  DEN d   1      -1.835   0.708   0.562  0.00  0.00    -0.003 A 
ATOM      6  C6  DEN d   1      -1.112  -0.455   0.581  0.00  0.00     0.001 A 
ATOM      7  C7  DEN d   1      -1.681  -1.617   0.132  0.00  0.00     0.017 A 
ATOM      8  C8  DEN d   1      -3.006  -1.585  -0.285  0.00  0.00    -0.094 A 
ATOM      9  C9  DEN d   1      -3.717  -0.397  -0.309  0.00  0.00    -0.072 A 
ENDROOT
TORSDOF 0
ENDMDL
