MODEL 1
REMARK minimizedAffinity -6.14371634
REMARK minimizedRMSD -1
REMARK  0 active torsions:
REMARK  status: ('A' for Active; 'I' for Inactive)
ROOT
ATOM      1  C1  DEN d   1      -0.672  -0.024  -0.372  0.00  0.00     0.130 A 
ATOM      2  C2  DEN d   1       0.444  -0.780  -0.936  0.00  0.00    -0.031 A 
ATOM      3  C3  DEN d   1       1.483  -0.905   0.105  0.00  0.00     0.027 A 
ATOM      4  C4  DEN d   1       1.472  -0.012   2.525  0.00  0.00     0.027 A 
ATOM      5  C5  DEN d   1       0.747   0.699   3.455  0.00  0.00    -0.003 A 
ATOM      6  C6  DEN d   1      -0.476   1.244   3.167  0.00  0.00     0.001 A 
ATOM      7  C7  DEN d   1      -1.032   1.048   1.931  0.00  0.00     0.017 A 
ATOM      8  C8  DEN d   1      -0.304   0.337   0.985  0.00  0.00    -0.094 A 
ATOM      9  C9  DEN d   1       0.925  -0.216   1.300  0.00  0.00    -0.072 A 
ENDROOT
TORSDOF 0
ENDMDL
