MODEL 1
REMARK minimizedAffinity -4.51860666
REMARK minimizedRMSD -1
REMARK  0 active torsions:
REMARK  status: ('A' for Active; 'I' for Inactive)
ROOT
ATOM      1  C1  DEN d   1       0.830  -0.907  -0.460  0.00  0.00     0.130 A 
ATOM      2  C2  DEN d   1      -0.426  -0.658  -1.161  0.00  0.00    -0.031 A 
ATOM      3  C3  DEN d   1      -1.399  -0.134  -0.182  0.00  0.00     0.027 A 
ATOM      4  C4  DEN d   1      -1.083   0.319   2.338  0.00  0.00     0.027 A 
ATOM      5  C5  DEN d   1      -0.194   0.251   3.387  0.00  0.00    -0.003 A 
ATOM      6  C6  DEN d   1       1.078  -0.235   3.237  0.00  0.00     0.001 A 
ATOM      7  C7  DEN d   1       1.511  -0.631   1.999  0.00  0.00     0.017 A 
ATOM      8  C8  DEN d   1       0.618  -0.572   0.937  0.00  0.00    -0.094 A 
ATOM      9  C9  DEN d   1      -0.660  -0.067   1.107  0.00  0.00    -0.072 A 
ENDROOT
TORSDOF 0
ENDMDL
