MODEL 1
REMARK minimizedAffinity -2.79260731
REMARK minimizedRMSD -1
REMARK  1 active torsions:
REMARK  status: ('A' for Active; 'I' for Inactive)
REMARK    1  A    between atoms: C1_2  and  C2_3 
ROOT
ATOM      1  C2  UNL d   1       0.157  -0.493  -0.606  0.00  0.00    -0.076 A 
ATOM      2  C3  UNL d   1      -0.363  -0.634   0.692  0.00  0.00     0.004 A 
ATOM      3  C4  UNL d   1      -0.945   0.446   1.353  0.00  0.00    -0.003 A 
ATOM      4  C5  UNL d   1      -1.017   1.685   0.726  0.00  0.00     0.000 A 
ATOM      5  C6  UNL d   1      -0.522   1.839  -0.569  0.00  0.00     0.000 A 
ATOM      6  C7  UNL d   1       0.053   0.756  -1.255  0.00  0.00    -0.073 A 
ATOM      7  C8  UNL d   1       0.577   0.979  -2.648  0.00  0.00     0.078 C 
ENDROOT
BRANCH   1   8
ATOM      8  C1  UNL d   1       0.801  -1.694  -1.262  0.00  0.00     0.053 C 
ATOM      9  C   UNL d   1      -0.107  -2.914  -1.264  0.00  0.00     0.018 C 
ENDBRANCH   1   8
TORSDOF 1
ENDMDL
