MODEL 1
REMARK minimizedAffinity 1.40876341
REMARK minimizedRMSD -1
REMARK  1 active torsions:
REMARK  status: ('A' for Active; 'I' for Inactive)
REMARK    1  A    between atoms: C1_2  and  C2_3 
ROOT
ATOM      1  C2  UNL d   1       1.128  -0.025   0.896  0.00  0.00    -0.076 A 
ATOM      2  C3  UNL d   1       0.888   1.236   0.323  0.00  0.00     0.004 A 
ATOM      3  C4  UNL d   1       0.190   2.220   1.021  0.00  0.00    -0.003 A 
ATOM      4  C5  UNL d   1      -0.278   1.960   2.304  0.00  0.00     0.000 A 
ATOM      5  C6  UNL d   1      -0.033   0.721   2.895  0.00  0.00     0.000 A 
ATOM      6  C7  UNL d   1       0.683  -0.277   2.211  0.00  0.00    -0.073 A 
ATOM      7  C8  UNL d   1       0.914  -1.597   2.894  0.00  0.00     0.078 C 
ENDROOT
BRANCH   1   8
ATOM      8  C1  UNL d   1       1.867  -1.062   0.080  0.00  0.00     0.053 C 
ATOM      9  C   UNL d   1       0.943  -2.136  -0.471  0.00  0.00     0.018 C 
ENDBRANCH   1   8
TORSDOF 1
ENDMDL
