MODEL 1
REMARK minimizedAffinity -3.64618731
REMARK minimizedRMSD -1
REMARK  1 active torsions:
REMARK  status: ('A' for Active; 'I' for Inactive)
REMARK    1  A    between atoms: C1_2  and  C2_3 
ROOT
ATOM      1  C2  UNL d   1       0.248  -0.833  -0.459  0.00  0.00    -0.076 A 
ATOM      2  C3  UNL d   1      -0.364  -0.055  -1.456  0.00  0.00     0.004 A 
ATOM      3  C4  UNL d   1      -0.998   1.146  -1.142  0.00  0.00    -0.003 A 
ATOM      4  C5  UNL d   1      -1.028   1.589   0.176  0.00  0.00     0.000 A 
ATOM      5  C6  UNL d   1      -0.410   0.839   1.176  0.00  0.00     0.000 A 
ATOM      6  C7  UNL d   1       0.247  -0.366   0.873  0.00  0.00    -0.073 A 
ATOM      7  C8  UNL d   1       0.891  -1.137   1.992  0.00  0.00     0.078 C 
ENDROOT
BRANCH   1   8
ATOM      8  C1  UNL d   1       0.897  -2.140  -0.855  0.00  0.00     0.053 C 
ATOM      9  C   UNL d   1      -0.112  -3.162  -1.357  0.00  0.00     0.018 C 
ENDBRANCH   1   8
TORSDOF 1
ENDMDL
