MODEL 1
REMARK minimizedAffinity -0.784419537
REMARK minimizedRMSD -1
REMARK  1 active torsions:
REMARK  status: ('A' for Active; 'I' for Inactive)
REMARK    1  A    between atoms: C1_2  and  C2_3 
ROOT
ATOM      1  C2  UNL d   1       0.176  -1.106  -1.107  0.00  0.00    -0.076 A 
ATOM      2  C3  UNL d   1       0.045  -0.352  -2.286  0.00  0.00     0.004 A 
ATOM      3  C4  UNL d   1      -0.406   0.966  -2.248  0.00  0.00    -0.003 A 
ATOM      4  C5  UNL d   1      -0.734   1.552  -1.031  0.00  0.00     0.000 A 
ATOM      5  C6  UNL d   1      -0.593   0.825   0.151  0.00  0.00     0.000 A 
ATOM      6  C7  UNL d   1      -0.124  -0.500   0.132  0.00  0.00    -0.073 A 
ATOM      7  C8  UNL d   1       0.002  -1.239   1.436  0.00  0.00     0.078 C 
ENDROOT
BRANCH   1   8
ATOM      8  C1  UNL d   1       0.644  -2.540  -1.212  0.00  0.00     0.053 C 
ATOM      9  C   UNL d   1      -0.299  -3.402  -2.036  0.00  0.00     0.018 C 
ENDBRANCH   1   8
TORSDOF 1
ENDMDL
