MODEL 1
REMARK minimizedAffinity 3.10729599
REMARK minimizedRMSD -1
REMARK  0 active torsions:
REMARK  status: ('A' for Active; 'I' for Inactive)
ROOT
ATOM      1  C   UNL d   1       2.236   1.181  -0.082  0.00  0.00     0.124 A 
ATOM      2  C1  UNL d   1       2.815  -0.066  -0.268  0.00  0.00     0.062 A 
ATOM      3  C2  UNL d   1       2.014  -1.186  -0.476  0.00  0.00     0.162 A 
ATOM      4  C3  UNL d   1       0.625  -1.062  -0.499  0.00  0.00    -0.034 A 
ATOM      5  C4  UNL d   1       0.050   0.195  -0.310  0.00  0.00     0.162 A 
ATOM      6  C5  UNL d   1       0.855   1.311  -0.103  0.00  0.00     0.062 A 
ATOM      7  F   UNL d   1       0.294   2.516   0.077  0.00  0.00    -0.097 F 
ATOM      8  F1  UNL d   1      -1.282   0.350  -0.326  0.00  0.00    -0.096 F 
ATOM      9  I   UNL d   1      -0.576  -2.734  -0.809  0.00  0.00    -0.060 I 
ATOM     10  F2  UNL d   1       2.601  -2.379  -0.653  0.00  0.00    -0.096 F 
ATOM     11  F3  UNL d   1       4.150  -0.194  -0.247  0.00  0.00    -0.097 F 
ATOM     12  F4  UNL d   1       3.009   2.257   0.119  0.00  0.00    -0.092 F 
ENDROOT
TORSDOF 0
ENDMDL
