MODEL 1
REMARK minimizedAffinity -1.3627876
REMARK minimizedRMSD -1
REMARK  0 active torsions:
REMARK  status: ('A' for Active; 'I' for Inactive)
ROOT
ATOM      1  C   UNL d   1      -1.040   0.185  -0.394  0.00  0.00     0.124 A 
ATOM      2  C1  UNL d   1      -0.590  -1.107  -0.627  0.00  0.00     0.062 A 
ATOM      3  C2  UNL d   1       0.743  -1.435  -0.401  0.00  0.00     0.162 A 
ATOM      4  C3  UNL d   1       1.637  -0.470   0.063  0.00  0.00    -0.034 A 
ATOM      5  C4  UNL d   1       1.177   0.828   0.295  0.00  0.00     0.162 A 
ATOM      6  C5  UNL d   1      -0.157   1.151   0.067  0.00  0.00     0.062 A 
ATOM      7  F   UNL d   1      -0.590   2.400   0.293  0.00  0.00    -0.097 F 
ATOM      8  F1  UNL d   1       2.009   1.781   0.741  0.00  0.00    -0.096 F 
ATOM      9  I   UNL d   1       3.631  -0.956   0.404  0.00  0.00    -0.060 I 
ATOM     10  F2  UNL d   1       1.151  -2.692  -0.635  0.00  0.00    -0.096 F 
ATOM     11  F3  UNL d   1      -1.442  -2.042  -1.073  0.00  0.00    -0.097 F 
ATOM     12  F4  UNL d   1      -2.324   0.498  -0.614  0.00  0.00    -0.092 F 
ENDROOT
TORSDOF 0
ENDMDL
