MODEL 1
REMARK minimizedAffinity -2.95156026
REMARK minimizedRMSD -1
REMARK  0 active torsions:
REMARK  status: ('A' for Active; 'I' for Inactive)
ROOT
ATOM      1  C   UNL d   1       3.828   1.526   0.717  0.00  0.00     0.124 A 
ATOM      2  C1  UNL d   1       2.620   2.102   0.348  0.00  0.00     0.062 A 
ATOM      3  C2  UNL d   1       1.492   1.307   0.166  0.00  0.00     0.162 A 
ATOM      4  C3  UNL d   1       1.566  -0.073   0.353  0.00  0.00    -0.034 A 
ATOM      5  C4  UNL d   1       2.785  -0.645   0.723  0.00  0.00     0.162 A 
ATOM      6  C5  UNL d   1       3.909   0.154   0.904  0.00  0.00     0.062 A 
ATOM      7  F   UNL d   1       5.075  -0.404   1.261  0.00  0.00    -0.097 F 
ATOM      8  F1  UNL d   1       2.891  -1.969   0.912  0.00  0.00    -0.096 F 
ATOM      9  I   UNL d   1      -0.118  -1.265   0.082  0.00  0.00    -0.060 I 
ATOM     10  F2  UNL d   1       0.338   1.891  -0.191  0.00  0.00    -0.096 F 
ATOM     11  F3  UNL d   1       2.539   3.428   0.166  0.00  0.00    -0.097 F 
ATOM     12  F4  UNL d   1       4.912   2.294   0.891  0.00  0.00    -0.092 F 
ENDROOT
TORSDOF 0
ENDMDL
