MODEL 1
REMARK minimizedAffinity -3.79509282
REMARK minimizedRMSD -1
REMARK  0 active torsions:
REMARK  status: ('A' for Active; 'I' for Inactive)
ROOT
ATOM      1  C   UNL d   1       3.124  -0.011   0.641  0.00  0.00     0.124 A 
ATOM      2  C1  UNL d   1       2.215  -1.056   0.724  0.00  0.00     0.062 A 
ATOM      3  C2  UNL d   1       0.866  -0.833   0.463  0.00  0.00     0.162 A 
ATOM      4  C3  UNL d   1       0.418   0.442   0.117  0.00  0.00    -0.034 A 
ATOM      5  C4  UNL d   1       1.338   1.488   0.037  0.00  0.00     0.162 A 
ATOM      6  C5  UNL d   1       2.685   1.260   0.298  0.00  0.00     0.062 A 
ATOM      7  F   UNL d   1       3.562   2.271   0.218  0.00  0.00    -0.097 F 
ATOM      8  F1  UNL d   1       0.941   2.726  -0.294  0.00  0.00    -0.096 F 
ATOM      9  I   UNL d   1      -1.598   0.780  -0.274  0.00  0.00    -0.060 I 
ATOM     10  F2  UNL d   1       0.010  -1.862   0.551  0.00  0.00    -0.096 F 
ATOM     11  F3  UNL d   1       2.637  -2.285   1.056  0.00  0.00    -0.097 F 
ATOM     12  F4  UNL d   1       4.422  -0.228   0.894  0.00  0.00    -0.092 F 
ENDROOT
TORSDOF 0
ENDMDL
