MODEL 1
REMARK minimizedAffinity -3.43912077
REMARK minimizedRMSD -1
REMARK  0 active torsions:
REMARK  status: ('A' for Active; 'I' for Inactive)
ROOT
ATOM      1  C   UNL d   1       2.637  -0.310   0.250  0.00  0.00     0.124 A 
ATOM      2  C1  UNL d   1       1.737  -1.340   0.484  0.00  0.00     0.062 A 
ATOM      3  C2  UNL d   1       0.368  -1.099   0.432  0.00  0.00     0.162 A 
ATOM      4  C3  UNL d   1      -0.111   0.179   0.144  0.00  0.00    -0.034 A 
ATOM      5  C4  UNL d   1       0.800   1.211  -0.090  0.00  0.00     0.162 A 
ATOM      6  C5  UNL d   1       2.168   0.964  -0.036  0.00  0.00     0.062 A 
ATOM      7  F   UNL d   1       3.036   1.961  -0.262  0.00  0.00    -0.097 F 
ATOM      8  F1  UNL d   1       0.374   2.451  -0.370  0.00  0.00    -0.096 F 
ATOM      9  I   UNL d   1      -2.159   0.545   0.065  0.00  0.00    -0.060 I 
ATOM     10  F2  UNL d   1      -0.479  -2.113   0.662  0.00  0.00    -0.096 F 
ATOM     11  F3  UNL d   1       2.188  -2.572   0.762  0.00  0.00    -0.097 F 
ATOM     12  F4  UNL d   1       3.955  -0.545   0.302  0.00  0.00    -0.092 F 
ENDROOT
TORSDOF 0
ENDMDL
