MODEL 1
REMARK minimizedAffinity -3.61812329
REMARK minimizedRMSD -1
REMARK  0 active torsions:
REMARK  status: ('A' for Active; 'I' for Inactive)
ROOT
ATOM      1  C   UNL d   1       2.092  -0.215  -0.379  0.00  0.00     0.124 A 
ATOM      2  C1  UNL d   1       1.676   1.109  -0.423  0.00  0.00     0.062 A 
ATOM      3  C2  UNL d   1       0.325   1.422  -0.311  0.00  0.00     0.162 A 
ATOM      4  C3  UNL d   1      -0.621   0.410  -0.151  0.00  0.00    -0.034 A 
ATOM      5  C4  UNL d   1      -0.195  -0.919  -0.108  0.00  0.00     0.162 A 
ATOM      6  C5  UNL d   1       1.156  -1.227  -0.221  0.00  0.00     0.062 A 
ATOM      7  F   UNL d   1       1.556  -2.506  -0.178  0.00  0.00    -0.097 F 
ATOM      8  F1  UNL d   1      -1.078  -1.917   0.044  0.00  0.00    -0.096 F 
ATOM      9  I   UNL d   1      -2.643   0.874   0.018  0.00  0.00    -0.060 I 
ATOM     10  F2  UNL d   1      -0.049   2.710  -0.357  0.00  0.00    -0.096 F 
ATOM     11  F3  UNL d   1       2.578   2.089  -0.576  0.00  0.00    -0.097 F 
ATOM     12  F4  UNL d   1       3.393  -0.513  -0.488  0.00  0.00    -0.092 F 
ENDROOT
TORSDOF 0
ENDMDL
