MODEL 1
REMARK minimizedAffinity -5.60962772
REMARK minimizedRMSD -1
REMARK  0 active torsions:
REMARK  status: ('A' for Active; 'I' for Inactive)
ROOT
ATOM      1  C   UNL d   1       2.557  -0.654   0.465  0.00  0.00     0.124 A 
ATOM      2  C1  UNL d   1       1.611  -1.532  -0.046  0.00  0.00     0.062 A 
ATOM      3  C2  UNL d   1       0.328  -1.082  -0.345  0.00  0.00     0.162 A 
ATOM      4  C3  UNL d   1      -0.016   0.253  -0.136  0.00  0.00    -0.034 A 
ATOM      5  C4  UNL d   1       0.941   1.130   0.379  0.00  0.00     0.162 A 
ATOM      6  C5  UNL d   1       2.221   0.675   0.677  0.00  0.00     0.062 A 
ATOM      7  F   UNL d   1       3.134   1.525   1.170  0.00  0.00    -0.097 F 
ATOM      8  F1  UNL d   1       0.643   2.420   0.592  0.00  0.00    -0.096 F 
ATOM      9  I   UNL d   1      -1.933   0.930  -0.583  0.00  0.00    -0.060 I 
ATOM     10  F2  UNL d   1      -0.566  -1.953  -0.838  0.00  0.00    -0.096 F 
ATOM     11  F3  UNL d   1       1.932  -2.818  -0.251  0.00  0.00    -0.097 F 
ATOM     12  F4  UNL d   1       3.790  -1.090   0.753  0.00  0.00    -0.092 F 
ENDROOT
TORSDOF 0
ENDMDL
