MODEL 1
REMARK minimizedAffinity -1.68702435
REMARK minimizedRMSD -1
REMARK  0 active torsions:
REMARK  status: ('A' for Active; 'I' for Inactive)
ROOT
ATOM      1  C4' PXY d   1       0.567  -0.951  -3.064  0.00  0.00     0.077 C 
ATOM      2  C1' PXY d   1      -1.368   0.308   2.236  0.00  0.00     0.077 C 
ATOM      3  C1  PXY d   1      -0.848  -0.019   0.850  0.00  0.00    -0.082 A 
ATOM      4  C2  PXY d   1      -1.666   0.048  -0.188  0.00  0.00     0.003 A 
ATOM      5  C3  PXY d   1      -1.221  -0.276  -1.444  0.00  0.00     0.003 A 
ATOM      6  C4  PXY d   1       0.089  -0.620  -1.648  0.00  0.00    -0.082 A 
ATOM      7  C5  PXY d   1       0.932  -0.681  -0.595  0.00  0.00     0.003 A 
ATOM      8  C6  PXY d   1       0.450  -0.388   0.677  0.00  0.00     0.003 A 
ENDROOT
TORSDOF 0
ENDMDL
