MODEL 1
REMARK minimizedAffinity -3.42777848
REMARK minimizedRMSD -1
REMARK  0 active torsions:
REMARK  status: ('A' for Active; 'I' for Inactive)
ROOT
ATOM      1  C4' PXY d   1      -0.389  -0.386   3.400  0.00  0.00     0.077 C 
ATOM      2  C1' PXY d   1       0.230  -0.495  -2.346  0.00  0.00     0.077 C 
ATOM      3  C1  PXY d   1       0.057  -0.458  -0.840  0.00  0.00    -0.082 A 
ATOM      4  C2  PXY d   1       1.091  -0.722  -0.057  0.00  0.00     0.003 A 
ATOM      5  C3  PXY d   1       0.945  -0.724   1.307  0.00  0.00     0.003 A 
ATOM      6  C4  PXY d   1      -0.259  -0.402   1.875  0.00  0.00    -0.082 A 
ATOM      7  C5  PXY d   1      -1.315  -0.122   1.083  0.00  0.00     0.003 A 
ATOM      8  C6  PXY d   1      -1.156  -0.165  -0.300  0.00  0.00     0.003 A 
ENDROOT
TORSDOF 0
ENDMDL
