MODEL 1
REMARK minimizedAffinity -1.78315961
REMARK minimizedRMSD -1
REMARK  0 active torsions:
REMARK  status: ('A' for Active; 'I' for Inactive)
ROOT
ATOM      1  C4' PXY d   1       1.066  -0.062  -3.431  0.00  0.00     0.077 C 
ATOM      2  C1' PXY d   1      -1.401   0.096   1.794  0.00  0.00     0.077 C 
ATOM      3  C1  PXY d   1      -0.743   0.053   0.429  0.00  0.00    -0.082 A 
ATOM      4  C2  PXY d   1      -1.324   0.653  -0.597  0.00  0.00     0.003 A 
ATOM      5  C3  PXY d   1      -0.758   0.596  -1.844  0.00  0.00     0.003 A 
ATOM      6  C4  PXY d   1       0.442  -0.036  -2.033  0.00  0.00    -0.082 A 
ATOM      7  C5  PXY d   1       1.046  -0.642  -0.989  0.00  0.00     0.003 A 
ATOM      8  C6  PXY d   1       0.435  -0.608   0.261  0.00  0.00     0.003 A 
ENDROOT
TORSDOF 0
ENDMDL
