MODEL 1
REMARK minimizedAffinity -2.22583556
REMARK minimizedRMSD -1
REMARK  0 active torsions:
REMARK  status: ('A' for Active; 'I' for Inactive)
ROOT
ATOM      1  C4' PXY d   1       1.883  -0.633   3.373  0.00  0.00     0.077 C 
ATOM      2  C1' PXY d   1      -2.600   0.399  -0.128  0.00  0.00     0.077 C 
ATOM      3  C1  PXY d   1      -1.419   0.121   0.781  0.00  0.00    -0.082 A 
ATOM      4  C2  PXY d   1      -1.560   0.239   2.091  0.00  0.00     0.003 A 
ATOM      5  C3  PXY d   1      -0.494   0.022   2.926  0.00  0.00     0.003 A 
ATOM      6  C4  PXY d   1       0.715  -0.371   2.418  0.00  0.00    -0.082 A 
ATOM      7  C5  PXY d   1       0.864  -0.503   1.083  0.00  0.00     0.003 A 
ATOM      8  C6  PXY d   1      -0.219  -0.239   0.250  0.00  0.00     0.003 A 
ENDROOT
TORSDOF 0
ENDMDL
