MODEL 1
REMARK minimizedAffinity -1.47220206
REMARK minimizedRMSD -1
REMARK  0 active torsions:
REMARK  status: ('A' for Active; 'I' for Inactive)
ROOT
ATOM      1  C4' PXY d   1       0.810  -0.178  -2.729  0.00  0.00     0.077 C 
ATOM      2  C1' PXY d   1      -1.721   0.288   2.446  0.00  0.00     0.077 C 
ATOM      3  C1  PXY d   1      -1.046   0.168   1.095  0.00  0.00    -0.082 A 
ATOM      4  C2  PXY d   1      -1.747   0.378  -0.008  0.00  0.00     0.003 A 
ATOM      5  C3  PXY d   1      -1.160   0.242  -1.239  0.00  0.00     0.003 A 
ATOM      6  C4  PXY d   1       0.172  -0.059  -1.343  0.00  0.00    -0.082 A 
ATOM      7  C5  PXY d   1       0.897  -0.263  -0.222  0.00  0.00     0.003 A 
ATOM      8  C6  PXY d   1       0.272  -0.161   1.017  0.00  0.00     0.003 A 
ENDROOT
TORSDOF 0
ENDMDL
