MODEL 1
REMARK minimizedAffinity -4.05329466
REMARK minimizedRMSD -1
REMARK  0 active torsions:
REMARK  status: ('A' for Active; 'I' for Inactive)
ROOT
ATOM      1  C4' PXY d   1       0.808  -0.059  -2.479  0.00  0.00     0.077 C 
ATOM      2  C1' PXY d   1      -1.778  -0.135   2.690  0.00  0.00     0.077 C 
ATOM      3  C1  PXY d   1      -1.088  -0.115   1.340  0.00  0.00    -0.082 A 
ATOM      4  C2  PXY d   1      -1.738   0.337   0.280  0.00  0.00     0.003 A 
ATOM      5  C3  PXY d   1      -1.141   0.333  -0.954  0.00  0.00     0.003 A 
ATOM      6  C4  PXY d   1       0.154  -0.089  -1.095  0.00  0.00    -0.082 A 
ATOM      7  C5  PXY d   1       0.828  -0.542  -0.016  0.00  0.00     0.003 A 
ATOM      8  C6  PXY d   1       0.189  -0.568   1.220  0.00  0.00     0.003 A 
ENDROOT
TORSDOF 0
ENDMDL
