MODEL 1
REMARK minimizedAffinity -3.61414576
REMARK minimizedRMSD -1
REMARK  0 active torsions:
REMARK  status: ('A' for Active; 'I' for Inactive)
ROOT
ATOM      1  C4' PXY d   1       2.126  -0.830   2.682  0.00  0.00     0.077 C 
ATOM      2  C1' PXY d   1      -2.775   0.469  -0.094  0.00  0.00     0.077 C 
ATOM      3  C1  PXY d   1      -1.494   0.136   0.644  0.00  0.00    -0.082 A 
ATOM      4  C2  PXY d   1      -0.427  -0.248  -0.038  0.00  0.00     0.003 A 
ATOM      5  C3  PXY d   1       0.730  -0.584   0.616  0.00  0.00     0.003 A 
ATOM      6  C4  PXY d   1       0.813  -0.474   1.978  0.00  0.00    -0.082 A 
ATOM      7  C5  PXY d   1      -0.267  -0.073   2.680  0.00  0.00     0.003 A 
ATOM      8  C6  PXY d   1      -1.445   0.224   2.001  0.00  0.00     0.003 A 
ENDROOT
TORSDOF 0
ENDMDL
