MODEL 1
REMARK minimizedAffinity -2.35196686
REMARK minimizedRMSD -1
REMARK  0 active torsions:
REMARK  status: ('A' for Active; 'I' for Inactive)
ROOT
ATOM      1  C4' PXY d   1       2.146  -1.188   2.616  0.00  0.00     0.077 C 
ATOM      2  C1' PXY d   1      -2.613   0.450  -0.226  0.00  0.00     0.077 C 
ATOM      3  C1  PXY d   1      -1.361   0.013   0.509  0.00  0.00    -0.082 A 
ATOM      4  C2  PXY d   1      -1.350   0.002   1.832  0.00  0.00     0.003 A 
ATOM      5  C3  PXY d   1      -0.216  -0.359   2.513  0.00  0.00     0.003 A 
ATOM      6  C4  PXY d   1       0.901  -0.764   1.833  0.00  0.00    -0.082 A 
ATOM      7  C5  PXY d   1       0.894  -0.766   0.483  0.00  0.00     0.003 A 
ATOM      8  C6  PXY d   1      -0.254  -0.356  -0.190  0.00  0.00     0.003 A 
ENDROOT
TORSDOF 0
ENDMDL
