MODEL 1
REMARK minimizedAffinity -4.20482254
REMARK minimizedRMSD -1
REMARK  0 active torsions:
REMARK  status: ('A' for Active; 'I' for Inactive)
ROOT
ATOM      1  C4' PXY d   1      -1.470   0.484   2.070  0.00  0.00     0.077 C 
ATOM      2  C1' PXY d   1       0.805  -0.556  -3.142  0.00  0.00     0.077 C 
ATOM      3  C1  PXY d   1       0.210  -0.270  -1.777  0.00  0.00    -0.082 A 
ATOM      4  C2  PXY d   1       0.209  -1.217  -0.853  0.00  0.00     0.003 A 
ATOM      5  C3  PXY d   1      -0.354  -0.986   0.376  0.00  0.00     0.003 A 
ATOM      6  C4  PXY d   1      -0.872   0.244   0.681  0.00  0.00    -0.082 A 
ATOM      7  C5  PXY d   1      -0.864   1.219  -0.253  0.00  0.00     0.003 A 
ATOM      8  C6  PXY d   1      -0.326   0.951  -1.508  0.00  0.00     0.003 A 
ENDROOT
TORSDOF 0
ENDMDL
