MODEL 1
REMARK minimizedAffinity -3.30286145
REMARK minimizedRMSD -1
REMARK  0 active torsions:
REMARK  status: ('A' for Active; 'I' for Inactive)
ROOT
ATOM      1  C4' PXY d   1      -2.324   0.290  -0.573  0.00  0.00     0.077 C 
ATOM      2  C1' PXY d   1       0.958   0.101   4.181  0.00  0.00     0.077 C 
ATOM      3  C1  PXY d   1       0.108   0.152   2.927  0.00  0.00    -0.082 A 
ATOM      4  C2  PXY d   1      -1.153   0.545   3.007  0.00  0.00     0.003 A 
ATOM      5  C3  PXY d   1      -1.945   0.566   1.888  0.00  0.00     0.003 A 
ATOM      6  C4  PXY d   1      -1.426   0.233   0.665  0.00  0.00    -0.082 A 
ATOM      7  C5  PXY d   1      -0.137  -0.159   0.574  0.00  0.00     0.003 A 
ATOM      8  C6  PXY d   1       0.638  -0.213   1.728  0.00  0.00     0.003 A 
ENDROOT
TORSDOF 0
ENDMDL
