MODEL 1
REMARK minimizedAffinity -0.677918077
REMARK minimizedRMSD -1
REMARK  0 active torsions:
REMARK  status: ('A' for Active; 'I' for Inactive)
ROOT
ATOM      1  C4' PXY d   1       0.534  -0.410  -2.636  0.00  0.00     0.077 C 
ATOM      2  C1' PXY d   1      -1.475   0.391   2.724  0.00  0.00     0.077 C 
ATOM      3  C1  PXY d   1      -0.936   0.183   1.323  0.00  0.00    -0.082 A 
ATOM      4  C2  PXY d   1      -1.720   0.406   0.281  0.00  0.00     0.003 A 
ATOM      5  C3  PXY d   1      -1.258   0.192  -0.993  0.00  0.00     0.003 A 
ATOM      6  C4  PXY d   1       0.035  -0.204  -1.204  0.00  0.00    -0.082 A 
ATOM      7  C5  PXY d   1       0.845  -0.424  -0.146  0.00  0.00     0.003 A 
ATOM      8  C6  PXY d   1       0.345  -0.240   1.140  0.00  0.00     0.003 A 
ENDROOT
TORSDOF 0
ENDMDL
