MODEL 1
REMARK minimizedAffinity 2.57798815
REMARK minimizedRMSD -1
REMARK  0 active torsions:
REMARK  status: ('A' for Active; 'I' for Inactive)
ROOT
ATOM      1  C4' PXY d   1      -2.312  -0.531   2.782  0.00  0.00     0.077 C 
ATOM      2  C1' PXY d   1       0.800   0.370  -2.005  0.00  0.00     0.077 C 
ATOM      3  C1  PXY d   1      -0.027   0.131  -0.757  0.00  0.00    -0.082 A 
ATOM      4  C2  PXY d   1       0.339   0.688   0.386  0.00  0.00     0.003 A 
ATOM      5  C3  PXY d   1      -0.379   0.457   1.531  0.00  0.00     0.003 A 
ATOM      6  C4  PXY d   1      -1.513  -0.310   1.495  0.00  0.00    -0.082 A 
ATOM      7  C5  PXY d   1      -1.899  -0.873   0.330  0.00  0.00     0.003 A 
ATOM      8  C6  PXY d   1      -1.133  -0.660  -0.812  0.00  0.00     0.003 A 
ENDROOT
TORSDOF 0
ENDMDL
