MODEL 1
REMARK minimizedAffinity -1.26871634
REMARK minimizedRMSD -1
REMARK  0 active torsions:
REMARK  status: ('A' for Active; 'I' for Inactive)
ROOT
ATOM      1  C4' PXY d   1       1.584  -0.079  -3.539  0.00  0.00     0.077 C 
ATOM      2  C1' PXY d   1      -1.707   0.568   1.169  0.00  0.00     0.077 C 
ATOM      3  C1  PXY d   1      -0.839   0.387  -0.061  0.00  0.00    -0.082 A 
ATOM      4  C2  PXY d   1      -0.481   1.445  -0.770  0.00  0.00     0.003 A 
ATOM      5  C3  PXY d   1       0.277   1.297  -1.903  0.00  0.00     0.003 A 
ATOM      6  C4  PXY d   1       0.717   0.058  -2.285  0.00  0.00    -0.082 A 
ATOM      7  C5  PXY d   1       0.364  -1.026  -1.561  0.00  0.00     0.003 A 
ATOM      8  C6  PXY d   1      -0.440  -0.858  -0.437  0.00  0.00     0.003 A 
ENDROOT
TORSDOF 0
ENDMDL
