MODEL 1
REMARK minimizedAffinity -3.04730797
REMARK minimizedRMSD -1
REMARK  0 active torsions:
REMARK  status: ('A' for Active; 'I' for Inactive)
ROOT
ATOM      1  C4' PXY d   1      -0.380   0.240   3.711  0.00  0.00     0.077 C 
ATOM      2  C1' PXY d   1       0.377  -0.773  -1.929  0.00  0.00     0.077 C 
ATOM      3  C1  PXY d   1       0.169  -0.500  -0.453  0.00  0.00    -0.082 A 
ATOM      4  C2  PXY d   1       1.172  -0.672   0.392  0.00  0.00     0.003 A 
ATOM      5  C3  PXY d   1       0.992  -0.460   1.735  0.00  0.00     0.003 A 
ATOM      6  C4  PXY d   1      -0.212  -0.016   2.211  0.00  0.00    -0.082 A 
ATOM      7  C5  PXY d   1      -1.238   0.173   1.353  0.00  0.00     0.003 A 
ATOM      8  C6  PXY d   1      -1.046  -0.087  -0.001  0.00  0.00     0.003 A 
ENDROOT
TORSDOF 0
ENDMDL
