MODEL 1
REMARK minimizedAffinity -4.08628702
REMARK minimizedRMSD -1
REMARK  0 active torsions:
REMARK  status: ('A' for Active; 'I' for Inactive)
ROOT
ATOM      1  C4' PXY d   1       1.216  -0.078   3.753  0.00  0.00     0.077 C 
ATOM      2  C1' PXY d   1      -2.469   0.334  -0.682  0.00  0.00     0.077 C 
ATOM      3  C1  PXY d   1      -1.496   0.217   0.474  0.00  0.00    -0.082 A 
ATOM      4  C2  PXY d   1      -1.899   0.505   1.701  0.00  0.00     0.003 A 
ATOM      5  C3  PXY d   1      -1.024   0.436   2.754  0.00  0.00     0.003 A 
ATOM      6  C4  PXY d   1       0.265   0.016   2.557  0.00  0.00    -0.082 A 
ATOM      7  C5  PXY d   1       0.682  -0.290   1.310  0.00  0.00     0.003 A 
ATOM      8  C6  PXY d   1      -0.212  -0.173   0.249  0.00  0.00     0.003 A 
ENDROOT
TORSDOF 0
ENDMDL
