MODEL 1
REMARK minimizedAffinity -0.663618624
REMARK minimizedRMSD -1
REMARK  0 active torsions:
REMARK  status: ('A' for Active; 'I' for Inactive)
ROOT
ATOM      1  C4' PXY d   1       0.956  -0.906   4.106  0.00  0.00     0.077 C 
ATOM      2  C1' PXY d   1      -2.100   0.478  -0.602  0.00  0.00     0.077 C 
ATOM      3  C1  PXY d   1      -1.291   0.107   0.626  0.00  0.00    -0.082 A 
ATOM      4  C2  PXY d   1      -1.816   0.271   1.829  0.00  0.00     0.003 A 
ATOM      5  C3  PXY d   1      -1.087  -0.029   2.951  0.00  0.00     0.003 A 
ATOM      6  C4  PXY d   1       0.173  -0.553   2.838  0.00  0.00    -0.082 A 
ATOM      7  C5  PXY d   1       0.711  -0.734   1.614  0.00  0.00     0.003 A 
ATOM      8  C6  PXY d   1      -0.030  -0.384   0.489  0.00  0.00     0.003 A 
ENDROOT
TORSDOF 0
ENDMDL
