MODEL 1
REMARK minimizedAffinity 25.8262062
REMARK minimizedRMSD -1
REMARK  0 active torsions:
REMARK  status: ('A' for Active; 'I' for Inactive)
ROOT
ATOM      1  C   UNL d   1      -3.560  -0.056  -3.050  0.00  0.00     0.124 A 
ATOM      2  C1  UNL d   1      -3.690   0.397  -4.356  0.00  0.00     0.062 A 
ATOM      3  C2  UNL d   1      -4.079   1.710  -4.606  0.00  0.00     0.162 A 
ATOM      4  C3  UNL d   1      -4.339   2.581  -3.547  0.00  0.00    -0.034 A 
ATOM      5  C4  UNL d   1      -4.206   2.118  -2.237  0.00  0.00     0.162 A 
ATOM      6  C5  UNL d   1      -3.818   0.805  -1.992  0.00  0.00     0.062 A 
ATOM      7  F   UNL d   1      -3.692   0.369  -0.730  0.00  0.00    -0.097 F 
ATOM      8  F1  UNL d   1      -4.448   2.928  -1.196  0.00  0.00    -0.096 F 
ATOM      9  I   UNL d   1      -4.920   4.545  -3.917  0.00  0.00    -0.060 I 
ATOM     10  F2  UNL d   1      -4.197   2.120  -5.877  0.00  0.00    -0.096 F 
ATOM     11  F3  UNL d   1      -3.442  -0.433  -5.379  0.00  0.00    -0.097 F 
ATOM     12  F4  UNL d   1      -3.187  -1.320  -2.812  0.00  0.00    -0.092 F 
ENDROOT
TORSDOF 0
ENDMDL
