MODEL 1
REMARK minimizedAffinity 22.1793652
REMARK minimizedRMSD -1
REMARK  0 active torsions:
REMARK  status: ('A' for Active; 'I' for Inactive)
ROOT
ATOM      1  C   UNL d   1      -0.990  -2.673   3.163  0.00  0.00     0.124 A 
ATOM      2  C1  UNL d   1      -0.952  -4.042   2.939  0.00  0.00     0.062 A 
ATOM      3  C2  UNL d   1       0.162  -4.622   2.338  0.00  0.00     0.162 A 
ATOM      4  C3  UNL d   1       1.248  -3.832   1.959  0.00  0.00    -0.034 A 
ATOM      5  C4  UNL d   1       1.202  -2.456   2.188  0.00  0.00     0.162 A 
ATOM      6  C5  UNL d   1       0.086  -1.881   2.788  0.00  0.00     0.062 A 
ATOM      7  F   UNL d   1       0.051  -0.558   3.005  0.00  0.00    -0.097 F 
ATOM      8  F1  UNL d   1       2.228  -1.668   1.836  0.00  0.00    -0.096 F 
ATOM      9  I   UNL d   1       2.916  -4.695   1.062  0.00  0.00    -0.060 I 
ATOM     10  F2  UNL d   1       0.172  -5.947   2.133  0.00  0.00    -0.096 F 
ATOM     11  F3  UNL d   1      -1.991  -4.809   3.299  0.00  0.00    -0.097 F 
ATOM     12  F4  UNL d   1      -2.064  -2.118   3.740  0.00  0.00    -0.092 F 
ENDROOT
TORSDOF 0
ENDMDL
