MODEL 1
REMARK minimizedAffinity 19.6532364
REMARK minimizedRMSD -1
REMARK  0 active torsions:
REMARK  status: ('A' for Active; 'I' for Inactive)
ROOT
ATOM      1  C   UNL d   1       1.574  -1.588   2.880  0.00  0.00     0.124 A 
ATOM      2  C1  UNL d   1       0.537  -0.819   3.392  0.00  0.00     0.062 A 
ATOM      3  C2  UNL d   1      -0.777  -1.270   3.307  0.00  0.00     0.162 A 
ATOM      4  C3  UNL d   1      -1.062  -2.497   2.708  0.00  0.00    -0.034 A 
ATOM      5  C4  UNL d   1      -0.015  -3.264   2.195  0.00  0.00     0.162 A 
ATOM      6  C5  UNL d   1       1.297  -2.809   2.282  0.00  0.00     0.062 A 
ATOM      7  F   UNL d   1       2.297  -3.553   1.787  0.00  0.00    -0.097 F 
ATOM      8  F1  UNL d   1      -0.254  -4.449   1.612  0.00  0.00    -0.096 F 
ATOM      9  I   UNL d   1      -3.026  -3.175   2.578  0.00  0.00    -0.060 I 
ATOM     10  F2  UNL d   1      -1.758  -0.506   3.809  0.00  0.00    -0.096 F 
ATOM     11  F3  UNL d   1       0.802   0.362   3.969  0.00  0.00    -0.097 F 
ATOM     12  F4  UNL d   1       2.837  -1.151   2.963  0.00  0.00    -0.092 F 
ENDROOT
TORSDOF 0
ENDMDL
