MODEL 1
REMARK minimizedAffinity 27.0681992
REMARK minimizedRMSD -1
REMARK  0 active torsions:
REMARK  status: ('A' for Active; 'I' for Inactive)
ROOT
ATOM      1  C   UNL d   1       2.249  -0.125   0.513  0.00  0.00     0.124 A 
ATOM      2  C1  UNL d   1       1.742   0.560  -0.583  0.00  0.00     0.062 A 
ATOM      3  C2  UNL d   1       0.432   0.343  -1.000  0.00  0.00     0.162 A 
ATOM      4  C3  UNL d   1      -0.382  -0.562  -0.320  0.00  0.00    -0.034 A 
ATOM      5  C4  UNL d   1       0.135  -1.248   0.781  0.00  0.00     0.162 A 
ATOM      6  C5  UNL d   1       1.445  -1.028   1.193  0.00  0.00     0.062 A 
ATOM      7  F   UNL d   1       1.932  -1.691   2.252  0.00  0.00    -0.097 F 
ATOM      8  F1  UNL d   1      -0.620  -2.127   1.457  0.00  0.00    -0.096 F 
ATOM      9  I   UNL d   1      -2.341  -0.890  -0.940  0.00  0.00    -0.060 I 
ATOM     10  F2  UNL d   1      -0.031   1.019  -2.062  0.00  0.00    -0.096 F 
ATOM     11  F3  UNL d   1       2.517   1.433  -1.243  0.00  0.00    -0.097 F 
ATOM     12  F4  UNL d   1       3.510   0.085   0.911  0.00  0.00    -0.092 F 
ENDROOT
TORSDOF 0
ENDMDL
