MODEL 1
REMARK minimizedAffinity 27.1855927
REMARK minimizedRMSD -1
REMARK  0 active torsions:
REMARK  status: ('A' for Active; 'I' for Inactive)
ROOT
ATOM      1  C   UNL d   1       0.462  -0.684  -0.249  0.00  0.00     0.124 A 
ATOM      2  C1  UNL d   1       0.831  -1.341   0.916  0.00  0.00     0.062 A 
ATOM      3  C2  UNL d   1       1.211  -0.614   2.040  0.00  0.00     0.162 A 
ATOM      4  C3  UNL d   1       1.223   0.781   2.005  0.00  0.00    -0.034 A 
ATOM      5  C4  UNL d   1       0.851   1.435   0.829  0.00  0.00     0.162 A 
ATOM      6  C5  UNL d   1       0.472   0.703  -0.292  0.00  0.00     0.062 A 
ATOM      7  F   UNL d   1       0.115   1.341  -1.416  0.00  0.00    -0.097 F 
ATOM      8  F1  UNL d   1       0.850   2.775   0.761  0.00  0.00    -0.096 F 
ATOM      9  I   UNL d   1       1.790   1.872   3.684  0.00  0.00    -0.060 I 
ATOM     10  F2  UNL d   1       1.564  -1.276   3.152  0.00  0.00    -0.096 F 
ATOM     11  F3  UNL d   1       0.823  -2.681   0.959  0.00  0.00    -0.097 F 
ATOM     12  F4  UNL d   1       0.098  -1.386  -1.330  0.00  0.00    -0.092 F 
ENDROOT
TORSDOF 0
ENDMDL
