MODEL 1
REMARK minimizedAffinity -4.76778316
REMARK minimizedRMSD -1
REMARK  0 active torsions:
REMARK  status: ('A' for Active; 'I' for Inactive)
ROOT
ATOM      1  C1  DEN d   1       0.447   1.070   0.890  0.00  0.00     0.130 A 
ATOM      2  C2  DEN d   1      -0.270   0.059   1.662  0.00  0.00    -0.031 A 
ATOM      3  C3  DEN d   1      -0.368  -1.161   0.836  0.00  0.00     0.027 A 
ATOM      4  C4  DEN d   1       0.519  -1.582  -1.549  0.00  0.00     0.027 A 
ATOM      5  C5  DEN d   1       1.184  -1.017  -2.616  0.00  0.00    -0.003 A 
ATOM      6  C6  DEN d   1       1.616   0.283  -2.601  0.00  0.00     0.001 A 
ATOM      7  C7  DEN d   1       1.428   1.048  -1.481  0.00  0.00     0.017 A 
ATOM      8  C8  DEN d   1       0.752   0.488  -0.405  0.00  0.00    -0.094 A 
ATOM      9  C9  DEN d   1       0.334  -0.831  -0.434  0.00  0.00    -0.072 A 
ENDROOT
TORSDOF 0
ENDMDL
