MODEL 1
REMARK minimizedAffinity -4.83334684
REMARK minimizedRMSD -1
REMARK  0 active torsions:
REMARK  status: ('A' for Active; 'I' for Inactive)
ROOT
ATOM      1  C1  DEN d   1      -0.011   1.124   0.630  0.00  0.00     0.130 A 
ATOM      2  C2  DEN d   1      -0.801  -0.042   1.017  0.00  0.00    -0.031 A 
ATOM      3  C3  DEN d   1      -0.649  -1.066  -0.036  0.00  0.00     0.027 A 
ATOM      4  C4  DEN d   1       0.730  -0.963  -2.213  0.00  0.00     0.027 A 
ATOM      5  C5  DEN d   1       1.558  -0.174  -2.981  0.00  0.00    -0.003 A 
ATOM      6  C6  DEN d   1       1.891   1.104  -2.619  0.00  0.00     0.001 A 
ATOM      7  C7  DEN d   1       1.430   1.616  -1.435  0.00  0.00     0.017 A 
ATOM      8  C8  DEN d   1       0.588   0.830  -0.659  0.00  0.00    -0.094 A 
ATOM      9  C9  DEN d   1       0.273  -0.465  -1.036  0.00  0.00    -0.072 A 
ENDROOT
TORSDOF 0
ENDMDL
