MODEL 1
REMARK minimizedAffinity -6.16121101
REMARK minimizedRMSD -1
REMARK  0 active torsions:
REMARK  status: ('A' for Active; 'I' for Inactive)
ROOT
ATOM      1  C1  DEN d   1      -0.507  -0.268  -0.220  0.00  0.00     0.130 A 
ATOM      2  C2  DEN d   1      -0.251   1.036   0.386  0.00  0.00    -0.031 A 
ATOM      3  C3  DEN d   1       1.066   1.508  -0.087  0.00  0.00     0.027 A 
ATOM      4  C4  DEN d   1       2.721   0.357  -1.695  0.00  0.00     0.027 A 
ATOM      5  C5  DEN d   1       2.947  -0.768  -2.457  0.00  0.00    -0.003 A 
ATOM      6  C6  DEN d   1       2.061  -1.811  -2.500  0.00  0.00     0.001 A 
ATOM      7  C7  DEN d   1       0.884  -1.732  -1.803  0.00  0.00     0.017 A 
ATOM      8  C8  DEN d   1       0.653  -0.604  -1.026  0.00  0.00    -0.094 A 
ATOM      9  C9  DEN d   1       1.556   0.445  -1.005  0.00  0.00    -0.072 A 
ENDROOT
TORSDOF 0
ENDMDL
