MODEL 1
REMARK minimizedAffinity -2.94563866
REMARK minimizedRMSD -1
REMARK  0 active torsions:
REMARK  status: ('A' for Active; 'I' for Inactive)
ROOT
ATOM      1  C1  DEN d   1       1.154   1.674  -0.121  0.00  0.00     0.130 A 
ATOM      2  C2  DEN d   1       0.688   1.770   1.259  0.00  0.00    -0.031 A 
ATOM      3  C3  DEN d   1       0.053   0.485   1.616  0.00  0.00     0.027 A 
ATOM      4  C4  DEN d   1      -0.247  -1.633   0.175  0.00  0.00     0.027 A 
ATOM      5  C5  DEN d   1      -0.024  -2.187  -1.066  0.00  0.00    -0.003 A 
ATOM      6  C6  DEN d   1       0.572  -1.487  -2.082  0.00  0.00     0.001 A 
ATOM      7  C7  DEN d   1       1.006  -0.207  -1.860  0.00  0.00     0.017 A 
ATOM      8  C8  DEN d   1       0.778   0.361  -0.614  0.00  0.00    -0.094 A 
ATOM      9  C9  DEN d   1       0.185  -0.367   0.404  0.00  0.00    -0.072 A 
ENDROOT
TORSDOF 0
ENDMDL
