MODEL 1
REMARK minimizedAffinity -4.55361938
REMARK minimizedRMSD -1
REMARK  0 active torsions:
REMARK  status: ('A' for Active; 'I' for Inactive)
ROOT
ATOM      1  C1  DEN d   1       0.543  -0.424  -2.796  0.00  0.00     0.130 A 
ATOM      2  C2  DEN d   1       1.872   0.171  -2.903  0.00  0.00    -0.031 A 
ATOM      3  C3  DEN d   1       2.164   0.868  -1.634  0.00  0.00     0.027 A 
ATOM      4  C4  DEN d   1       0.697   1.078   0.477  0.00  0.00     0.027 A 
ATOM      5  C5  DEN d   1      -0.518   0.750   1.037  0.00  0.00    -0.003 A 
ATOM      6  C6  DEN d   1      -1.470   0.042   0.352  0.00  0.00     0.001 A 
ATOM      7  C7  DEN d   1      -1.205  -0.400  -0.918  0.00  0.00     0.017 A 
ATOM      8  C8  DEN d   1       0.015  -0.066  -1.492  0.00  0.00    -0.094 A 
ATOM      9  C9  DEN d   1       0.969   0.640  -0.779  0.00  0.00    -0.072 A 
ENDROOT
TORSDOF 0
ENDMDL
