MODEL 1
REMARK minimizedAffinity -4.2272191
REMARK minimizedRMSD -1
REMARK  0 active torsions:
REMARK  status: ('A' for Active; 'I' for Inactive)
ROOT
ATOM      1  C1  DEN d   1      -0.512   0.793   0.854  0.00  0.00     0.130 A 
ATOM      2  C2  DEN d   1      -1.767   0.069   0.669  0.00  0.00    -0.031 A 
ATOM      3  C3  DEN d   1      -1.785  -0.470  -0.706  0.00  0.00     0.027 A 
ATOM      4  C4  DEN d   1       0.001  -0.259  -2.555  0.00  0.00     0.027 A 
ATOM      5  C5  DEN d   1       1.232   0.271  -2.872  0.00  0.00    -0.003 A 
ATOM      6  C6  DEN d   1       1.947   1.035  -1.988  0.00  0.00     0.001 A 
ATOM      7  C7  DEN d   1       1.457   1.253  -0.727  0.00  0.00     0.017 A 
ATOM      8  C8  DEN d   1       0.213   0.727  -0.403  0.00  0.00    -0.094 A 
ATOM      9  C9  DEN d   1      -0.489  -0.053  -1.306  0.00  0.00    -0.072 A 
ENDROOT
TORSDOF 0
ENDMDL
