MODEL 1
REMARK minimizedAffinity -3.10929751
REMARK minimizedRMSD -1
REMARK  0 active torsions:
REMARK  status: ('A' for Active; 'I' for Inactive)
ROOT
ATOM      1  C1  DEN d   1       1.043   2.204  -0.972  0.00  0.00     0.130 A 
ATOM      2  C2  DEN d   1       1.576   1.609  -2.194  0.00  0.00    -0.031 A 
ATOM      3  C3  DEN d   1       1.270   0.164  -2.169  0.00  0.00     0.027 A 
ATOM      4  C4  DEN d   1       0.024  -1.200  -0.370  0.00  0.00     0.027 A 
ATOM      5  C5  DEN d   1      -0.605  -1.133   0.854  0.00  0.00    -0.003 A 
ATOM      6  C6  DEN d   1      -0.699   0.034   1.565  0.00  0.00     0.001 A 
ATOM      7  C7  DEN d   1      -0.194   1.193   1.036  0.00  0.00     0.017 A 
ATOM      8  C8  DEN d   1       0.449   1.132  -0.194  0.00  0.00    -0.094 A 
ATOM      9  C9  DEN d   1       0.522  -0.055  -0.902  0.00  0.00    -0.072 A 
ENDROOT
TORSDOF 0
ENDMDL
