MODEL 1
REMARK minimizedAffinity -1.43399477
REMARK minimizedRMSD -1
REMARK  0 active torsions:
REMARK  status: ('A' for Active; 'I' for Inactive)
ROOT
ATOM      1  C1  DEN d   1       0.259  -1.253  -1.741  0.00  0.00     0.130 A 
ATOM      2  C2  DEN d   1       1.354  -0.646  -2.493  0.00  0.00    -0.031 A 
ATOM      3  C3  DEN d   1       1.752   0.595  -1.798  0.00  0.00     0.027 A 
ATOM      4  C4  DEN d   1       0.787   1.628   0.359  0.00  0.00     0.027 A 
ATOM      5  C5  DEN d   1      -0.160   1.481   1.347  0.00  0.00    -0.003 A 
ATOM      6  C6  DEN d   1      -1.050   0.439   1.357  0.00  0.00     0.001 A 
ATOM      7  C7  DEN d   1      -0.980  -0.522   0.383  0.00  0.00     0.017 A 
ATOM      8  C8  DEN d   1      -0.032  -0.376  -0.621  0.00  0.00    -0.094 A 
ATOM      9  C9  DEN d   1       0.866   0.677  -0.607  0.00  0.00    -0.072 A 
ENDROOT
TORSDOF 0
ENDMDL
