MODEL 1
REMARK minimizedAffinity -4.94288063
REMARK minimizedRMSD -1
REMARK  0 active torsions:
REMARK  status: ('A' for Active; 'I' for Inactive)
ROOT
ATOM      1  C1  DEN d   1       0.914  -1.214  -2.306  0.00  0.00     0.130 A 
ATOM      2  C2  DEN d   1       1.722  -0.208  -2.989  0.00  0.00    -0.031 A 
ATOM      3  C3  DEN d   1       1.787   0.988  -2.125  0.00  0.00     0.027 A 
ATOM      4  C4  DEN d   1       0.725   1.375   0.194  0.00  0.00     0.027 A 
ATOM      5  C5  DEN d   1      -0.061   0.813   1.176  0.00  0.00    -0.003 A 
ATOM      6  C6  DEN d   1      -0.600  -0.440   1.053  0.00  0.00     0.001 A 
ATOM      7  C7  DEN d   1      -0.323  -1.191  -0.058  0.00  0.00     0.017 A 
ATOM      8  C8  DEN d   1       0.462  -0.629  -1.057  0.00  0.00    -0.094 A 
ATOM      9  C9  DEN d   1       1.007   0.634  -0.908  0.00  0.00    -0.072 A 
ENDROOT
TORSDOF 0
ENDMDL
