MODEL 1
REMARK minimizedAffinity -1.31811357
REMARK minimizedRMSD -1
REMARK  0 active torsions:
REMARK  status: ('A' for Active; 'I' for Inactive)
ROOT
ATOM      1  C1  DEN d   1      -0.740  -1.361  -0.003  0.00  0.00     0.130 A 
ATOM      2  C2  DEN d   1      -1.476  -0.835   1.144  0.00  0.00    -0.031 A 
ATOM      3  C3  DEN d   1      -1.042   0.559   1.365  0.00  0.00     0.027 A 
ATOM      4  C4  DEN d   1       0.686   1.949   0.048  0.00  0.00     0.027 A 
ATOM      5  C5  DEN d   1       1.580   1.928  -1.000  0.00  0.00    -0.003 A 
ATOM      6  C6  DEN d   1       1.786   0.808  -1.761  0.00  0.00     0.001 A 
ATOM      7  C7  DEN d   1       1.056  -0.324  -1.514  0.00  0.00     0.017 A 
ATOM      8  C8  DEN d   1       0.159  -0.313  -0.455  0.00  0.00    -0.094 A 
ATOM      9  C9  DEN d   1      -0.044   0.832   0.296  0.00  0.00    -0.072 A 
ENDROOT
TORSDOF 0
ENDMDL
