MODEL 1
REMARK minimizedAffinity -5.69665384
REMARK minimizedRMSD -1
REMARK  0 active torsions:
REMARK  status: ('A' for Active; 'I' for Inactive)
ROOT
ATOM      1  C1  DEN d   1      -0.289  -0.751   0.684  0.00  0.00     0.130 A 
ATOM      2  C2  DEN d   1      -0.362   0.699   0.841  0.00  0.00    -0.031 A 
ATOM      3  C3  DEN d   1       0.369   1.317  -0.283  0.00  0.00     0.027 A 
ATOM      4  C4  DEN d   1       1.595   0.176  -2.245  0.00  0.00     0.027 A 
ATOM      5  C5  DEN d   1       1.940  -1.037  -2.800  0.00  0.00    -0.003 A 
ATOM      6  C6  DEN d   1       1.598  -2.229  -2.219  0.00  0.00     0.001 A 
ATOM      7  C7  DEN d   1       0.850  -2.236  -1.071  0.00  0.00     0.017 A 
ATOM      8  C8  DEN d   1       0.505  -1.017  -0.502  0.00  0.00    -0.094 A 
ATOM      9  C9  DEN d   1       0.850   0.178  -1.110  0.00  0.00    -0.072 A 
ENDROOT
TORSDOF 0
ENDMDL
