MODEL 1
REMARK minimizedAffinity -4.9016552
REMARK minimizedRMSD -1
REMARK  0 active torsions:
REMARK  status: ('A' for Active; 'I' for Inactive)
ROOT
ATOM      1  C1  DEN d   1       0.047  -1.924   0.283  0.00  0.00     0.130 A 
ATOM      2  C2  DEN d   1      -0.364  -1.471   1.609  0.00  0.00    -0.031 A 
ATOM      3  C3  DEN d   1      -0.215  -0.003   1.657  0.00  0.00     0.027 A 
ATOM      4  C4  DEN d   1       0.604   1.606  -0.185  0.00  0.00     0.027 A 
ATOM      5  C5  DEN d   1       1.074   1.686  -1.477  0.00  0.00    -0.003 A 
ATOM      6  C6  DEN d   1       1.267   0.576  -2.255  0.00  0.00     0.001 A 
ATOM      7  C7  DEN d   1       0.944  -0.662  -1.763  0.00  0.00     0.017 A 
ATOM      8  C8  DEN d   1       0.475  -0.752  -0.459  0.00  0.00    -0.094 A 
ATOM      9  C9  DEN d   1       0.276   0.384   0.307  0.00  0.00    -0.072 A 
ENDROOT
TORSDOF 0
ENDMDL
