MODEL 1
REMARK minimizedAffinity -3.74156404
REMARK minimizedRMSD -1
REMARK  1 active torsions:
REMARK  status: ('A' for Active; 'I' for Inactive)
REMARK    1  A    between atoms: C3_4  and  O_7 
ROOT
ATOM      1  C   UNL d   1       0.652   0.032  -0.062  0.00  0.00    -0.033 A 
ATOM      2  C1  UNL d   1       0.870   0.164   1.311  0.00  0.00     0.039 A 
ATOM      3  C2  UNL d   1       0.108   1.064   2.057  0.00  0.00    -0.080 A 
ATOM      4  C3  UNL d   1      -0.868   1.826   1.420  0.00  0.00     0.150 A 
ATOM      5  C4  UNL d   1      -1.093   1.697   0.054  0.00  0.00    -0.007 A 
ATOM      6  C5  UNL d   1      -0.330   0.797  -0.690  0.00  0.00     0.039 A 
ENDROOT
BRANCH   4   7
ATOM      7  O   UNL d   1      -1.633   2.721   2.106  0.00  0.00    -0.526 OA
ATOM      8  H5  UNL d   1      -1.347   2.723   3.035  0.00  0.00     0.418 HD
ENDBRANCH   4   7
TORSDOF 1
ENDMDL
