MODEL 1
REMARK minimizedAffinity -4.96763659
REMARK minimizedRMSD -1
REMARK  1 active torsions:
REMARK  status: ('A' for Active; 'I' for Inactive)
REMARK    1  A    between atoms: C3_4  and  O_7 
ROOT
ATOM      1  C   UNL d   1      -1.342   3.078   1.021  0.00  0.00    -0.033 A 
ATOM      2  C1  UNL d   1      -0.990   1.990   1.822  0.00  0.00     0.039 A 
ATOM      3  C2  UNL d   1      -0.436   0.846   1.244  0.00  0.00    -0.080 A 
ATOM      4  C3  UNL d   1      -0.238   0.803  -0.133  0.00  0.00     0.150 A 
ATOM      5  C4  UNL d   1      -0.583   1.885  -0.937  0.00  0.00    -0.007 A 
ATOM      6  C5  UNL d   1      -1.137   3.026  -0.358  0.00  0.00     0.039 A 
ENDROOT
BRANCH   4   7
ATOM      7  O   UNL d   1       0.296  -0.293  -0.743  0.00  0.00    -0.526 OA
ATOM      8  H5  UNL d   1       0.459  -0.972  -0.067  0.00  0.00     0.418 HD
ENDBRANCH   4   7
TORSDOF 1
ENDMDL
