MODEL 1
REMARK minimizedAffinity -5.06942749
REMARK minimizedRMSD -1
REMARK  1 active torsions:
REMARK  status: ('A' for Active; 'I' for Inactive)
REMARK    1  A    between atoms: C3_4  and  O_7 
ROOT
ATOM      1  C   UNL d   1      -0.855   3.036   1.384  0.00  0.00    -0.033 A 
ATOM      2  C1  UNL d   1      -1.199   2.910   0.036  0.00  0.00     0.039 A 
ATOM      3  C2  UNL d   1      -0.918   1.727  -0.650  0.00  0.00    -0.080 A 
ATOM      4  C3  UNL d   1      -0.294   0.679   0.021  0.00  0.00     0.150 A 
ATOM      5  C4  UNL d   1       0.049   0.796   1.364  0.00  0.00    -0.007 A 
ATOM      6  C5  UNL d   1      -0.232   1.978   2.048  0.00  0.00     0.039 A 
ENDROOT
BRANCH   4   7
ATOM      7  O   UNL d   1       0.005  -0.493  -0.609  0.00  0.00    -0.526 OA
ATOM      8  H5  UNL d   1      -0.263  -0.419  -1.540  0.00  0.00     0.418 HD
ENDBRANCH   4   7
TORSDOF 1
ENDMDL
