MODEL 1
REMARK minimizedAffinity -5.83433294
REMARK minimizedRMSD -1
REMARK  1 active torsions:
REMARK  status: ('A' for Active; 'I' for Inactive)
REMARK    1  A    between atoms: C3_4  and  O_7 
ROOT
ATOM      1  C   UNL d   1      -0.231   1.154  -1.152  0.00  0.00    -0.033 A 
ATOM      2  C1  UNL d   1      -0.337   0.421   0.031  0.00  0.00     0.039 A 
ATOM      3  C2  UNL d   1      -0.680   1.061   1.224  0.00  0.00    -0.080 A 
ATOM      4  C3  UNL d   1      -0.914   2.434   1.219  0.00  0.00     0.150 A 
ATOM      5  C4  UNL d   1      -0.814   3.170   0.043  0.00  0.00    -0.007 A 
ATOM      6  C5  UNL d   1      -0.471   2.529  -1.146  0.00  0.00     0.039 A 
ENDROOT
BRANCH   4   7
ATOM      7  O   UNL d   1      -1.246   3.104   2.359  0.00  0.00    -0.526 OA
ATOM      8  H5  UNL d   1      -1.250   2.472   3.097  0.00  0.00     0.418 HD
ENDBRANCH   4   7
TORSDOF 1
ENDMDL
