MODEL 1
REMARK minimizedAffinity -4.86196661
REMARK minimizedRMSD -1
REMARK  1 active torsions:
REMARK  status: ('A' for Active; 'I' for Inactive)
REMARK    1  A    between atoms: C3_4  and  O_7 
ROOT
ATOM      1  C   UNL d   1      -1.260   3.397   0.568  0.00  0.00    -0.033 A 
ATOM      2  C1  UNL d   1      -0.707   3.049  -0.666  0.00  0.00     0.039 A 
ATOM      3  C2  UNL d   1      -0.315   1.732  -0.910  0.00  0.00    -0.080 A 
ATOM      4  C3  UNL d   1      -0.481   0.773   0.086  0.00  0.00     0.150 A 
ATOM      5  C4  UNL d   1      -1.035   1.112   1.316  0.00  0.00    -0.007 A 
ATOM      6  C5  UNL d   1      -1.426   2.429   1.558  0.00  0.00     0.039 A 
ENDROOT
BRANCH   4   7
ATOM      7  O   UNL d   1      -0.109  -0.524  -0.105  0.00  0.00    -0.526 OA
ATOM      8  H5  UNL d   1       0.284  -0.605  -0.990  0.00  0.00     0.418 HD
ENDBRANCH   4   7
TORSDOF 1
ENDMDL
