MODEL 1
REMARK minimizedAffinity 14.6718664
REMARK minimizedRMSD -1
REMARK  0 active torsions:
REMARK  status: ('A' for Active; 'I' for Inactive)
ROOT
ATOM      1  C   UNL d   1       2.026   0.722  -0.354  0.00  0.00    -0.002 A 
ATOM      2  C1  UNL d   1       2.721  -0.225   0.386  0.00  0.00     0.010 A 
ATOM      3  C2  UNL d   1       3.038   0.012   1.725  0.00  0.00     0.041 A 
ATOM      4  C3  UNL d   1       2.639   1.228   2.314  0.00  0.00    -0.075 A 
ATOM      5  S   UNL d   1       2.916   1.736   3.939  0.00  0.00     0.015 SA
ATOM      6  C4  UNL d   1       2.117   3.221   3.689  0.00  0.00     0.022 A 
ATOM      7  C5  UNL d   1       1.645   3.343   2.404  0.00  0.00     0.026 A 
ATOM      8  C6  UNL d   1       1.937   2.196   1.590  0.00  0.00    -0.082 A 
ATOM      9  C7  UNL d   1       1.632   1.926   0.235  0.00  0.00     0.045 A 
ENDROOT
TORSDOF 0
ENDMDL
