MODEL 1
REMARK minimizedAffinity 7.70189571
REMARK minimizedRMSD -1
REMARK  0 active torsions:
REMARK  status: ('A' for Active; 'I' for Inactive)
ROOT
ATOM      1  C   UNL d   1      -1.109   1.097  -2.250  0.00  0.00    -0.002 A 
ATOM      2  C1  UNL d   1      -0.159   1.521  -1.332  0.00  0.00     0.010 A 
ATOM      3  C2  UNL d   1      -0.471   1.602   0.026  0.00  0.00     0.041 A 
ATOM      4  C3  UNL d   1      -1.766   1.245   0.451  0.00  0.00    -0.075 A 
ATOM      5  S   UNL d   1      -2.374   1.265   2.064  0.00  0.00     0.015 SA
ATOM      6  C4  UNL d   1      -3.909   0.710   1.572  0.00  0.00     0.022 A 
ATOM      7  C5  UNL d   1      -3.974   0.510   0.213  0.00  0.00     0.026 A 
ATOM      8  C6  UNL d   1      -2.740   0.814  -0.455  0.00  0.00    -0.082 A 
ATOM      9  C7  UNL d   1      -2.392   0.743  -1.826  0.00  0.00     0.045 A 
ENDROOT
TORSDOF 0
ENDMDL
