MODEL 1
REMARK minimizedAffinity 17.6606159
REMARK minimizedRMSD -1
REMARK  0 active torsions:
REMARK  status: ('A' for Active; 'I' for Inactive)
ROOT
ATOM      1  C   UNL d   1      -0.162  -4.382  -0.978  0.00  0.00    -0.002 A 
ATOM      2  C1  UNL d   1      -0.528  -3.358  -1.840  0.00  0.00     0.010 A 
ATOM      3  C2  UNL d   1       0.180  -2.155  -1.856  0.00  0.00     0.041 A 
ATOM      4  C3  UNL d   1       1.276  -1.997  -0.984  0.00  0.00    -0.075 A 
ATOM      5  S   UNL d   1       2.291  -0.612  -0.829  0.00  0.00     0.015 SA
ATOM      6  C4  UNL d   1       3.236  -1.348   0.384  0.00  0.00     0.022 A 
ATOM      7  C5  UNL d   1       2.801  -2.619   0.676  0.00  0.00     0.026 A 
ATOM      8  C6  UNL d   1       1.665  -3.014  -0.107  0.00  0.00    -0.082 A 
ATOM      9  C7  UNL d   1       0.925  -4.222  -0.114  0.00  0.00     0.045 A 
ENDROOT
TORSDOF 0
ENDMDL
