MODEL 1
REMARK minimizedAffinity 7.82436991
REMARK minimizedRMSD -1
REMARK  0 active torsions:
REMARK  status: ('A' for Active; 'I' for Inactive)
ROOT
ATOM      1  C   UNL d   1       2.455  -1.870  -0.168  0.00  0.00    -0.002 A 
ATOM      2  C1  UNL d   1       3.190  -1.615   0.981  0.00  0.00     0.010 A 
ATOM      3  C2  UNL d   1       3.176  -0.347   1.566  0.00  0.00     0.041 A 
ATOM      4  C3  UNL d   1       2.403   0.670   0.972  0.00  0.00    -0.075 A 
ATOM      5  S   UNL d   1       2.233   2.298   1.513  0.00  0.00     0.015 SA
ATOM      6  C4  UNL d   1       1.181   2.693   0.232  0.00  0.00     0.022 A 
ATOM      7  C5  UNL d   1       0.954   1.621  -0.598  0.00  0.00     0.026 A 
ATOM      8  C6  UNL d   1       1.654   0.437  -0.185  0.00  0.00    -0.082 A 
ATOM      9  C7  UNL d   1       1.690  -0.859  -0.755  0.00  0.00     0.045 A 
ENDROOT
TORSDOF 0
ENDMDL
