MODEL 1
REMARK minimizedAffinity 8.87454033
REMARK minimizedRMSD -1
REMARK  0 active torsions:
REMARK  status: ('A' for Active; 'I' for Inactive)
ROOT
ATOM      1  C   UNL d   1       3.251  -1.865   0.109  0.00  0.00    -0.002 A 
ATOM      2  C1  UNL d   1       3.024  -2.177   1.442  0.00  0.00     0.010 A 
ATOM      3  C2  UNL d   1       2.194  -1.375   2.228  0.00  0.00     0.041 A 
ATOM      4  C3  UNL d   1       1.589  -0.244   1.646  0.00  0.00    -0.075 A 
ATOM      5  S   UNL d   1       0.534   0.883   2.414  0.00  0.00     0.015 SA
ATOM      6  C4  UNL d   1       0.360   1.805   0.992  0.00  0.00     0.022 A 
ATOM      7  C5  UNL d   1       1.082   1.280  -0.054  0.00  0.00     0.026 A 
ATOM      8  C6  UNL d   1       1.802   0.091   0.305  0.00  0.00    -0.082 A 
ATOM      9  C7  UNL d   1       2.649  -0.742  -0.465  0.00  0.00     0.045 A 
ENDROOT
TORSDOF 0
ENDMDL
