MODEL 1
REMARK minimizedAffinity 3.09092331
REMARK minimizedRMSD -1
REMARK  0 active torsions:
REMARK  status: ('A' for Active; 'I' for Inactive)
ROOT
ATOM      1  C   UNL d   1       4.643   2.081   0.332  0.00  0.00    -0.002 A 
ATOM      2  C1  UNL d   1       3.566   2.957   0.354  0.00  0.00     0.010 A 
ATOM      3  C2  UNL d   1       2.261   2.482   0.217  0.00  0.00     0.041 A 
ATOM      4  C3  UNL d   1       2.053   1.097   0.059  0.00  0.00    -0.075 A 
ATOM      5  S   UNL d   1       0.542   0.288  -0.125  0.00  0.00     0.015 SA
ATOM      6  C4  UNL d   1       1.289  -1.240  -0.235  0.00  0.00     0.022 A 
ATOM      7  C5  UNL d   1       2.657  -1.153  -0.136  0.00  0.00     0.026 A 
ATOM      8  C6  UNL d   1       3.120   0.195   0.036  0.00  0.00    -0.082 A 
ATOM      9  C7  UNL d   1       4.432   0.709   0.176  0.00  0.00     0.045 A 
ENDROOT
TORSDOF 0
ENDMDL
