MODEL 1
REMARK minimizedAffinity 4.61705256
REMARK minimizedRMSD -1
REMARK  0 active torsions:
REMARK  status: ('A' for Active; 'I' for Inactive)
ROOT
ATOM      1  C   UNL d   1       3.828  -1.329   0.439  0.00  0.00    -0.002 A 
ATOM      2  C1  UNL d   1       2.490  -1.679   0.331  0.00  0.00     0.010 A 
ATOM      3  C2  UNL d   1       1.509  -0.697   0.178  0.00  0.00     0.041 A 
ATOM      4  C3  UNL d   1       1.900   0.656   0.133  0.00  0.00    -0.075 A 
ATOM      5  S   UNL d   1       0.873   2.029  -0.050  0.00  0.00     0.015 SA
ATOM      6  C4  UNL d   1       2.187   3.113   0.011  0.00  0.00     0.022 A 
ATOM      7  C5  UNL d   1       3.387   2.460   0.166  0.00  0.00     0.026 A 
ATOM      8  C6  UNL d   1       3.241   1.033   0.239  0.00  0.00    -0.082 A 
ATOM      9  C7  UNL d   1       4.212   0.014   0.394  0.00  0.00     0.045 A 
ENDROOT
TORSDOF 0
ENDMDL
