MODEL 1
REMARK minimizedAffinity 10.8518686
REMARK minimizedRMSD -1
REMARK  0 active torsions:
REMARK  status: ('A' for Active; 'I' for Inactive)
ROOT
ATOM      1  C   UNL d   1      -6.000   2.733  -2.337  0.00  0.00    -0.002 A 
ATOM      2  C1  UNL d   1      -6.000   2.111  -1.097  0.00  0.00     0.010 A 
ATOM      3  C2  UNL d   1      -4.966   1.244  -0.737  0.00  0.00     0.041 A 
ATOM      4  C3  UNL d   1      -3.922   1.012  -1.654  0.00  0.00    -0.075 A 
ATOM      5  S   UNL d   1      -2.551  -0.010  -1.430  0.00  0.00     0.015 SA
ATOM      6  C4  UNL d   1      -1.933   0.356  -2.976  0.00  0.00     0.022 A 
ATOM      7  C5  UNL d   1      -2.740   1.234  -3.659  0.00  0.00     0.026 A 
ATOM      8  C6  UNL d   1      -3.899   1.627  -2.908  0.00  0.00    -0.082 A 
ATOM      9  C7  UNL d   1      -4.962   2.500  -3.244  0.00  0.00     0.045 A 
ENDROOT
TORSDOF 0
ENDMDL
