MODEL 1
REMARK minimizedAffinity 6.21331501
REMARK minimizedRMSD -1
REMARK  0 active torsions:
REMARK  status: ('A' for Active; 'I' for Inactive)
ROOT
ATOM      1  C   UNL d   1      -5.325  -4.039   0.485  0.00  0.00     0.077 C 
ATOM      2  C1  UNL d   1      -4.190  -3.663  -0.420  0.00  0.00    -0.074 A 
ATOM      3  C2  UNL d   1      -2.929  -4.249  -0.273  0.00  0.00    -0.005 A 
ATOM      4  C3  UNL d   1      -1.886  -3.897  -1.129  0.00  0.00     0.006 A 
ATOM      5  C4  UNL d   1      -2.092  -2.956  -2.139  0.00  0.00    -0.005 A 
ATOM      6  C5  UNL d   1      -3.347  -2.360  -2.301  0.00  0.00    -0.074 A 
ATOM      7  C6  UNL d   1      -3.588  -1.354  -3.388  0.00  0.00     0.077 C 
ATOM      8  C7  UNL d   1      -4.392  -2.724  -1.442  0.00  0.00    -0.001 A 
ENDROOT
TORSDOF 0
ENDMDL
