MODEL 1
REMARK minimizedAffinity 6.22143507
REMARK minimizedRMSD -1
REMARK  0 active torsions:
REMARK  status: ('A' for Active; 'I' for Inactive)
ROOT
ATOM      1  C   UNL d   1       4.397   5.819   1.501  0.00  0.00     0.077 C 
ATOM      2  C1  UNL d   1       4.506   5.766   2.996  0.00  0.00    -0.074 A 
ATOM      3  C2  UNL d   1       5.754   5.742   3.625  0.00  0.00    -0.005 A 
ATOM      4  C3  UNL d   1       5.840   5.703   5.017  0.00  0.00     0.006 A 
ATOM      5  C4  UNL d   1       4.680   5.688   5.792  0.00  0.00    -0.005 A 
ATOM      6  C5  UNL d   1       3.423   5.712   5.181  0.00  0.00    -0.074 A 
ATOM      7  C6  UNL d   1       2.166   5.706   5.999  0.00  0.00     0.077 C 
ATOM      8  C7  UNL d   1       3.345   5.759   3.782  0.00  0.00    -0.001 A 
ENDROOT
TORSDOF 0
ENDMDL
