MODEL 1
REMARK minimizedAffinity 13.2288923
REMARK minimizedRMSD -1
REMARK  0 active torsions:
REMARK  status: ('A' for Active; 'I' for Inactive)
ROOT
ATOM      1  C   UNL d   1      -2.612  -4.272   0.072  0.00  0.00     0.077 C 
ATOM      2  C1  UNL d   1      -2.603  -2.921   0.721  0.00  0.00    -0.074 A 
ATOM      3  C2  UNL d   1      -1.493  -2.481   1.450  0.00  0.00    -0.005 A 
ATOM      4  C3  UNL d   1      -1.495  -1.217   2.040  0.00  0.00     0.006 A 
ATOM      5  C4  UNL d   1      -2.605  -0.382   1.909  0.00  0.00    -0.005 A 
ATOM      6  C5  UNL d   1      -3.724  -0.804   1.183  0.00  0.00    -0.074 A 
ATOM      7  C6  UNL d   1      -4.921   0.085   1.024  0.00  0.00     0.077 C 
ATOM      8  C7  UNL d   1      -3.711  -2.073   0.587  0.00  0.00    -0.001 A 
ENDROOT
TORSDOF 0
ENDMDL
