MODEL 1
REMARK minimizedAffinity 0.27620846
REMARK minimizedRMSD -1
REMARK  0 active torsions:
REMARK  status: ('A' for Active; 'I' for Inactive)
ROOT
ATOM      1  C   UNL d   1       1.955  -3.102  -1.617  0.00  0.00     0.077 C 
ATOM      2  C1  UNL d   1       1.100  -3.029  -0.387  0.00  0.00    -0.074 A 
ATOM      3  C2  UNL d   1       1.583  -3.463   0.851  0.00  0.00    -0.005 A 
ATOM      4  C3  UNL d   1       0.780  -3.379   1.989  0.00  0.00     0.006 A 
ATOM      5  C4  UNL d   1      -0.513  -2.862   1.899  0.00  0.00    -0.005 A 
ATOM      6  C5  UNL d   1      -1.013  -2.422   0.670  0.00  0.00    -0.074 A 
ATOM      7  C6  UNL d   1      -2.397  -1.855   0.558  0.00  0.00     0.077 C 
ATOM      8  C7  UNL d   1      -0.197  -2.503  -0.467  0.00  0.00    -0.001 A 
ENDROOT
TORSDOF 0
ENDMDL
