MODEL 1
REMARK minimizedAffinity 6.56372499
REMARK minimizedRMSD -1
REMARK  0 active torsions:
REMARK  status: ('A' for Active; 'I' for Inactive)
ROOT
ATOM      1  C   UNL d   1      -2.384  -2.303   5.196  0.00  0.00     0.077 C 
ATOM      2  C1  UNL d   1      -3.625  -2.146   4.368  0.00  0.00    -0.074 A 
ATOM      3  C2  UNL d   1      -4.838  -2.712   4.776  0.00  0.00    -0.005 A 
ATOM      4  C3  UNL d   1      -5.986  -2.549   4.001  0.00  0.00     0.006 A 
ATOM      5  C4  UNL d   1      -5.933  -1.821   2.811  0.00  0.00    -0.005 A 
ATOM      6  C5  UNL d   1      -4.730  -1.248   2.388  0.00  0.00    -0.074 A 
ATOM      7  C6  UNL d   1      -4.658  -0.454   1.117  0.00  0.00     0.077 C 
ATOM      8  C7  UNL d   1      -3.582  -1.410   3.176  0.00  0.00    -0.001 A 
ENDROOT
TORSDOF 0
ENDMDL
