MODEL 1
REMARK minimizedAffinity 2.40365696
REMARK minimizedRMSD -1
REMARK  0 active torsions:
REMARK  status: ('A' for Active; 'I' for Inactive)
ROOT
ATOM      1  C   UNL d   1       4.562   5.923   1.641  0.00  0.00     0.077 C 
ATOM      2  C1  UNL d   1       4.587   5.879   3.140  0.00  0.00    -0.074 A 
ATOM      3  C2  UNL d   1       5.791   6.000   3.842  0.00  0.00    -0.005 A 
ATOM      4  C3  UNL d   1       5.798   5.966   5.237  0.00  0.00     0.006 A 
ATOM      5  C4  UNL d   1       4.603   5.812   5.942  0.00  0.00    -0.005 A 
ATOM      6  C5  UNL d   1       3.390   5.691   5.257  0.00  0.00    -0.074 A 
ATOM      7  C6  UNL d   1       2.097   5.534   5.999  0.00  0.00     0.077 C 
ATOM      8  C7  UNL d   1       3.391   5.732   3.856  0.00  0.00    -0.001 A 
ENDROOT
TORSDOF 0
ENDMDL
