MODEL 1
REMARK minimizedAffinity 5.72702217
REMARK minimizedRMSD -1
REMARK  0 active torsions:
REMARK  status: ('A' for Active; 'I' for Inactive)
ROOT
ATOM      1  C   UNL d   1      -1.127  -5.999   3.191  0.00  0.00     0.077 C 
ATOM      2  C1  UNL d   1      -1.622  -4.949   2.242  0.00  0.00    -0.074 A 
ATOM      3  C2  UNL d   1      -1.185  -3.624   2.344  0.00  0.00    -0.005 A 
ATOM      4  C3  UNL d   1      -1.647  -2.660   1.448  0.00  0.00     0.006 A 
ATOM      5  C4  UNL d   1      -2.548  -3.011   0.442  0.00  0.00    -0.005 A 
ATOM      6  C5  UNL d   1      -2.995  -4.330   0.324  0.00  0.00    -0.074 A 
ATOM      7  C6  UNL d   1      -3.957  -4.726  -0.758  0.00  0.00     0.077 C 
ATOM      8  C7  UNL d   1      -2.522  -5.295   1.224  0.00  0.00    -0.001 A 
ENDROOT
TORSDOF 0
ENDMDL
