MODEL 1
REMARK minimizedAffinity 3.86425996
REMARK minimizedRMSD -1
REMARK  0 active torsions:
REMARK  status: ('A' for Active; 'I' for Inactive)
ROOT
ATOM      1  C   UNL d   1       4.632   5.950   1.722  0.00  0.00     0.077 C 
ATOM      2  C1  UNL d   1       4.675   5.762   3.209  0.00  0.00    -0.074 A 
ATOM      3  C2  UNL d   1       5.850   6.000   3.930  0.00  0.00    -0.005 A 
ATOM      4  C3  UNL d   1       5.872   5.830   5.314  0.00  0.00     0.006 A 
ATOM      5  C4  UNL d   1       4.722   5.421   5.991  0.00  0.00    -0.005 A 
ATOM      6  C5  UNL d   1       3.538   5.180   5.287  0.00  0.00    -0.074 A 
ATOM      7  C6  UNL d   1       2.290   4.750   6.000  0.00  0.00     0.077 C 
ATOM      8  C7  UNL d   1       3.522   5.359   3.897  0.00  0.00    -0.001 A 
ENDROOT
TORSDOF 0
ENDMDL
