MODEL 1
REMARK minimizedAffinity 15.4970493
REMARK minimizedRMSD -1
REMARK  0 active torsions:
REMARK  status: ('A' for Active; 'I' for Inactive)
ROOT
ATOM      1  C   UNL d   1       3.426   5.455   5.996  0.00  0.00     0.077 C 
ATOM      2  C1  UNL d   1       3.445   5.048   4.552  0.00  0.00    -0.074 A 
ATOM      3  C2  UNL d   1       3.598   6.000   3.539  0.00  0.00    -0.005 A 
ATOM      4  C3  UNL d   1       3.624   5.605   2.202  0.00  0.00     0.006 A 
ATOM      5  C4  UNL d   1       3.498   4.257   1.864  0.00  0.00    -0.005 A 
ATOM      6  C5  UNL d   1       3.346   3.291   2.864  0.00  0.00    -0.074 A 
ATOM      7  C6  UNL d   1       3.219   1.837   2.519  0.00  0.00     0.077 C 
ATOM      8  C7  UNL d   1       3.327   3.694   4.206  0.00  0.00    -0.001 A 
ENDROOT
TORSDOF 0
ENDMDL
