MODEL 1
REMARK minimizedAffinity -2.25803447
REMARK minimizedRMSD -1
REMARK  0 active torsions:
REMARK  status: ('A' for Active; 'I' for Inactive)
ROOT
ATOM      1  C   UNL d   1       2.391   1.353   1.293  0.00  0.00     0.077 C 
ATOM      2  C1  UNL d   1       1.517   0.162   1.035  0.00  0.00    -0.074 A 
ATOM      3  C2  UNL d   1       0.145   0.206   1.302  0.00  0.00    -0.005 A 
ATOM      4  C3  UNL d   1      -0.657  -0.907   1.048  0.00  0.00     0.006 A 
ATOM      5  C4  UNL d   1      -0.096  -2.073   0.526  0.00  0.00    -0.005 A 
ATOM      6  C5  UNL d   1       1.274  -2.135   0.253  0.00  0.00    -0.074 A 
ATOM      7  C6  UNL d   1       1.891  -3.378  -0.318  0.00  0.00     0.077 C 
ATOM      8  C7  UNL d   1       2.072  -1.011   0.504  0.00  0.00    -0.001 A 
ENDROOT
TORSDOF 0
ENDMDL
