MODEL 1
REMARK minimizedAffinity 6.48057222
REMARK minimizedRMSD -1
REMARK  0 active torsions:
REMARK  status: ('A' for Active; 'I' for Inactive)
ROOT
ATOM      1  C   UNL d   1       1.491   1.769  -4.802  0.00  0.00     0.077 C 
ATOM      2  C1  UNL d   1       0.097   2.271  -5.034  0.00  0.00    -0.074 A 
ATOM      3  C2  UNL d   1      -0.135   3.428  -5.784  0.00  0.00    -0.005 A 
ATOM      4  C3  UNL d   1      -1.437   3.878  -6.000  0.00  0.00     0.006 A 
ATOM      5  C4  UNL d   1      -2.520   3.176  -5.468  0.00  0.00    -0.005 A 
ATOM      6  C5  UNL d   1      -2.308   2.016  -4.717  0.00  0.00    -0.074 A 
ATOM      7  C6  UNL d   1      -3.460   1.243  -4.147  0.00  0.00     0.077 C 
ATOM      8  C7  UNL d   1      -0.996   1.566  -4.511  0.00  0.00    -0.001 A 
ENDROOT
TORSDOF 0
ENDMDL
