MODEL 1
REMARK minimizedAffinity -0.512903094
REMARK minimizedRMSD -1
REMARK  0 active torsions:
REMARK  status: ('A' for Active; 'I' for Inactive)
ROOT
ATOM      1  C   UNL d   1      -2.961  -0.556   3.455  0.00  0.00     0.077 C 
ATOM      2  C1  UNL d   1      -3.290   0.464   2.406  0.00  0.00    -0.074 A 
ATOM      3  C2  UNL d   1      -2.518   1.622   2.262  0.00  0.00    -0.005 A 
ATOM      4  C3  UNL d   1      -2.830   2.557   1.276  0.00  0.00     0.006 A 
ATOM      5  C4  UNL d   1      -3.915   2.345   0.424  0.00  0.00    -0.005 A 
ATOM      6  C5  UNL d   1      -4.697   1.193   0.552  0.00  0.00    -0.074 A 
ATOM      7  C6  UNL d   1      -5.861   0.945  -0.361  0.00  0.00     0.077 C 
ATOM      8  C7  UNL d   1      -4.373   0.254   1.542  0.00  0.00    -0.001 A 
ENDROOT
TORSDOF 0
ENDMDL
