MODEL 1
REMARK minimizedAffinity -0.391251802
REMARK minimizedRMSD -1
REMARK  0 active torsions:
REMARK  status: ('A' for Active; 'I' for Inactive)
ROOT
ATOM      1  C   UNL d   1      -0.238  -3.655   1.887  0.00  0.00     0.077 C 
ATOM      2  C1  UNL d   1       0.921  -3.113   1.105  0.00  0.00    -0.074 A 
ATOM      3  C2  UNL d   1       1.727  -3.957   0.334  0.00  0.00    -0.005 A 
ATOM      4  C3  UNL d   1       2.795  -3.437  -0.396  0.00  0.00     0.006 A 
ATOM      5  C4  UNL d   1       3.069  -2.069  -0.362  0.00  0.00    -0.005 A 
ATOM      6  C5  UNL d   1       2.275  -1.209   0.403  0.00  0.00    -0.074 A 
ATOM      7  C6  UNL d   1       2.549   0.265   0.442  0.00  0.00     0.077 C 
ATOM      8  C7  UNL d   1       1.198  -1.739   1.127  0.00  0.00    -0.001 A 
ENDROOT
TORSDOF 0
ENDMDL
