MODEL 1
REMARK minimizedAffinity 3.96084738
REMARK minimizedRMSD -1
REMARK  0 active torsions:
REMARK  status: ('A' for Active; 'I' for Inactive)
ROOT
ATOM      1  C   UNL d   1      -2.901   2.279  -2.461  0.00  0.00     0.077 C 
ATOM      2  C1  UNL d   1      -2.080   2.535  -3.690  0.00  0.00    -0.074 A 
ATOM      3  C2  UNL d   1      -2.674   3.008  -4.865  0.00  0.00    -0.005 A 
ATOM      4  C3  UNL d   1      -1.897   3.250  -5.997  0.00  0.00     0.006 A 
ATOM      5  C4  UNL d   1      -0.520   3.024  -5.966  0.00  0.00    -0.005 A 
ATOM      6  C5  UNL d   1       0.091   2.552  -4.800  0.00  0.00    -0.074 A 
ATOM      7  C6  UNL d   1       1.571   2.313  -4.747  0.00  0.00     0.077 C 
ATOM      8  C7  UNL d   1      -0.696   2.318  -3.664  0.00  0.00    -0.001 A 
ENDROOT
TORSDOF 0
ENDMDL
