MODEL 1
REMARK minimizedAffinity 6.20102119
REMARK minimizedRMSD -1
REMARK  0 active torsions:
REMARK  status: ('A' for Active; 'I' for Inactive)
ROOT
ATOM      1  C   UNL d   1      -1.917   2.998  -2.499  0.00  0.00     0.077 C 
ATOM      2  C1  UNL d   1      -1.044   3.012  -3.718  0.00  0.00    -0.074 A 
ATOM      3  C2  UNL d   1      -1.435   3.693  -4.875  0.00  0.00    -0.005 A 
ATOM      4  C3  UNL d   1      -0.607   3.705  -5.998  0.00  0.00     0.006 A 
ATOM      5  C4  UNL d   1       0.618   3.037  -5.975  0.00  0.00    -0.005 A 
ATOM      6  C5  UNL d   1       1.026   2.351  -4.826  0.00  0.00    -0.074 A 
ATOM      7  C6  UNL d   1       2.344   1.636  -4.782  0.00  0.00     0.077 C 
ATOM      8  C7  UNL d   1       0.192   2.350  -3.700  0.00  0.00    -0.001 A 
ENDROOT
TORSDOF 0
ENDMDL
