MODEL 1
REMARK minimizedAffinity -4.36100674
REMARK minimizedRMSD -1
REMARK  0 active torsions:
REMARK  status: ('A' for Active; 'I' for Inactive)
ROOT
ATOM      1  C   UNL d   1      -5.312   1.569   0.900  0.00  0.00     0.077 C 
ATOM      2  C1  UNL d   1      -3.837   1.389   0.704  0.00  0.00    -0.074 A 
ATOM      3  C2  UNL d   1      -3.058   0.736   1.665  0.00  0.00    -0.005 A 
ATOM      4  C3  UNL d   1      -1.688   0.567   1.464  0.00  0.00     0.006 A 
ATOM      5  C4  UNL d   1      -1.084   1.048   0.302  0.00  0.00    -0.005 A 
ATOM      6  C5  UNL d   1      -1.846   1.702  -0.671  0.00  0.00    -0.074 A 
ATOM      7  C6  UNL d   1      -1.214   2.216  -1.930  0.00  0.00     0.077 C 
ATOM      8  C7  UNL d   1      -3.224   1.862  -0.465  0.00  0.00    -0.001 A 
ENDROOT
TORSDOF 0
ENDMDL
