MODEL 1
REMARK minimizedAffinity 1.06110454
REMARK minimizedRMSD -1
REMARK  0 active torsions:
REMARK  status: ('A' for Active; 'I' for Inactive)
ROOT
ATOM      1  C   UNL d   1      -1.302  -1.613   1.663  0.00  0.00     0.077 C 
ATOM      2  C1  UNL d   1      -2.094  -0.340   1.624  0.00  0.00    -0.074 A 
ATOM      3  C2  UNL d   1      -1.510   0.881   1.977  0.00  0.00    -0.005 A 
ATOM      4  C3  UNL d   1      -2.257   2.058   1.927  0.00  0.00     0.006 A 
ATOM      5  C4  UNL d   1      -3.593   2.026   1.524  0.00  0.00    -0.005 A 
ATOM      6  C5  UNL d   1      -4.193   0.814   1.167  0.00  0.00    -0.074 A 
ATOM      7  C6  UNL d   1      -5.624   0.764   0.722  0.00  0.00     0.077 C 
ATOM      8  C7  UNL d   1      -3.434  -0.363   1.213  0.00  0.00    -0.001 A 
ENDROOT
TORSDOF 0
ENDMDL
