MODEL 1
REMARK minimizedAffinity 0.479747057
REMARK minimizedRMSD -1
REMARK  0 active torsions:
REMARK  status: ('A' for Active; 'I' for Inactive)
ROOT
ATOM      1  C   UNL d   1      -5.208   5.937  -5.998  0.00  0.00     0.077 C 
ATOM      2  C1  UNL d   1      -4.117   4.909  -5.990  0.00  0.00    -0.074 A 
ATOM      3  C2  UNL d   1      -4.417   3.543  -5.994  0.00  0.00    -0.005 A 
ATOM      4  C3  UNL d   1      -3.391   2.598  -5.996  0.00  0.00     0.006 A 
ATOM      5  C4  UNL d   1      -2.057   3.008  -5.994  0.00  0.00    -0.005 A 
ATOM      6  C5  UNL d   1      -1.738   4.370  -5.991  0.00  0.00    -0.074 A 
ATOM      7  C6  UNL d   1      -0.310   4.828  -6.000  0.00  0.00     0.077 C 
ATOM      8  C7  UNL d   1      -2.775   5.313  -5.996  0.00  0.00    -0.001 A 
ENDROOT
TORSDOF 0
ENDMDL
