MODEL 1
REMARK minimizedAffinity -5.24390554
REMARK minimizedRMSD -1
REMARK  0 active torsions:
REMARK  status: ('A' for Active; 'I' for Inactive)
ROOT
ATOM      1  C   UNL d   1      -2.993  -1.920   0.259  0.00  0.00    -0.002 A 
ATOM      2  C1  UNL d   1      -2.122  -2.411   1.221  0.00  0.00     0.010 A 
ATOM      3  C2  UNL d   1      -0.822  -1.912   1.323  0.00  0.00     0.041 A 
ATOM      4  C3  UNL d   1      -0.408  -0.900   0.435  0.00  0.00    -0.075 A 
ATOM      5  S   UNL d   1       1.137  -0.138   0.374  0.00  0.00     0.015 SA
ATOM      6  C4  UNL d   1       0.677   0.859  -0.930  0.00  0.00     0.022 A 
ATOM      7  C5  UNL d   1      -0.620   0.628  -1.322  0.00  0.00     0.026 A 
ATOM      8  C6  UNL d   1      -1.267  -0.389  -0.542  0.00  0.00    -0.082 A 
ATOM      9  C7  UNL d   1      -2.579  -0.916  -0.621  0.00  0.00     0.045 A 
ENDROOT
TORSDOF 0
ENDMDL
