MODEL 1
REMARK minimizedAffinity 3.37987852
REMARK minimizedRMSD -1
REMARK  0 active torsions:
REMARK  status: ('A' for Active; 'I' for Inactive)
ROOT
ATOM      1  C   UNL d   1      -3.111  -1.776  -0.527  0.00  0.00    -0.002 A 
ATOM      2  C1  UNL d   1      -2.717  -1.822   0.803  0.00  0.00     0.010 A 
ATOM      3  C2  UNL d   1      -1.543  -1.190   1.218  0.00  0.00     0.041 A 
ATOM      4  C3  UNL d   1      -0.767  -0.501   0.265  0.00  0.00    -0.075 A 
ATOM      5  S   UNL d   1       0.707   0.349   0.544  0.00  0.00     0.015 SA
ATOM      6  C4  UNL d   1       0.847   0.795  -1.095  0.00  0.00     0.022 A 
ATOM      7  C5  UNL d   1      -0.197   0.315  -1.851  0.00  0.00     0.026 A 
ATOM      8  C6  UNL d   1      -1.144  -0.439  -1.079  0.00  0.00    -0.082 A 
ATOM      9  C7  UNL d   1      -2.339  -1.091  -1.469  0.00  0.00     0.045 A 
ENDROOT
TORSDOF 0
ENDMDL
