MODEL 1
REMARK minimizedAffinity -2.04732752
REMARK minimizedRMSD -1
REMARK  0 active torsions:
REMARK  status: ('A' for Active; 'I' for Inactive)
ROOT
ATOM      1  C   UNL d   1      -2.387  -0.702  -1.164  0.00  0.00    -0.002 A 
ATOM      2  C1  UNL d   1      -2.407  -1.379   0.047  0.00  0.00     0.010 A 
ATOM      3  C2  UNL d   1      -1.326  -1.290   0.928  0.00  0.00     0.041 A 
ATOM      4  C3  UNL d   1      -0.216  -0.501   0.567  0.00  0.00    -0.075 A 
ATOM      5  S   UNL d   1       1.219  -0.245   1.487  0.00  0.00     0.015 SA
ATOM      6  C4  UNL d   1       1.892   0.770   0.294  0.00  0.00     0.022 A 
ATOM      7  C5  UNL d   1       1.055   0.920  -0.787  0.00  0.00     0.026 A 
ATOM      8  C6  UNL d   1      -0.174   0.190  -0.647  0.00  0.00    -0.082 A 
ATOM      9  C7  UNL d   1      -1.285   0.080  -1.518  0.00  0.00     0.045 A 
ENDROOT
TORSDOF 0
ENDMDL
