MODEL 1
REMARK minimizedAffinity -0.696865499
REMARK minimizedRMSD -1
REMARK  0 active torsions:
REMARK  status: ('A' for Active; 'I' for Inactive)
ROOT
ATOM      1  C   UNL d   1      -2.365  -0.736  -1.106  0.00  0.00    -0.002 A 
ATOM      2  C1  UNL d   1      -2.269  -1.454   0.078  0.00  0.00     0.010 A 
ATOM      3  C2  UNL d   1      -1.110  -1.392   0.854  0.00  0.00     0.041 A 
ATOM      4  C3  UNL d   1      -0.040  -0.587   0.417  0.00  0.00    -0.075 A 
ATOM      5  S   UNL d   1       1.476  -0.357   1.205  0.00  0.00     0.015 SA
ATOM      6  C4  UNL d   1       2.032   0.700  -0.010  0.00  0.00     0.022 A 
ATOM      7  C5  UNL d   1       1.097   0.884  -1.001  0.00  0.00     0.026 A 
ATOM      8  C6  UNL d   1      -0.113   0.146  -0.770  0.00  0.00    -0.082 A 
ATOM      9  C7  UNL d   1      -1.301   0.061  -1.536  0.00  0.00     0.045 A 
ENDROOT
TORSDOF 0
ENDMDL
