MODEL 1
REMARK minimizedAffinity 0.0830638111
REMARK minimizedRMSD -1
REMARK  0 active torsions:
REMARK  status: ('A' for Active; 'I' for Inactive)
ROOT
ATOM      1  C   UNL d   1       2.002   1.458   2.259  0.00  0.00    -0.002 A 
ATOM      2  C1  UNL d   1       2.584   2.021   1.132  0.00  0.00     0.010 A 
ATOM      3  C2  UNL d   1       2.106   1.715  -0.143  0.00  0.00     0.041 A 
ATOM      4  C3  UNL d   1       1.021   0.825  -0.269  0.00  0.00    -0.075 A 
ATOM      5  S   UNL d   1       0.267   0.305  -1.729  0.00  0.00     0.015 SA
ATOM      6  C4  UNL d   1      -0.847  -0.677  -0.892  0.00  0.00     0.022 A 
ATOM      7  C5  UNL d   1      -0.662  -0.621   0.469  0.00  0.00     0.026 A 
ATOM      8  C6  UNL d   1       0.417   0.246   0.851  0.00  0.00    -0.082 A 
ATOM      9  C7  UNL d   1       0.925   0.576   2.130  0.00  0.00     0.045 A 
ENDROOT
TORSDOF 0
ENDMDL
