MODEL 1
REMARK minimizedAffinity -1.8900404
REMARK minimizedRMSD -1
REMARK  0 active torsions:
REMARK  status: ('A' for Active; 'I' for Inactive)
ROOT
ATOM      1  C   UNL d   1      -3.092  -2.549   0.638  0.00  0.00    -0.002 A 
ATOM      2  C1  UNL d   1      -1.936  -2.762   1.376  0.00  0.00     0.010 A 
ATOM      3  C2  UNL d   1      -0.803  -1.973   1.165  0.00  0.00     0.041 A 
ATOM      4  C3  UNL d   1      -0.853  -0.955   0.193  0.00  0.00    -0.075 A 
ATOM      5  S   UNL d   1       0.412   0.136  -0.235  0.00  0.00     0.015 SA
ATOM      6  C4  UNL d   1      -0.553   0.911  -1.407  0.00  0.00     0.022 A 
ATOM      7  C5  UNL d   1      -1.812   0.364  -1.483  0.00  0.00     0.026 A 
ATOM      8  C6  UNL d   1      -2.006  -0.720  -0.561  0.00  0.00    -0.082 A 
ATOM      9  C7  UNL d   1      -3.137  -1.537  -0.325  0.00  0.00     0.045 A 
ENDROOT
TORSDOF 0
ENDMDL
