MODEL 1
REMARK minimizedAffinity -3.70913148
REMARK minimizedRMSD -1
REMARK  0 active torsions:
REMARK  status: ('A' for Active; 'I' for Inactive)
ROOT
ATOM      1  C   UNL d   1      -2.996  -0.325  -1.766  0.00  0.00    -0.002 A 
ATOM      2  C1  UNL d   1      -3.219  -1.450  -0.984  0.00  0.00     0.010 A 
ATOM      3  C2  UNL d   1      -2.224  -1.930  -0.130  0.00  0.00     0.041 A 
ATOM      4  C3  UNL d   1      -0.989  -1.254  -0.074  0.00  0.00    -0.075 A 
ATOM      5  S   UNL d   1       0.375  -1.660   0.898  0.00  0.00     0.015 SA
ATOM      6  C4  UNL d   1       1.286  -0.350   0.299  0.00  0.00     0.022 A 
ATOM      7  C5  UNL d   1       0.582   0.390  -0.621  0.00  0.00     0.026 A 
ATOM      8  C6  UNL d   1      -0.741  -0.119  -0.851  0.00  0.00    -0.082 A 
ATOM      9  C7  UNL d   1      -1.770   0.343  -1.707  0.00  0.00     0.045 A 
ENDROOT
TORSDOF 0
ENDMDL
