MODEL 1
REMARK minimizedAffinity -5.77616215
REMARK minimizedRMSD -1
REMARK  0 active torsions:
REMARK  status: ('A' for Active; 'I' for Inactive)
ROOT
ATOM      1  C   UNL d   1      -3.399  -1.673   0.322  0.00  0.00    -0.002 A 
ATOM      2  C1  UNL d   1      -2.815  -2.669   1.092  0.00  0.00     0.010 A 
ATOM      3  C2  UNL d   1      -1.439  -2.668   1.329  0.00  0.00     0.041 A 
ATOM      4  C3  UNL d   1      -0.652  -1.640   0.774  0.00  0.00    -0.075 A 
ATOM      5  S   UNL d   1       1.052  -1.435   0.930  0.00  0.00     0.015 SA
ATOM      6  C4  UNL d   1       1.045  -0.021  -0.021  0.00  0.00     0.022 A 
ATOM      7  C5  UNL d   1      -0.218   0.301  -0.456  0.00  0.00     0.026 A 
ATOM      8  C6  UNL d   1      -1.218  -0.626  -0.005  0.00  0.00    -0.082 A 
ATOM      9  C7  UNL d   1      -2.615  -0.655  -0.227  0.00  0.00     0.045 A 
ENDROOT
TORSDOF 0
ENDMDL
