MODEL 1
REMARK minimizedAffinity -5.50176954
REMARK minimizedRMSD -1
REMARK  0 active torsions:
REMARK  status: ('A' for Active; 'I' for Inactive)
ROOT
ATOM      1  C   UNL d   1      -3.469  -1.535   0.039  0.00  0.00    -0.002 A 
ATOM      2  C1  UNL d   1      -2.811  -2.415   0.886  0.00  0.00     0.010 A 
ATOM      3  C2  UNL d   1      -1.454  -2.247   1.170  0.00  0.00     0.041 A 
ATOM      4  C3  UNL d   1      -0.764  -1.168   0.583  0.00  0.00    -0.075 A 
ATOM      5  S   UNL d   1       0.900  -0.764   0.787  0.00  0.00     0.015 SA
ATOM      6  C4  UNL d   1       0.775   0.587  -0.245  0.00  0.00     0.022 A 
ATOM      7  C5  UNL d   1      -0.497   0.741  -0.742  0.00  0.00     0.026 A 
ATOM      8  C6  UNL d   1      -1.405  -0.268  -0.272  0.00  0.00    -0.082 A 
ATOM      9  C7  UNL d   1      -2.781  -0.466  -0.541  0.00  0.00     0.045 A 
ENDROOT
TORSDOF 0
ENDMDL
