MODEL 1
REMARK minimizedAffinity -3.45014787
REMARK minimizedRMSD -1
REMARK  0 active torsions:
REMARK  status: ('A' for Active; 'I' for Inactive)
ROOT
ATOM      1  C   UNL d   1      -2.045   0.017  -1.908  0.00  0.00    -0.002 A 
ATOM      2  C1  UNL d   1      -2.671  -0.748  -0.934  0.00  0.00     0.010 A 
ATOM      3  C2  UNL d   1      -1.977  -1.150   0.209  0.00  0.00     0.041 A 
ATOM      4  C3  UNL d   1      -0.630  -0.767   0.358  0.00  0.00    -0.075 A 
ATOM      5  S   UNL d   1       0.419  -1.143   1.674  0.00  0.00     0.015 SA
ATOM      6  C4  UNL d   1       1.723  -0.297   0.974  0.00  0.00     0.022 A 
ATOM      7  C5  UNL d   1       1.384   0.265  -0.234  0.00  0.00     0.026 A 
ATOM      8  C6  UNL d   1       0.023   0.004  -0.609  0.00  0.00    -0.082 A 
ATOM      9  C7  UNL d   1      -0.708   0.396  -1.756  0.00  0.00     0.045 A 
ENDROOT
TORSDOF 0
ENDMDL
