MODEL 1
REMARK minimizedAffinity -1.38316786
REMARK minimizedRMSD -1
REMARK  0 active torsions:
REMARK  status: ('A' for Active; 'I' for Inactive)
ROOT
ATOM      1  C   UNL d   1      -2.279  -0.846  -0.897  0.00  0.00    -0.002 A 
ATOM      2  C1  UNL d   1      -2.860   0.157  -0.134  0.00  0.00     0.010 A 
ATOM      3  C2  UNL d   1      -2.065   1.052   0.586  0.00  0.00     0.041 A 
ATOM      4  C3  UNL d   1      -0.664   0.921   0.524  0.00  0.00    -0.075 A 
ATOM      5  S   UNL d   1       0.508   1.902   1.322  0.00  0.00     0.015 SA
ATOM      6  C4  UNL d   1       1.807   1.013   0.668  0.00  0.00     0.022 A 
ATOM      7  C5  UNL d   1       1.375  -0.011  -0.142  0.00  0.00     0.026 A 
ATOM      8  C6  UNL d   1      -0.056  -0.081  -0.238  0.00  0.00    -0.082 A 
ATOM      9  C7  UNL d   1      -0.889  -0.973  -0.956  0.00  0.00     0.045 A 
ENDROOT
TORSDOF 0
ENDMDL
