MODEL 1
REMARK minimizedAffinity -1.96911502
REMARK minimizedRMSD -1
REMARK  0 active torsions:
REMARK  status: ('A' for Active; 'I' for Inactive)
ROOT
ATOM      1  C   UNL d   1       2.873  -0.962  -0.181  0.00  0.00     0.023 A 
ATOM      2  C1  UNL d   1       1.815  -1.869  -0.262  0.00  0.00     0.003 A 
ATOM      3  C2  UNL d   1       0.500  -1.404  -0.333  0.00  0.00     0.048 A 
ATOM      4  C3  UNL d   1       0.249  -0.033  -0.323  0.00  0.00     0.023 A 
ATOM      5  C4  UNL d   1       1.304   0.878  -0.243  0.00  0.00     0.048 A 
ATOM      6  C5  UNL d   1       2.617   0.409  -0.171  0.00  0.00     0.003 A 
ATOM      7  I   UNL d   1      -1.707   0.660  -0.429  0.00  0.00    -0.146 I 
ENDROOT
TORSDOF 0
ENDMDL
