MODEL 1
REMARK minimizedAffinity -2.39990783
REMARK minimizedRMSD -1
REMARK  0 active torsions:
REMARK  status: ('A' for Active; 'I' for Inactive)
ROOT
ATOM      1  C   UNL d   1       2.613  -1.342   0.561  0.00  0.00     0.023 A 
ATOM      2  C1  UNL d   1       2.176  -0.258   1.322  0.00  0.00     0.003 A 
ATOM      3  C2  UNL d   1       0.941   0.334   1.051  0.00  0.00     0.048 A 
ATOM      4  C3  UNL d   1       0.148  -0.163   0.018  0.00  0.00     0.023 A 
ATOM      5  C4  UNL d   1       0.581  -1.247  -0.747  0.00  0.00     0.048 A 
ATOM      6  C5  UNL d   1       1.817  -1.836  -0.472  0.00  0.00     0.003 A 
ATOM      7  I   UNL d   1      -1.691   0.717  -0.388  0.00  0.00    -0.146 I 
ENDROOT
TORSDOF 0
ENDMDL
