MODEL 1
REMARK minimizedAffinity -3.50259876
REMARK minimizedRMSD -1
REMARK  0 active torsions:
REMARK  status: ('A' for Active; 'I' for Inactive)
ROOT
ATOM      1  C   UNL d   1       2.494  -1.918   0.581  0.00  0.00     0.023 A 
ATOM      2  C1  UNL d   1       2.021  -1.053   1.568  0.00  0.00     0.003 A 
ATOM      3  C2  UNL d   1       0.896  -0.263   1.324  0.00  0.00     0.048 A 
ATOM      4  C3  UNL d   1       0.248  -0.343   0.092  0.00  0.00     0.023 A 
ATOM      5  C4  UNL d   1       0.717  -1.208  -0.898  0.00  0.00     0.048 A 
ATOM      6  C5  UNL d   1       1.843  -1.996  -0.650  0.00  0.00     0.003 A 
ATOM      7  I   UNL d   1      -1.427   0.832  -0.272  0.00  0.00    -0.146 I 
ENDROOT
TORSDOF 0
ENDMDL
