MODEL 1
REMARK minimizedAffinity -3.97772241
REMARK minimizedRMSD -1
REMARK  0 active torsions:
REMARK  status: ('A' for Active; 'I' for Inactive)
ROOT
ATOM      1  C   UNL d   1       2.954  -1.415   0.678  0.00  0.00     0.023 A 
ATOM      2  C1  UNL d   1       2.554  -0.307   1.424  0.00  0.00     0.003 A 
ATOM      3  C2  UNL d   1       1.364   0.355   1.111  0.00  0.00     0.048 A 
ATOM      4  C3  UNL d   1       0.580  -0.098   0.050  0.00  0.00     0.023 A 
ATOM      5  C4  UNL d   1       0.977  -1.208  -0.699  0.00  0.00     0.048 A 
ATOM      6  C5  UNL d   1       2.167  -1.865  -0.382  0.00  0.00     0.003 A 
ATOM      7  I   UNL d   1      -1.190   0.884  -0.419  0.00  0.00    -0.146 I 
ENDROOT
TORSDOF 0
ENDMDL
