MODEL 1
REMARK minimizedAffinity -3.83102441
REMARK minimizedRMSD -1
REMARK  0 active torsions:
REMARK  status: ('A' for Active; 'I' for Inactive)
ROOT
ATOM      1  C   UNL d   1      -4.868   0.367   1.780  0.00  0.00     0.023 A 
ATOM      2  C1  UNL d   1      -3.907   1.350   2.020  0.00  0.00     0.003 A 
ATOM      3  C2  UNL d   1      -2.738   1.387   1.257  0.00  0.00     0.048 A 
ATOM      4  C3  UNL d   1      -2.536   0.438   0.256  0.00  0.00     0.023 A 
ATOM      5  C4  UNL d   1      -3.494  -0.547   0.012  0.00  0.00     0.048 A 
ATOM      6  C5  UNL d   1      -4.661  -0.580   0.778  0.00  0.00     0.003 A 
ATOM      7  I   UNL d   1      -0.797   0.490  -0.881  0.00  0.00    -0.146 I 
ENDROOT
TORSDOF 0
ENDMDL
