MODEL 1
REMARK minimizedAffinity -4.03721762
REMARK minimizedRMSD -1
REMARK  0 active torsions:
REMARK  status: ('A' for Active; 'I' for Inactive)
ROOT
ATOM      1  C   UNL d   1       4.038  -0.019   0.741  0.00  0.00     0.023 A 
ATOM      2  C1  UNL d   1       3.153  -1.091   0.865  0.00  0.00     0.003 A 
ATOM      3  C2  UNL d   1       1.824  -0.950   0.460  0.00  0.00     0.048 A 
ATOM      4  C3  UNL d   1       1.387   0.264  -0.068  0.00  0.00     0.023 A 
ATOM      5  C4  UNL d   1       2.269   1.338  -0.194  0.00  0.00     0.048 A 
ATOM      6  C5  UNL d   1       3.596   1.194   0.213  0.00  0.00     0.003 A 
ATOM      7  I   UNL d   1      -0.591   0.475  -0.671  0.00  0.00    -0.146 I 
ENDROOT
TORSDOF 0
ENDMDL
