MODEL 1
REMARK minimizedAffinity -0.379720002
REMARK minimizedRMSD -1
REMARK  0 active torsions:
REMARK  status: ('A' for Active; 'I' for Inactive)
ROOT
ATOM      1  C   UNL d   1       2.601  -0.171  -0.646  0.00  0.00     0.023 A 
ATOM      2  C1  UNL d   1       1.717  -1.249  -0.584  0.00  0.00     0.003 A 
ATOM      3  C2  UNL d   1       0.354  -1.025  -0.380  0.00  0.00     0.048 A 
ATOM      4  C3  UNL d   1      -0.119   0.279  -0.239  0.00  0.00     0.023 A 
ATOM      5  C4  UNL d   1       0.761   1.361  -0.301  0.00  0.00     0.048 A 
ATOM      6  C5  UNL d   1       2.123   1.132  -0.504  0.00  0.00     0.003 A 
ATOM      7  I   UNL d   1      -2.147   0.615   0.065  0.00  0.00    -0.146 I 
ENDROOT
TORSDOF 0
ENDMDL
