MODEL 1
REMARK minimizedAffinity -2.82741022
REMARK minimizedRMSD -1
REMARK  0 active torsions:
REMARK  status: ('A' for Active; 'I' for Inactive)
ROOT
ATOM      1  C   UNL d   1      -0.553   1.349  -1.302  0.00  0.00     0.023 A 
ATOM      2  C1  UNL d   1      -0.639  -0.025  -1.527  0.00  0.00     0.003 A 
ATOM      3  C2  UNL d   1       0.281  -0.890  -0.931  0.00  0.00     0.048 A 
ATOM      4  C3  UNL d   1       1.283  -0.375  -0.110  0.00  0.00     0.023 A 
ATOM      5  C4  UNL d   1       1.372   1.000   0.119  0.00  0.00     0.048 A 
ATOM      6  C5  UNL d   1       0.451   1.861  -0.480  0.00  0.00     0.003 A 
ATOM      7  I   UNL d   1       2.654  -1.660   0.779  0.00  0.00    -0.146 I 
ENDROOT
TORSDOF 0
ENDMDL
