MODEL 1
REMARK minimizedAffinity -1.49803901
REMARK minimizedRMSD -1
REMARK  0 active torsions:
REMARK  status: ('A' for Active; 'I' for Inactive)
ROOT
ATOM      1  C   UNL d   1       2.209   0.261   0.013  0.00  0.00     0.023 A 
ATOM      2  C1  UNL d   1       1.576   1.503   0.031  0.00  0.00     0.003 A 
ATOM      3  C2  UNL d   1       0.182   1.578   0.047  0.00  0.00     0.048 A 
ATOM      4  C3  UNL d   1      -0.573   0.405   0.045  0.00  0.00     0.023 A 
ATOM      5  C4  UNL d   1       0.056  -0.841   0.028  0.00  0.00     0.048 A 
ATOM      6  C5  UNL d   1       1.451  -0.910   0.011  0.00  0.00     0.003 A 
ATOM      7  I   UNL d   1      -2.649   0.513   0.069  0.00  0.00    -0.146 I 
ENDROOT
TORSDOF 0
ENDMDL
