MODEL 1
REMARK minimizedAffinity -0.707571268
REMARK minimizedRMSD -1
REMARK  0 active torsions:
REMARK  status: ('A' for Active; 'I' for Inactive)
ROOT
ATOM      1  C2' OXE d   1       0.537  -0.273  -1.469  0.00  0.00     0.078 C 
ATOM      2  C1' OXE d   1       1.049   0.637   1.136  0.00  0.00     0.078 C 
ATOM      3  C1  OXE d   1       1.071   1.651   0.020  0.00  0.00    -0.078 A 
ATOM      4  C2  OXE d   1       0.866   1.189  -1.258  0.00  0.00    -0.078 A 
ATOM      5  C3  OXE d   1       0.822   2.090  -2.318  0.00  0.00     0.003 A 
ATOM      6  C4  OXE d   1       1.138   3.439  -2.115  0.00  0.00    -0.002 A 
ATOM      7  C5  OXE d   1       1.389   3.924  -0.827  0.00  0.00    -0.002 A 
ATOM      8  C6  OXE d   1       1.318   3.053   0.255  0.00  0.00     0.003 A 
ENDROOT
TORSDOF 0
ENDMDL
