MODEL 1
REMARK minimizedAffinity -5.72334814
REMARK minimizedRMSD -1
REMARK  0 active torsions:
REMARK  status: ('A' for Active; 'I' for Inactive)
ROOT
ATOM      1  C2' OXE d   1       0.751   1.228   1.570  0.00  0.00     0.078 C 
ATOM      2  C1' OXE d   1       1.239  -0.031  -0.891  0.00  0.00     0.078 C 
ATOM      3  C1  OXE d   1       1.357   1.471  -0.834  0.00  0.00    -0.078 A 
ATOM      4  C2  OXE d   1       1.071   2.083   0.363  0.00  0.00    -0.078 A 
ATOM      5  C3  OXE d   1       1.217   3.462   0.485  0.00  0.00     0.003 A 
ATOM      6  C4  OXE d   1       1.504   4.246  -0.639  0.00  0.00    -0.002 A 
ATOM      7  C5  OXE d   1       1.760   3.647  -1.877  0.00  0.00    -0.002 A 
ATOM      8  C6  OXE d   1       1.733   2.260  -1.981  0.00  0.00     0.003 A 
ENDROOT
TORSDOF 0
ENDMDL
