MODEL 1
REMARK minimizedAffinity -0.285375535
REMARK minimizedRMSD -1
REMARK  0 active torsions:
REMARK  status: ('A' for Active; 'I' for Inactive)
ROOT
ATOM      1  C2' OXE d   1       0.550   1.266   1.687  0.00  0.00     0.078 C 
ATOM      2  C1' OXE d   1       0.738  -0.481  -0.502  0.00  0.00     0.078 C 
ATOM      3  C1  OXE d   1       1.033   0.979  -0.740  0.00  0.00    -0.078 A 
ATOM      4  C2  OXE d   1       0.894   1.834   0.327  0.00  0.00    -0.078 A 
ATOM      5  C3  OXE d   1       1.207   3.181   0.175  0.00  0.00     0.003 A 
ATOM      6  C4  OXE d   1       1.514   3.700  -1.088  0.00  0.00    -0.002 A 
ATOM      7  C5  OXE d   1       1.623   2.853  -2.196  0.00  0.00    -0.002 A 
ATOM      8  C6  OXE d   1       1.428   1.486  -2.031  0.00  0.00     0.003 A 
ENDROOT
TORSDOF 0
ENDMDL
