MODEL 1
REMARK minimizedAffinity -3.64773154
REMARK minimizedRMSD -1
REMARK  0 active torsions:
REMARK  status: ('A' for Active; 'I' for Inactive)
ROOT
ATOM      1  C2' OXE d   1       0.900  -1.916  -0.769  0.00  0.00     0.078 C 
ATOM      2  C1' OXE d   1       1.711  -0.546  -3.081  0.00  0.00     0.078 C 
ATOM      3  C1  OXE d   1       1.512   0.258  -1.820  0.00  0.00    -0.078 A 
ATOM      4  C2  OXE d   1       1.070  -0.413  -0.705  0.00  0.00    -0.078 A 
ATOM      5  C3  OXE d   1       0.923   0.271   0.498  0.00  0.00     0.003 A 
ATOM      6  C4  OXE d   1       1.072   1.662   0.545  0.00  0.00    -0.002 A 
ATOM      7  C5  OXE d   1       1.483   2.371  -0.588  0.00  0.00    -0.002 A 
ATOM      8  C6  OXE d   1       1.748   1.680  -1.765  0.00  0.00     0.003 A 
ENDROOT
TORSDOF 0
ENDMDL
