MODEL 1
REMARK minimizedAffinity -3.29631138
REMARK minimizedRMSD -1
REMARK  0 active torsions:
REMARK  status: ('A' for Active; 'I' for Inactive)
ROOT
ATOM      1  C2' OXE d   1       1.437  -0.667  -0.355  0.00  0.00     0.078 C 
ATOM      2  C1' OXE d   1       2.113   0.744   1.976  0.00  0.00     0.078 C 
ATOM      3  C1  OXE d   1       1.659   1.541   0.778  0.00  0.00    -0.078 A 
ATOM      4  C2  OXE d   1       1.375   0.846  -0.372  0.00  0.00    -0.078 A 
ATOM      5  C3  OXE d   1       0.900   1.526  -1.490  0.00  0.00     0.003 A 
ATOM      6  C4  OXE d   1       0.855   2.926  -1.501  0.00  0.00    -0.002 A 
ATOM      7  C5  OXE d   1       1.178   3.656  -0.352  0.00  0.00    -0.002 A 
ATOM      8  C6  OXE d   1       1.540   2.978   0.807  0.00  0.00     0.003 A 
ENDROOT
TORSDOF 0
ENDMDL
