MODEL 1
REMARK minimizedAffinity 3.07288456
REMARK minimizedRMSD -1
REMARK  0 active torsions:
REMARK  status: ('A' for Active; 'I' for Inactive)
ROOT
ATOM      1  C2' OXE d   1       1.506  -0.114  -2.700  0.00  0.00     0.078 C 
ATOM      2  C1' OXE d   1       3.273  -0.744  -0.612  0.00  0.00     0.078 C 
ATOM      3  C1  OXE d   1       2.346   0.429  -0.418  0.00  0.00    -0.078 A 
ATOM      4  C2  OXE d   1       1.517   0.759  -1.464  0.00  0.00    -0.078 A 
ATOM      5  C3  OXE d   1       0.603   1.799  -1.317  0.00  0.00     0.003 A 
ATOM      6  C4  OXE d   1       0.626   2.607  -0.174  0.00  0.00    -0.002 A 
ATOM      7  C5  OXE d   1       1.490   2.313   0.886  0.00  0.00    -0.002 A 
ATOM      8  C6  OXE d   1       2.324   1.204   0.798  0.00  0.00     0.003 A 
ENDROOT
TORSDOF 0
ENDMDL
