MODEL 1
REMARK minimizedAffinity -2.54641294
REMARK minimizedRMSD -1
REMARK  0 active torsions:
REMARK  status: ('A' for Active; 'I' for Inactive)
ROOT
ATOM      1  C2' OXE d   1       1.096   0.408  -1.465  0.00  0.00     0.078 C 
ATOM      2  C1' OXE d   1       2.702  -0.449   0.673  0.00  0.00     0.078 C 
ATOM      3  C1  OXE d   1       1.799  -1.465   0.020  0.00  0.00    -0.078 A 
ATOM      4  C2  OXE d   1       0.982  -1.027  -0.994  0.00  0.00    -0.078 A 
ATOM      5  C3  OXE d   1       0.170  -1.935  -1.667  0.00  0.00     0.003 A 
ATOM      6  C4  OXE d   1       0.063  -3.257  -1.219  0.00  0.00    -0.002 A 
ATOM      7  C5  OXE d   1       0.856  -3.715  -0.162  0.00  0.00    -0.002 A 
ATOM      8  C6  OXE d   1       1.759  -2.845   0.439  0.00  0.00     0.003 A 
ENDROOT
TORSDOF 0
ENDMDL
