MODEL 1
REMARK minimizedAffinity -2.74225259
REMARK minimizedRMSD -1
REMARK  0 active torsions:
REMARK  status: ('A' for Active; 'I' for Inactive)
ROOT
ATOM      1  C2' OXE d   1       1.344   2.952  -1.998  0.00  0.00     0.078 C 
ATOM      2  C1' OXE d   1       1.303   2.489   0.770  0.00  0.00     0.078 C 
ATOM      3  C1  OXE d   1       1.234   1.291  -0.144  0.00  0.00    -0.078 A 
ATOM      4  C2  OXE d   1       1.207   1.530  -1.497  0.00  0.00    -0.078 A 
ATOM      5  C3  OXE d   1       1.199   0.459  -2.386  0.00  0.00     0.003 A 
ATOM      6  C4  OXE d   1       1.062  -0.852  -1.915  0.00  0.00    -0.002 A 
ATOM      7  C5  OXE d   1       1.048  -1.115  -0.541  0.00  0.00    -0.002 A 
ATOM      8  C6  OXE d   1       1.175  -0.060   0.356  0.00  0.00     0.003 A 
ENDROOT
TORSDOF 0
ENDMDL
