MODEL 1
REMARK minimizedAffinity -1.92482114
REMARK minimizedRMSD -1
REMARK  0 active torsions:
REMARK  status: ('A' for Active; 'I' for Inactive)
ROOT
ATOM      1  C2' OXE d   1       1.014   2.497   0.658  0.00  0.00     0.078 C 
ATOM      2  C1' OXE d   1      -0.665   2.233  -1.577  0.00  0.00     0.078 C 
ATOM      3  C1  OXE d   1       0.022   0.993  -1.062  0.00  0.00    -0.078 A 
ATOM      4  C2  OXE d   1       0.878   1.140   0.002  0.00  0.00    -0.078 A 
ATOM      5  C3  OXE d   1       1.496   0.019   0.550  0.00  0.00     0.003 A 
ATOM      6  C4  OXE d   1       1.373  -1.231  -0.068  0.00  0.00    -0.002 A 
ATOM      7  C5  OXE d   1       0.537  -1.396  -1.178  0.00  0.00    -0.002 A 
ATOM      8  C6  OXE d   1      -0.177  -0.305  -1.660  0.00  0.00     0.003 A 
ENDROOT
TORSDOF 0
ENDMDL
