MODEL 1
REMARK minimizedAffinity -3.59925556
REMARK minimizedRMSD -1
REMARK  0 active torsions:
REMARK  status: ('A' for Active; 'I' for Inactive)
ROOT
ATOM      1  C2' OXE d   1       2.058  -1.656  -0.406  0.00  0.00     0.078 C 
ATOM      2  C1' OXE d   1       1.455  -0.707  -2.978  0.00  0.00     0.078 C 
ATOM      3  C1  OXE d   1       1.611   0.307  -1.873  0.00  0.00    -0.078 A 
ATOM      4  C2  OXE d   1       1.860  -0.169  -0.608  0.00  0.00    -0.078 A 
ATOM      5  C3  OXE d   1       2.067   0.726   0.437  0.00  0.00     0.003 A 
ATOM      6  C4  OXE d   1       1.871   2.099   0.244  0.00  0.00    -0.002 A 
ATOM      7  C5  OXE d   1       1.578   2.602  -1.028  0.00  0.00    -0.002 A 
ATOM      8  C6  OXE d   1       1.487   1.725  -2.103  0.00  0.00     0.003 A 
ENDROOT
TORSDOF 0
ENDMDL
