MODEL 1
REMARK minimizedAffinity -3.39898419
REMARK minimizedRMSD -1
REMARK  0 active torsions:
REMARK  status: ('A' for Active; 'I' for Inactive)
ROOT
ATOM      1  C2' OXE d   1       1.232   0.205  -1.312  0.00  0.00     0.078 C 
ATOM      2  C1' OXE d   1       1.746   0.869   1.367  0.00  0.00     0.078 C 
ATOM      3  C1  OXE d   1       1.597   1.998   0.379  0.00  0.00    -0.078 A 
ATOM      4  C2  OXE d   1       1.392   1.663  -0.938  0.00  0.00    -0.078 A 
ATOM      5  C3  OXE d   1       1.194   2.667  -1.882  0.00  0.00     0.003 A 
ATOM      6  C4  OXE d   1       1.353   4.012  -1.530  0.00  0.00    -0.002 A 
ATOM      7  C5  OXE d   1       1.601   4.374  -0.202  0.00  0.00    -0.002 A 
ATOM      8  C6  OXE d   1       1.683   3.383   0.770  0.00  0.00     0.003 A 
ENDROOT
TORSDOF 0
ENDMDL
