MODEL 1
REMARK minimizedAffinity 2.24387217
REMARK minimizedRMSD -1
REMARK  0 active torsions:
REMARK  status: ('A' for Active; 'I' for Inactive)
ROOT
ATOM      1  C2' OXE d   1       0.830   1.625  -1.132  0.00  0.00     0.078 C 
ATOM      2  C1' OXE d   1       2.077   0.800   1.244  0.00  0.00     0.078 C 
ATOM      3  C1  OXE d   1       1.489  -0.264   0.352  0.00  0.00    -0.078 A 
ATOM      4  C2  OXE d   1       0.840   0.152  -0.786  0.00  0.00    -0.078 A 
ATOM      5  C3  OXE d   1       0.327  -0.792  -1.671  0.00  0.00     0.003 A 
ATOM      6  C4  OXE d   1       0.332  -2.152  -1.338  0.00  0.00    -0.002 A 
ATOM      7  C5  OXE d   1       0.953  -2.594  -0.165  0.00  0.00    -0.002 A 
ATOM      8  C6  OXE d   1       1.572  -1.669   0.668  0.00  0.00     0.003 A 
ENDROOT
TORSDOF 0
ENDMDL
