MODEL 1
REMARK minimizedAffinity 0.161090687
REMARK minimizedRMSD -1
REMARK  0 active torsions:
REMARK  status: ('A' for Active; 'I' for Inactive)
ROOT
ATOM      1  C2' OXE d   1      -0.189   1.645   1.318  0.00  0.00     0.078 C 
ATOM      2  C1' OXE d   1       0.607  -0.877   0.377  0.00  0.00     0.078 C 
ATOM      3  C1  OXE d   1       1.069   0.337  -0.389  0.00  0.00    -0.078 A 
ATOM      4  C2  OXE d   1       0.635   1.565   0.052  0.00  0.00    -0.078 A 
ATOM      5  C3  OXE d   1       1.076   2.721  -0.586  0.00  0.00     0.003 A 
ATOM      6  C4  OXE d   1       1.831   2.638  -1.763  0.00  0.00    -0.002 A 
ATOM      7  C5  OXE d   1       2.249   1.396  -2.251  0.00  0.00    -0.002 A 
ATOM      8  C6  OXE d   1       1.913   0.241  -1.554  0.00  0.00     0.003 A 
ENDROOT
TORSDOF 0
ENDMDL
