MODEL 1
REMARK minimizedAffinity -2.66402388
REMARK minimizedRMSD -1
REMARK  0 active torsions:
REMARK  status: ('A' for Active; 'I' for Inactive)
ROOT
ATOM      1  C2' OXE d   1       1.662   4.266  -0.981  0.00  0.00     0.078 C 
ATOM      2  C1' OXE d   1       1.170   2.412  -3.031  0.00  0.00     0.078 C 
ATOM      3  C1  OXE d   1       1.082   1.925  -1.606  0.00  0.00    -0.078 A 
ATOM      4  C2  OXE d   1       1.369   2.828  -0.610  0.00  0.00    -0.078 A 
ATOM      5  C3  OXE d   1       1.250   2.446   0.723  0.00  0.00     0.003 A 
ATOM      6  C4  OXE d   1       0.989   1.112   1.057  0.00  0.00    -0.002 A 
ATOM      7  C5  OXE d   1       0.731   0.167   0.058  0.00  0.00    -0.002 A 
ATOM      8  C6  OXE d   1       0.732   0.566  -1.274  0.00  0.00     0.003 A 
ENDROOT
TORSDOF 0
ENDMDL
