MODEL 1
REMARK minimizedAffinity -0.551890492
REMARK minimizedRMSD -1
REMARK  0 active torsions:
REMARK  status: ('A' for Active; 'I' for Inactive)
ROOT
ATOM      1  C2' OXE d   1       1.721   4.524  -1.051  0.00  0.00     0.078 C 
ATOM      2  C1' OXE d   1       1.061   2.735  -3.112  0.00  0.00     0.078 C 
ATOM      3  C1  OXE d   1       1.119   2.196  -1.705  0.00  0.00    -0.078 A 
ATOM      4  C2  OXE d   1       1.489   3.068  -0.709  0.00  0.00    -0.078 A 
ATOM      5  C3  OXE d   1       1.505   2.635   0.614  0.00  0.00     0.003 A 
ATOM      6  C4  OXE d   1       1.299   1.285   0.921  0.00  0.00    -0.002 A 
ATOM      7  C5  OXE d   1       0.961   0.372  -0.083  0.00  0.00    -0.002 A 
ATOM      8  C6  OXE d   1       0.825   0.819  -1.393  0.00  0.00     0.003 A 
ENDROOT
TORSDOF 0
ENDMDL
