MODEL 1
REMARK minimizedAffinity -2.84814978
REMARK minimizedRMSD -1
REMARK  0 active torsions:
REMARK  status: ('A' for Active; 'I' for Inactive)
ROOT
ATOM      1  C2' OXE d   1       1.516   4.396  -1.466  0.00  0.00     0.078 C 
ATOM      2  C1' OXE d   1       1.357   3.854   1.284  0.00  0.00     0.078 C 
ATOM      3  C1  OXE d   1       1.326   2.684   0.334  0.00  0.00    -0.078 A 
ATOM      4  C2  OXE d   1       1.357   2.961  -1.012  0.00  0.00    -0.078 A 
ATOM      5  C3  OXE d   1       1.386   1.916  -1.930  0.00  0.00     0.003 A 
ATOM      6  C4  OXE d   1       1.228   0.592  -1.503  0.00  0.00    -0.002 A 
ATOM      7  C5  OXE d   1       1.155   0.290  -0.139  0.00  0.00    -0.002 A 
ATOM      8  C6  OXE d   1       1.245   1.319   0.792  0.00  0.00     0.003 A 
ENDROOT
TORSDOF 0
ENDMDL
