MODEL 1
REMARK minimizedAffinity -4.31799316
REMARK minimizedRMSD -1
REMARK  0 active torsions:
REMARK  status: ('A' for Active; 'I' for Inactive)
ROOT
ATOM      1  C2' OXE d   1       1.765   4.095  -1.249  0.00  0.00     0.078 C 
ATOM      2  C1' OXE d   1       0.320   2.671  -3.190  0.00  0.00     0.078 C 
ATOM      3  C1  OXE d   1       0.625   1.974  -1.887  0.00  0.00    -0.078 A 
ATOM      4  C2  OXE d   1       1.373   2.661  -0.962  0.00  0.00    -0.078 A 
ATOM      5  C3  OXE d   1       1.637   2.085   0.277  0.00  0.00     0.003 A 
ATOM      6  C4  OXE d   1       1.279   0.755   0.531  0.00  0.00    -0.002 A 
ATOM      7  C5  OXE d   1       0.551   0.023  -0.414  0.00  0.00    -0.002 A 
ATOM      8  C6  OXE d   1       0.181   0.631  -1.608  0.00  0.00     0.003 A 
ENDROOT
TORSDOF 0
ENDMDL
