MODEL 1
REMARK minimizedAffinity -3.74846673
REMARK minimizedRMSD -1
REMARK  0 active torsions:
REMARK  status: ('A' for Active; 'I' for Inactive)
ROOT
ATOM      1  C2' OXE d   1       1.504   4.135  -1.122  0.00  0.00     0.078 C 
ATOM      2  C1' OXE d   1       0.762   2.943   1.309  0.00  0.00     0.078 C 
ATOM      3  C1  OXE d   1       0.948   2.044   0.113  0.00  0.00    -0.078 A 
ATOM      4  C2  OXE d   1       1.266   2.641  -1.084  0.00  0.00    -0.078 A 
ATOM      5  C3  OXE d   1       1.502   1.853  -2.206  0.00  0.00     0.003 A 
ATOM      6  C4  OXE d   1       1.270   0.472  -2.165  0.00  0.00    -0.002 A 
ATOM      7  C5  OXE d   1       0.908  -0.151  -0.966  0.00  0.00    -0.002 A 
ATOM      8  C6  OXE d   1       0.785   0.613   0.189  0.00  0.00     0.003 A 
ENDROOT
TORSDOF 0
ENDMDL
