MODEL 1
REMARK minimizedAffinity 1.12165034
REMARK minimizedRMSD -1
REMARK  0 active torsions:
REMARK  status: ('A' for Active; 'I' for Inactive)
ROOT
ATOM      1  C2' OXE d   1       1.942   4.340  -1.055  0.00  0.00     0.078 C 
ATOM      2  C1' OXE d   1       0.811   2.758  -3.080  0.00  0.00     0.078 C 
ATOM      3  C1  OXE d   1       1.045   2.117  -1.735  0.00  0.00    -0.078 A 
ATOM      4  C2  OXE d   1       1.642   2.885  -0.764  0.00  0.00    -0.078 A 
ATOM      5  C3  OXE d   1       1.832   2.359   0.511  0.00  0.00     0.003 A 
ATOM      6  C4  OXE d   1       1.561   1.010   0.769  0.00  0.00    -0.002 A 
ATOM      7  C5  OXE d   1       0.990   0.199  -0.217  0.00  0.00    -0.002 A 
ATOM      8  C6  OXE d   1       0.687   0.748  -1.459  0.00  0.00     0.003 A 
ENDROOT
TORSDOF 0
ENDMDL
