MODEL 1
REMARK minimizedAffinity 1.6533047
REMARK minimizedRMSD -1
REMARK  0 active torsions:
REMARK  status: ('A' for Active; 'I' for Inactive)
ROOT
ATOM      1  C2' OXE d   1       1.892   3.840  -1.498  0.00  0.00     0.078 C 
ATOM      2  C1' OXE d   1       0.760   2.123  -3.409  0.00  0.00     0.078 C 
ATOM      3  C1  OXE d   1       0.994   1.576  -2.024  0.00  0.00    -0.078 A 
ATOM      4  C2  OXE d   1       1.591   2.409  -1.108  0.00  0.00    -0.078 A 
ATOM      5  C3  OXE d   1       1.779   1.972   0.201  0.00  0.00     0.003 A 
ATOM      6  C4  OXE d   1       1.508   0.644   0.551  0.00  0.00    -0.002 A 
ATOM      7  C5  OXE d   1       0.936  -0.232  -0.378  0.00  0.00    -0.002 A 
ATOM      8  C6  OXE d   1       0.634   0.229  -1.654  0.00  0.00     0.003 A 
ENDROOT
TORSDOF 0
ENDMDL
