MODEL 1
REMARK minimizedAffinity 4.79235697
REMARK minimizedRMSD -1
REMARK  2 active torsions:
REMARK  status: ('A' for Active; 'I' for Inactive)
REMARK    1  A    between atoms: C1_2  and  C2_3 
REMARK    2  A    between atoms: C2_3  and  C3_4 
ROOT
ATOM      1  C3  UNL d   1       3.424   0.402  -0.599  0.00  0.00    -0.075 A 
ATOM      2  C4  UNL d   1       3.605   1.702  -1.094  0.00  0.00     0.002 A 
ATOM      3  C5  UNL d   1       4.886   2.240  -1.219  0.00  0.00     0.002 A 
ATOM      4  C6  UNL d   1       5.999   1.491  -0.842  0.00  0.00    -0.004 A 
ATOM      5  C7  UNL d   1       5.830   0.205  -0.334  0.00  0.00     0.002 A 
ATOM      6  C8  UNL d   1       4.549  -0.337  -0.211  0.00  0.00     0.002 A 
ENDROOT
BRANCH   1   7
ATOM      7  C2  UNL d   1       2.042  -0.197  -0.488  0.00  0.00     0.056 C 
BRANCH   7   8
ATOM      8  C1  UNL d   1       0.916   0.840  -0.429  0.00  0.00     0.007 C 
ATOM      9  C   UNL d   1       0.172   0.844   0.900  0.00  0.00     0.009 C 
ENDBRANCH   7   8
ENDBRANCH   1   7
TORSDOF 2
ENDMDL
