MODEL 1
REMARK minimizedAffinity 6.30104351
REMARK minimizedRMSD -1
REMARK  2 active torsions:
REMARK  status: ('A' for Active; 'I' for Inactive)
REMARK    1  A    between atoms: C1_2  and  C2_3 
REMARK    2  A    between atoms: C2_3  and  C3_4 
ROOT
ATOM      1  C3  UNL d   1       2.437   0.264   0.210  0.00  0.00    -0.075 A 
ATOM      2  C4  UNL d   1       1.520   0.476  -0.830  0.00  0.00     0.002 A 
ATOM      3  C5  UNL d   1       0.250   0.986  -0.561  0.00  0.00     0.002 A 
ATOM      4  C6  UNL d   1      -0.123   1.281   0.748  0.00  0.00    -0.004 A 
ATOM      5  C7  UNL d   1       0.774   1.059   1.791  0.00  0.00     0.002 A 
ATOM      6  C8  UNL d   1       2.047   0.552   1.525  0.00  0.00     0.002 A 
ENDROOT
BRANCH   1   7
ATOM      7  C2  UNL d   1       3.824  -0.261  -0.078  0.00  0.00     0.056 C 
BRANCH   7   8
ATOM      8  C1  UNL d   1       4.914   0.816  -0.057  0.00  0.00     0.007 C 
ATOM      9  C   UNL d   1       4.999   1.609  -1.354  0.00  0.00     0.009 C 
ENDBRANCH   7   8
ENDBRANCH   1   7
TORSDOF 2
ENDMDL
