MODEL 1
REMARK minimizedAffinity -3.26748157
REMARK minimizedRMSD -1
REMARK  2 active torsions:
REMARK  status: ('A' for Active; 'I' for Inactive)
REMARK    1  A    between atoms: C1_2  and  C2_3 
REMARK    2  A    between atoms: C2_3  and  C3_4 
ROOT
ATOM      1  C3  UNL d   1      -4.777   1.391  -3.549  0.00  0.00    -0.075 A 
ATOM      2  C4  UNL d   1      -3.514   1.086  -3.021  0.00  0.00     0.002 A 
ATOM      3  C5  UNL d   1      -2.484   0.649  -3.854  0.00  0.00     0.002 A 
ATOM      4  C6  UNL d   1      -2.706   0.501  -5.221  0.00  0.00    -0.004 A 
ATOM      5  C7  UNL d   1      -3.961   0.784  -5.755  0.00  0.00     0.002 A 
ATOM      6  C8  UNL d   1      -4.992   1.226  -4.924  0.00  0.00     0.002 A 
ENDROOT
BRANCH   1   7
ATOM      7  C2  UNL d   1      -5.887   1.893  -2.657  0.00  0.00     0.056 C 
BRANCH   7   8
ATOM      8  C1  UNL d   1      -6.000   3.420  -2.601  0.00  0.00     0.007 C 
ATOM      9  C   UNL d   1      -5.305   4.116  -3.764  0.00  0.00     0.009 C 
ENDBRANCH   7   8
ENDBRANCH   1   7
TORSDOF 2
ENDMDL
