MODEL 1
REMARK minimizedAffinity 4.70689917
REMARK minimizedRMSD -1
REMARK  0 active torsions:
REMARK  status: ('A' for Active; 'I' for Inactive)
ROOT
ATOM      1  C   UNL d   1       0.419   2.257   2.784  0.00  0.00     0.077 C 
ATOM      2  C1  UNL d   1       1.036   3.307   1.908  0.00  0.00    -0.074 A 
ATOM      3  C2  UNL d   1       2.198   3.979   2.300  0.00  0.00    -0.005 A 
ATOM      4  C3  UNL d   1       2.765   4.946   1.470  0.00  0.00     0.006 A 
ATOM      5  C4  UNL d   1       2.177   5.250   0.242  0.00  0.00    -0.005 A 
ATOM      6  C5  UNL d   1       1.016   4.587  -0.168  0.00  0.00    -0.074 A 
ATOM      7  C6  UNL d   1       0.377   4.894  -1.489  0.00  0.00     0.077 C 
ATOM      8  C7  UNL d   1       0.456   3.612   0.669  0.00  0.00    -0.001 A 
ENDROOT
TORSDOF 0
ENDMDL
