MODEL 1
REMARK minimizedAffinity -0.434716731
REMARK minimizedRMSD -1
REMARK  0 active torsions:
REMARK  status: ('A' for Active; 'I' for Inactive)
ROOT
ATOM      1  C   UNL d   1      -2.523   3.731  -2.313  0.00  0.00     0.077 C 
ATOM      2  C1  UNL d   1      -3.675   2.926  -2.838  0.00  0.00    -0.074 A 
ATOM      3  C2  UNL d   1      -4.844   2.771  -2.086  0.00  0.00    -0.005 A 
ATOM      4  C3  UNL d   1      -5.911   2.028  -2.591  0.00  0.00     0.006 A 
ATOM      5  C4  UNL d   1      -5.820   1.433  -3.850  0.00  0.00    -0.005 A 
ATOM      6  C5  UNL d   1      -4.659   1.578  -4.616  0.00  0.00    -0.074 A 
ATOM      7  C6  UNL d   1      -4.548   0.954  -5.976  0.00  0.00     0.077 C 
ATOM      8  C7  UNL d   1      -3.594   2.332  -4.105  0.00  0.00    -0.001 A 
ENDROOT
TORSDOF 0
ENDMDL
