MODEL 1
REMARK minimizedAffinity 2.62299991
REMARK minimizedRMSD -1
REMARK  0 active torsions:
REMARK  status: ('A' for Active; 'I' for Inactive)
ROOT
ATOM      1  C   UNL d   1      -1.348   3.548  -1.633  0.00  0.00     0.077 C 
ATOM      2  C1  UNL d   1      -0.347   2.803  -0.801  0.00  0.00    -0.074 A 
ATOM      3  C2  UNL d   1       0.074   3.303   0.436  0.00  0.00    -0.005 A 
ATOM      4  C3  UNL d   1       0.998   2.594   1.203  0.00  0.00     0.006 A 
ATOM      5  C4  UNL d   1       1.509   1.379   0.743  0.00  0.00    -0.005 A 
ATOM      6  C5  UNL d   1       1.099   0.863  -0.490  0.00  0.00    -0.074 A 
ATOM      7  C6  UNL d   1       1.631  -0.445  -0.995  0.00  0.00     0.077 C 
ATOM      8  C7  UNL d   1       0.165   1.578  -1.252  0.00  0.00    -0.001 A 
ENDROOT
TORSDOF 0
ENDMDL
