MODEL 1
REMARK minimizedAffinity 5.41981316
REMARK minimizedRMSD -1
REMARK  0 active torsions:
REMARK  status: ('A' for Active; 'I' for Inactive)
ROOT
ATOM      1  C   UNL d   1       1.216   5.406  -1.885  0.00  0.00     0.077 C 
ATOM      2  C1  UNL d   1       1.010   4.448  -0.749  0.00  0.00    -0.074 A 
ATOM      3  C2  UNL d   1       1.965   4.318   0.264  0.00  0.00    -0.005 A 
ATOM      4  C3  UNL d   1       1.755   3.430   1.319  0.00  0.00     0.006 A 
ATOM      5  C4  UNL d   1       0.589   2.665   1.372  0.00  0.00    -0.005 A 
ATOM      6  C5  UNL d   1      -0.378   2.782   0.368  0.00  0.00    -0.074 A 
ATOM      7  C6  UNL d   1      -1.641   1.975   0.415  0.00  0.00     0.077 C 
ATOM      8  C7  UNL d   1      -0.162   3.682  -0.685  0.00  0.00    -0.001 A 
ENDROOT
TORSDOF 0
ENDMDL
