MODEL 1
REMARK minimizedAffinity -4.34892225
REMARK minimizedRMSD -1
REMARK  0 active torsions:
REMARK  status: ('A' for Active; 'I' for Inactive)
ROOT
ATOM      1  C   UNL d   1      -6.000   1.787  -1.137  0.00  0.00     0.077 C 
ATOM      2  C1  UNL d   1      -5.590   2.266  -2.498  0.00  0.00    -0.074 A 
ATOM      3  C2  UNL d   1      -5.223   3.599  -2.711  0.00  0.00    -0.005 A 
ATOM      4  C3  UNL d   1      -4.835   4.027  -3.980  0.00  0.00     0.006 A 
ATOM      5  C4  UNL d   1      -4.810   3.129  -5.048  0.00  0.00    -0.005 A 
ATOM      6  C5  UNL d   1      -5.173   1.792  -4.854  0.00  0.00    -0.074 A 
ATOM      7  C6  UNL d   1      -5.142   0.812  -5.989  0.00  0.00     0.077 C 
ATOM      8  C7  UNL d   1      -5.555   1.368  -3.574  0.00  0.00    -0.001 A 
ENDROOT
TORSDOF 0
ENDMDL
