MODEL 1
REMARK minimizedAffinity 1.1827774
REMARK minimizedRMSD -1
REMARK  0 active torsions:
REMARK  status: ('A' for Active; 'I' for Inactive)
ROOT
ATOM      1  C   UNL d   1       1.178  -0.712  -1.559  0.00  0.00     0.077 C 
ATOM      2  C1  UNL d   1       0.806  -2.165  -1.591  0.00  0.00    -0.074 A 
ATOM      3  C2  UNL d   1       1.460  -3.093  -0.774  0.00  0.00    -0.005 A 
ATOM      4  C3  UNL d   1       1.097  -4.439  -0.808  0.00  0.00     0.006 A 
ATOM      5  C4  UNL d   1       0.078  -4.871  -1.658  0.00  0.00    -0.005 A 
ATOM      6  C5  UNL d   1      -0.588  -3.957  -2.482  0.00  0.00    -0.074 A 
ATOM      7  C6  UNL d   1      -1.693  -4.403  -3.393  0.00  0.00     0.077 C 
ATOM      8  C7  UNL d   1      -0.222  -2.605  -2.436  0.00  0.00    -0.001 A 
ENDROOT
TORSDOF 0
ENDMDL
