MODEL 1
REMARK minimizedAffinity -0.142750978
REMARK minimizedRMSD -1
REMARK  0 active torsions:
REMARK  status: ('A' for Active; 'I' for Inactive)
ROOT
ATOM      1  C   UNL d   1      -3.021  -0.125  -0.230  0.00  0.00     0.077 C 
ATOM      2  C1  UNL d   1      -1.694   0.376  -0.719  0.00  0.00    -0.074 A 
ATOM      3  C2  UNL d   1      -0.899  -0.405  -1.564  0.00  0.00    -0.005 A 
ATOM      4  C3  UNL d   1       0.328   0.078  -2.018  0.00  0.00     0.006 A 
ATOM      5  C4  UNL d   1       0.772   1.344  -1.632  0.00  0.00    -0.005 A 
ATOM      6  C5  UNL d   1      -0.011   2.139  -0.789  0.00  0.00    -0.074 A 
ATOM      7  C6  UNL d   1       0.446   3.506  -0.373  0.00  0.00     0.077 C 
ATOM      8  C7  UNL d   1      -1.246   1.649  -0.342  0.00  0.00    -0.001 A 
ENDROOT
TORSDOF 0
ENDMDL
