MODEL 1
REMARK minimizedAffinity 4.7441678
REMARK minimizedRMSD -1
REMARK  0 active torsions:
REMARK  status: ('A' for Active; 'I' for Inactive)
ROOT
ATOM      1  C   UNL d   1       0.000   2.702   0.365  0.00  0.00     0.077 C 
ATOM      2  C1  UNL d   1      -0.741   3.710  -0.462  0.00  0.00    -0.074 A 
ATOM      3  C2  UNL d   1      -0.424   5.071  -0.391  0.00  0.00    -0.005 A 
ATOM      4  C3  UNL d   1      -1.117   5.996  -1.173  0.00  0.00     0.006 A 
ATOM      5  C4  UNL d   1      -2.131   5.570  -2.031  0.00  0.00    -0.005 A 
ATOM      6  C5  UNL d   1      -2.461   4.214  -2.116  0.00  0.00    -0.074 A 
ATOM      7  C6  UNL d   1      -3.542   3.739  -3.041  0.00  0.00     0.077 C 
ATOM      8  C7  UNL d   1      -1.756   3.290  -1.333  0.00  0.00    -0.001 A 
ENDROOT
TORSDOF 0
ENDMDL
