MODEL 1
REMARK minimizedAffinity -2.97110844
REMARK minimizedRMSD -1
REMARK  2 active torsions:
REMARK  status: ('A' for Active; 'I' for Inactive)
REMARK    1  A    between atoms: C2'_3  and  C1'_4 
REMARK    2  A    between atoms: C1'_4  and  C1_5 
ROOT
ATOM      1  C1  I4B d   1       0.481   1.450   0.226  0.00  0.00    -0.075 A 
ATOM      2  C2  I4B d   1       0.758   0.277   0.881  0.00  0.00     0.003 A 
ATOM      3  C3  I4B d   1      -0.275  -0.655   1.143  0.00  0.00     0.002 A 
ATOM      4  C4  I4B d   1      -1.571  -0.352   0.779  0.00  0.00    -0.004 A 
ATOM      5  C5  I4B d   1      -1.847   0.828   0.095  0.00  0.00     0.002 A 
ATOM      6  C6  I4B d   1      -0.813   1.730  -0.195  0.00  0.00     0.003 A 
ENDROOT
BRANCH   1   7
ATOM      7  C1' I4B d   1       1.591   2.427  -0.004  0.00  0.00     0.060 C 
BRANCH   7   8
ATOM      8  C2' I4B d   1       1.289   3.675   0.799  0.00  0.00    -0.013 C 
ATOM      9  C4' I4B d   1       1.890   3.595   2.178  0.00  0.00     0.013 C 
ATOM     10  C3' I4B d   1       1.824   4.854   0.043  0.00  0.00     0.013 C 
ENDBRANCH   7   8
ENDBRANCH   1   7
TORSDOF 2
ENDMDL
