MODEL 1
REMARK minimizedAffinity -2.62281537
REMARK minimizedRMSD -1
REMARK  2 active torsions:
REMARK  status: ('A' for Active; 'I' for Inactive)
REMARK    1  A    between atoms: C2'_3  and  C1'_4 
REMARK    2  A    between atoms: C1'_4  and  C1_5 
ROOT
ATOM      1  C1  I4B d   1       0.366   3.736   1.215  0.00  0.00    -0.075 A 
ATOM      2  C2  I4B d   1       1.081   4.456   2.139  0.00  0.00     0.003 A 
ATOM      3  C3  I4B d   1       0.427   5.397   2.971  0.00  0.00     0.002 A 
ATOM      4  C4  I4B d   1      -0.925   5.621   2.811  0.00  0.00    -0.004 A 
ATOM      5  C5  I4B d   1      -1.653   4.874   1.888  0.00  0.00     0.002 A 
ATOM      6  C6  I4B d   1      -1.006   3.917   1.094  0.00  0.00     0.003 A 
ENDROOT
BRANCH   1   7
ATOM      7  C1' I4B d   1       1.094   2.775   0.330  0.00  0.00     0.060 C 
BRANCH   7   8
ATOM      8  C2' I4B d   1       0.180   1.595   0.070  0.00  0.00    -0.013 C 
ATOM      9  C4' I4B d   1      -0.121   1.451  -1.398  0.00  0.00     0.013 C 
ATOM     10  C3' I4B d   1       0.847   0.365   0.609  0.00  0.00     0.013 C 
ENDBRANCH   7   8
ENDBRANCH   1   7
TORSDOF 2
ENDMDL
