MODEL 1
REMARK minimizedAffinity -4.26405048
REMARK minimizedRMSD -1
REMARK  2 active torsions:
REMARK  status: ('A' for Active; 'I' for Inactive)
REMARK    1  A    between atoms: C2'_3  and  C1'_4 
REMARK    2  A    between atoms: C1'_4  and  C1_5 
ROOT
ATOM      1  C1  I4B d   1      -0.117   0.415   0.770  0.00  0.00    -0.075 A 
ATOM      2  C2  I4B d   1      -0.659   0.028   1.970  0.00  0.00     0.003 A 
ATOM      3  C3  I4B d   1      -1.086  -1.308   2.162  0.00  0.00     0.002 A 
ATOM      4  C4  I4B d   1      -0.999  -2.206   1.117  0.00  0.00    -0.004 A 
ATOM      5  C5  I4B d   1      -0.428  -1.818  -0.091  0.00  0.00     0.002 A 
ATOM      6  C6  I4B d   1       0.028  -0.503  -0.263  0.00  0.00     0.003 A 
ENDROOT
BRANCH   1   7
ATOM      7  C1' I4B d   1       0.294   1.842   0.591  0.00  0.00     0.060 C 
BRANCH   7   8
ATOM      8  C2' I4B d   1       1.805   1.885   0.500  0.00  0.00    -0.013 C 
ATOM      9  C4' I4B d   1       2.258   2.706  -0.678  0.00  0.00     0.013 C 
ATOM     10  C3' I4B d   1       2.330   2.450   1.787  0.00  0.00     0.013 C 
ENDBRANCH   7   8
ENDBRANCH   1   7
TORSDOF 2
ENDMDL
