MODEL 1
REMARK minimizedAffinity -2.60578752
REMARK minimizedRMSD -1
REMARK  2 active torsions:
REMARK  status: ('A' for Active; 'I' for Inactive)
REMARK    1  A    between atoms: C2'_3  and  C1'_4 
REMARK    2  A    between atoms: C1'_4  and  C1_5 
ROOT
ATOM      1  C1  I4B d   1       0.823   2.683   0.100  0.00  0.00    -0.075 A 
ATOM      2  C2  I4B d   1       2.120   2.765   0.542  0.00  0.00     0.003 A 
ATOM      3  C3  I4B d   1       2.608   3.972   1.100  0.00  0.00     0.002 A 
ATOM      4  C4  I4B d   1       1.785   5.079   1.150  0.00  0.00    -0.004 A 
ATOM      5  C5  I4B d   1       0.464   4.987   0.723  0.00  0.00     0.002 A 
ATOM      6  C6  I4B d   1      -0.025   3.778   0.206  0.00  0.00     0.003 A 
ENDROOT
BRANCH   1   7
ATOM      7  C1' I4B d   1       0.351   1.404  -0.514  0.00  0.00     0.060 C 
BRANCH   7   8
ATOM      8  C2' I4B d   1       0.353   0.340   0.564  0.00  0.00    -0.013 C 
ATOM      9  C4' I4B d   1      -0.877   0.436   1.428  0.00  0.00     0.013 C 
ATOM     10  C3' I4B d   1       0.440  -0.999  -0.106  0.00  0.00     0.013 C 
ENDBRANCH   7   8
ENDBRANCH   1   7
TORSDOF 2
ENDMDL
