MODEL 1
REMARK minimizedAffinity -5.20330572
REMARK minimizedRMSD -1
REMARK  2 active torsions:
REMARK  status: ('A' for Active; 'I' for Inactive)
REMARK    1  A    between atoms: C2'_3  and  C1'_4 
REMARK    2  A    between atoms: C1'_4  and  C1_5 
ROOT
ATOM      1  C1  I4B d   1       0.422  -1.272  -0.173  0.00  0.00    -0.075 A 
ATOM      2  C2  I4B d   1       0.403  -2.319   0.715  0.00  0.00     0.003 A 
ATOM      3  C3  I4B d   1       0.219  -3.644   0.250  0.00  0.00     0.002 A 
ATOM      4  C4  I4B d   1       0.008  -3.869  -1.095  0.00  0.00    -0.004 A 
ATOM      5  C5  I4B d   1       0.050  -2.809  -1.996  0.00  0.00     0.002 A 
ATOM      6  C6  I4B d   1       0.271  -1.503  -1.534  0.00  0.00     0.003 A 
ENDROOT
BRANCH   1   7
ATOM      7  C1' I4B d   1       0.586   0.118   0.355  0.00  0.00     0.060 C 
BRANCH   7   8
ATOM      8  C2' I4B d   1      -0.504   0.979  -0.249  0.00  0.00    -0.013 C 
ATOM      9  C4' I4B d   1      -1.800   0.826   0.504  0.00  0.00     0.013 C 
ATOM     10  C3' I4B d   1      -0.033   2.402  -0.233  0.00  0.00     0.013 C 
ENDBRANCH   7   8
ENDBRANCH   1   7
TORSDOF 2
ENDMDL
