MODEL 1
REMARK minimizedAffinity -2.59908772
REMARK minimizedRMSD -1
REMARK  2 active torsions:
REMARK  status: ('A' for Active; 'I' for Inactive)
REMARK    1  A    between atoms: C2'_3  and  C1'_4 
REMARK    2  A    between atoms: C1'_4  and  C1_5 
ROOT
ATOM      1  C1  I4B d   1       0.531   2.365  -0.051  0.00  0.00    -0.075 A 
ATOM      2  C2  I4B d   1       0.052   3.170   0.953  0.00  0.00     0.003 A 
ATOM      3  C3  I4B d   1       0.838   4.239   1.446  0.00  0.00     0.002 A 
ATOM      4  C4  I4B d   1       2.109   4.436   0.945  0.00  0.00    -0.004 A 
ATOM      5  C5  I4B d   1       2.584   3.634  -0.089  0.00  0.00     0.002 A 
ATOM      6  C6  I4B d   1       1.786   2.600  -0.599  0.00  0.00     0.003 A 
ENDROOT
BRANCH   1   7
ATOM      7  C1' I4B d   1      -0.312   1.225  -0.525  0.00  0.00     0.060 C 
BRANCH   7   8
ATOM      8  C2' I4B d   1      -0.039   0.036   0.375  0.00  0.00    -0.013 C 
ATOM      9  C4' I4B d   1      -1.275  -0.370   1.132  0.00  0.00     0.013 C 
ATOM     10  C3' I4B d   1       0.464  -1.087  -0.482  0.00  0.00     0.013 C 
ENDBRANCH   7   8
ENDBRANCH   1   7
TORSDOF 2
ENDMDL
