MODEL 1
REMARK minimizedAffinity -4.13303757
REMARK minimizedRMSD -1
REMARK  2 active torsions:
REMARK  status: ('A' for Active; 'I' for Inactive)
REMARK    1  A    between atoms: C2'_3  and  C1'_4 
REMARK    2  A    between atoms: C1'_4  and  C1_5 
ROOT
ATOM      1  C1  I4B d   1      -0.289  -0.420   0.912  0.00  0.00    -0.075 A 
ATOM      2  C2  I4B d   1      -1.379  -1.248   1.011  0.00  0.00     0.003 A 
ATOM      3  C3  I4B d   1      -1.220  -2.651   0.906  0.00  0.00     0.002 A 
ATOM      4  C4  I4B d   1       0.031  -3.176   0.654  0.00  0.00    -0.004 A 
ATOM      5  C5  I4B d   1       1.138  -2.336   0.577  0.00  0.00     0.002 A 
ATOM      6  C6  I4B d   1       0.980  -0.950   0.719  0.00  0.00     0.003 A 
ENDROOT
BRANCH   1   7
ATOM      7  C1' I4B d   1      -0.498   1.059   0.994  0.00  0.00     0.060 C 
BRANCH   7   8
ATOM      8  C2' I4B d   1       0.477   1.722   0.043  0.00  0.00    -0.013 C 
ATOM      9  C4' I4B d   1       0.056   1.530  -1.390  0.00  0.00     0.013 C 
ATOM     10  C3' I4B d   1       0.550   3.178   0.395  0.00  0.00     0.013 C 
ENDBRANCH   7   8
ENDBRANCH   1   7
TORSDOF 2
ENDMDL
