MODEL 1
REMARK minimizedAffinity -5.11903143
REMARK minimizedRMSD -1
REMARK  2 active torsions:
REMARK  status: ('A' for Active; 'I' for Inactive)
REMARK    1  A    between atoms: C2'_3  and  C1'_4 
REMARK    2  A    between atoms: C1'_4  and  C1_5 
ROOT
ATOM      1  C1  I4B d   1       0.130  -1.215  -0.026  0.00  0.00    -0.075 A 
ATOM      2  C2  I4B d   1       0.268  -1.199  -1.392  0.00  0.00     0.003 A 
ATOM      3  C3  I4B d   1       0.152  -2.400  -2.134  0.00  0.00     0.002 A 
ATOM      4  C4  I4B d   1      -0.050  -3.592  -1.470  0.00  0.00    -0.004 A 
ATOM      5  C5  I4B d   1      -0.212  -3.604  -0.088  0.00  0.00     0.002 A 
ATOM      6  C6  I4B d   1      -0.134  -2.406   0.638  0.00  0.00     0.003 A 
ENDROOT
BRANCH   1   7
ATOM      7  C1' I4B d   1       0.290   0.065   0.729  0.00  0.00     0.060 C 
BRANCH   7   8
ATOM      8  C2' I4B d   1       0.554   1.170  -0.274  0.00  0.00    -0.013 C 
ATOM      9  C4' I4B d   1      -0.718   1.887  -0.642  0.00  0.00     0.013 C 
ATOM     10  C3' I4B d   1       1.553   2.113   0.327  0.00  0.00     0.013 C 
ENDBRANCH   7   8
ENDBRANCH   1   7
TORSDOF 2
ENDMDL
