MODEL 1
REMARK minimizedAffinity -4.36393309
REMARK minimizedRMSD -1
REMARK  2 active torsions:
REMARK  status: ('A' for Active; 'I' for Inactive)
REMARK    1  A    between atoms: C2'_3  and  C1'_4 
REMARK    2  A    between atoms: C1'_4  and  C1_5 
ROOT
ATOM      1  C1  I4B d   1       0.079  -1.162   0.387  0.00  0.00    -0.075 A 
ATOM      2  C2  I4B d   1       0.354  -1.388  -0.938  0.00  0.00     0.003 A 
ATOM      3  C3  I4B d   1       0.060  -2.644  -1.524  0.00  0.00     0.002 A 
ATOM      4  C4  I4B d   1      -0.458  -3.654  -0.740  0.00  0.00    -0.004 A 
ATOM      5  C5  I4B d   1      -0.757  -3.416   0.599  0.00  0.00     0.002 A 
ATOM      6  C6  I4B d   1      -0.499  -2.159   1.163  0.00  0.00     0.003 A 
ENDROOT
BRANCH   1   7
ATOM      7  C1' I4B d   1       0.433   0.164   0.981  0.00  0.00     0.060 C 
BRANCH   7   8
ATOM      8  C2' I4B d   1       0.626   1.148  -0.156  0.00  0.00    -0.013 C 
ATOM      9  C4' I4B d   1      -0.669   1.403  -0.882  0.00  0.00     0.013 C 
ATOM     10  C3' I4B d   1       1.183   2.416   0.419  0.00  0.00     0.013 C 
ENDBRANCH   7   8
ENDBRANCH   1   7
TORSDOF 2
ENDMDL
