MODEL 1
REMARK minimizedAffinity -4.64655399
REMARK minimizedRMSD -1
REMARK  2 active torsions:
REMARK  status: ('A' for Active; 'I' for Inactive)
REMARK    1  A    between atoms: C2'_3  and  C1'_4 
REMARK    2  A    between atoms: C1'_4  and  C1_5 
ROOT
ATOM      1  C1  I4B d   1      -0.192   0.350  -0.175  0.00  0.00    -0.075 A 
ATOM      2  C2  I4B d   1      -0.672   0.282   1.109  0.00  0.00     0.003 A 
ATOM      3  C3  I4B d   1      -0.967  -0.973   1.695  0.00  0.00     0.002 A 
ATOM      4  C4  I4B d   1      -0.817  -2.123   0.948  0.00  0.00    -0.004 A 
ATOM      5  C5  I4B d   1      -0.308  -2.054  -0.346  0.00  0.00     0.002 A 
ATOM      6  C6  I4B d   1       0.018  -0.811  -0.908  0.00  0.00     0.003 A 
ENDROOT
BRANCH   1   7
ATOM      7  C1' I4B d   1       0.078   1.694  -0.774  0.00  0.00     0.060 C 
BRANCH   7   8
ATOM      8  C2' I4B d   1       0.894   2.493   0.221  0.00  0.00    -0.013 C 
ATOM      9  C4' I4B d   1       2.278   2.768  -0.305  0.00  0.00     0.013 C 
ATOM     10  C3' I4B d   1       0.159   3.769   0.505  0.00  0.00     0.013 C 
ENDBRANCH   7   8
ENDBRANCH   1   7
TORSDOF 2
ENDMDL
