MODEL 1
REMARK minimizedAffinity -4.57079411
REMARK minimizedRMSD -1
REMARK  2 active torsions:
REMARK  status: ('A' for Active; 'I' for Inactive)
REMARK    1  A    between atoms: C2'_3  and  C1'_4 
REMARK    2  A    between atoms: C1'_4  and  C1_5 
ROOT
ATOM      1  C1  I4B d   1       0.281  -0.926  -0.274  0.00  0.00    -0.075 A 
ATOM      2  C2  I4B d   1      -0.146  -2.006   0.458  0.00  0.00     0.003 A 
ATOM      3  C3  I4B d   1      -0.325  -3.264  -0.166  0.00  0.00     0.002 A 
ATOM      4  C4  I4B d   1      -0.115  -3.385  -1.524  0.00  0.00    -0.004 A 
ATOM      5  C5  I4B d   1       0.340  -2.295  -2.260  0.00  0.00     0.002 A 
ATOM      6  C6  I4B d   1       0.551  -1.060  -1.629  0.00  0.00     0.003 A 
ENDROOT
BRANCH   1   7
ATOM      7  C1' I4B d   1       0.428   0.396   0.411  0.00  0.00     0.060 C 
BRANCH   7   8
ATOM      8  C2' I4B d   1       0.805   1.424  -0.636  0.00  0.00    -0.013 C 
ATOM      9  C4' I4B d   1      -0.392   1.837  -1.452  0.00  0.00     0.013 C 
ATOM     10  C3' I4B d   1       1.413   2.600   0.068  0.00  0.00     0.013 C 
ENDBRANCH   7   8
ENDBRANCH   1   7
TORSDOF 2
ENDMDL
