MODEL 1
REMARK minimizedAffinity -5.15410566
REMARK minimizedRMSD -1
REMARK  2 active torsions:
REMARK  status: ('A' for Active; 'I' for Inactive)
REMARK    1  A    between atoms: C2'_3  and  C1'_4 
REMARK    2  A    between atoms: C1'_4  and  C1_5 
ROOT
ATOM      1  C1  I4B d   1      -0.233  -0.688   0.235  0.00  0.00    -0.075 A 
ATOM      2  C2  I4B d   1      -0.973  -1.588   0.961  0.00  0.00     0.003 A 
ATOM      3  C3  I4B d   1      -1.053  -2.941   0.550  0.00  0.00     0.002 A 
ATOM      4  C4  I4B d   1      -0.423  -3.336  -0.613  0.00  0.00    -0.004 A 
ATOM      5  C5  I4B d   1       0.344  -2.428  -1.335  0.00  0.00     0.002 A 
ATOM      6  C6  I4B d   1       0.451  -1.098  -0.903  0.00  0.00     0.003 A 
ENDROOT
BRANCH   1   7
ATOM      7  C1' I4B d   1      -0.197   0.740   0.679  0.00  0.00     0.060 C 
BRANCH   7   8
ATOM      8  C2' I4B d   1       0.473   1.551  -0.412  0.00  0.00    -0.013 C 
ATOM      9  C4' I4B d   1      -0.305   1.481  -1.699  0.00  0.00     0.013 C 
ATOM     10  C3' I4B d   1       0.594   2.966   0.072  0.00  0.00     0.013 C 
ENDBRANCH   7   8
ENDBRANCH   1   7
TORSDOF 2
ENDMDL
