MODEL 1
REMARK minimizedAffinity -4.4982934
REMARK minimizedRMSD -1
REMARK  2 active torsions:
REMARK  status: ('A' for Active; 'I' for Inactive)
REMARK    1  A    between atoms: C2'_3  and  C1'_4 
REMARK    2  A    between atoms: C1'_4  and  C1_5 
ROOT
ATOM      1  C1  I4B d   1       0.568   1.761  -0.084  0.00  0.00    -0.075 A 
ATOM      2  C2  I4B d   1      -0.042   2.732   0.671  0.00  0.00     0.003 A 
ATOM      3  C3  I4B d   1       0.638   3.939   0.964  0.00  0.00     0.002 A 
ATOM      4  C4  I4B d   1       1.936   4.111   0.529  0.00  0.00    -0.004 A 
ATOM      5  C5  I4B d   1       2.545   3.135  -0.256  0.00  0.00     0.002 A 
ATOM      6  C6  I4B d   1       1.852   1.958  -0.575  0.00  0.00     0.003 A 
ENDROOT
BRANCH   1   7
ATOM      7  C1' I4B d   1      -0.166   0.485  -0.347  0.00  0.00     0.060 C 
BRANCH   7   8
ATOM      8  C2' I4B d   1      -0.458  -0.170   0.987  0.00  0.00    -0.013 C 
ATOM      9  C4' I4B d   1      -1.120  -1.510   0.804  0.00  0.00     0.013 C 
ATOM     10  C3' I4B d   1       0.837  -0.302   1.731  0.00  0.00     0.013 C 
ENDBRANCH   7   8
ENDBRANCH   1   7
TORSDOF 2
ENDMDL
