MODEL 1
REMARK minimizedAffinity -3.97781396
REMARK minimizedRMSD -1
REMARK  2 active torsions:
REMARK  status: ('A' for Active; 'I' for Inactive)
REMARK    1  A    between atoms: C2'_3  and  C1'_4 
REMARK    2  A    between atoms: C1'_4  and  C1_5 
ROOT
ATOM      1  C1  I4B d   1      -0.090   0.741   0.163  0.00  0.00    -0.075 A 
ATOM      2  C2  I4B d   1       0.999   0.059   0.646  0.00  0.00     0.003 A 
ATOM      3  C3  I4B d   1       0.820  -1.109   1.426  0.00  0.00     0.002 A 
ATOM      4  C4  I4B d   1      -0.457  -1.528   1.738  0.00  0.00    -0.004 A 
ATOM      5  C5  I4B d   1      -1.560  -0.849   1.229  0.00  0.00     0.002 A 
ATOM      6  C6  I4B d   1      -1.376   0.286   0.425  0.00  0.00     0.003 A 
ENDROOT
BRANCH   1   7
ATOM      7  C1' I4B d   1       0.134   1.990  -0.630  0.00  0.00     0.060 C 
BRANCH   7   8
ATOM      8  C2' I4B d   1       1.086   2.873   0.151  0.00  0.00    -0.013 C 
ATOM      9  C4' I4B d   1       2.066   3.560  -0.763  0.00  0.00     0.013 C 
ATOM     10  C3' I4B d   1       0.269   3.871   0.916  0.00  0.00     0.013 C 
ENDBRANCH   7   8
ENDBRANCH   1   7
TORSDOF 2
ENDMDL
