MODEL 1
REMARK minimizedAffinity 8.92771912
REMARK minimizedRMSD -1
REMARK  0 active torsions:
REMARK  status: ('A' for Active; 'I' for Inactive)
ROOT
ATOM      1  C   UNL d   1       3.677  -1.255   2.115  0.00  0.00     0.077 C 
ATOM      2  C1  UNL d   1       2.977  -0.007   1.666  0.00  0.00    -0.074 A 
ATOM      3  C2  UNL d   1       2.574   0.152   0.337  0.00  0.00    -0.005 A 
ATOM      4  C3  UNL d   1       1.915   1.315  -0.064  0.00  0.00     0.006 A 
ATOM      5  C4  UNL d   1       1.653   2.328   0.860  0.00  0.00    -0.005 A 
ATOM      6  C5  UNL d   1       2.048   2.185   2.194  0.00  0.00    -0.074 A 
ATOM      7  C6  UNL d   1       1.765   3.260   3.201  0.00  0.00     0.077 C 
ATOM      8  C7  UNL d   1       2.703   1.011   2.590  0.00  0.00    -0.001 A 
ENDROOT
TORSDOF 0
ENDMDL
