MODEL 1
REMARK minimizedAffinity 7.97914839
REMARK minimizedRMSD -1
REMARK  0 active torsions:
REMARK  status: ('A' for Active; 'I' for Inactive)
ROOT
ATOM      1  C   UNL d   1      -0.052   0.950   3.837  0.00  0.00     0.077 C 
ATOM      2  C1  UNL d   1      -0.212   1.711   2.555  0.00  0.00    -0.074 A 
ATOM      3  C2  UNL d   1      -0.936   2.907   2.514  0.00  0.00    -0.005 A 
ATOM      4  C3  UNL d   1      -1.068   3.609   1.316  0.00  0.00     0.006 A 
ATOM      5  C4  UNL d   1      -0.479   3.123   0.149  0.00  0.00    -0.005 A 
ATOM      6  C5  UNL d   1       0.250   1.930   0.170  0.00  0.00    -0.074 A 
ATOM      7  C6  UNL d   1       0.898   1.399  -1.074  0.00  0.00     0.077 C 
ATOM      8  C7  UNL d   1       0.384   1.234   1.379  0.00  0.00    -0.001 A 
ENDROOT
TORSDOF 0
ENDMDL
