MODEL 1
REMARK minimizedAffinity 1.14818835
REMARK minimizedRMSD -1
REMARK  0 active torsions:
REMARK  status: ('A' for Active; 'I' for Inactive)
ROOT
ATOM      1  C   UNL d   1       3.002  -0.749   0.372  0.00  0.00     0.077 C 
ATOM      2  C1  UNL d   1       2.189   0.504   0.236  0.00  0.00    -0.074 A 
ATOM      3  C2  UNL d   1       2.681   1.733   0.686  0.00  0.00    -0.005 A 
ATOM      4  C3  UNL d   1       1.917   2.891   0.544  0.00  0.00     0.006 A 
ATOM      5  C4  UNL d   1       0.654   2.832  -0.047  0.00  0.00    -0.005 A 
ATOM      6  C5  UNL d   1       0.146   1.612  -0.504  0.00  0.00    -0.074 A 
ATOM      7  C6  UNL d   1      -1.205   1.532  -1.150  0.00  0.00     0.077 C 
ATOM      8  C7  UNL d   1       0.923   0.454  -0.364  0.00  0.00    -0.001 A 
ENDROOT
TORSDOF 0
ENDMDL
