MODEL 1
REMARK minimizedAffinity 3.59434986
REMARK minimizedRMSD -1
REMARK  0 active torsions:
REMARK  status: ('A' for Active; 'I' for Inactive)
ROOT
ATOM      1  C   UNL d   1      -3.996   0.616   0.791  0.00  0.00     0.077 C 
ATOM      2  C1  UNL d   1      -2.864   0.833  -0.169  0.00  0.00    -0.074 A 
ATOM      3  C2  UNL d   1      -3.010   0.550  -1.530  0.00  0.00    -0.005 A 
ATOM      4  C3  UNL d   1      -1.952   0.766  -2.412  0.00  0.00     0.006 A 
ATOM      5  C4  UNL d   1      -0.737   1.267  -1.942  0.00  0.00    -0.005 A 
ATOM      6  C5  UNL d   1      -0.572   1.558  -0.584  0.00  0.00    -0.074 A 
ATOM      7  C6  UNL d   1       0.724   2.106  -0.064  0.00  0.00     0.077 C 
ATOM      8  C7  UNL d   1      -1.643   1.344   0.294  0.00  0.00    -0.001 A 
ENDROOT
TORSDOF 0
ENDMDL
