MODEL 1
REMARK minimizedAffinity -5.90175104
REMARK minimizedRMSD -1
REMARK  0 active torsions:
REMARK  status: ('A' for Active; 'I' for Inactive)
ROOT
ATOM      1  C   UNL d   1       3.354  -1.302   1.235  0.00  0.00     0.077 C 
ATOM      2  C1  UNL d   1       2.087  -1.187   0.441  0.00  0.00    -0.074 A 
ATOM      3  C2  UNL d   1       1.896  -1.940  -0.722  0.00  0.00    -0.005 A 
ATOM      4  C3  UNL d   1       0.709  -1.829  -1.445  0.00  0.00     0.006 A 
ATOM      5  C4  UNL d   1      -0.299  -0.967  -1.013  0.00  0.00    -0.005 A 
ATOM      6  C5  UNL d   1      -0.127  -0.207   0.149  0.00  0.00    -0.074 A 
ATOM      7  C6  UNL d   1      -1.205   0.718   0.632  0.00  0.00     0.077 C 
ATOM      8  C7  UNL d   1       1.066  -0.328   0.873  0.00  0.00    -0.001 A 
ENDROOT
TORSDOF 0
ENDMDL
