MODEL 1
REMARK minimizedAffinity -0.55896914
REMARK minimizedRMSD -1
REMARK  1 active torsions:
REMARK  status: ('A' for Active; 'I' for Inactive)
REMARK    1  A    between atoms: C1_2  and  C2_3 
ROOT
ATOM      1  C2  UNL d   1      -0.864   0.027   0.537  0.00  0.00    -0.081 A 
ATOM      2  C3  UNL d   1      -0.534  -1.306   0.266  0.00  0.00     0.006 A 
ATOM      3  C4  UNL d   1       0.666  -1.623  -0.376  0.00  0.00     0.002 A 
ATOM      4  C5  UNL d   1       1.559  -0.612  -0.748  0.00  0.00    -0.080 A 
ATOM      5  C6  UNL d   1       2.865  -0.940  -1.410  0.00  0.00     0.076 C 
ATOM      6  C7  UNL d   1       1.222   0.721  -0.493  0.00  0.00     0.002 A 
ATOM      7  C8  UNL d   1       0.022   1.038   0.148  0.00  0.00     0.006 A 
ENDROOT
BRANCH   1   8
ATOM      8  C1  UNL d   1      -2.127   0.367   1.286  0.00  0.00     0.054 C 
ATOM      9  C   UNL d   1      -1.822   0.831   2.704  0.00  0.00     0.018 C 
ENDBRANCH   1   8
TORSDOF 1
ENDMDL
