MODEL 1
REMARK minimizedAffinity -3.75304651
REMARK minimizedRMSD -1
REMARK  1 active torsions:
REMARK  status: ('A' for Active; 'I' for Inactive)
REMARK    1  A    between atoms: C1_2  and  C2_3 
ROOT
ATOM      1  C2  UNL d   1      -0.605   0.179   0.350  0.00  0.00    -0.081 A 
ATOM      2  C3  UNL d   1      -0.058  -1.110   0.354  0.00  0.00     0.006 A 
ATOM      3  C4  UNL d   1       1.213  -1.342  -0.176  0.00  0.00     0.002 A 
ATOM      4  C5  UNL d   1       1.963  -0.288  -0.710  0.00  0.00    -0.080 A 
ATOM      5  C6  UNL d   1       3.341  -0.518  -1.254  0.00  0.00     0.076 C 
ATOM      6  C7  UNL d   1       1.410   0.997  -0.730  0.00  0.00     0.002 A 
ATOM      7  C8  UNL d   1       0.138   1.229  -0.202  0.00  0.00     0.006 A 
ENDROOT
BRANCH   1   8
ATOM      8  C1  UNL d   1      -1.949   0.444   0.979  0.00  0.00     0.054 C 
ATOM      9  C   UNL d   1      -1.807   1.206   2.288  0.00  0.00     0.018 C 
ENDBRANCH   1   8
TORSDOF 1
ENDMDL
