MODEL 1
REMARK minimizedAffinity -3.14814234
REMARK minimizedRMSD -1
REMARK  1 active torsions:
REMARK  status: ('A' for Active; 'I' for Inactive)
REMARK    1  A    between atoms: C1_2  and  C2_3 
ROOT
ATOM      1  C2  UNL d   1      -0.359   0.137  -0.140  0.00  0.00    -0.081 A 
ATOM      2  C3  UNL d   1       0.260  -1.119  -0.189  0.00  0.00     0.006 A 
ATOM      3  C4  UNL d   1       1.613  -1.229  -0.519  0.00  0.00     0.002 A 
ATOM      4  C5  UNL d   1       2.371  -0.087  -0.798  0.00  0.00    -0.080 A 
ATOM      5  C6  UNL d   1       3.831  -0.190  -1.124  0.00  0.00     0.076 C 
ATOM      6  C7  UNL d   1       1.749   1.165  -0.766  0.00  0.00     0.002 A 
ATOM      7  C8  UNL d   1       0.396   1.277  -0.437  0.00  0.00     0.006 A 
ENDROOT
BRANCH   1   8
ATOM      8  C1  UNL d   1      -1.801   0.265   0.278  0.00  0.00     0.054 C 
ATOM      9  C   UNL d   1      -1.931   0.371   1.791  0.00  0.00     0.018 C 
ENDBRANCH   1   8
TORSDOF 1
ENDMDL
