MODEL 1
REMARK minimizedAffinity -2.65767956
REMARK minimizedRMSD -1
REMARK  1 active torsions:
REMARK  status: ('A' for Active; 'I' for Inactive)
REMARK    1  A    between atoms: C1_2  and  C2_3 
ROOT
ATOM      1  C2  UNL d   1      -0.689   0.152   0.307  0.00  0.00    -0.081 A 
ATOM      2  C3  UNL d   1      -0.246  -1.177   0.283  0.00  0.00     0.006 A 
ATOM      3  C4  UNL d   1       1.060  -1.481  -0.110  0.00  0.00     0.002 A 
ATOM      4  C5  UNL d   1       1.946  -0.463  -0.477  0.00  0.00    -0.080 A 
ATOM      5  C6  UNL d   1       3.359  -0.773  -0.871  0.00  0.00     0.076 C 
ATOM      6  C7  UNL d   1       1.499   0.863  -0.470  0.00  0.00     0.002 A 
ATOM      7  C8  UNL d   1       0.193   1.168  -0.078  0.00  0.00     0.006 A 
ENDROOT
BRANCH   1   8
ATOM      8  C1  UNL d   1      -2.076   0.489   0.791  0.00  0.00     0.054 C 
ATOM      9  C   UNL d   1      -2.070   0.864   2.266  0.00  0.00     0.018 C 
ENDBRANCH   1   8
TORSDOF 1
ENDMDL
