MODEL 1
REMARK minimizedAffinity -6.44490051
REMARK minimizedRMSD -1
REMARK  1 active torsions:
REMARK  status: ('A' for Active; 'I' for Inactive)
REMARK    1  A    between atoms: C1_2  and  C2_3 
ROOT
ATOM      1  C2  UNL d   1      -0.825   0.514   0.323  0.00  0.00    -0.081 A 
ATOM      2  C3  UNL d   1      -0.463  -0.839   0.346  0.00  0.00     0.006 A 
ATOM      3  C4  UNL d   1       0.788  -1.245  -0.123  0.00  0.00     0.002 A 
ATOM      4  C5  UNL d   1       1.700  -0.306  -0.616  0.00  0.00    -0.080 A 
ATOM      5  C6  UNL d   1       3.059  -0.725  -1.095  0.00  0.00     0.076 C 
ATOM      6  C7  UNL d   1       1.332   1.043  -0.656  0.00  0.00     0.002 A 
ATOM      7  C8  UNL d   1       0.081   1.450  -0.187  0.00  0.00     0.006 A 
ENDROOT
BRANCH   1   8
ATOM      8  C1  UNL d   1      -2.149   0.963   0.888  0.00  0.00     0.054 C 
ATOM      9  C   UNL d   1      -2.156   0.885   2.408  0.00  0.00     0.018 C 
ENDBRANCH   1   8
TORSDOF 1
ENDMDL
