MODEL 1
REMARK minimizedAffinity -4.0336051
REMARK minimizedRMSD -1
REMARK  1 active torsions:
REMARK  status: ('A' for Active; 'I' for Inactive)
REMARK    1  A    between atoms: C1_2  and  C2_3 
ROOT
ATOM      1  C2  UNL d   1      -1.056   0.133   0.960  0.00  0.00    -0.081 A 
ATOM      2  C3  UNL d   1      -0.370  -1.080   1.100  0.00  0.00     0.006 A 
ATOM      3  C4  UNL d   1       0.700  -1.389   0.257  0.00  0.00     0.002 A 
ATOM      4  C5  UNL d   1       1.106  -0.489  -0.734  0.00  0.00    -0.080 A 
ATOM      5  C6  UNL d   1       2.272  -0.796  -1.626  0.00  0.00     0.076 C 
ATOM      6  C7  UNL d   1       0.410   0.715  -0.885  0.00  0.00     0.002 A 
ATOM      7  C8  UNL d   1      -0.661   1.025  -0.043  0.00  0.00     0.006 A 
ENDROOT
BRANCH   1   8
ATOM      8  C1  UNL d   1      -2.169   0.498   1.910  0.00  0.00     0.054 C 
ATOM      9  C   UNL d   1      -1.717   1.549   2.914  0.00  0.00     0.018 C 
ENDBRANCH   1   8
TORSDOF 1
ENDMDL
