MODEL 1
REMARK minimizedAffinity -4.16902447
REMARK minimizedRMSD -1
REMARK  1 active torsions:
REMARK  status: ('A' for Active; 'I' for Inactive)
REMARK    1  A    between atoms: C1_2  and  C2_3 
ROOT
ATOM      1  C2  UNL d   1      -0.559   0.354   0.516  0.00  0.00    -0.081 A 
ATOM      2  C3  UNL d   1      -0.227  -1.006   0.567  0.00  0.00     0.006 A 
ATOM      3  C4  UNL d   1       1.009  -1.451   0.094  0.00  0.00     0.002 A 
ATOM      4  C5  UNL d   1       1.937  -0.545  -0.431  0.00  0.00    -0.080 A 
ATOM      5  C6  UNL d   1       3.280  -1.006  -0.914  0.00  0.00     0.076 C 
ATOM      6  C7  UNL d   1       1.599   0.811  -0.498  0.00  0.00     0.002 A 
ATOM      7  C8  UNL d   1       0.363   1.257  -0.026  0.00  0.00     0.006 A 
ENDROOT
BRANCH   1   8
ATOM      8  C1  UNL d   1      -1.865   0.846   1.085  0.00  0.00     0.054 C 
ATOM      9  C   UNL d   1      -1.713   1.259   2.542  0.00  0.00     0.018 C 
ENDBRANCH   1   8
TORSDOF 1
ENDMDL
