MODEL 1
REMARK minimizedAffinity -1.85346949
REMARK minimizedRMSD -1
REMARK  1 active torsions:
REMARK  status: ('A' for Active; 'I' for Inactive)
REMARK    1  A    between atoms: C1_2  and  C2_3 
ROOT
ATOM      1  C2  UNL d   1      -0.548  -0.064   0.314  0.00  0.00    -0.081 A 
ATOM      2  C3  UNL d   1      -0.068  -1.353   0.051  0.00  0.00     0.006 A 
ATOM      3  C4  UNL d   1       1.206  -1.537  -0.492  0.00  0.00     0.002 A 
ATOM      4  C5  UNL d   1       2.023  -0.437  -0.773  0.00  0.00    -0.080 A 
ATOM      5  C6  UNL d   1       3.404  -0.621  -1.328  0.00  0.00     0.076 C 
ATOM      6  C7  UNL d   1       1.537   0.852  -0.527  0.00  0.00     0.002 A 
ATOM      7  C8  UNL d   1       0.263   1.036   0.016  0.00  0.00     0.006 A 
ENDROOT
BRANCH   1   8
ATOM      8  C1  UNL d   1      -1.896   0.135   0.960  0.00  0.00     0.054 C 
ATOM      9  C   UNL d   1      -1.755   0.544   2.419  0.00  0.00     0.018 C 
ENDBRANCH   1   8
TORSDOF 1
ENDMDL
