MODEL 1
REMARK minimizedAffinity -5.37098074
REMARK minimizedRMSD -1
REMARK  1 active torsions:
REMARK  status: ('A' for Active; 'I' for Inactive)
REMARK    1  A    between atoms: C1_2  and  C2_3 
ROOT
ATOM      1  C2  UNL d   1      -0.722   0.116   0.404  0.00  0.00    -0.081 A 
ATOM      2  C3  UNL d   1      -0.207  -1.182   0.293  0.00  0.00     0.006 A 
ATOM      3  C4  UNL d   1       1.027  -1.404  -0.323  0.00  0.00     0.002 A 
ATOM      4  C5  UNL d   1       1.770  -0.332  -0.830  0.00  0.00    -0.080 A 
ATOM      5  C6  UNL d   1       3.110  -0.554  -1.466  0.00  0.00     0.076 C 
ATOM      6  C7  UNL d   1       1.248   0.962  -0.734  0.00  0.00     0.002 A 
ATOM      7  C8  UNL d   1       0.014   1.185  -0.119  0.00  0.00     0.006 A 
ENDROOT
BRANCH   1   8
ATOM      8  C1  UNL d   1      -2.022   0.366   1.125  0.00  0.00     0.054 C 
ATOM      9  C   UNL d   1      -1.790   1.065   2.457  0.00  0.00     0.018 C 
ENDBRANCH   1   8
TORSDOF 1
ENDMDL
