MODEL 1
REMARK minimizedAffinity -4.70223427
REMARK minimizedRMSD -1
REMARK  1 active torsions:
REMARK  status: ('A' for Active; 'I' for Inactive)
REMARK    1  A    between atoms: C1_2  and  C2_3 
ROOT
ATOM      1  C2  UNL d   1      -0.493  -0.030   0.043  0.00  0.00    -0.081 A 
ATOM      2  C3  UNL d   1       0.108  -1.282   0.224  0.00  0.00     0.006 A 
ATOM      3  C4  UNL d   1       1.408  -1.515  -0.229  0.00  0.00     0.002 A 
ATOM      4  C5  UNL d   1       2.133  -0.500  -0.862  0.00  0.00    -0.080 A 
ATOM      5  C6  UNL d   1       3.541  -0.729  -1.325  0.00  0.00     0.076 C 
ATOM      6  C7  UNL d   1       1.527   0.745  -1.059  0.00  0.00     0.002 A 
ATOM      7  C8  UNL d   1       0.226   0.980  -0.607  0.00  0.00     0.006 A 
ENDROOT
BRANCH   1   8
ATOM      8  C1  UNL d   1      -1.871   0.246   0.587  0.00  0.00     0.054 C 
ATOM      9  C   UNL d   1      -1.809   0.759   2.018  0.00  0.00     0.018 C 
ENDBRANCH   1   8
TORSDOF 1
ENDMDL
