MODEL 1
REMARK minimizedAffinity -3.21350741
REMARK minimizedRMSD -1
REMARK  1 active torsions:
REMARK  status: ('A' for Active; 'I' for Inactive)
REMARK    1  A    between atoms: C1_2  and  C2_3 
ROOT
ATOM      1  C2  UNL d   1      -0.903  -0.345   0.469  0.00  0.00    -0.081 A 
ATOM      2  C3  UNL d   1      -0.133  -1.495   0.682  0.00  0.00     0.006 A 
ATOM      3  C4  UNL d   1       1.121  -1.629   0.081  0.00  0.00     0.002 A 
ATOM      4  C5  UNL d   1       1.629  -0.614  -0.736  0.00  0.00    -0.080 A 
ATOM      5  C6  UNL d   1       2.986  -0.732  -1.363  0.00  0.00     0.076 C 
ATOM      6  C7  UNL d   1       0.853   0.528  -0.962  0.00  0.00     0.002 A 
ATOM      7  C8  UNL d   1      -0.401   0.662  -0.362  0.00  0.00     0.006 A 
ENDROOT
BRANCH   1   8
ATOM      8  C1  UNL d   1      -2.227  -0.169   1.168  0.00  0.00     0.054 C 
ATOM      9  C   UNL d   1      -2.066   0.599   2.472  0.00  0.00     0.018 C 
ENDBRANCH   1   8
TORSDOF 1
ENDMDL
