MODEL 1
REMARK minimizedAffinity -4.50000334
REMARK minimizedRMSD -1
REMARK  1 active torsions:
REMARK  status: ('A' for Active; 'I' for Inactive)
REMARK    1  A    between atoms: C1_2  and  C2_3 
ROOT
ATOM      1  C2  UNL d   1      -0.500   0.103   0.403  0.00  0.00    -0.081 A 
ATOM      2  C3  UNL d   1       0.230   1.042  -0.335  0.00  0.00     0.006 A 
ATOM      3  C4  UNL d   1       1.458   0.697  -0.904  0.00  0.00     0.002 A 
ATOM      4  C5  UNL d   1       1.973  -0.595  -0.751  0.00  0.00    -0.080 A 
ATOM      5  C6  UNL d   1       3.276  -0.988  -1.382  0.00  0.00     0.076 C 
ATOM      6  C7  UNL d   1       1.252  -1.529   0.002  0.00  0.00     0.002 A 
ATOM      7  C8  UNL d   1       0.024  -1.183   0.571  0.00  0.00     0.006 A 
ENDROOT
BRANCH   1   8
ATOM      8  C1  UNL d   1      -1.855   0.453   0.963  0.00  0.00     0.054 C 
ATOM      9  C   UNL d   1      -1.749   0.955   2.396  0.00  0.00     0.018 C 
ENDBRANCH   1   8
TORSDOF 1
ENDMDL
