MODEL 1
REMARK minimizedAffinity 5.61523247
REMARK minimizedRMSD -1
REMARK  0 active torsions:
REMARK  status: ('A' for Active; 'I' for Inactive)
ROOT
ATOM      1  C   UNL d   1       1.214  -2.992  -0.538  0.00  0.00    -0.002 A 
ATOM      2  C1  UNL d   1       0.377  -4.089  -0.393  0.00  0.00     0.010 A 
ATOM      3  C2  UNL d   1      -0.533  -4.426  -1.396  0.00  0.00     0.041 A 
ATOM      4  C3  UNL d   1      -0.587  -3.634  -2.561  0.00  0.00    -0.075 A 
ATOM      5  S   UNL d   1      -1.622  -3.857  -3.921  0.00  0.00     0.015 SA
ATOM      6  C4  UNL d   1      -0.977  -2.502  -4.728  0.00  0.00     0.022 A 
ATOM      7  C5  UNL d   1       0.005  -1.882  -3.992  0.00  0.00     0.026 A 
ATOM      8  C6  UNL d   1       0.246  -2.525  -2.730  0.00  0.00    -0.082 A 
ATOM      9  C7  UNL d   1       1.158  -2.209  -1.694  0.00  0.00     0.045 A 
ENDROOT
TORSDOF 0
ENDMDL
