MODEL 1
REMARK minimizedAffinity -1.86702561
REMARK minimizedRMSD -1
REMARK  0 active torsions:
REMARK  status: ('A' for Active; 'I' for Inactive)
ROOT
ATOM      1  C   UNL d   1      -3.003  -0.203  -5.991  0.00  0.00    -0.002 A 
ATOM      2  C1  UNL d   1      -4.344  -0.557  -5.990  0.00  0.00     0.010 A 
ATOM      3  C2  UNL d   1      -5.338   0.424  -5.988  0.00  0.00     0.041 A 
ATOM      4  C3  UNL d   1      -4.957   1.780  -5.989  0.00  0.00    -0.075 A 
ATOM      5  S   UNL d   1      -6.000   3.153  -5.987  0.00  0.00     0.015 SA
ATOM      6  C4  UNL d   1      -4.689   4.242  -5.989  0.00  0.00     0.022 A 
ATOM      7  C5  UNL d   1      -3.478   3.591  -5.990  0.00  0.00     0.026 A 
ATOM      8  C6  UNL d   1      -3.612   2.162  -5.991  0.00  0.00    -0.082 A 
ATOM      9  C7  UNL d   1      -2.628   1.144  -5.992  0.00  0.00     0.045 A 
ENDROOT
TORSDOF 0
ENDMDL
