MODEL 1
REMARK minimizedAffinity 10.1042595
REMARK minimizedRMSD -1
REMARK  0 active torsions:
REMARK  status: ('A' for Active; 'I' for Inactive)
ROOT
ATOM      1  C   UNL d   1      -5.195   2.529  -1.581  0.00  0.00    -0.002 A 
ATOM      2  C1  UNL d   1      -3.814   2.647  -1.651  0.00  0.00     0.010 A 
ATOM      3  C2  UNL d   1      -3.201   3.141  -2.805  0.00  0.00     0.041 A 
ATOM      4  C3  UNL d   1      -4.008   3.519  -3.897  0.00  0.00    -0.075 A 
ATOM      5  S   UNL d   1      -3.478   4.150  -5.411  0.00  0.00     0.015 SA
ATOM      6  C4  UNL d   1      -5.073   4.278  -6.000  0.00  0.00     0.022 A 
ATOM      7  C5  UNL d   1      -5.999   3.854  -5.076  0.00  0.00     0.026 A 
ATOM      8  C6  UNL d   1      -5.401   3.410  -3.849  0.00  0.00    -0.082 A 
ATOM      9  C7  UNL d   1      -5.991   2.905  -2.665  0.00  0.00     0.045 A 
ENDROOT
TORSDOF 0
ENDMDL
