MODEL 1
REMARK minimizedAffinity 28.1121311
REMARK minimizedRMSD -1
REMARK  0 active torsions:
REMARK  status: ('A' for Active; 'I' for Inactive)
ROOT
ATOM      1  C   UNL d   1       4.752   4.559   2.532  0.00  0.00     0.124 A 
ATOM      2  C1  UNL d   1       4.010   4.149   1.433  0.00  0.00     0.062 A 
ATOM      3  C2  UNL d   1       3.354   2.921   1.450  0.00  0.00     0.162 A 
ATOM      4  C3  UNL d   1       3.436   2.095   2.571  0.00  0.00    -0.034 A 
ATOM      5  C4  UNL d   1       4.186   2.513   3.672  0.00  0.00     0.162 A 
ATOM      6  C5  UNL d   1       4.840   3.741   3.650  0.00  0.00     0.062 A 
ATOM      7  F   UNL d   1       5.556   4.135   4.713  0.00  0.00    -0.097 F 
ATOM      8  F1  UNL d   1       4.286   1.743   4.765  0.00  0.00    -0.096 F 
ATOM      9  I   UNL d   1       2.457   0.259   2.600  0.00  0.00    -0.060 I 
ATOM     10  F2  UNL d   1       2.644   2.551   0.374  0.00  0.00    -0.096 F 
ATOM     11  F3  UNL d   1       3.925   4.937   0.352  0.00  0.00    -0.097 F 
ATOM     12  F4  UNL d   1       5.383   5.740   2.513  0.00  0.00    -0.092 F 
ENDROOT
TORSDOF 0
ENDMDL
