MODEL 1
REMARK minimizedAffinity 27.6757107
REMARK minimizedRMSD -1
REMARK  0 active torsions:
REMARK  status: ('A' for Active; 'I' for Inactive)
ROOT
ATOM      1  C   UNL d   1      -1.327  -1.835   2.781  0.00  0.00     0.124 A 
ATOM      2  C1  UNL d   1      -2.500  -1.191   2.411  0.00  0.00     0.062 A 
ATOM      3  C2  UNL d   1      -2.490   0.172   2.128  0.00  0.00     0.162 A 
ATOM      4  C3  UNL d   1      -1.304   0.900   2.213  0.00  0.00    -0.034 A 
ATOM      5  C4  UNL d   1      -0.129   0.245   2.588  0.00  0.00     0.162 A 
ATOM      6  C5  UNL d   1      -0.143  -1.117   2.869  0.00  0.00     0.062 A 
ATOM      7  F   UNL d   1       0.990  -1.737   3.227  0.00  0.00    -0.097 F 
ATOM      8  F1  UNL d   1       1.030   0.915   2.680  0.00  0.00    -0.096 F 
ATOM      9  I   UNL d   1      -1.285   2.938   1.791  0.00  0.00    -0.060 I 
ATOM     10  F2  UNL d   1      -3.638   0.768   1.772  0.00  0.00    -0.096 F 
ATOM     11  F3  UNL d   1      -3.645  -1.883   2.325  0.00  0.00    -0.097 F 
ATOM     12  F4  UNL d   1      -1.339  -3.146   3.054  0.00  0.00    -0.092 F 
ENDROOT
TORSDOF 0
ENDMDL
