MODEL 1
REMARK minimizedAffinity 21.0239735
REMARK minimizedRMSD -1
REMARK  0 active torsions:
REMARK  status: ('A' for Active; 'I' for Inactive)
ROOT
ATOM      1  C   UNL d   1       2.420  -2.989  -5.512  0.00  0.00     0.124 A 
ATOM      2  C1  UNL d   1       1.943  -4.292  -5.484  0.00  0.00     0.062 A 
ATOM      3  C2  UNL d   1       0.581  -4.541  -5.622  0.00  0.00     0.162 A 
ATOM      4  C3  UNL d   1      -0.314  -3.485  -5.792  0.00  0.00    -0.034 A 
ATOM      5  C4  UNL d   1       0.173  -2.177  -5.818  0.00  0.00     0.162 A 
ATOM      6  C5  UNL d   1       1.535  -1.933  -5.679  0.00  0.00     0.062 A 
ATOM      7  F   UNL d   1       1.995  -0.673  -5.706  0.00  0.00    -0.097 F 
ATOM      8  F1  UNL d   1      -0.660  -1.138  -5.979  0.00  0.00    -0.096 F 
ATOM      9  I   UNL d   1      -2.352  -3.854  -5.999  0.00  0.00    -0.060 I 
ATOM     10  F2  UNL d   1       0.148  -5.810  -5.591  0.00  0.00    -0.096 F 
ATOM     11  F3  UNL d   1       2.796  -5.313  -5.321  0.00  0.00    -0.097 F 
ATOM     12  F4  UNL d   1       3.732  -2.751  -5.377  0.00  0.00    -0.092 F 
ENDROOT
TORSDOF 0
ENDMDL
