MODEL 1
REMARK minimizedAffinity 26.3503895
REMARK minimizedRMSD -1
REMARK  0 active torsions:
REMARK  status: ('A' for Active; 'I' for Inactive)
ROOT
ATOM      1  C   UNL d   1      -0.097  -0.847  -2.523  0.00  0.00     0.124 A 
ATOM      2  C1  UNL d   1      -0.761  -1.903  -1.914  0.00  0.00     0.062 A 
ATOM      3  C2  UNL d   1      -1.256  -2.954  -2.681  0.00  0.00     0.162 A 
ATOM      4  C3  UNL d   1      -1.088  -2.954  -4.066  0.00  0.00    -0.034 A 
ATOM      5  C4  UNL d   1      -0.420  -1.888  -4.671  0.00  0.00     0.162 A 
ATOM      6  C5  UNL d   1       0.073  -0.840  -3.900  0.00  0.00     0.062 A 
ATOM      7  F   UNL d   1       0.713   0.179  -4.489  0.00  0.00    -0.097 F 
ATOM      8  F1  UNL d   1      -0.241  -1.857  -6.000  0.00  0.00    -0.096 F 
ATOM      9  I   UNL d   1      -1.826  -4.524  -5.216  0.00  0.00    -0.060 I 
ATOM     10  F2  UNL d   1      -1.893  -3.962  -2.066  0.00  0.00    -0.096 F 
ATOM     11  F3  UNL d   1      -0.927  -1.911  -0.584  0.00  0.00    -0.097 F 
ATOM     12  F4  UNL d   1       0.377   0.164  -1.782  0.00  0.00    -0.092 F 
ENDROOT
TORSDOF 0
ENDMDL
