MODEL 1
REMARK minimizedAffinity -4.21841145
REMARK minimizedRMSD -1
REMARK  0 active torsions:
REMARK  status: ('A' for Active; 'I' for Inactive)
ROOT
ATOM      1  C4' PXY d   1      -2.887  -0.482  -0.443  0.00  0.00     0.077 C 
ATOM      2  C1' PXY d   1       2.046   0.914   2.227  0.00  0.00     0.077 C 
ATOM      3  C1  PXY d   1       0.759   0.547   1.515  0.00  0.00    -0.082 A 
ATOM      4  C2  PXY d   1      -0.402   0.908   2.037  0.00  0.00     0.003 A 
ATOM      5  C3  PXY d   1      -1.577   0.557   1.423  0.00  0.00     0.003 A 
ATOM      6  C4  PXY d   1      -1.562  -0.125   0.236  0.00  0.00    -0.082 A 
ATOM      7  C5  PXY d   1      -0.381  -0.487  -0.308  0.00  0.00     0.003 A 
ATOM      8  C6  PXY d   1       0.800  -0.157   0.352  0.00  0.00     0.003 A 
ENDROOT
TORSDOF 0
ENDMDL
