MODEL 1
REMARK minimizedAffinity -2.61723423
REMARK minimizedRMSD -1
REMARK  0 active torsions:
REMARK  status: ('A' for Active; 'I' for Inactive)
ROOT
ATOM      1  C4' PXY d   1      -3.356   0.743   0.502  0.00  0.00     0.077 C 
ATOM      2  C1' PXY d   1       2.247  -0.621   0.903  0.00  0.00     0.077 C 
ATOM      3  C1  PXY d   1       0.778  -0.260   0.811  0.00  0.00    -0.082 A 
ATOM      4  C2  PXY d   1       0.037  -0.776  -0.157  0.00  0.00     0.003 A 
ATOM      5  C3  PXY d   1      -1.286  -0.436  -0.274  0.00  0.00     0.003 A 
ATOM      6  C4  PXY d   1      -1.870   0.400   0.640  0.00  0.00    -0.082 A 
ATOM      7  C5  PXY d   1      -1.124   0.922   1.636  0.00  0.00     0.003 A 
ATOM      8  C6  PXY d   1       0.227   0.596   1.713  0.00  0.00     0.003 A 
ENDROOT
TORSDOF 0
ENDMDL
