MODEL 1
REMARK minimizedAffinity -4.14356899
REMARK minimizedRMSD -1
REMARK  0 active torsions:
REMARK  status: ('A' for Active; 'I' for Inactive)
ROOT
ATOM      1  C4' PXY d   1       0.328  -1.017  -2.220  0.00  0.00     0.077 C 
ATOM      2  C1' PXY d   1      -1.099   1.155   2.944  0.00  0.00     0.077 C 
ATOM      3  C1  PXY d   1      -0.713   0.589   1.591  0.00  0.00    -0.082 A 
ATOM      4  C2  PXY d   1      -1.645   0.399   0.671  0.00  0.00     0.003 A 
ATOM      5  C3  PXY d   1      -1.318  -0.141  -0.546  0.00  0.00     0.003 A 
ATOM      6  C4  PXY d   1      -0.015  -0.440  -0.844  0.00  0.00    -0.082 A 
ATOM      7  C5  PXY d   1       0.943  -0.238   0.085  0.00  0.00     0.003 A 
ATOM      8  C6  PXY d   1       0.584   0.272   1.330  0.00  0.00     0.003 A 
ENDROOT
TORSDOF 0
ENDMDL
