MODEL 1
REMARK minimizedAffinity -5.28846788
REMARK minimizedRMSD -1
REMARK  0 active torsions:
REMARK  status: ('A' for Active; 'I' for Inactive)
ROOT
ATOM      1  C4' PXY d   1       0.472  -0.699  -2.031  0.00  0.00     0.077 C 
ATOM      2  C1' PXY d   1      -1.210   1.570   3.013  0.00  0.00     0.077 C 
ATOM      3  C1  PXY d   1      -0.779   0.968   1.690  0.00  0.00    -0.082 A 
ATOM      4  C2  PXY d   1       0.501   0.968   1.356  0.00  0.00     0.003 A 
ATOM      5  C3  PXY d   1       0.904   0.456   0.150  0.00  0.00     0.003 A 
ATOM      6  C4  PXY d   1      -0.007  -0.110  -0.701  0.00  0.00    -0.082 A 
ATOM      7  C5  PXY d   1      -1.314  -0.124  -0.364  0.00  0.00     0.003 A 
ATOM      8  C6  PXY d   1      -1.707   0.438   0.847  0.00  0.00     0.003 A 
ENDROOT
TORSDOF 0
ENDMDL
