MODEL 1
REMARK minimizedAffinity -4.29057932
REMARK minimizedRMSD -1
REMARK  0 active torsions:
REMARK  status: ('A' for Active; 'I' for Inactive)
ROOT
ATOM      1  C4' PXY d   1      -1.139   1.537   2.997  0.00  0.00     0.077 C 
ATOM      2  C1' PXY d   1       0.463  -0.926  -1.982  0.00  0.00     0.077 C 
ATOM      3  C1  PXY d   1       0.032  -0.276  -0.682  0.00  0.00    -0.082 A 
ATOM      4  C2  PXY d   1       0.945   0.069   0.211  0.00  0.00     0.003 A 
ATOM      5  C3  PXY d   1       0.571   0.629   1.406  0.00  0.00     0.003 A 
ATOM      6  C4  PXY d   1      -0.749   0.886   1.666  0.00  0.00    -0.082 A 
ATOM      7  C5  PXY d   1      -1.685   0.547   0.756  0.00  0.00     0.003 A 
ATOM      8  C6  PXY d   1      -1.288  -0.058  -0.433  0.00  0.00     0.003 A 
ENDROOT
TORSDOF 0
ENDMDL
