MODEL 1
REMARK minimizedAffinity -1.16502666
REMARK minimizedRMSD -1
REMARK  0 active torsions:
REMARK  status: ('A' for Active; 'I' for Inactive)
ROOT
ATOM      1  C4' PXY d   1      -0.936  -0.207   2.776  0.00  0.00     0.077 C 
ATOM      2  C1' PXY d   1       0.756  -0.073  -2.750  0.00  0.00     0.077 C 
ATOM      3  C1  PXY d   1       0.325  -0.108  -1.297  0.00  0.00    -0.082 A 
ATOM      4  C2  PXY d   1      -0.880  -0.555  -0.983  0.00  0.00     0.003 A 
ATOM      5  C3  PXY d   1      -1.298  -0.564   0.323  0.00  0.00     0.003 A 
ATOM      6  C4  PXY d   1      -0.454  -0.162   1.323  0.00  0.00    -0.082 A 
ATOM      7  C5  PXY d   1       0.781   0.285   1.012  0.00  0.00     0.003 A 
ATOM      8  C6  PXY d   1       1.171   0.325  -0.324  0.00  0.00     0.003 A 
ENDROOT
TORSDOF 0
ENDMDL
