MODEL 1
REMARK minimizedAffinity -3.03376055
REMARK minimizedRMSD -1
REMARK  0 active torsions:
REMARK  status: ('A' for Active; 'I' for Inactive)
ROOT
ATOM      1  C4' PXY d   1       0.273  -0.833  -2.507  0.00  0.00     0.077 C 
ATOM      2  C1' PXY d   1      -1.669   0.456   2.783  0.00  0.00     0.077 C 
ATOM      3  C1  PXY d   1      -1.148   0.123   1.399  0.00  0.00    -0.082 A 
ATOM      4  C2  PXY d   1      -1.995   0.023   0.387  0.00  0.00     0.003 A 
ATOM      5  C3  PXY d   1      -1.545  -0.310  -0.865  0.00  0.00     0.003 A 
ATOM      6  C4  PXY d   1      -0.207  -0.489  -1.094  0.00  0.00    -0.082 A 
ATOM      7  C5  PXY d   1       0.665  -0.379  -0.070  0.00  0.00     0.003 A 
ATOM      8  C6  PXY d   1       0.183  -0.081   1.202  0.00  0.00     0.003 A 
ENDROOT
TORSDOF 0
ENDMDL
