MODEL 1
REMARK minimizedAffinity 0.0777285323
REMARK minimizedRMSD -1
REMARK  0 active torsions:
REMARK  status: ('A' for Active; 'I' for Inactive)
ROOT
ATOM      1  C4' PXY d   1       1.100  -0.773  -1.906  0.00  0.00     0.077 C 
ATOM      2  C1' PXY d   1      -1.441   0.795   3.044  0.00  0.00     0.077 C 
ATOM      3  C1  PXY d   1      -0.763   0.387   1.751  0.00  0.00    -0.082 A 
ATOM      4  C2  PXY d   1      -1.452   0.391   0.621  0.00  0.00     0.003 A 
ATOM      5  C3  PXY d   1      -0.863  -0.005  -0.552  0.00  0.00     0.003 A 
ATOM      6  C4  PXY d   1       0.459  -0.360  -0.578  0.00  0.00    -0.082 A 
ATOM      7  C5  PXY d   1       1.172  -0.357   0.568  0.00  0.00     0.003 A 
ATOM      8  C6  PXY d   1       0.544   0.010   1.755  0.00  0.00     0.003 A 
ENDROOT
TORSDOF 0
ENDMDL
