MODEL 1
REMARK minimizedAffinity -3.00640726
REMARK minimizedRMSD -1
REMARK  1 active torsions:
REMARK  status: ('A' for Active; 'I' for Inactive)
REMARK    1  A    between atoms: C1_2  and  C2_3 
ROOT
ATOM      1  C2  UNL d   1       0.567   0.823  -0.166  0.00  0.00    -0.076 A 
ATOM      2  C3  UNL d   1       0.804   0.378   1.146  0.00  0.00     0.004 A 
ATOM      3  C4  UNL d   1       0.753   1.261   2.224  0.00  0.00    -0.003 A 
ATOM      4  C5  UNL d   1       0.464   2.604   2.007  0.00  0.00     0.000 A 
ATOM      5  C6  UNL d   1       0.209   3.059   0.714  0.00  0.00     0.000 A 
ATOM      6  C7  UNL d   1       0.240   2.179  -0.382  0.00  0.00    -0.073 A 
ATOM      7  C8  UNL d   1      -0.036   2.726  -1.755  0.00  0.00     0.078 C 
ENDROOT
BRANCH   1   8
ATOM      8  C1  UNL d   1       0.663  -0.175  -1.298  0.00  0.00     0.053 C 
ATOM      9  C   UNL d   1      -0.091  -1.462  -1.004  0.00  0.00     0.018 C 
ENDBRANCH   1   8
TORSDOF 1
ENDMDL
