MODEL 1
REMARK minimizedAffinity -4.97545481
REMARK minimizedRMSD -1
REMARK  1 active torsions:
REMARK  status: ('A' for Active; 'I' for Inactive)
REMARK    1  A    between atoms: C1_2  and  C2_3 
ROOT
ATOM      1  C2  UNL d   1      -0.356   0.492   0.614  0.00  0.00    -0.076 A 
ATOM      2  C3  UNL d   1      -0.869   1.395  -0.332  0.00  0.00     0.004 A 
ATOM      3  C4  UNL d   1      -1.001   2.750  -0.033  0.00  0.00    -0.003 A 
ATOM      4  C5  UNL d   1      -0.621   3.224   1.218  0.00  0.00     0.000 A 
ATOM      5  C6  UNL d   1      -0.093   2.345   2.163  0.00  0.00     0.000 A 
ATOM      6  C7  UNL d   1       0.062   0.979   1.872  0.00  0.00    -0.073 A 
ATOM      7  C8  UNL d   1       0.630   0.075   2.931  0.00  0.00     0.078 C 
ENDROOT
BRANCH   1   8
ATOM      8  C1  UNL d   1      -0.261  -0.971   0.243  0.00  0.00     0.053 C 
ATOM      9  C   UNL d   1       0.830  -1.243  -0.781  0.00  0.00     0.018 C 
ENDBRANCH   1   8
TORSDOF 1
ENDMDL
