MODEL 1
REMARK minimizedAffinity -0.341268718
REMARK minimizedRMSD -1
REMARK  1 active torsions:
REMARK  status: ('A' for Active; 'I' for Inactive)
REMARK    1  A    between atoms: C1_2  and  C2_3 
ROOT
ATOM      1  C2  UNL d   1      -0.346  -1.006  -0.539  0.00  0.00    -0.076 A 
ATOM      2  C3  UNL d   1      -0.512  -1.364   0.810  0.00  0.00     0.004 A 
ATOM      3  C4  UNL d   1      -0.032  -0.548   1.833  0.00  0.00    -0.003 A 
ATOM      4  C5  UNL d   1       0.620   0.641   1.523  0.00  0.00     0.000 A 
ATOM      5  C6  UNL d   1       0.777   1.020   0.191  0.00  0.00     0.000 A 
ATOM      6  C7  UNL d   1       0.285   0.217  -0.852  0.00  0.00    -0.073 A 
ATOM      7  C8  UNL d   1       0.488   0.672  -2.271  0.00  0.00     0.078 C 
ENDROOT
BRANCH   1   8
ATOM      8  C1  UNL d   1      -0.863  -1.944  -1.606  0.00  0.00     0.053 C 
ATOM      9  C   UNL d   1      -0.715  -3.407  -1.218  0.00  0.00     0.018 C 
ENDBRANCH   1   8
TORSDOF 1
ENDMDL
