MODEL 1
REMARK minimizedAffinity -1.65333486
REMARK minimizedRMSD -1
REMARK  1 active torsions:
REMARK  status: ('A' for Active; 'I' for Inactive)
REMARK    1  A    between atoms: C1_2  and  C2_3 
ROOT
ATOM      1  C2  UNL d   1      -0.414   0.485   0.891  0.00  0.00    -0.076 A 
ATOM      2  C3  UNL d   1      -1.689   1.017   1.149  0.00  0.00     0.004 A 
ATOM      3  C4  UNL d   1      -2.605   1.217   0.118  0.00  0.00    -0.003 A 
ATOM      4  C5  UNL d   1      -2.261   0.887  -1.188  0.00  0.00     0.000 A 
ATOM      5  C6  UNL d   1      -1.007   0.341  -1.460  0.00  0.00     0.000 A 
ATOM      6  C7  UNL d   1      -0.078   0.118  -0.429  0.00  0.00    -0.073 A 
ATOM      7  C8  UNL d   1       1.262  -0.468  -0.780  0.00  0.00     0.078 C 
ENDROOT
BRANCH   1   8
ATOM      8  C1  UNL d   1       0.547   0.316   2.046  0.00  0.00     0.053 C 
ATOM      9  C   UNL d   1       0.729   1.597   2.845  0.00  0.00     0.018 C 
ENDBRANCH   1   8
TORSDOF 1
ENDMDL
