MODEL 1
REMARK minimizedAffinity 3.7299397
REMARK minimizedRMSD -1
REMARK  1 active torsions:
REMARK  status: ('A' for Active; 'I' for Inactive)
REMARK    1  A    between atoms: C1_2  and  C2_3 
ROOT
ATOM      1  C2  UNL d   1       1.912   2.679   2.259  0.00  0.00    -0.081 A 
ATOM      2  C3  UNL d   1       0.734   2.556   1.512  0.00  0.00     0.006 A 
ATOM      3  C4  UNL d   1       0.257   3.633   0.760  0.00  0.00     0.002 A 
ATOM      4  C5  UNL d   1       0.954   4.846   0.737  0.00  0.00    -0.080 A 
ATOM      5  C6  UNL d   1       0.469   6.000  -0.090  0.00  0.00     0.076 C 
ATOM      6  C7  UNL d   1       2.121   4.974   1.497  0.00  0.00     0.002 A 
ATOM      7  C8  UNL d   1       2.598   3.898   2.250  0.00  0.00     0.006 A 
ENDROOT
BRANCH   1   8
ATOM      8  C1  UNL d   1       2.463   1.500   3.019  0.00  0.00     0.054 C 
ATOM      9  C   UNL d   1       1.505   1.049   4.112  0.00  0.00     0.018 C 
ENDBRANCH   1   8
TORSDOF 1
ENDMDL
