MODEL 1
REMARK minimizedAffinity 12.5901995
REMARK minimizedRMSD -1
REMARK  1 active torsions:
REMARK  status: ('A' for Active; 'I' for Inactive)
REMARK    1  A    between atoms: C1_2  and  C2_3 
ROOT
ATOM      1  C2  UNL d   1       0.538  -5.276  -4.185  0.00  0.00    -0.081 A 
ATOM      2  C3  UNL d   1       0.291  -6.000  -5.358  0.00  0.00     0.006 A 
ATOM      3  C4  UNL d   1      -0.978  -5.992  -5.942  0.00  0.00     0.002 A 
ATOM      4  C5  UNL d   1      -2.019  -5.255  -5.367  0.00  0.00    -0.080 A 
ATOM      5  C6  UNL d   1      -3.378  -5.214  -6.000  0.00  0.00     0.076 C 
ATOM      6  C7  UNL d   1      -1.777  -4.547  -4.185  0.00  0.00     0.002 A 
ATOM      7  C8  UNL d   1      -0.509  -4.554  -3.601  0.00  0.00     0.006 A 
ENDROOT
BRANCH   1   8
ATOM      8  C1  UNL d   1       1.922  -5.230  -3.589  0.00  0.00     0.054 C 
ATOM      9  C   UNL d   1       1.967  -5.934  -2.241  0.00  0.00     0.018 C 
ENDBRANCH   1   8
TORSDOF 1
ENDMDL
