MODEL 1
REMARK minimizedAffinity 18.2380447
REMARK minimizedRMSD -1
REMARK  1 active torsions:
REMARK  status: ('A' for Active; 'I' for Inactive)
REMARK    1  A    between atoms: C1_2  and  C2_3 
ROOT
ATOM      1  C2  UNL d   1       0.403   4.924  -0.202  0.00  0.00    -0.081 A 
ATOM      2  C3  UNL d   1      -0.989   5.014  -0.076  0.00  0.00     0.006 A 
ATOM      3  C4  UNL d   1      -1.698   4.048   0.642  0.00  0.00     0.002 A 
ATOM      4  C5  UNL d   1      -1.028   2.983   1.253  0.00  0.00    -0.080 A 
ATOM      5  C6  UNL d   1      -1.774   1.957   2.053  0.00  0.00     0.076 C 
ATOM      6  C7  UNL d   1       0.361   2.884   1.112  0.00  0.00     0.002 A 
ATOM      7  C8  UNL d   1       1.070   3.848   0.393  0.00  0.00     0.006 A 
ENDROOT
BRANCH   1   8
ATOM      8  C1  UNL d   1       1.178   5.998  -0.922  0.00  0.00     0.054 C 
ATOM      9  C   UNL d   1       0.870   5.999  -2.412  0.00  0.00     0.018 C 
ENDBRANCH   1   8
TORSDOF 1
ENDMDL
