MODEL 1
REMARK minimizedAffinity 19.2365818
REMARK minimizedRMSD -1
REMARK  1 active torsions:
REMARK  status: ('A' for Active; 'I' for Inactive)
REMARK    1  A    between atoms: C1_2  and  C2_3 
ROOT
ATOM      1  C2  UNL d   1      -2.498   1.256  -2.243  0.00  0.00    -0.081 A 
ATOM      2  C3  UNL d   1      -3.325   2.386  -2.262  0.00  0.00     0.006 A 
ATOM      3  C4  UNL d   1      -3.727   2.948  -3.476  0.00  0.00     0.002 A 
ATOM      4  C5  UNL d   1      -3.316   2.386  -4.690  0.00  0.00    -0.080 A 
ATOM      5  C6  UNL d   1      -3.766   2.962  -6.000  0.00  0.00     0.076 C 
ATOM      6  C7  UNL d   1      -2.476   1.268  -4.670  0.00  0.00     0.002 A 
ATOM      7  C8  UNL d   1      -2.073   0.706  -3.457  0.00  0.00     0.006 A 
ENDROOT
BRANCH   1   8
ATOM      8  C1  UNL d   1      -2.115   0.609  -0.937  0.00  0.00     0.054 C 
ATOM      9  C   UNL d   1      -0.799  -0.147  -1.058  0.00  0.00     0.018 C 
ENDBRANCH   1   8
TORSDOF 1
ENDMDL
