MODEL 1
REMARK minimizedAffinity 12.068223
REMARK minimizedRMSD -1
REMARK  1 active torsions:
REMARK  status: ('A' for Active; 'I' for Inactive)
REMARK    1  A    between atoms: C1_2  and  C2_3 
ROOT
ATOM      1  C2  UNL d   1      -1.591  -0.351  -2.107  0.00  0.00    -0.081 A 
ATOM      2  C3  UNL d   1      -1.808   0.141  -3.400  0.00  0.00     0.006 A 
ATOM      3  C4  UNL d   1      -2.650   1.235  -3.610  0.00  0.00     0.002 A 
ATOM      4  C5  UNL d   1      -3.283   1.861  -2.531  0.00  0.00    -0.080 A 
ATOM      5  C6  UNL d   1      -4.166   3.056  -2.739  0.00  0.00     0.076 C 
ATOM      6  C7  UNL d   1      -3.081   1.359  -1.241  0.00  0.00     0.002 A 
ATOM      7  C8  UNL d   1      -2.239   0.264  -1.030  0.00  0.00     0.006 A 
ENDROOT
BRANCH   1   8
ATOM      8  C1  UNL d   1      -0.633  -1.490  -1.871  0.00  0.00     0.054 C 
ATOM      9  C   UNL d   1       0.706  -0.988  -1.349  0.00  0.00     0.018 C 
ENDBRANCH   1   8
TORSDOF 1
ENDMDL
