MODEL 1
REMARK minimizedAffinity 15.3172045
REMARK minimizedRMSD -1
REMARK  1 active torsions:
REMARK  status: ('A' for Active; 'I' for Inactive)
REMARK    1  A    between atoms: C1_2  and  C2_3 
ROOT
ATOM      1  C2  UNL d   1       1.763   4.581   1.054  0.00  0.00    -0.081 A 
ATOM      2  C3  UNL d   1       1.525   5.790   0.389  0.00  0.00     0.006 A 
ATOM      3  C4  UNL d   1       0.323   5.999  -0.291  0.00  0.00     0.002 A 
ATOM      4  C5  UNL d   1      -0.663   5.008  -0.311  0.00  0.00    -0.080 A 
ATOM      5  C6  UNL d   1      -1.970   5.231  -1.012  0.00  0.00     0.076 C 
ATOM      6  C7  UNL d   1      -0.419   3.793   0.339  0.00  0.00     0.002 A 
ATOM      7  C8  UNL d   1       0.783   3.583   1.018  0.00  0.00     0.006 A 
ENDROOT
BRANCH   1   8
ATOM      8  C1  UNL d   1       3.032   4.377   1.843  0.00  0.00     0.054 C 
ATOM      9  C   UNL d   1       3.429   5.642   2.589  0.00  0.00     0.018 C 
ENDBRANCH   1   8
TORSDOF 1
ENDMDL
