MODEL 1
REMARK minimizedAffinity 10.0821686
REMARK minimizedRMSD -1
REMARK  1 active torsions:
REMARK  status: ('A' for Active; 'I' for Inactive)
REMARK    1  A    between atoms: C1_2  and  C2_3 
ROOT
ATOM      1  C2  UNL d   1       1.736   4.459   0.719  0.00  0.00    -0.081 A 
ATOM      2  C3  UNL d   1       1.632   5.664   0.013  0.00  0.00     0.006 A 
ATOM      3  C4  UNL d   1       0.447   5.999  -0.646  0.00  0.00     0.002 A 
ATOM      4  C5  UNL d   1      -0.656   5.140  -0.604  0.00  0.00    -0.080 A 
ATOM      5  C6  UNL d   1      -1.944   5.502  -1.281  0.00  0.00     0.076 C 
ATOM      6  C7  UNL d   1      -0.547   3.928   0.087  0.00  0.00     0.002 A 
ATOM      7  C8  UNL d   1       0.638   3.592   0.745  0.00  0.00     0.006 A 
ENDROOT
BRANCH   1   8
ATOM      8  C1  UNL d   1       2.991   4.125   1.484  0.00  0.00     0.054 C 
ATOM      9  C   UNL d   1       3.773   5.381   1.840  0.00  0.00     0.018 C 
ENDBRANCH   1   8
TORSDOF 1
ENDMDL
