MODEL 1
REMARK minimizedAffinity 9.00405788
REMARK minimizedRMSD -1
REMARK  1 active torsions:
REMARK  status: ('A' for Active; 'I' for Inactive)
REMARK    1  A    between atoms: C1_2  and  C2_3 
ROOT
ATOM      1  C2  UNL d   1       4.946  -4.059  -3.539  0.00  0.00    -0.081 A 
ATOM      2  C3  UNL d   1       4.490  -5.360  -3.292  0.00  0.00     0.006 A 
ATOM      3  C4  UNL d   1       4.783  -5.995  -2.083  0.00  0.00     0.002 A 
ATOM      4  C5  UNL d   1       5.528  -5.339  -1.098  0.00  0.00    -0.080 A 
ATOM      5  C6  UNL d   1       5.824  -5.998   0.216  0.00  0.00     0.076 C 
ATOM      6  C7  UNL d   1       5.999  -4.046  -1.351  0.00  0.00     0.002 A 
ATOM      7  C8  UNL d   1       5.707  -3.410  -2.560  0.00  0.00     0.006 A 
ENDROOT
BRANCH   1   8
ATOM      8  C1  UNL d   1       4.577  -3.347  -4.815  0.00  0.00     0.054 C 
ATOM      9  C   UNL d   1       5.519  -2.184  -5.091  0.00  0.00     0.018 C 
ENDBRANCH   1   8
TORSDOF 1
ENDMDL
