MODEL 1
REMARK minimizedAffinity 14.6914406
REMARK minimizedRMSD -1
REMARK  1 active torsions:
REMARK  status: ('A' for Active; 'I' for Inactive)
REMARK    1  A    between atoms: C1_2  and  C2_3 
ROOT
ATOM      1  C2  UNL d   1       5.040  -3.665  -2.190  0.00  0.00    -0.081 A 
ATOM      2  C3  UNL d   1       4.064  -3.615  -1.188  0.00  0.00     0.006 A 
ATOM      3  C4  UNL d   1       4.041  -2.560  -0.273  0.00  0.00     0.002 A 
ATOM      4  C5  UNL d   1       4.989  -1.534  -0.349  0.00  0.00    -0.080 A 
ATOM      5  C6  UNL d   1       4.957  -0.380   0.608  0.00  0.00     0.076 C 
ATOM      6  C7  UNL d   1       5.975  -1.593  -1.340  0.00  0.00     0.002 A 
ATOM      7  C8  UNL d   1       5.999  -2.648  -2.254  0.00  0.00     0.006 A 
ENDROOT
BRANCH   1   8
ATOM      8  C1  UNL d   1       5.028  -4.768  -3.218  0.00  0.00     0.054 C 
ATOM      9  C   UNL d   1       3.795  -5.647  -3.072  0.00  0.00     0.018 C 
ENDBRANCH   1   8
TORSDOF 1
ENDMDL
