MODEL 1
REMARK minimizedAffinity 8.24428082
REMARK minimizedRMSD -1
REMARK  1 active torsions:
REMARK  status: ('A' for Active; 'I' for Inactive)
REMARK    1  A    between atoms: C1_2  and  C2_3 
ROOT
ATOM      1  C2  UNL d   1       1.235  -3.948  -1.864  0.00  0.00    -0.081 A 
ATOM      2  C3  UNL d   1      -0.129  -4.005  -2.177  0.00  0.00     0.006 A 
ATOM      3  C4  UNL d   1      -0.933  -2.870  -2.051  0.00  0.00     0.002 A 
ATOM      4  C5  UNL d   1      -0.386  -1.658  -1.618  0.00  0.00    -0.080 A 
ATOM      5  C6  UNL d   1      -1.232  -0.424  -1.507  0.00  0.00     0.076 C 
ATOM      6  C7  UNL d   1       0.973  -1.604  -1.288  0.00  0.00     0.002 A 
ATOM      7  C8  UNL d   1       1.777  -2.739  -1.413  0.00  0.00     0.006 A 
ENDROOT
BRANCH   1   8
ATOM      8  C1  UNL d   1       2.118  -5.153  -2.060  0.00  0.00     0.054 C 
ATOM      9  C   UNL d   1       3.164  -4.903  -3.138  0.00  0.00     0.018 C 
ENDBRANCH   1   8
TORSDOF 1
ENDMDL
