MODEL 1
REMARK minimizedAffinity 17.3910999
REMARK minimizedRMSD -1
REMARK  1 active torsions:
REMARK  status: ('A' for Active; 'I' for Inactive)
REMARK    1  A    between atoms: C1_2  and  C2_3 
ROOT
ATOM      1  C2  UNL d   1       4.889  -3.692   5.452  0.00  0.00    -0.081 A 
ATOM      2  C3  UNL d   1       4.684  -2.419   5.998  0.00  0.00     0.006 A 
ATOM      3  C4  UNL d   1       3.648  -1.607   5.531  0.00  0.00     0.002 A 
ATOM      4  C5  UNL d   1       2.796  -2.056   4.516  0.00  0.00    -0.080 A 
ATOM      5  C6  UNL d   1       1.662  -1.205   4.026  0.00  0.00     0.076 C 
ATOM      6  C7  UNL d   1       3.013  -3.320   3.958  0.00  0.00     0.002 A 
ATOM      7  C8  UNL d   1       4.048  -4.133   4.424  0.00  0.00     0.006 A 
ENDROOT
BRANCH   1   8
ATOM      8  C1  UNL d   1       5.965  -4.596   5.998  0.00  0.00     0.054 C 
ATOM      9  C   UNL d   1       5.920  -5.968   5.342  0.00  0.00     0.018 C 
ENDBRANCH   1   8
TORSDOF 1
ENDMDL
