MODEL 1
REMARK minimizedAffinity 19.4972668
REMARK minimizedRMSD -1
REMARK  0 active torsions:
REMARK  status: ('A' for Active; 'I' for Inactive)
ROOT
ATOM      1  C1  DEN d   1       0.316   4.445  -1.202  0.00  0.00     0.130 A 
ATOM      2  C2  DEN d   1       0.828   5.096   0.001  0.00  0.00    -0.031 A 
ATOM      3  C3  DEN d   1       0.289   4.378   1.173  0.00  0.00     0.027 A 
ATOM      4  C4  DEN d   1      -1.277   2.329   1.242  0.00  0.00     0.027 A 
ATOM      5  C5  DEN d   1      -1.987   1.433   0.475  0.00  0.00    -0.003 A 
ATOM      6  C6  DEN d   1      -2.006   1.498  -0.893  0.00  0.00     0.001 A 
ATOM      7  C7  DEN d   1      -1.265   2.453  -1.538  0.00  0.00     0.017 A 
ATOM      8  C8  DEN d   1      -0.553   3.365  -0.771  0.00  0.00    -0.094 A 
ATOM      9  C9  DEN d   1      -0.536   3.275   0.611  0.00  0.00    -0.072 A 
ENDROOT
TORSDOF 0
ENDMDL
