MODEL 1
REMARK minimizedAffinity 6.9725194
REMARK minimizedRMSD -1
REMARK  0 active torsions:
REMARK  status: ('A' for Active; 'I' for Inactive)
ROOT
ATOM      1  C1  DEN d   1       1.508  -3.561   1.558  0.00  0.00     0.130 A 
ATOM      2  C2  DEN d   1       1.940  -2.239   2.003  0.00  0.00    -0.031 A 
ATOM      3  C3  DEN d   1       2.119  -1.390   0.807  0.00  0.00     0.027 A 
ATOM      4  C4  DEN d   1       1.765  -1.991  -1.676  0.00  0.00     0.027 A 
ATOM      5  C5  DEN d   1       1.413  -2.997  -2.549  0.00  0.00    -0.003 A 
ATOM      6  C6  DEN d   1       1.102  -4.260  -2.120  0.00  0.00     0.001 A 
ATOM      7  C7  DEN d   1       1.095  -4.538  -0.778  0.00  0.00     0.017 A 
ATOM      8  C8  DEN d   1       1.457  -3.532   0.107  0.00  0.00    -0.094 A 
ATOM      9  C9  DEN d   1       1.755  -2.258  -0.346  0.00  0.00    -0.072 A 
ENDROOT
TORSDOF 0
ENDMDL
