MODEL 1
REMARK minimizedAffinity -3.21777725
REMARK minimizedRMSD -1
REMARK  0 active torsions:
REMARK  status: ('A' for Active; 'I' for Inactive)
ROOT
ATOM      1  C1  DEN d   1       1.499  -2.292   1.277  0.00  0.00     0.130 A 
ATOM      2  C2  DEN d   1       0.848  -1.415   2.246  0.00  0.00    -0.031 A 
ATOM      3  C3  DEN d   1       0.369  -2.249   3.367  0.00  0.00     0.027 A 
ATOM      4  C4  DEN d   1       0.576  -4.799   3.695  0.00  0.00     0.027 A 
ATOM      5  C5  DEN d   1       1.039  -5.969   3.134  0.00  0.00    -0.003 A 
ATOM      6  C6  DEN d   1       1.651  -6.000   1.910  0.00  0.00     0.001 A 
ATOM      7  C7  DEN d   1       1.859  -4.832   1.225  0.00  0.00     0.017 A 
ATOM      8  C8  DEN d   1       1.389  -3.649   1.781  0.00  0.00    -0.094 A 
ATOM      9  C9  DEN d   1       0.783  -3.637   3.026  0.00  0.00    -0.072 A 
ENDROOT
TORSDOF 0
ENDMDL
