MODEL 1
REMARK minimizedAffinity 8.31226444
REMARK minimizedRMSD -1
REMARK  0 active torsions:
REMARK  status: ('A' for Active; 'I' for Inactive)
ROOT
ATOM      1  C1  DEN d   1       2.434   0.308   1.510  0.00  0.00     0.130 A 
ATOM      2  C2  DEN d   1       2.265   1.314   2.555  0.00  0.00    -0.031 A 
ATOM      3  C3  DEN d   1       1.608   0.667   3.709  0.00  0.00     0.027 A 
ATOM      4  C4  DEN d   1       0.847  -1.782   3.979  0.00  0.00     0.027 A 
ATOM      5  C5  DEN d   1       0.768  -3.009   3.357  0.00  0.00    -0.003 A 
ATOM      6  C6  DEN d   1       1.205  -3.206   2.074  0.00  0.00     0.001 A 
ATOM      7  C7  DEN d   1       1.782  -2.170   1.387  0.00  0.00     0.017 A 
ATOM      8  C8  DEN d   1       1.858  -0.929   2.005  0.00  0.00    -0.094 A 
ATOM      9  C9  DEN d   1       1.422  -0.753   3.307  0.00  0.00    -0.072 A 
ENDROOT
TORSDOF 0
ENDMDL
