MODEL 1
REMARK minimizedAffinity 7.17431307
REMARK minimizedRMSD -1
REMARK  0 active torsions:
REMARK  status: ('A' for Active; 'I' for Inactive)
ROOT
ATOM      1  C1  DEN d   1      -2.804   2.843  -0.674  0.00  0.00     0.130 A 
ATOM      2  C2  DEN d   1      -1.867   2.115   0.176  0.00  0.00    -0.031 A 
ATOM      3  C3  DEN d   1      -2.365   2.179   1.565  0.00  0.00     0.027 A 
ATOM      4  C4  DEN d   1      -4.489   3.326   2.475  0.00  0.00     0.027 A 
ATOM      5  C5  DEN d   1      -5.591   4.079   2.136  0.00  0.00    -0.003 A 
ATOM      6  C6  DEN d   1      -5.821   4.499   0.853  0.00  0.00     0.001 A 
ATOM      7  C7  DEN d   1      -4.961   4.129  -0.147  0.00  0.00     0.017 A 
ATOM      8  C8  DEN d   1      -3.844   3.376   0.188  0.00  0.00    -0.094 A 
ATOM      9  C9  DEN d   1      -3.635   2.951   1.489  0.00  0.00    -0.072 A 
ENDROOT
TORSDOF 0
ENDMDL
