MODEL 1
REMARK minimizedAffinity 11.6057167
REMARK minimizedRMSD -1
REMARK  0 active torsions:
REMARK  status: ('A' for Active; 'I' for Inactive)
ROOT
ATOM      1  C1  DEN d   1       2.553  -3.593   3.720  0.00  0.00     0.130 A 
ATOM      2  C2  DEN d   1       1.739  -4.751   3.360  0.00  0.00    -0.031 A 
ATOM      3  C3  DEN d   1       2.526  -5.592   2.436  0.00  0.00     0.027 A 
ATOM      4  C4  DEN d   1       4.914  -5.220   1.537  0.00  0.00     0.027 A 
ATOM      5  C5  DEN d   1       6.000  -4.372   1.552  0.00  0.00    -0.003 A 
ATOM      6  C6  DEN d   1       6.000  -3.198   2.258  0.00  0.00     0.001 A 
ATOM      7  C7  DEN d   1       4.909  -2.861   3.015  0.00  0.00     0.017 A 
ATOM      8  C8  DEN d   1       3.808  -3.707   2.999  0.00  0.00    -0.094 A 
ATOM      9  C9  DEN d   1       3.832  -4.895   2.289  0.00  0.00    -0.072 A 
ENDROOT
TORSDOF 0
ENDMDL
