MODEL 1
REMARK minimizedAffinity 13.8613701
REMARK minimizedRMSD -1
REMARK  0 active torsions:
REMARK  status: ('A' for Active; 'I' for Inactive)
ROOT
ATOM      1  C1  DEN d   1       1.398   0.582   2.301  0.00  0.00     0.130 A 
ATOM      2  C2  DEN d   1       2.358   0.637   1.202  0.00  0.00    -0.031 A 
ATOM      3  C3  DEN d   1       2.962  -0.703   1.056  0.00  0.00     0.027 A 
ATOM      4  C4  DEN d   1       2.501  -2.847   2.414  0.00  0.00     0.027 A 
ATOM      5  C5  DEN d   1       1.776  -3.381   3.456  0.00  0.00    -0.003 A 
ATOM      6  C6  DEN d   1       0.906  -2.630   4.202  0.00  0.00     0.001 A 
ATOM      7  C7  DEN d   1       0.706  -1.312   3.887  0.00  0.00     0.017 A 
ATOM      8  C8  DEN d   1       1.439  -0.764   2.842  0.00  0.00    -0.094 A 
ATOM      9  C9  DEN d   1       2.304  -1.543   2.093  0.00  0.00    -0.072 A 
ENDROOT
TORSDOF 0
ENDMDL
