MODEL 1
REMARK minimizedAffinity 11.4934149
REMARK minimizedRMSD -1
REMARK  0 active torsions:
REMARK  status: ('A' for Active; 'I' for Inactive)
ROOT
ATOM      1  C1  DEN d   1       2.445  -5.207   2.750  0.00  0.00     0.130 A 
ATOM      2  C2  DEN d   1       1.708  -4.380   3.702  0.00  0.00    -0.031 A 
ATOM      3  C3  DEN d   1       2.568  -3.239   4.077  0.00  0.00     0.027 A 
ATOM      4  C4  DEN d   1       4.954  -2.675   3.277  0.00  0.00     0.027 A 
ATOM      5  C5  DEN d   1       5.998  -3.088   2.478  0.00  0.00    -0.003 A 
ATOM      6  C6  DEN d   1       5.944  -4.244   1.746  0.00  0.00     0.001 A 
ATOM      7  C7  DEN d   1       4.805  -5.006   1.763  0.00  0.00     0.017 A 
ATOM      8  C8  DEN d   1       3.751  -4.599   2.572  0.00  0.00    -0.094 A 
ATOM      9  C9  DEN d   1       3.821  -3.420   3.295  0.00  0.00    -0.072 A 
ENDROOT
TORSDOF 0
ENDMDL
