MODEL 1
REMARK minimizedAffinity 8.27140617
REMARK minimizedRMSD -1
REMARK  0 active torsions:
REMARK  status: ('A' for Active; 'I' for Inactive)
ROOT
ATOM      1  C1  DEN d   1       5.937   1.181  -5.598  0.00  0.00     0.130 A 
ATOM      2  C2  DEN d   1       4.988   0.326  -4.889  0.00  0.00    -0.031 A 
ATOM      3  C3  DEN d   1       3.900   1.180  -4.373  0.00  0.00     0.027 A 
ATOM      4  C4  DEN d   1       3.591   3.730  -4.605  0.00  0.00     0.027 A 
ATOM      5  C5  DEN d   1       4.143   4.887  -5.111  0.00  0.00    -0.003 A 
ATOM      6  C6  DEN d   1       5.339   4.893  -5.779  0.00  0.00     0.001 A 
ATOM      7  C7  DEN d   1       6.000   3.714  -6.000  0.00  0.00     0.017 A 
ATOM      8  C8  DEN d   1       5.453   2.545  -5.486  0.00  0.00    -0.094 A 
ATOM      9  C9  DEN d   1       4.238   2.557  -4.824  0.00  0.00    -0.072 A 
ENDROOT
TORSDOF 0
ENDMDL
