MODEL 1
REMARK minimizedAffinity -2.36243558
REMARK minimizedRMSD -1
REMARK  1 active torsions:
REMARK  status: ('A' for Active; 'I' for Inactive)
REMARK    1  A    between atoms: C3_4  and  O_7 
ROOT
ATOM      1  C   UNL d   1      -1.000  -0.013  -0.514  0.00  0.00    -0.033 A 
ATOM      2  C1  UNL d   1      -0.530  -0.937   0.421  0.00  0.00     0.039 A 
ATOM      3  C2  UNL d   1       0.628  -0.667   1.152  0.00  0.00    -0.080 A 
ATOM      4  C3  UNL d   1       1.306   0.530   0.939  0.00  0.00     0.150 A 
ATOM      5  C4  UNL d   1       0.842   1.457   0.011  0.00  0.00    -0.007 A 
ATOM      6  C5  UNL d   1      -0.314   1.185  -0.718  0.00  0.00     0.039 A 
ENDROOT
BRANCH   4   7
ATOM      7  O   UNL d   1       2.444   0.836   1.625  0.00  0.00    -0.526 OA
ATOM      8  H5  UNL d   1       2.661   0.091   2.209  0.00  0.00     0.418 HD
ENDBRANCH   4   7
TORSDOF 1
ENDMDL
