MODEL 1
REMARK minimizedAffinity -1.78264058
REMARK minimizedRMSD -1
REMARK  1 active torsions:
REMARK  status: ('A' for Active; 'I' for Inactive)
REMARK    1  A    between atoms: C3_4  and  O_7 
ROOT
ATOM      1  C   UNL d   1       2.286   0.620   1.354  0.00  0.00    -0.033 A 
ATOM      2  C1  UNL d   1       1.467  -0.452   1.713  0.00  0.00     0.039 A 
ATOM      3  C2  UNL d   1       0.266  -0.673   1.034  0.00  0.00    -0.080 A 
ATOM      4  C3  UNL d   1      -0.102   0.183   0.001  0.00  0.00     0.150 A 
ATOM      5  C4  UNL d   1       0.711   1.251  -0.364  0.00  0.00    -0.007 A 
ATOM      6  C5  UNL d   1       1.909   1.471   0.315  0.00  0.00     0.039 A 
ENDROOT
BRANCH   4   7
ATOM      7  O   UNL d   1      -1.267   0.011  -0.687  0.00  0.00    -0.526 OA
ATOM      8  H5  UNL d   1      -1.739  -0.748  -0.306  0.00  0.00     0.418 HD
ENDBRANCH   4   7
TORSDOF 1
ENDMDL
