MODEL 1
REMARK minimizedAffinity -3.91652036
REMARK minimizedRMSD -1
REMARK  1 active torsions:
REMARK  status: ('A' for Active; 'I' for Inactive)
REMARK    1  A    between atoms: C3_4  and  O_7 
ROOT
ATOM      1  C   UNL d   1      -2.912   0.055  -3.369  0.00  0.00    -0.033 A 
ATOM      2  C1  UNL d   1      -3.174   0.150  -2.001  0.00  0.00     0.039 A 
ATOM      3  C2  UNL d   1      -2.120   0.239  -1.090  0.00  0.00    -0.080 A 
ATOM      4  C3  UNL d   1      -0.809   0.232  -1.560  0.00  0.00     0.150 A 
ATOM      5  C4  UNL d   1      -0.540   0.142  -2.921  0.00  0.00    -0.007 A 
ATOM      6  C5  UNL d   1      -1.595   0.052  -3.829  0.00  0.00     0.039 A 
ENDROOT
BRANCH   4   7
ATOM      7  O   UNL d   1       0.253   0.312  -0.709  0.00  0.00    -0.526 OA
ATOM      8  H5  UNL d   1      -0.084   0.340   0.202  0.00  0.00     0.418 HD
ENDBRANCH   4   7
TORSDOF 1
ENDMDL
