MODEL 1
REMARK minimizedAffinity 0.0812984854
REMARK minimizedRMSD -1
REMARK  1 active torsions:
REMARK  status: ('A' for Active; 'I' for Inactive)
REMARK    1  A    between atoms: C3_4  and  O_7 
ROOT
ATOM      1  C   UNL d   1      -2.904   0.002  -2.951  0.00  0.00    -0.033 A 
ATOM      2  C1  UNL d   1      -2.116  -1.144  -2.820  0.00  0.00     0.039 A 
ATOM      3  C2  UNL d   1      -1.207  -1.252  -1.766  0.00  0.00    -0.080 A 
ATOM      4  C3  UNL d   1      -1.096  -0.209  -0.850  0.00  0.00     0.150 A 
ATOM      5  C4  UNL d   1      -1.880   0.933  -0.972  0.00  0.00    -0.007 A 
ATOM      6  C5  UNL d   1      -2.787   1.040  -2.026  0.00  0.00     0.039 A 
ENDROOT
BRANCH   4   7
ATOM      7  O   UNL d   1      -0.220  -0.267   0.193  0.00  0.00    -0.526 OA
ATOM      8  H5  UNL d   1       0.274  -1.102   0.133  0.00  0.00     0.418 HD
ENDBRANCH   4   7
TORSDOF 1
ENDMDL
