MODEL 1
REMARK minimizedAffinity -2.31545258
REMARK minimizedRMSD -1
REMARK  1 active torsions:
REMARK  status: ('A' for Active; 'I' for Inactive)
REMARK    1  A    between atoms: C3_4  and  O_7 
ROOT
ATOM      1  C   UNL d   1      -0.848   0.134   0.047  0.00  0.00    -0.033 A 
ATOM      2  C1  UNL d   1      -0.302  -1.140  -0.124  0.00  0.00     0.039 A 
ATOM      3  C2  UNL d   1       1.080  -1.324  -0.052  0.00  0.00    -0.080 A 
ATOM      4  C3  UNL d   1       1.904  -0.229   0.192  0.00  0.00     0.150 A 
ATOM      5  C4  UNL d   1       1.367   1.042   0.367  0.00  0.00    -0.007 A 
ATOM      6  C5  UNL d   1      -0.013   1.225   0.294  0.00  0.00     0.039 A 
ENDROOT
BRANCH   4   7
ATOM      7  O   UNL d   1       3.259  -0.359   0.266  0.00  0.00    -0.526 OA
ATOM      8  H5  UNL d   1       3.489  -1.288   0.096  0.00  0.00     0.418 HD
ENDBRANCH   4   7
TORSDOF 1
ENDMDL
