MODEL 1
REMARK minimizedAffinity -1.74546111
REMARK minimizedRMSD -1
REMARK  1 active torsions:
REMARK  status: ('A' for Active; 'I' for Inactive)
REMARK    1  A    between atoms: C3_4  and  O_7 
ROOT
ATOM      1  C   UNL d   1      -3.488   0.145  -3.490  0.00  0.00    -0.033 A 
ATOM      2  C1  UNL d   1      -3.343   1.385  -2.864  0.00  0.00     0.039 A 
ATOM      3  C2  UNL d   1      -2.726   1.470  -1.615  0.00  0.00    -0.080 A 
ATOM      4  C3  UNL d   1      -2.258   0.311  -1.003  0.00  0.00     0.150 A 
ATOM      5  C4  UNL d   1      -2.395  -0.927  -1.622  0.00  0.00    -0.007 A 
ATOM      6  C5  UNL d   1      -3.013  -1.011  -2.870  0.00  0.00     0.039 A 
ENDROOT
BRANCH   4   7
ATOM      7  O   UNL d   1      -1.653   0.344   0.219  0.00  0.00    -0.526 OA
ATOM      8  H5  UNL d   1      -1.654   1.262   0.538  0.00  0.00     0.418 HD
ENDBRANCH   4   7
TORSDOF 1
ENDMDL
