MODEL 1
REMARK minimizedAffinity -2.87535429
REMARK minimizedRMSD -1
REMARK  1 active torsions:
REMARK  status: ('A' for Active; 'I' for Inactive)
REMARK    1  A    between atoms: C3_4  and  O_7 
ROOT
ATOM      1  C   UNL d   1      -0.779  -0.626  -0.348  0.00  0.00    -0.033 A 
ATOM      2  C1  UNL d   1      -0.861   0.759  -0.192  0.00  0.00     0.039 A 
ATOM      3  C2  UNL d   1       0.207   1.465   0.364  0.00  0.00    -0.080 A 
ATOM      4  C3  UNL d   1       1.351   0.776   0.758  0.00  0.00     0.150 A 
ATOM      5  C4  UNL d   1       1.441  -0.603   0.602  0.00  0.00    -0.007 A 
ATOM      6  C5  UNL d   1       0.373  -1.307   0.048  0.00  0.00     0.039 A 
ENDROOT
BRANCH   4   7
ATOM      7  O   UNL d   1       2.417   1.421   1.310  0.00  0.00    -0.526 OA
ATOM      8  H5  UNL d   1       2.201   2.366   1.382  0.00  0.00     0.418 HD
ENDBRANCH   4   7
TORSDOF 1
ENDMDL
