MODEL 1
REMARK minimizedAffinity -2.97425485
REMARK minimizedRMSD -1
REMARK  1 active torsions:
REMARK  status: ('A' for Active; 'I' for Inactive)
REMARK    1  A    between atoms: C3_4  and  O_7 
ROOT
ATOM      1  C   UNL d   1       2.391   0.351   1.367  0.00  0.00    -0.033 A 
ATOM      2  C1  UNL d   1       2.068   1.358   0.456  0.00  0.00     0.039 A 
ATOM      3  C2  UNL d   1       0.829   1.350  -0.187  0.00  0.00    -0.080 A 
ATOM      4  C3  UNL d   1      -0.078   0.330   0.090  0.00  0.00     0.150 A 
ATOM      5  C4  UNL d   1       0.235  -0.674   1.000  0.00  0.00    -0.007 A 
ATOM      6  C5  UNL d   1       1.474  -0.665   1.640  0.00  0.00     0.039 A 
ENDROOT
BRANCH   4   7
ATOM      7  O   UNL d   1      -1.298   0.277  -0.516  0.00  0.00    -0.526 OA
ATOM      8  H5  UNL d   1      -1.364   1.019  -1.140  0.00  0.00     0.418 HD
ENDBRANCH   4   7
TORSDOF 1
ENDMDL
