MODEL 1
REMARK minimizedAffinity -3.82754374
REMARK minimizedRMSD -1
REMARK  1 active torsions:
REMARK  status: ('A' for Active; 'I' for Inactive)
REMARK    1  A    between atoms: C3_4  and  O_7 
ROOT
ATOM      1  C   UNL d   1       0.698  -0.481   0.875  0.00  0.00    -0.033 A 
ATOM      2  C1  UNL d   1      -0.153   0.504   0.371  0.00  0.00     0.039 A 
ATOM      3  C2  UNL d   1       0.367   1.556  -0.387  0.00  0.00    -0.080 A 
ATOM      4  C3  UNL d   1       1.736   1.609  -0.633  0.00  0.00     0.150 A 
ATOM      5  C4  UNL d   1       2.588   0.629  -0.137  0.00  0.00    -0.007 A 
ATOM      6  C5  UNL d   1       2.068  -0.420   0.620  0.00  0.00     0.039 A 
ENDROOT
BRANCH   4   7
ATOM      7  O   UNL d   1       2.289   2.619  -1.364  0.00  0.00    -0.526 OA
ATOM      8  H5  UNL d   1       1.585   3.238  -1.616  0.00  0.00     0.418 HD
ENDBRANCH   4   7
TORSDOF 1
ENDMDL
