MODEL 1
REMARK minimizedAffinity -4.08235741
REMARK minimizedRMSD -1
REMARK  0 active torsions:
REMARK  status: ('A' for Active; 'I' for Inactive)
ROOT
ATOM      1  C2' OXE d   1       1.340  -1.219  -1.526  0.00  0.00     0.078 C 
ATOM      2  C1' OXE d   1       2.571   0.478  -3.393  0.00  0.00     0.078 C 
ATOM      3  C1  OXE d   1       1.119   0.132  -3.607  0.00  0.00    -0.078 A 
ATOM      4  C2  OXE d   1       0.538  -0.736  -2.715  0.00  0.00    -0.078 A 
ATOM      5  C3  OXE d   1      -0.814  -1.045  -2.836  0.00  0.00     0.003 A 
ATOM      6  C4  OXE d   1      -1.547  -0.603  -3.944  0.00  0.00    -0.002 A 
ATOM      7  C5  OXE d   1      -0.963   0.250  -4.886  0.00  0.00    -0.002 A 
ATOM      8  C6  OXE d   1       0.354   0.661  -4.710  0.00  0.00     0.003 A 
ENDROOT
TORSDOF 0
ENDMDL
