MODEL 1
REMARK minimizedAffinity -3.80209184
REMARK minimizedRMSD -1
REMARK  0 active torsions:
REMARK  status: ('A' for Active; 'I' for Inactive)
ROOT
ATOM      1  C2' OXE d   1      -0.719   2.034   2.998  0.00  0.00     0.078 C 
ATOM      2  C1' OXE d   1      -2.649   0.504   1.651  0.00  0.00     0.078 C 
ATOM      3  C1  OXE d   1      -1.203   0.300   1.276  0.00  0.00    -0.078 A 
ATOM      4  C2  OXE d   1      -0.269   1.086   1.907  0.00  0.00    -0.078 A 
ATOM      5  C3  OXE d   1       1.084   0.900   1.638  0.00  0.00     0.003 A 
ATOM      6  C4  OXE d   1       1.491   0.028   0.621  0.00  0.00    -0.002 A 
ATOM      7  C5  OXE d   1       0.553  -0.754  -0.062  0.00  0.00    -0.002 A 
ATOM      8  C6  OXE d   1      -0.791  -0.661   0.282  0.00  0.00     0.003 A 
ENDROOT
TORSDOF 0
ENDMDL
