MODEL 1
REMARK minimizedAffinity -3.42032456
REMARK minimizedRMSD -1
REMARK  0 active torsions:
REMARK  status: ('A' for Active; 'I' for Inactive)
ROOT
ATOM      1  C2' OXE d   1       0.280  -0.582  -0.726  0.00  0.00     0.078 C 
ATOM      2  C1' OXE d   1      -2.280  -1.321   0.158  0.00  0.00     0.078 C 
ATOM      3  C1  OXE d   1      -1.494  -0.354   1.008  0.00  0.00    -0.078 A 
ATOM      4  C2  OXE d   1      -0.224  -0.034   0.592  0.00  0.00    -0.078 A 
ATOM      5  C3  OXE d   1       0.523   0.895   1.310  0.00  0.00     0.003 A 
ATOM      6  C4  OXE d   1       0.054   1.389   2.533  0.00  0.00    -0.002 A 
ATOM      7  C5  OXE d   1      -1.221   1.046   2.995  0.00  0.00    -0.002 A 
ATOM      8  C6  OXE d   1      -2.023   0.210   2.225  0.00  0.00     0.003 A 
ENDROOT
TORSDOF 0
ENDMDL
