MODEL 1
REMARK minimizedAffinity -4.59581757
REMARK minimizedRMSD -1
REMARK  0 active torsions:
REMARK  status: ('A' for Active; 'I' for Inactive)
ROOT
ATOM      1  C2' OXE d   1      -0.557   1.661   3.395  0.00  0.00     0.078 C 
ATOM      2  C1' OXE d   1      -2.812   0.906   1.904  0.00  0.00     0.078 C 
ATOM      3  C1  OXE d   1      -1.455   0.525   1.368  0.00  0.00    -0.078 A 
ATOM      4  C2  OXE d   1      -0.355   0.939   2.080  0.00  0.00    -0.078 A 
ATOM      5  C3  OXE d   1       0.919   0.568   1.659  0.00  0.00     0.003 A 
ATOM      6  C4  OXE d   1       1.098  -0.090   0.437  0.00  0.00    -0.002 A 
ATOM      7  C5  OXE d   1      -0.007  -0.487  -0.324  0.00  0.00    -0.002 A 
ATOM      8  C6  OXE d   1      -1.289  -0.225   0.147  0.00  0.00     0.003 A 
ENDROOT
TORSDOF 0
ENDMDL
