MODEL 1
REMARK minimizedAffinity -4.07250834
REMARK minimizedRMSD -1
REMARK  0 active torsions:
REMARK  status: ('A' for Active; 'I' for Inactive)
ROOT
ATOM      1  C2' OXE d   1       2.284  -0.089   2.552  0.00  0.00     0.078 C 
ATOM      2  C1' OXE d   1       1.259  -0.383  -0.045  0.00  0.00     0.078 C 
ATOM      3  C1  OXE d   1       0.296  -0.006   1.053  0.00  0.00    -0.078 A 
ATOM      4  C2  OXE d   1       0.798   0.091   2.329  0.00  0.00    -0.078 A 
ATOM      5  C3  OXE d   1      -0.036   0.490   3.369  0.00  0.00     0.003 A 
ATOM      6  C4  OXE d   1      -1.411   0.644   3.156  0.00  0.00    -0.002 A 
ATOM      7  C5  OXE d   1      -1.950   0.512   1.872  0.00  0.00    -0.002 A 
ATOM      8  C6  OXE d   1      -1.105   0.230   0.804  0.00  0.00     0.003 A 
ENDROOT
TORSDOF 0
ENDMDL
