MODEL 1
REMARK minimizedAffinity -5.07318211
REMARK minimizedRMSD -1
REMARK  0 active torsions:
REMARK  status: ('A' for Active; 'I' for Inactive)
ROOT
ATOM      1  C4' PXY d   1       0.216  -2.285  -2.697  0.00  0.00     0.077 C 
ATOM      2  C1' PXY d   1      -1.743  -0.257   2.349  0.00  0.00     0.077 C 
ATOM      3  C1  PXY d   1      -1.228  -0.801   1.031  0.00  0.00    -0.082 A 
ATOM      4  C2  PXY d   1      -0.616   0.010   0.183  0.00  0.00     0.003 A 
ATOM      5  C3  PXY d   1      -0.174  -0.459  -1.028  0.00  0.00     0.003 A 
ATOM      6  C4  PXY d   1      -0.311  -1.782  -1.351  0.00  0.00    -0.082 A 
ATOM      7  C5  PXY d   1      -0.925  -2.618  -0.487  0.00  0.00     0.003 A 
ATOM      8  C6  PXY d   1      -1.404  -2.114   0.719  0.00  0.00     0.003 A 
ENDROOT
TORSDOF 0
ENDMDL
