MODEL 1
REMARK minimizedAffinity -1.93556547
REMARK minimizedRMSD -1
REMARK  0 active torsions:
REMARK  status: ('A' for Active; 'I' for Inactive)
ROOT
ATOM      1  C4' PXY d   1       0.881   2.887   0.284  0.00  0.00     0.077 C 
ATOM      2  C1' PXY d   1      -1.113  -2.538   0.186  0.00  0.00     0.077 C 
ATOM      3  C1  PXY d   1      -0.584  -1.117   0.200  0.00  0.00    -0.082 A 
ATOM      4  C2  PXY d   1      -0.394  -0.501   1.355  0.00  0.00     0.003 A 
ATOM      5  C3  PXY d   1       0.053   0.795   1.385  0.00  0.00     0.003 A 
ATOM      6  C4  PXY d   1       0.358   1.449   0.222  0.00  0.00    -0.082 A 
ATOM      7  C5  PXY d   1       0.177   0.824  -0.961  0.00  0.00     0.003 A 
ATOM      8  C6  PXY d   1      -0.316  -0.478  -0.971  0.00  0.00     0.003 A 
ENDROOT
TORSDOF 0
ENDMDL
