MODEL 1
REMARK minimizedAffinity -5.47248554
REMARK minimizedRMSD -1
REMARK  0 active torsions:
REMARK  status: ('A' for Active; 'I' for Inactive)
ROOT
ATOM      1  C4' PXY d   1      -1.803  -2.038   2.226  0.00  0.00     0.077 C 
ATOM      2  C1' PXY d   1       0.803  -1.665  -2.920  0.00  0.00     0.077 C 
ATOM      3  C1  PXY d   1       0.126  -1.752  -1.567  0.00  0.00    -0.082 A 
ATOM      4  C2  PXY d   1      -0.299  -2.923  -1.121  0.00  0.00     0.003 A 
ATOM      5  C3  PXY d   1      -0.942  -3.015   0.086  0.00  0.00     0.003 A 
ATOM      6  C4  PXY d   1      -1.105  -1.904   0.870  0.00  0.00    -0.082 A 
ATOM      7  C5  PXY d   1      -0.665  -0.707   0.428  0.00  0.00     0.003 A 
ATOM      8  C6  PXY d   1      -0.052  -0.629  -0.819  0.00  0.00     0.003 A 
ENDROOT
TORSDOF 0
ENDMDL
