MODEL 1
REMARK minimizedAffinity -4.44497347
REMARK minimizedRMSD -1
REMARK  0 active torsions:
REMARK  status: ('A' for Active; 'I' for Inactive)
ROOT
ATOM      1  C4' PXY d   1      -1.327  -1.202   0.519  0.00  0.00     0.077 C 
ATOM      2  C1' PXY d   1       1.906   3.583   0.253  0.00  0.00     0.077 C 
ATOM      3  C1  PXY d   1       1.048   2.335   0.326  0.00  0.00    -0.082 A 
ATOM      4  C2  PXY d   1       1.622   1.155   0.497  0.00  0.00     0.003 A 
ATOM      5  C3  PXY d   1       0.864   0.014   0.534  0.00  0.00     0.003 A 
ATOM      6  C4  PXY d   1      -0.501   0.085   0.448  0.00  0.00    -0.082 A 
ATOM      7  C5  PXY d   1      -1.095   1.286   0.285  0.00  0.00     0.003 A 
ATOM      8  C6  PXY d   1      -0.305   2.429   0.209  0.00  0.00     0.003 A 
ENDROOT
TORSDOF 0
ENDMDL
