MODEL 1
REMARK minimizedAffinity -5.15312624
REMARK minimizedRMSD -1
REMARK  0 active torsions:
REMARK  status: ('A' for Active; 'I' for Inactive)
ROOT
ATOM      1  C4' PXY d   1      -0.002   2.370   0.058  0.00  0.00     0.077 C 
ATOM      2  C1' PXY d   1      -0.162  -3.382   0.611  0.00  0.00     0.077 C 
ATOM      3  C1  PXY d   1      -0.133  -1.873   0.468  0.00  0.00    -0.082 A 
ATOM      4  C2  PXY d   1       0.857  -1.298  -0.197  0.00  0.00     0.003 A 
ATOM      5  C3  PXY d   1       0.916   0.067  -0.308  0.00  0.00     0.003 A 
ATOM      6  C4  PXY d   1      -0.077   0.849   0.220  0.00  0.00    -0.082 A 
ATOM      7  C5  PXY d   1      -1.095   0.269   0.890  0.00  0.00     0.003 A 
ATOM      8  C6  PXY d   1      -1.115  -1.116   1.027  0.00  0.00     0.003 A 
ENDROOT
TORSDOF 0
ENDMDL
