MODEL 1
REMARK minimizedAffinity -5.3802743
REMARK minimizedRMSD -1
REMARK  0 active torsions:
REMARK  status: ('A' for Active; 'I' for Inactive)
ROOT
ATOM      1  C4' PXY d   1       0.032   1.647   0.400  0.00  0.00     0.077 C 
ATOM      2  C1' PXY d   1       0.240  -4.104  -0.154  0.00  0.00     0.077 C 
ATOM      3  C1  PXY d   1       0.175  -2.597  -0.001  0.00  0.00    -0.082 A 
ATOM      4  C2  PXY d   1       0.771  -1.822  -0.894  0.00  0.00     0.003 A 
ATOM      5  C3  PXY d   1       0.749  -0.459  -0.754  0.00  0.00     0.003 A 
ATOM      6  C4  PXY d   1       0.064   0.121   0.281  0.00  0.00    -0.082 A 
ATOM      7  C5  PXY d   1      -0.555  -0.662   1.190  0.00  0.00     0.003 A 
ATOM      8  C6  PXY d   1      -0.486  -2.046   1.053  0.00  0.00     0.003 A 
ENDROOT
TORSDOF 0
ENDMDL
