MODEL 1
REMARK minimizedAffinity -4.85633802
REMARK minimizedRMSD -1
REMARK  0 active torsions:
REMARK  status: ('A' for Active; 'I' for Inactive)
ROOT
ATOM      1  C4' PXY d   1       0.415  -3.600   0.076  0.00  0.00     0.077 C 
ATOM      2  C1' PXY d   1      -0.989   2.004   0.267  0.00  0.00     0.077 C 
ATOM      3  C1  PXY d   1      -0.622   0.534   0.230  0.00  0.00    -0.082 A 
ATOM      4  C2  PXY d   1       0.057   0.055  -0.800  0.00  0.00     0.003 A 
ATOM      5  C3  PXY d   1       0.370  -1.278  -0.865  0.00  0.00     0.003 A 
ATOM      6  C4  PXY d   1       0.031  -2.120   0.160  0.00  0.00    -0.082 A 
ATOM      7  C5  PXY d   1      -0.653  -1.637   1.219  0.00  0.00     0.003 A 
ATOM      8  C6  PXY d   1      -0.997  -0.289   1.247  0.00  0.00     0.003 A 
ENDROOT
TORSDOF 0
ENDMDL
