MODEL 1
REMARK minimizedAffinity -3.58285713
REMARK minimizedRMSD -1
REMARK  0 active torsions:
REMARK  status: ('A' for Active; 'I' for Inactive)
ROOT
ATOM      1  C4' PXY d   1      -0.291  -2.176   0.123  0.00  0.00     0.077 C 
ATOM      2  C1' PXY d   1       0.695   3.517  -0.043  0.00  0.00     0.077 C 
ATOM      3  C1  PXY d   1       0.446   2.023   0.009  0.00  0.00    -0.082 A 
ATOM      4  C2  PXY d   1      -0.138   1.421  -1.014  0.00  0.00     0.003 A 
ATOM      5  C3  PXY d   1      -0.400   0.076  -0.970  0.00  0.00     0.003 A 
ATOM      6  C4  PXY d   1      -0.011  -0.671   0.110  0.00  0.00    -0.082 A 
ATOM      7  C5  PXY d   1       0.595  -0.066   1.153  0.00  0.00     0.003 A 
ATOM      8  C6  PXY d   1       0.814   1.308   1.107  0.00  0.00     0.003 A 
ENDROOT
TORSDOF 0
ENDMDL
