MODEL 1
REMARK minimizedAffinity -4.04308987
REMARK minimizedRMSD -1
REMARK  0 active torsions:
REMARK  status: ('A' for Active; 'I' for Inactive)
ROOT
ATOM      1  C4' PXY d   1       0.389  -3.760   0.418  0.00  0.00     0.077 C 
ATOM      2  C1' PXY d   1      -0.035   1.898  -0.687  0.00  0.00     0.077 C 
ATOM      3  C1  PXY d   1       0.073   0.416  -0.385  0.00  0.00    -0.082 A 
ATOM      4  C2  PXY d   1       0.838  -0.352  -1.144  0.00  0.00     0.003 A 
ATOM      5  C3  PXY d   1       0.922  -1.700  -0.904  0.00  0.00     0.003 A 
ATOM      6  C4  PXY d   1       0.258  -2.257   0.156  0.00  0.00    -0.082 A 
ATOM      7  C5  PXY d   1      -0.516  -1.478   0.941  0.00  0.00     0.003 A 
ATOM      8  C6  PXY d   1      -0.621  -0.120   0.655  0.00  0.00     0.003 A 
ENDROOT
TORSDOF 0
ENDMDL
