MODEL 1
REMARK minimizedAffinity -2.74583507
REMARK minimizedRMSD -1
REMARK  0 active torsions:
REMARK  status: ('A' for Active; 'I' for Inactive)
ROOT
ATOM      1  C4' PXY d   1      -0.178   1.824   0.456  0.00  0.00     0.077 C 
ATOM      2  C1' PXY d   1       0.218  -3.942   0.545  0.00  0.00     0.077 C 
ATOM      3  C1  PXY d   1       0.102  -2.431   0.525  0.00  0.00    -0.082 A 
ATOM      4  C2  PXY d   1       0.971  -1.717  -0.172  0.00  0.00     0.003 A 
ATOM      5  C3  PXY d   1       0.899  -0.348  -0.176  0.00  0.00     0.003 A 
ATOM      6  C4  PXY d   1      -0.104   0.296   0.498  0.00  0.00    -0.082 A 
ATOM      7  C5  PXY d   1      -1.001  -0.426   1.203  0.00  0.00     0.003 A 
ATOM      8  C6  PXY d   1      -0.887  -1.813   1.228  0.00  0.00     0.003 A 
ENDROOT
TORSDOF 0
ENDMDL
