MODEL 1
REMARK minimizedAffinity 0.304742306
REMARK minimizedRMSD -1
REMARK  0 active torsions:
REMARK  status: ('A' for Active; 'I' for Inactive)
ROOT
ATOM      1  C4' PXY d   1      -0.934   1.976   0.153  0.00  0.00     0.077 C 
ATOM      2  C1' PXY d   1      -0.300  -3.699   1.049  0.00  0.00     0.077 C 
ATOM      3  C1  PXY d   1      -0.454  -2.211   0.809  0.00  0.00    -0.082 A 
ATOM      4  C2  PXY d   1      -1.279  -1.508   1.568  0.00  0.00     0.003 A 
ATOM      5  C3  PXY d   1      -1.455  -0.166   1.343  0.00  0.00     0.003 A 
ATOM      6  C4  PXY d   1      -0.739   0.472   0.366  0.00  0.00    -0.082 A 
ATOM      7  C5  PXY d   1       0.112  -0.236  -0.406  0.00  0.00     0.003 A 
ATOM      8  C6  PXY d   1       0.245  -1.604  -0.188  0.00  0.00     0.003 A 
ENDROOT
TORSDOF 0
ENDMDL
