MODEL 1
REMARK minimizedAffinity -0.196924835
REMARK minimizedRMSD -1
REMARK  0 active torsions:
REMARK  status: ('A' for Active; 'I' for Inactive)
ROOT
ATOM      1  C4' PXY d   1       1.522   3.355   0.684  0.00  0.00     0.077 C 
ATOM      2  C1' PXY d   1      -0.076  -1.579  -1.869  0.00  0.00     0.077 C 
ATOM      3  C1  PXY d   1       0.344  -0.291  -1.188  0.00  0.00    -0.082 A 
ATOM      4  C2  PXY d   1      -0.053   0.870  -1.683  0.00  0.00     0.003 A 
ATOM      5  C3  PXY d   1       0.345   2.045  -1.098  0.00  0.00     0.003 A 
ATOM      6  C4  PXY d   1       1.113   2.030   0.035  0.00  0.00    -0.082 A 
ATOM      7  C5  PXY d   1       1.514   0.849   0.552  0.00  0.00     0.003 A 
ATOM      8  C6  PXY d   1       1.133  -0.332  -0.080  0.00  0.00     0.003 A 
ENDROOT
TORSDOF 0
ENDMDL
