MODEL 1
REMARK minimizedAffinity -4.88809729
REMARK minimizedRMSD -1
REMARK  0 active torsions:
REMARK  status: ('A' for Active; 'I' for Inactive)
ROOT
ATOM      1  C4' PXY d   1      -0.070  -3.769   0.235  0.00  0.00     0.077 C 
ATOM      2  C1' PXY d   1      -0.243   1.998   0.597  0.00  0.00     0.077 C 
ATOM      3  C1  PXY d   1      -0.207   0.485   0.511  0.00  0.00    -0.082 A 
ATOM      4  C2  PXY d   1       0.886  -0.119   0.074  0.00  0.00     0.003 A 
ATOM      5  C3  PXY d   1       0.924  -1.485  -0.041  0.00  0.00     0.003 A 
ATOM      6  C4  PXY d   1      -0.148  -2.244   0.347  0.00  0.00    -0.082 A 
ATOM      7  C5  PXY d   1      -1.263  -1.635   0.804  0.00  0.00     0.003 A 
ATOM      8  C6  PXY d   1      -1.297  -0.245   0.874  0.00  0.00     0.003 A 
ENDROOT
TORSDOF 0
ENDMDL
