MODEL 1
REMARK minimizedAffinity -5.86605787
REMARK minimizedRMSD -1
REMARK  0 active torsions:
REMARK  status: ('A' for Active; 'I' for Inactive)
ROOT
ATOM      1  C4' PXY d   1       0.510  -1.855  -3.348  0.00  0.00     0.077 C 
ATOM      2  C1' PXY d   1      -1.036  -1.946   2.221  0.00  0.00     0.077 C 
ATOM      3  C1  PXY d   1      -0.627  -1.935   0.761  0.00  0.00    -0.082 A 
ATOM      4  C2  PXY d   1      -0.262  -0.797   0.193  0.00  0.00     0.003 A 
ATOM      5  C3  PXY d   1       0.080  -0.763  -1.135  0.00  0.00     0.003 A 
ATOM      6  C4  PXY d   1       0.099  -1.915  -1.875  0.00  0.00    -0.082 A 
ATOM      7  C5  PXY d   1      -0.263  -3.082  -1.299  0.00  0.00     0.003 A 
ATOM      8  C6  PXY d   1      -0.646  -3.088   0.039  0.00  0.00     0.003 A 
ENDROOT
TORSDOF 0
ENDMDL
