MODEL 1
REMARK minimizedAffinity -3.95041347
REMARK minimizedRMSD -1
REMARK  0 active torsions:
REMARK  status: ('A' for Active; 'I' for Inactive)
ROOT
ATOM      1  C4' PXY d   1       0.517  -4.537   0.314  0.00  0.00     0.077 C 
ATOM      2  C1' PXY d   1      -0.869   1.075   0.309  0.00  0.00     0.077 C 
ATOM      3  C1  PXY d   1      -0.513  -0.399   0.321  0.00  0.00    -0.082 A 
ATOM      4  C2  PXY d   1       0.606  -0.806  -0.256  0.00  0.00     0.003 A 
ATOM      5  C3  PXY d   1       0.928  -2.139  -0.282  0.00  0.00     0.003 A 
ATOM      6  C4  PXY d   1       0.122  -3.058   0.334  0.00  0.00    -0.082 A 
ATOM      7  C5  PXY d   1      -1.016  -2.649   0.934  0.00  0.00     0.003 A 
ATOM      8  C6  PXY d   1      -1.345  -1.297   0.914  0.00  0.00     0.003 A 
ENDROOT
TORSDOF 0
ENDMDL
