MODEL 1
REMARK minimizedAffinity -0.513491452
REMARK minimizedRMSD -1
REMARK  0 active torsions:
REMARK  status: ('A' for Active; 'I' for Inactive)
ROOT
ATOM      1  C4' PXY d   1      -0.180  -0.377  -2.004  0.00  0.00     0.077 C 
ATOM      2  C1' PXY d   1       0.402   3.457   2.283  0.00  0.00     0.077 C 
ATOM      3  C1  PXY d   1       0.250   2.442   1.168  0.00  0.00    -0.082 A 
ATOM      4  C2  PXY d   1       0.597   2.769  -0.067  0.00  0.00     0.003 A 
ATOM      5  C3  PXY d   1       0.436   1.874  -1.093  0.00  0.00     0.003 A 
ATOM      6  C4  PXY d   1      -0.035   0.613  -0.845  0.00  0.00    -0.082 A 
ATOM      7  C5  PXY d   1      -0.381   0.268   0.414  0.00  0.00     0.003 A 
ATOM      8  C6  PXY d   1      -0.249   1.204   1.435  0.00  0.00     0.003 A 
ENDROOT
TORSDOF 0
ENDMDL
