MODEL 1
REMARK minimizedAffinity -4.94729757
REMARK minimizedRMSD -1
REMARK  0 active torsions:
REMARK  status: ('A' for Active; 'I' for Inactive)
ROOT
ATOM      1  C4' PXY d   1       0.012  -4.325  -0.733  0.00  0.00     0.077 C 
ATOM      2  C1' PXY d   1       0.018   1.445  -0.391  0.00  0.00     0.077 C 
ATOM      3  C1  PXY d   1       0.016  -0.067  -0.494  0.00  0.00    -0.082 A 
ATOM      4  C2  PXY d   1      -0.376  -0.793   0.541  0.00  0.00     0.003 A 
ATOM      5  C3  PXY d   1      -0.354  -2.162   0.476  0.00  0.00     0.003 A 
ATOM      6  C4  PXY d   1       0.022  -2.795  -0.678  0.00  0.00    -0.082 A 
ATOM      7  C5  PXY d   1       0.413  -2.062  -1.742  0.00  0.00     0.003 A 
ATOM      8  C6  PXY d   1       0.423  -0.674  -1.642  0.00  0.00     0.003 A 
ENDROOT
TORSDOF 0
ENDMDL
