MODEL 1
REMARK minimizedAffinity -5.17107296
REMARK minimizedRMSD -1
REMARK  0 active torsions:
REMARK  status: ('A' for Active; 'I' for Inactive)
ROOT
ATOM      1  C4' PXY d   1      -0.722  -4.086   0.022  0.00  0.00     0.077 C 
ATOM      2  C1' PXY d   1      -0.302   1.641  -0.641  0.00  0.00     0.077 C 
ATOM      3  C1  PXY d   1      -0.410   0.137  -0.480  0.00  0.00    -0.082 A 
ATOM      4  C2  PXY d   1      -1.075  -0.364   0.549  0.00  0.00     0.003 A 
ATOM      5  C3  PXY d   1      -1.155  -1.721   0.727  0.00  0.00     0.003 A 
ATOM      6  C4  PXY d   1      -0.595  -2.575  -0.185  0.00  0.00    -0.082 A 
ATOM      7  C5  PXY d   1       0.075  -2.071  -1.243  0.00  0.00     0.003 A 
ATOM      8  C6  PXY d   1       0.181  -0.690  -1.384  0.00  0.00     0.003 A 
ENDROOT
TORSDOF 0
ENDMDL
