MODEL 1
REMARK minimizedAffinity -2.45361781
REMARK minimizedRMSD -1
REMARK  0 active torsions:
REMARK  status: ('A' for Active; 'I' for Inactive)
ROOT
ATOM      1  C4' PXY d   1       0.341   2.759  -0.304  0.00  0.00     0.077 C 
ATOM      2  C1' PXY d   1      -1.283  -2.766   0.199  0.00  0.00     0.077 C 
ATOM      3  C1  PXY d   1      -0.869  -1.313   0.071  0.00  0.00    -0.082 A 
ATOM      4  C2  PXY d   1       0.139  -0.988  -0.722  0.00  0.00     0.003 A 
ATOM      5  C3  PXY d   1       0.547   0.317  -0.826  0.00  0.00     0.003 A 
ATOM      6  C4  PXY d   1      -0.118   1.306  -0.151  0.00  0.00    -0.082 A 
ATOM      7  C5  PXY d   1      -1.153   0.984   0.652  0.00  0.00     0.003 A 
ATOM      8  C6  PXY d   1      -1.526  -0.352   0.775  0.00  0.00     0.003 A 
ENDROOT
TORSDOF 0
ENDMDL
