MODEL 1
REMARK minimizedAffinity 21.9159203
REMARK minimizedRMSD -1
REMARK  0 active torsions:
REMARK  status: ('A' for Active; 'I' for Inactive)
ROOT
ATOM      1  C   UNL d   1       1.603  -0.906  -4.881  0.00  0.00    -0.002 A 
ATOM      2  C1  UNL d   1       0.640  -1.716  -4.296  0.00  0.00     0.010 A 
ATOM      3  C2  UNL d   1       0.577  -1.856  -2.908  0.00  0.00     0.041 A 
ATOM      4  C3  UNL d   1       1.505  -1.159  -2.110  0.00  0.00    -0.075 A 
ATOM      5  S   UNL d   1       1.618  -1.178  -0.390  0.00  0.00     0.015 SA
ATOM      6  C4  UNL d   1       2.946  -0.110  -0.390  0.00  0.00     0.022 A 
ATOM      7  C5  UNL d   1       3.309   0.261  -1.664  0.00  0.00     0.026 A 
ATOM      8  C6  UNL d   1       2.484  -0.337  -2.676  0.00  0.00    -0.082 A 
ATOM      9  C7  UNL d   1       2.523  -0.217  -4.086  0.00  0.00     0.045 A 
ENDROOT
TORSDOF 0
ENDMDL
