MODEL 1
REMARK minimizedAffinity 16.3011932
REMARK minimizedRMSD -1
REMARK  0 active torsions:
REMARK  status: ('A' for Active; 'I' for Inactive)
ROOT
ATOM      1  C   UNL d   1       1.602   0.092  -4.379  0.00  0.00    -0.002 A 
ATOM      2  C1  UNL d   1       1.866  -1.081  -5.072  0.00  0.00     0.010 A 
ATOM      3  C2  UNL d   1       2.090  -2.277  -4.385  0.00  0.00     0.041 A 
ATOM      4  C3  UNL d   1       2.042  -2.273  -2.977  0.00  0.00    -0.075 A 
ATOM      5  S   UNL d   1       2.283  -3.618  -1.926  0.00  0.00     0.015 SA
ATOM      6  C4  UNL d   1       2.041  -2.667  -0.532  0.00  0.00     0.022 A 
ATOM      7  C5  UNL d   1       1.782  -1.354  -0.843  0.00  0.00     0.026 A 
ATOM      8  C6  UNL d   1       1.777  -1.105  -2.257  0.00  0.00    -0.082 A 
ATOM      9  C7  UNL d   1       1.555   0.091  -2.982  0.00  0.00     0.045 A 
ENDROOT
TORSDOF 0
ENDMDL
