MODEL 1
REMARK minimizedAffinity 19.5054855
REMARK minimizedRMSD -1
REMARK  0 active torsions:
REMARK  status: ('A' for Active; 'I' for Inactive)
ROOT
ATOM      1  C   UNL d   1       1.072  -1.117  -2.318  0.00  0.00    -0.002 A 
ATOM      2  C1  UNL d   1      -0.042  -0.356  -2.640  0.00  0.00     0.010 A 
ATOM      3  C2  UNL d   1      -1.214  -0.966  -3.091  0.00  0.00     0.041 A 
ATOM      4  C3  UNL d   1      -1.248  -2.370  -3.212  0.00  0.00    -0.075 A 
ATOM      5  S   UNL d   1      -2.574  -3.335  -3.742  0.00  0.00     0.015 SA
ATOM      6  C4  UNL d   1      -1.693  -4.782  -3.553  0.00  0.00     0.022 A 
ATOM      7  C5  UNL d   1      -0.416  -4.552  -3.097  0.00  0.00     0.026 A 
ATOM      8  C6  UNL d   1      -0.139  -3.158  -2.893  0.00  0.00    -0.082 A 
ATOM      9  C7  UNL d   1       1.035  -2.509  -2.439  0.00  0.00     0.045 A 
ENDROOT
TORSDOF 0
ENDMDL
