MODEL 1
REMARK minimizedAffinity 20.1900692
REMARK minimizedRMSD -1
REMARK  0 active torsions:
REMARK  status: ('A' for Active; 'I' for Inactive)
ROOT
ATOM      1  C   UNL d   1       1.880  -1.879  -0.659  0.00  0.00    -0.002 A 
ATOM      2  C1  UNL d   1       1.546  -1.319  -1.884  0.00  0.00     0.010 A 
ATOM      3  C2  UNL d   1       2.021  -0.055  -2.240  0.00  0.00     0.041 A 
ATOM      4  C3  UNL d   1       2.847   0.642  -1.337  0.00  0.00    -0.075 A 
ATOM      5  S   UNL d   1       3.547   2.202  -1.560  0.00  0.00     0.015 SA
ATOM      6  C4  UNL d   1       4.307   2.162  -0.035  0.00  0.00     0.022 A 
ATOM      7  C5  UNL d   1       4.044   0.994   0.641  0.00  0.00     0.026 A 
ATOM      8  C6  UNL d   1       3.199   0.099  -0.098  0.00  0.00    -0.082 A 
ATOM      9  C7  UNL d   1       2.700  -1.184   0.234  0.00  0.00     0.045 A 
ENDROOT
TORSDOF 0
ENDMDL
