MODEL 1
REMARK minimizedAffinity 88.833252
REMARK minimizedRMSD -1
REMARK  0 active torsions:
REMARK  status: ('A' for Active; 'I' for Inactive)
ROOT
ATOM      1  C   UNL d   1       0.000   0.253  -1.334  0.00  0.00    -0.002 A 
ATOM      2  C1  UNL d   1       0.734   0.689  -0.240  0.00  0.00     0.010 A 
ATOM      3  C2  UNL d   1       2.114   0.876  -0.339  0.00  0.00     0.041 A 
ATOM      4  C3  UNL d   1       2.750   0.617  -1.569  0.00  0.00    -0.075 A 
ATOM      5  S   UNL d   1       4.430   0.776  -1.925  0.00  0.00     0.015 SA
ATOM      6  C4  UNL d   1       4.212   0.271  -3.538  0.00  0.00     0.022 A 
ATOM      7  C5  UNL d   1       2.897  -0.017  -3.815  0.00  0.00     0.026 A 
ATOM      8  C6  UNL d   1       2.032   0.178  -2.685  0.00  0.00    -0.082 A 
ATOM      9  C7  UNL d   1       0.635  -0.003  -2.552  0.00  0.00     0.045 A 
ENDROOT
TORSDOF 0
ENDMDL
