MODEL 1
REMARK minimizedAffinity 6.65958929
REMARK minimizedRMSD -1
REMARK  0 active torsions:
REMARK  status: ('A' for Active; 'I' for Inactive)
ROOT
ATOM      1  C   UNL d   1      -3.968  -0.224  -0.662  0.00  0.00    -0.002 A 
ATOM      2  C1  UNL d   1      -3.815   0.164   0.662  0.00  0.00     0.010 A 
ATOM      3  C2  UNL d   1      -2.704  -0.250   1.399  0.00  0.00     0.041 A 
ATOM      4  C3  UNL d   1      -1.738  -1.065   0.777  0.00  0.00    -0.075 A 
ATOM      5  S   UNL d   1      -0.295  -1.691   1.484  0.00  0.00     0.015 SA
ATOM      6  C4  UNL d   1       0.153  -2.486   0.044  0.00  0.00     0.022 A 
ATOM      7  C5  UNL d   1      -0.764  -2.290  -0.961  0.00  0.00     0.026 A 
ATOM      8  C6  UNL d   1      -1.869  -1.467  -0.555  0.00  0.00    -0.082 A 
ATOM      9  C7  UNL d   1      -3.007  -1.032  -1.276  0.00  0.00     0.045 A 
ENDROOT
TORSDOF 0
ENDMDL
