MODEL 1
REMARK minimizedAffinity 29.2780418
REMARK minimizedRMSD -1
REMARK  0 active torsions:
REMARK  status: ('A' for Active; 'I' for Inactive)
ROOT
ATOM      1  C   UNL d   1       0.672  -1.875  -1.174  0.00  0.00    -0.002 A 
ATOM      2  C1  UNL d   1       0.511  -1.080  -2.300  0.00  0.00     0.010 A 
ATOM      3  C2  UNL d   1       1.306   0.052  -2.490  0.00  0.00     0.041 A 
ATOM      4  C3  UNL d   1       2.276   0.374  -1.521  0.00  0.00    -0.075 A 
ATOM      5  S   UNL d   1       3.364   1.711  -1.543  0.00  0.00     0.015 SA
ATOM      6  C4  UNL d   1       4.069   1.258  -0.059  0.00  0.00     0.022 A 
ATOM      7  C5  UNL d   1       3.501   0.117   0.455  0.00  0.00     0.026 A 
ATOM      8  C6  UNL d   1       2.458  -0.412  -0.379  0.00  0.00    -0.082 A 
ATOM      9  C7  UNL d   1       1.636  -1.553  -0.215  0.00  0.00     0.045 A 
ENDROOT
TORSDOF 0
ENDMDL
