MODEL 1
REMARK minimizedAffinity 20.6507492
REMARK minimizedRMSD -1
REMARK  0 active torsions:
REMARK  status: ('A' for Active; 'I' for Inactive)
ROOT
ATOM      1  C   UNL d   1       0.733   1.585   2.725  0.00  0.00    -0.002 A 
ATOM      2  C1  UNL d   1       2.019   2.099   2.805  0.00  0.00     0.010 A 
ATOM      3  C2  UNL d   1       2.937   1.881   1.776  0.00  0.00     0.041 A 
ATOM      4  C3  UNL d   1       2.536   1.132   0.653  0.00  0.00    -0.075 A 
ATOM      5  S   UNL d   1       3.490   0.738  -0.728  0.00  0.00     0.015 SA
ATOM      6  C4  UNL d   1       2.213  -0.121  -1.459  0.00  0.00     0.022 A 
ATOM      7  C5  UNL d   1       1.079  -0.119  -0.681  0.00  0.00     0.026 A 
ATOM      8  C6  UNL d   1       1.246   0.604   0.548  0.00  0.00    -0.082 A 
ATOM      9  C7  UNL d   1       0.339   0.841   1.609  0.00  0.00     0.045 A 
ENDROOT
TORSDOF 0
ENDMDL
