MODEL 1
REMARK minimizedAffinity 20.5458565
REMARK minimizedRMSD -1
REMARK  0 active torsions:
REMARK  status: ('A' for Active; 'I' for Inactive)
ROOT
ATOM      1  C   UNL d   1       3.829   1.184  -1.041  0.00  0.00    -0.002 A 
ATOM      2  C1  UNL d   1       4.413   0.229  -0.221  0.00  0.00     0.010 A 
ATOM      3  C2  UNL d   1       3.828  -1.029  -0.067  0.00  0.00     0.041 A 
ATOM      4  C3  UNL d   1       2.635  -1.315  -0.759  0.00  0.00    -0.075 A 
ATOM      5  S   UNL d   1       1.740  -2.789  -0.723  0.00  0.00     0.015 SA
ATOM      6  C4  UNL d   1       0.562  -2.186  -1.797  0.00  0.00     0.022 A 
ATOM      7  C5  UNL d   1       0.828  -0.894  -2.183  0.00  0.00     0.026 A 
ATOM      8  C6  UNL d   1       2.028  -0.371  -1.591  0.00  0.00    -0.082 A 
ATOM      9  C7  UNL d   1       2.645   0.896  -1.726  0.00  0.00     0.045 A 
ENDROOT
TORSDOF 0
ENDMDL
