MODEL 1
REMARK minimizedAffinity 17.1813126
REMARK minimizedRMSD -1
REMARK  0 active torsions:
REMARK  status: ('A' for Active; 'I' for Inactive)
ROOT
ATOM      1  C   UNL d   1      -3.555  -2.678  -5.055  0.00  0.00    -0.002 A 
ATOM      2  C1  UNL d   1      -3.393  -2.271  -3.738  0.00  0.00     0.010 A 
ATOM      3  C2  UNL d   1      -2.512  -2.944  -2.889  0.00  0.00     0.041 A 
ATOM      4  C3  UNL d   1      -1.788  -4.043  -3.392  0.00  0.00    -0.075 A 
ATOM      5  S   UNL d   1      -0.652  -5.018  -2.536  0.00  0.00     0.015 SA
ATOM      6  C4  UNL d   1      -0.354  -5.997  -3.899  0.00  0.00     0.022 A 
ATOM      7  C5  UNL d   1      -1.095  -5.605  -4.988  0.00  0.00     0.026 A 
ATOM      8  C6  UNL d   1      -1.933  -4.471  -4.714  0.00  0.00    -0.082 A 
ATOM      9  C7  UNL d   1      -2.835  -3.769  -5.549  0.00  0.00     0.045 A 
ENDROOT
TORSDOF 0
ENDMDL
