MODEL 1
REMARK minimizedAffinity -1.63045537
REMARK minimizedRMSD -1
REMARK  0 active torsions:
REMARK  status: ('A' for Active; 'I' for Inactive)
ROOT
ATOM      1  C   UNL d   1      -1.137  -3.895  -3.703  0.00  0.00    -0.002 A 
ATOM      2  C1  UNL d   1      -1.045  -5.274  -3.830  0.00  0.00     0.010 A 
ATOM      3  C2  UNL d   1      -2.055  -5.998  -4.467  0.00  0.00     0.041 A 
ATOM      4  C3  UNL d   1      -3.170  -5.306  -4.980  0.00  0.00    -0.075 A 
ATOM      5  S   UNL d   1      -4.527  -5.984  -5.798  0.00  0.00     0.015 SA
ATOM      6  C4  UNL d   1      -5.262  -4.459  -6.000  0.00  0.00     0.022 A 
ATOM      7  C5  UNL d   1      -4.503  -3.446  -5.461  0.00  0.00     0.026 A 
ATOM      8  C6  UNL d   1      -3.285  -3.918  -4.865  0.00  0.00    -0.082 A 
ATOM      9  C7  UNL d   1      -2.245  -3.212  -4.214  0.00  0.00     0.045 A 
ENDROOT
TORSDOF 0
ENDMDL
