MODEL 1
REMARK minimizedAffinity 14.960927
REMARK minimizedRMSD -1
REMARK  0 active torsions:
REMARK  status: ('A' for Active; 'I' for Inactive)
ROOT
ATOM      1  C   UNL d   1       1.156  -3.019  -1.342  0.00  0.00    -0.002 A 
ATOM      2  C1  UNL d   1       0.524  -2.019  -2.067  0.00  0.00     0.010 A 
ATOM      3  C2  UNL d   1       0.983  -0.702  -2.010  0.00  0.00     0.041 A 
ATOM      4  C3  UNL d   1       2.100  -0.404  -1.204  0.00  0.00    -0.075 A 
ATOM      5  S   UNL d   1       2.838   1.138  -0.980  0.00  0.00     0.015 SA
ATOM      6  C4  UNL d   1       4.011   0.506   0.083  0.00  0.00     0.022 A 
ATOM      7  C5  UNL d   1       3.857  -0.847   0.273  0.00  0.00     0.026 A 
ATOM      8  C6  UNL d   1       2.754  -1.394  -0.466  0.00  0.00    -0.082 A 
ATOM      9  C7  UNL d   1       2.264  -2.720  -0.544  0.00  0.00     0.045 A 
ENDROOT
TORSDOF 0
ENDMDL
