MODEL 1
REMARK minimizedAffinity 19.8067913
REMARK minimizedRMSD -1
REMARK  0 active torsions:
REMARK  status: ('A' for Active; 'I' for Inactive)
ROOT
ATOM      1  C   UNL d   1       2.421  -0.451  -4.862  0.00  0.00    -0.002 A 
ATOM      2  C1  UNL d   1       3.076  -1.664  -5.021  0.00  0.00     0.010 A 
ATOM      3  C2  UNL d   1       3.171  -2.565  -3.959  0.00  0.00     0.041 A 
ATOM      4  C3  UNL d   1       2.590  -2.224  -2.721  0.00  0.00    -0.075 A 
ATOM      5  S   UNL d   1       2.582  -3.170  -1.281  0.00  0.00     0.015 SA
ATOM      6  C4  UNL d   1       1.708  -1.987  -0.420  0.00  0.00     0.022 A 
ATOM      7  C5  UNL d   1       1.421  -0.890  -1.197  0.00  0.00     0.026 A 
ATOM      8  C6  UNL d   1       1.924  -1.008  -2.537  0.00  0.00    -0.082 A 
ATOM      9  C7  UNL d   1       1.845  -0.116  -3.633  0.00  0.00     0.045 A 
ENDROOT
TORSDOF 0
ENDMDL
