MODEL 1
REMARK minimizedAffinity 6.05057287
REMARK minimizedRMSD -1
REMARK  0 active torsions:
REMARK  status: ('A' for Active; 'I' for Inactive)
ROOT
ATOM      1  N1  IND d   1      -0.002  -1.941   0.621  0.00  0.00    -0.196 N 
ATOM      2  C2  IND d   1       0.025  -1.706   1.967  0.00  0.00     0.054 A 
ATOM      3  C3  IND d   1      -1.163  -1.210   2.382  0.00  0.00    -0.031 A 
ATOM      4  C4  IND d   1      -3.320  -0.797   1.040  0.00  0.00     0.051 A 
ATOM      5  C5  IND d   1      -3.820  -0.826  -0.232  0.00  0.00    -0.031 A 
ATOM      6  C6  IND d   1      -3.058  -1.238  -1.306  0.00  0.00     0.015 A 
ATOM      7  C7  IND d   1      -1.766  -1.651  -1.145  0.00  0.00    -0.016 A 
ATOM      8  C8  IND d   1      -1.252  -1.616   0.144  0.00  0.00    -0.047 A 
ATOM      9  C9  IND d   1      -2.008  -1.158   1.231  0.00  0.00    -0.096 A 
ATOM     10  HN1 IND d   1       0.653  -2.240   0.151  0.00  0.00     0.298 HD
ENDROOT
TORSDOF 0
ENDMDL
