MODEL 1
REMARK minimizedAffinity 12.57061
REMARK minimizedRMSD -1
REMARK  0 active torsions:
REMARK  status: ('A' for Active; 'I' for Inactive)
ROOT
ATOM      1  N1  IND d   1       0.487   1.450   3.173  0.00  0.00    -0.196 N 
ATOM      2  C2  IND d   1      -0.835   1.768   3.317  0.00  0.00     0.054 A 
ATOM      3  C3  IND d   1      -1.614   0.741   2.909  0.00  0.00    -0.031 A 
ATOM      4  C4  IND d   1      -0.931  -1.593   2.064  0.00  0.00     0.051 A 
ATOM      5  C5  IND d   1       0.163  -2.338   1.725  0.00  0.00    -0.031 A 
ATOM      6  C6  IND d   1       1.447  -1.850   1.856  0.00  0.00     0.015 A 
ATOM      7  C7  IND d   1       1.686  -0.597   2.345  0.00  0.00    -0.016 A 
ATOM      8  C8  IND d   1       0.577   0.165   2.683  0.00  0.00    -0.047 A 
ATOM      9  C9  IND d   1      -0.730  -0.309   2.512  0.00  0.00    -0.096 A 
ATOM     10  HN1 IND d   1       1.150   1.965   3.357  0.00  0.00     0.298 HD
ENDROOT
TORSDOF 0
ENDMDL
