MODEL 1
REMARK minimizedAffinity -2.28084922
REMARK minimizedRMSD -1
REMARK  0 active torsions:
REMARK  status: ('A' for Active; 'I' for Inactive)
ROOT
ATOM      1  N1  IND d   1       5.923   2.452   5.981  0.00  0.00    -0.196 N 
ATOM      2  C2  IND d   1       4.978   1.465   5.978  0.00  0.00     0.054 A 
ATOM      3  C3  IND d   1       3.737   2.002   5.996  0.00  0.00    -0.031 A 
ATOM      4  C4  IND d   1       3.024   4.474   5.929  0.00  0.00     0.051 A 
ATOM      5  C5  IND d   1       3.532   5.743   5.961  0.00  0.00    -0.031 A 
ATOM      6  C6  IND d   1       4.890   5.984   6.000  0.00  0.00     0.015 A 
ATOM      7  C7  IND d   1       5.795   4.961   5.996  0.00  0.00    -0.016 A 
ATOM      8  C8  IND d   1       5.284   3.672   5.970  0.00  0.00    -0.047 A 
ATOM      9  C9  IND d   1       3.905   3.420   5.974  0.00  0.00    -0.096 A 
ATOM     10  HN1 IND d   1       6.775   2.331   5.988  0.00  0.00     0.298 HD
ENDROOT
TORSDOF 0
ENDMDL
