MODEL 1
REMARK minimizedAffinity 4.23922014
REMARK minimizedRMSD -1
REMARK  0 active torsions:
REMARK  status: ('A' for Active; 'I' for Inactive)
ROOT
ATOM      1  N1  IND d   1       2.175   3.740   5.958  0.00  0.00    -0.196 N 
ATOM      2  C2  IND d   1       1.476   4.914   5.897  0.00  0.00     0.054 A 
ATOM      3  C3  IND d   1       2.325   5.965   5.847  0.00  0.00    -0.031 A 
ATOM      4  C4  IND d   1       4.898   5.986   5.752  0.00  0.00     0.051 A 
ATOM      5  C5  IND d   1       5.985   5.160   5.819  0.00  0.00    -0.031 A 
ATOM      6  C6  IND d   1       5.855   3.792   5.935  0.00  0.00     0.015 A 
ATOM      7  C7  IND d   1       4.627   3.194   5.977  0.00  0.00    -0.016 A 
ATOM      8  C8  IND d   1       3.521   4.029   5.917  0.00  0.00    -0.047 A 
ATOM      9  C9  IND d   1       3.647   5.422   5.842  0.00  0.00    -0.096 A 
ATOM     10  HN1 IND d   1       1.831   2.954   6.012  0.00  0.00     0.298 HD
ENDROOT
TORSDOF 0
ENDMDL
