MODEL 1
REMARK minimizedAffinity 0.119110562
REMARK minimizedRMSD -1
REMARK  0 active torsions:
REMARK  status: ('A' for Active; 'I' for Inactive)
ROOT
ATOM      1  N1  IND d   1      -4.762   5.997  -1.100  0.00  0.00    -0.196 N 
ATOM      2  C2  IND d   1      -3.727   5.256  -1.600  0.00  0.00     0.054 A 
ATOM      3  C3  IND d   1      -3.303   4.361  -0.680  0.00  0.00    -0.031 A 
ATOM      4  C4  IND d   1      -4.227   3.870   1.673  0.00  0.00     0.051 A 
ATOM      5  C5  IND d   1      -5.144   4.314   2.584  0.00  0.00    -0.031 A 
ATOM      6  C6  IND d   1      -5.999   5.361   2.307  0.00  0.00     0.015 A 
ATOM      7  C7  IND d   1      -5.977   5.998   1.099  0.00  0.00    -0.016 A 
ATOM      8  C8  IND d   1      -5.043   5.555   0.174  0.00  0.00    -0.047 A 
ATOM      9  C9  IND d   1      -4.144   4.521   0.464  0.00  0.00    -0.096 A 
ATOM     10  HN1 IND d   1      -5.168   6.633  -1.513  0.00  0.00     0.298 HD
ENDROOT
TORSDOF 0
ENDMDL
