MODEL 1
REMARK minimizedAffinity 11.6074085
REMARK minimizedRMSD -1
REMARK  0 active torsions:
REMARK  status: ('A' for Active; 'I' for Inactive)
ROOT
ATOM      1  N1  IND d   1      -3.574   2.473  -4.623  0.00  0.00    -0.196 N 
ATOM      2  C2  IND d   1      -4.277   1.599  -5.404  0.00  0.00     0.054 A 
ATOM      3  C3  IND d   1      -5.314   2.230  -5.999  0.00  0.00    -0.031 A 
ATOM      4  C4  IND d   1      -5.982   4.715  -5.914  0.00  0.00     0.051 A 
ATOM      5  C5  IND d   1      -5.663   5.896  -5.305  0.00  0.00    -0.031 A 
ATOM      6  C6  IND d   1      -4.608   5.999  -4.421  0.00  0.00     0.015 A 
ATOM      7  C7  IND d   1      -3.823   4.922  -4.121  0.00  0.00    -0.016 A 
ATOM      8  C8  IND d   1      -4.148   3.720  -4.733  0.00  0.00    -0.047 A 
ATOM      9  C9  IND d   1      -5.243   3.600  -5.598  0.00  0.00    -0.096 A 
ATOM     10  HN1 IND d   1      -2.888   2.276  -4.143  0.00  0.00     0.298 HD
ENDROOT
TORSDOF 0
ENDMDL
