MODEL 1
REMARK minimizedAffinity 13.5784063
REMARK minimizedRMSD -1
REMARK  0 active torsions:
REMARK  status: ('A' for Active; 'I' for Inactive)
ROOT
ATOM      1  N1  IND d   1       3.116   1.498  -2.262  0.00  0.00    -0.196 N 
ATOM      2  C2  IND d   1       2.462   0.394  -1.790  0.00  0.00     0.054 A 
ATOM      3  C3  IND d   1       3.026  -0.732  -2.283  0.00  0.00    -0.031 A 
ATOM      4  C4  IND d   1       5.090  -1.001  -3.798  0.00  0.00     0.051 A 
ATOM      5  C5  IND d   1       6.000  -0.277  -4.517  0.00  0.00    -0.031 A 
ATOM      6  C6  IND d   1       5.996   1.103  -4.519  0.00  0.00     0.015 A 
ATOM      7  C7  IND d   1       5.086   1.814  -3.789  0.00  0.00    -0.016 A 
ATOM      8  C8  IND d   1       4.156   1.083  -3.064  0.00  0.00    -0.047 A 
ATOM      9  C9  IND d   1       4.128  -0.318  -3.092  0.00  0.00    -0.096 A 
ATOM     10  HN1 IND d   1       2.911   2.315  -2.087  0.00  0.00     0.298 HD
ENDROOT
TORSDOF 0
ENDMDL
