MODEL 1
REMARK minimizedAffinity 18.6048145
REMARK minimizedRMSD -1
REMARK  0 active torsions:
REMARK  status: ('A' for Active; 'I' for Inactive)
ROOT
ATOM      1  N1  IND d   1       5.080  -1.517  -3.378  0.00  0.00    -0.196 N 
ATOM      2  C2  IND d   1       5.999  -0.740  -4.026  0.00  0.00     0.054 A 
ATOM      3  C3  IND d   1       5.724   0.570  -3.836  0.00  0.00    -0.031 A 
ATOM      4  C4  IND d   1       3.879   1.665  -2.414  0.00  0.00     0.051 A 
ATOM      5  C5  IND d   1       2.776   1.365  -1.665  0.00  0.00    -0.031 A 
ATOM      6  C6  IND d   1       2.378   0.063  -1.441  0.00  0.00     0.015 A 
ATOM      7  C7  IND d   1       3.078  -0.993  -1.952  0.00  0.00    -0.016 A 
ATOM      8  C8  IND d   1       4.194  -0.692  -2.720  0.00  0.00    -0.047 A 
ATOM      9  C9  IND d   1       4.578   0.628  -2.985  0.00  0.00    -0.096 A 
ATOM     10  HN1 IND d   1       5.058  -2.377  -3.382  0.00  0.00     0.298 HD
ENDROOT
TORSDOF 0
ENDMDL
