MODEL 1
REMARK minimizedAffinity 13.7143469
REMARK minimizedRMSD -1
REMARK  0 active torsions:
REMARK  status: ('A' for Active; 'I' for Inactive)
ROOT
ATOM      1  N1  IND d   1       0.030  -4.783   2.731  0.00  0.00    -0.196 N 
ATOM      2  C2  IND d   1      -0.363  -6.000   2.247  0.00  0.00     0.054 A 
ATOM      3  C3  IND d   1      -0.994  -5.853   1.061  0.00  0.00    -0.031 A 
ATOM      4  C4  IND d   1      -1.403  -3.719  -0.320  0.00  0.00     0.051 A 
ATOM      5  C5  IND d   1      -1.259  -2.361  -0.273  0.00  0.00    -0.031 A 
ATOM      6  C6  IND d   1      -0.663  -1.728   0.799  0.00  0.00     0.015 A 
ATOM      7  C7  IND d   1      -0.177  -2.434   1.863  0.00  0.00    -0.016 A 
ATOM      8  C8  IND d   1      -0.328  -3.813   1.821  0.00  0.00    -0.047 A 
ATOM      9  C9  IND d   1      -0.970  -4.457   0.756  0.00  0.00    -0.096 A 
ATOM     10  HN1 IND d   1       0.433  -4.646   3.479  0.00  0.00     0.298 HD
ENDROOT
TORSDOF 0
ENDMDL
