MODEL 1
REMARK minimizedAffinity 7.1691947
REMARK minimizedRMSD -1
REMARK  0 active torsions:
REMARK  status: ('A' for Active; 'I' for Inactive)
ROOT
ATOM      1  N1  IND d   1      -2.292   3.852  -4.161  0.00  0.00    -0.196 N 
ATOM      2  C2  IND d   1      -2.264   2.707  -4.908  0.00  0.00     0.054 A 
ATOM      3  C3  IND d   1      -3.431   2.549  -5.571  0.00  0.00    -0.031 A 
ATOM      4  C4  IND d   1      -5.486   4.098  -5.658  0.00  0.00     0.051 A 
ATOM      5  C5  IND d   1      -5.996   5.243  -5.113  0.00  0.00    -0.031 A 
ATOM      6  C6  IND d   1      -5.281   5.999  -4.207  0.00  0.00     0.015 A 
ATOM      7  C7  IND d   1      -4.021   5.644  -3.819  0.00  0.00    -0.016 A 
ATOM      8  C8  IND d   1      -3.503   4.478  -4.364  0.00  0.00    -0.047 A 
ATOM      9  C9  IND d   1      -4.239   3.683  -5.252  0.00  0.00    -0.096 A 
ATOM     10  HN1 IND d   1      -1.661   4.134  -3.651  0.00  0.00     0.298 HD
ENDROOT
TORSDOF 0
ENDMDL
