MODEL 1
REMARK minimizedAffinity 18.5675163
REMARK minimizedRMSD -1
REMARK  0 active torsions:
REMARK  status: ('A' for Active; 'I' for Inactive)
ROOT
ATOM      1  N1  IND d   1      -0.753  -4.291  -1.747  0.00  0.00    -0.196 N 
ATOM      2  C2  IND d   1      -0.719  -5.385  -0.928  0.00  0.00     0.054 A 
ATOM      3  C3  IND d   1      -0.937  -5.019   0.355  0.00  0.00    -0.031 A 
ATOM      4  C4  IND d   1      -1.474  -2.696   1.325  0.00  0.00     0.051 A 
ATOM      5  C5  IND d   1      -1.577  -1.379   0.973  0.00  0.00    -0.031 A 
ATOM      6  C6  IND d   1      -1.410  -0.958  -0.331  0.00  0.00     0.015 A 
ATOM      7  C7  IND d   1      -1.144  -1.843  -1.337  0.00  0.00    -0.016 A 
ATOM      8  C8  IND d   1      -1.031  -3.180  -0.982  0.00  0.00    -0.047 A 
ATOM      9  C9  IND d   1      -1.158  -3.608   0.346  0.00  0.00    -0.096 A 
ATOM     10  HN1 IND d   1      -0.623  -4.296  -2.597  0.00  0.00     0.298 HD
ENDROOT
TORSDOF 0
ENDMDL
