MODEL 1
REMARK minimizedAffinity 11.5456524
REMARK minimizedRMSD -1
REMARK  0 active torsions:
REMARK  status: ('A' for Active; 'I' for Inactive)
ROOT
ATOM      1  N1  IND d   1      -3.660  -0.481   0.345  0.00  0.00    -0.196 N 
ATOM      2  C2  IND d   1      -2.347  -0.795   0.128  0.00  0.00     0.054 A 
ATOM      3  C3  IND d   1      -2.122  -2.097   0.415  0.00  0.00    -0.031 A 
ATOM      4  C4  IND d   1      -3.782  -3.919   1.158  0.00  0.00     0.051 A 
ATOM      5  C5  IND d   1      -5.085  -4.104   1.525  0.00  0.00    -0.031 A 
ATOM      6  C6  IND d   1      -5.999  -3.071   1.515  0.00  0.00     0.015 A 
ATOM      7  C7  IND d   1      -5.645  -1.810   1.124  0.00  0.00    -0.016 A 
ATOM      8  C8  IND d   1      -4.321  -1.617   0.758  0.00  0.00    -0.047 A 
ATOM      9  C9  IND d   1      -3.379  -2.653   0.806  0.00  0.00    -0.096 A 
ATOM     10  HN1 IND d   1      -4.014   0.296   0.241  0.00  0.00     0.298 HD
ENDROOT
TORSDOF 0
ENDMDL
