MODEL 1
REMARK minimizedAffinity 18.6930904
REMARK minimizedRMSD -1
REMARK  0 active torsions:
REMARK  status: ('A' for Active; 'I' for Inactive)
ROOT
ATOM      1  N1  IND d   1       5.057   5.388   0.840  0.00  0.00    -0.196 N 
ATOM      2  C2  IND d   1       5.528   5.903  -0.336  0.00  0.00     0.054 A 
ATOM      3  C3  IND d   1       5.997   4.913  -1.129  0.00  0.00    -0.031 A 
ATOM      4  C4  IND d   1       5.998   2.368  -0.740  0.00  0.00     0.051 A 
ATOM      5  C5  IND d   1       5.705   1.422   0.202  0.00  0.00    -0.031 A 
ATOM      6  C6  IND d   1       5.169   1.757   1.429  0.00  0.00     0.015 A 
ATOM      7  C7  IND d   1       4.893   3.054   1.756  0.00  0.00    -0.016 A 
ATOM      8  C8  IND d   1       5.195   4.018   0.804  0.00  0.00    -0.047 A 
ATOM      9  C9  IND d   1       5.779   3.689  -0.426  0.00  0.00    -0.096 A 
ATOM     10  HN1 IND d   1       4.730   5.843   1.492  0.00  0.00     0.298 HD
ENDROOT
TORSDOF 0
ENDMDL
