MODEL 1
REMARK minimizedAffinity 19.6206226
REMARK minimizedRMSD -1
REMARK  0 active torsions:
REMARK  status: ('A' for Active; 'I' for Inactive)
ROOT
ATOM      1  N1  IND d   1       2.425   4.863   4.467  0.00  0.00    -0.196 N 
ATOM      2  C2  IND d   1       2.499   5.968   5.267  0.00  0.00     0.054 A 
ATOM      3  C3  IND d   1       3.636   5.943   5.999  0.00  0.00    -0.031 A 
ATOM      4  C4  IND d   1       5.564   4.238   5.969  0.00  0.00     0.051 A 
ATOM      5  C5  IND d   1       5.932   3.038   5.427  0.00  0.00    -0.031 A 
ATOM      6  C6  IND d   1       5.136   2.374   4.517  0.00  0.00     0.015 A 
ATOM      7  C7  IND d   1       3.941   2.892   4.104  0.00  0.00    -0.016 A 
ATOM      8  C8  IND d   1       3.560   4.106   4.658  0.00  0.00    -0.047 A 
ATOM      9  C9  IND d   1       4.344   4.764   5.614  0.00  0.00    -0.096 A 
ATOM     10  HN1 IND d   1       1.778   4.672   3.934  0.00  0.00     0.298 HD
ENDROOT
TORSDOF 0
ENDMDL
