MODEL 1
REMARK minimizedAffinity 12.8392506
REMARK minimizedRMSD -1
REMARK  0 active torsions:
REMARK  status: ('A' for Active; 'I' for Inactive)
ROOT
ATOM      1  N1  IND d   1      -4.107   0.400   5.952  0.00  0.00    -0.196 N 
ATOM      2  C2  IND d   1      -3.175   1.382   5.759  0.00  0.00     0.054 A 
ATOM      3  C3  IND d   1      -1.953   0.837   5.563  0.00  0.00    -0.031 A 
ATOM      4  C4  IND d   1      -1.270  -1.641   5.418  0.00  0.00     0.051 A 
ATOM      5  C5  IND d   1      -1.767  -2.905   5.566  0.00  0.00    -0.031 A 
ATOM      6  C6  IND d   1      -3.096  -3.137   5.854  0.00  0.00     0.015 A 
ATOM      7  C7  IND d   1      -3.985  -2.109   5.994  0.00  0.00    -0.016 A 
ATOM      8  C8  IND d   1      -3.483  -0.823   5.850  0.00  0.00    -0.047 A 
ATOM      9  C9  IND d   1      -2.126  -0.580   5.600  0.00  0.00    -0.096 A 
ATOM     10  HN1 IND d   1      -4.943   0.527   6.111  0.00  0.00     0.298 HD
ENDROOT
TORSDOF 0
ENDMDL
