MODEL 1
REMARK minimizedAffinity 14.0606241
REMARK minimizedRMSD -1
REMARK  0 active torsions:
REMARK  status: ('A' for Active; 'I' for Inactive)
ROOT
ATOM      1  N1  IND d   1      -1.028  -2.665  -3.039  0.00  0.00    -0.196 N 
ATOM      2  C2  IND d   1      -1.765  -1.984  -3.967  0.00  0.00     0.054 A 
ATOM      3  C3  IND d   1      -2.588  -1.101  -3.358  0.00  0.00    -0.031 A 
ATOM      4  C4  IND d   1      -2.817  -0.535  -0.857  0.00  0.00     0.051 A 
ATOM      5  C5  IND d   1      -2.379  -0.920   0.379  0.00  0.00    -0.031 A 
ATOM      6  C6  IND d   1      -1.448  -1.925   0.542  0.00  0.00     0.015 A 
ATOM      7  C7  IND d   1      -0.908  -2.577  -0.530  0.00  0.00    -0.016 A 
ATOM      8  C8  IND d   1      -1.356  -2.194  -1.786  0.00  0.00    -0.047 A 
ATOM      9  C9  IND d   1      -2.332  -1.204  -1.956  0.00  0.00    -0.096 A 
ATOM     10  HN1 IND d   1      -0.455  -3.284  -3.208  0.00  0.00     0.298 HD
ENDROOT
TORSDOF 0
ENDMDL
