MODEL 1
REMARK minimizedAffinity 8.27933788
REMARK minimizedRMSD -1
REMARK  0 active torsions:
REMARK  status: ('A' for Active; 'I' for Inactive)
ROOT
ATOM      1  N1  IND d   1      -1.905   0.837   5.999  0.00  0.00    -0.196 N 
ATOM      2  C2  IND d   1      -3.045   1.535   5.714  0.00  0.00     0.054 A 
ATOM      3  C3  IND d   1      -4.037   0.690   5.355  0.00  0.00    -0.031 A 
ATOM      4  C4  IND d   1      -4.040  -1.883   5.265  0.00  0.00     0.051 A 
ATOM      5  C5  IND d   1      -3.219  -2.967   5.403  0.00  0.00    -0.031 A 
ATOM      6  C6  IND d   1      -1.892  -2.835   5.757  0.00  0.00     0.015 A 
ATOM      7  C7  IND d   1      -1.336  -1.610   5.998  0.00  0.00    -0.016 A 
ATOM      8  C8  IND d   1      -2.166  -0.507   5.852  0.00  0.00    -0.047 A 
ATOM      9  C9  IND d   1      -3.502  -0.632   5.452  0.00  0.00    -0.096 A 
ATOM     10  HN1 IND d   1      -1.151   1.180   6.232  0.00  0.00     0.298 HD
ENDROOT
TORSDOF 0
ENDMDL
