MODEL 1
REMARK minimizedAffinity 12.2582607
REMARK minimizedRMSD -1
REMARK  0 active torsions:
REMARK  status: ('A' for Active; 'I' for Inactive)
ROOT
ATOM      1  N1  IND d   1      -4.040  -2.663   5.980  0.00  0.00    -0.196 N 
ATOM      2  C2  IND d   1      -3.485  -3.912   5.991  0.00  0.00     0.054 A 
ATOM      3  C3  IND d   1      -2.137  -3.829   5.939  0.00  0.00    -0.031 A 
ATOM      4  C4  IND d   1      -0.627  -1.744   5.931  0.00  0.00     0.051 A 
ATOM      5  C5  IND d   1      -0.675  -0.379   5.875  0.00  0.00    -0.031 A 
ATOM      6  C6  IND d   1      -1.871   0.308   5.854  0.00  0.00     0.015 A 
ATOM      7  C7  IND d   1      -3.070  -0.347   5.899  0.00  0.00    -0.016 A 
ATOM      8  C8  IND d   1      -3.025  -1.733   5.949  0.00  0.00    -0.047 A 
ATOM      9  C9  IND d   1      -1.814  -2.437   5.927  0.00  0.00    -0.096 A 
ATOM     10  HN1 IND d   1      -4.882  -2.488   5.990  0.00  0.00     0.298 HD
ENDROOT
TORSDOF 0
ENDMDL
