MODEL 1
REMARK minimizedAffinity -2.54467368
REMARK minimizedRMSD -1
REMARK  0 active torsions:
REMARK  status: ('A' for Active; 'I' for Inactive)
ROOT
ATOM      1  C   UNL d   1      -2.098  -0.110  -1.822  0.00  0.00     0.172 C 
ATOM      2  N   UNL d   1      -0.998   0.059  -0.901  0.00  0.00    -0.070 N 
ATOM      3  C1  UNL d   1       0.237   0.559  -1.217  0.00  0.00    -0.004 A 
ATOM      4  C2  UNL d   1       0.998   0.559  -0.068  0.00  0.00    -0.047 A 
ATOM      5  C3  UNL d   1       0.193   0.040   0.974  0.00  0.00    -0.047 A 
ATOM      6  C4  UNL d   1      -1.038  -0.261   0.430  0.00  0.00    -0.004 A 
ENDROOT
TORSDOF 0
ENDMDL
