MODEL 1
REMARK minimizedAffinity -3.52323484
REMARK minimizedRMSD -1
REMARK  0 active torsions:
REMARK  status: ('A' for Active; 'I' for Inactive)
ROOT
ATOM      1  C   UNL d   1      -0.751   0.003  -1.012  0.00  0.00     0.172 C 
ATOM      2  N   UNL d   1       0.590  -0.087  -0.486  0.00  0.00    -0.070 N 
ATOM      3  C1  UNL d   1       1.092   0.650   0.554  0.00  0.00    -0.004 A 
ATOM      4  C2  UNL d   1       2.402   0.269   0.748  0.00  0.00    -0.047 A 
ATOM      5  C3  UNL d   1       2.699  -0.730  -0.209  0.00  0.00    -0.047 A 
ATOM      6  C4  UNL d   1       1.560  -0.931  -0.960  0.00  0.00    -0.004 A 
ENDROOT
TORSDOF 0
ENDMDL
