MODEL 1
REMARK minimizedAffinity -3.83085775
REMARK minimizedRMSD -1
REMARK  0 active torsions:
REMARK  status: ('A' for Active; 'I' for Inactive)
ROOT
ATOM      1  C   UNL d   1      -0.892  -0.066   0.337  0.00  0.00     0.172 C 
ATOM      2  N   UNL d   1       0.520  -0.156   0.626  0.00  0.00    -0.070 N 
ATOM      3  C1  UNL d   1       1.333   0.890   0.969  0.00  0.00    -0.004 A 
ATOM      4  C2  UNL d   1       2.604   0.392   1.162  0.00  0.00    -0.047 A 
ATOM      5  C3  UNL d   1       2.552  -1.002   0.925  0.00  0.00    -0.047 A 
ATOM      6  C4  UNL d   1       1.250  -1.315   0.595  0.00  0.00    -0.004 A 
ENDROOT
TORSDOF 0
ENDMDL
