MODEL 1
REMARK minimizedAffinity -2.21143746
REMARK minimizedRMSD -1
REMARK  0 active torsions:
REMARK  status: ('A' for Active; 'I' for Inactive)
ROOT
ATOM      1  C   UNL d   1      -1.301  -0.001  -0.355  0.00  0.00     0.172 C 
ATOM      2  N   UNL d   1       0.069  -0.039   0.098  0.00  0.00    -0.070 N 
ATOM      3  C1  UNL d   1       0.693  -1.118   0.666  0.00  0.00    -0.004 A 
ATOM      4  C2  UNL d   1       1.989  -0.751   0.956  0.00  0.00    -0.047 A 
ATOM      5  C3  UNL d   1       2.150   0.594   0.549  0.00  0.00    -0.047 A 
ATOM      6  C4  UNL d   1       0.946   1.011   0.021  0.00  0.00    -0.004 A 
ENDROOT
TORSDOF 0
ENDMDL
