MODEL 1
REMARK minimizedAffinity -4.64650345
REMARK minimizedRMSD -1
REMARK  0 active torsions:
REMARK  status: ('A' for Active; 'I' for Inactive)
ROOT
ATOM      1  C4' PXY d   1       2.810   2.119  -0.745  0.00  0.00     0.077 C 
ATOM      2  C1' PXY d   1      -0.275  -2.563   0.663  0.00  0.00     0.077 C 
ATOM      3  C1  PXY d   1       0.523  -1.328   0.292  0.00  0.00    -0.082 A 
ATOM      4  C2  PXY d   1       1.753  -1.461  -0.179  0.00  0.00     0.003 A 
ATOM      5  C3  PXY d   1       2.500  -0.354  -0.489  0.00  0.00     0.003 A 
ATOM      6  C4  PXY d   1       1.964   0.900  -0.367  0.00  0.00    -0.082 A 
ATOM      7  C5  PXY d   1       0.706   1.043   0.102  0.00  0.00     0.003 A 
ATOM      8  C6  PXY d   1      -0.021  -0.091   0.451  0.00  0.00     0.003 A 
ENDROOT
TORSDOF 0
ENDMDL
