MODEL 1
REMARK minimizedAffinity -5.16208839
REMARK minimizedRMSD -1
REMARK  0 active torsions:
REMARK  status: ('A' for Active; 'I' for Inactive)
ROOT
ATOM      1  C4' PXY d   1      -1.286   2.062  -1.661  0.00  0.00     0.077 C 
ATOM      2  C1' PXY d   1       1.470  -2.363   0.836  0.00  0.00     0.077 C 
ATOM      3  C1  PXY d   1       0.741  -1.200   0.193  0.00  0.00    -0.082 A 
ATOM      4  C2  PXY d   1       0.572  -1.180  -1.120  0.00  0.00     0.003 A 
ATOM      5  C3  PXY d   1      -0.057  -0.121  -1.722  0.00  0.00     0.003 A 
ATOM      6  C4  PXY d   1      -0.564   0.903  -0.967  0.00  0.00    -0.082 A 
ATOM      7  C5  PXY d   1      -0.405   0.885   0.373  0.00  0.00     0.003 A 
ATOM      8  C6  PXY d   1       0.272  -0.180   0.961  0.00  0.00     0.003 A 
ENDROOT
TORSDOF 0
ENDMDL
