MODEL 1
REMARK minimizedAffinity -3.46566772
REMARK minimizedRMSD -1
REMARK  0 active torsions:
REMARK  status: ('A' for Active; 'I' for Inactive)
ROOT
ATOM      1  C4' PXY d   1      -0.407   2.146  -0.387  0.00  0.00     0.077 C 
ATOM      2  C1' PXY d   1       1.516  -3.134   0.967  0.00  0.00     0.077 C 
ATOM      3  C1  PXY d   1       1.024  -1.746   0.611  0.00  0.00    -0.082 A 
ATOM      4  C2  PXY d   1      -0.173  -1.352   1.013  0.00  0.00     0.003 A 
ATOM      5  C3  PXY d   1      -0.647  -0.112   0.673  0.00  0.00     0.003 A 
ATOM      6  C4  PXY d   1       0.135   0.756  -0.042  0.00  0.00    -0.082 A 
ATOM      7  C5  PXY d   1       1.362   0.366  -0.448  0.00  0.00     0.003 A 
ATOM      8  C6  PXY d   1       1.808  -0.913  -0.127  0.00  0.00     0.003 A 
ENDROOT
TORSDOF 0
ENDMDL
