MODEL 1
REMARK minimizedAffinity -2.05942106
REMARK minimizedRMSD -1
REMARK  0 active torsions:
REMARK  status: ('A' for Active; 'I' for Inactive)
ROOT
ATOM      1  C4' PXY d   1       2.695   0.024  -1.274  0.00  0.00     0.077 C 
ATOM      2  C1' PXY d   1      -1.920  -0.272   2.195  0.00  0.00     0.077 C 
ATOM      3  C1  PXY d   1      -0.703  -0.201   1.294  0.00  0.00    -0.082 A 
ATOM      4  C2  PXY d   1      -0.582   0.798   0.436  0.00  0.00     0.003 A 
ATOM      5  C3  PXY d   1       0.497   0.860  -0.409  0.00  0.00     0.003 A 
ATOM      6  C4  PXY d   1       1.487  -0.082  -0.338  0.00  0.00    -0.082 A 
ATOM      7  C5  PXY d   1       1.376  -1.100   0.542  0.00  0.00     0.003 A 
ATOM      8  C6  PXY d   1       0.253  -1.167   1.362  0.00  0.00     0.003 A 
ENDROOT
TORSDOF 0
ENDMDL
