MODEL 1
REMARK minimizedAffinity -4.77489376
REMARK minimizedRMSD -1
REMARK  0 active torsions:
REMARK  status: ('A' for Active; 'I' for Inactive)
ROOT
ATOM      1  C4' PXY d   1       0.777  -1.090   0.649  0.00  0.00     0.077 C 
ATOM      2  C1' PXY d   1      -2.470   2.166  -2.855  0.00  0.00     0.077 C 
ATOM      3  C1  PXY d   1      -1.625   1.301  -1.939  0.00  0.00    -0.082 A 
ATOM      4  C2  PXY d   1      -0.991   1.855  -0.919  0.00  0.00     0.003 A 
ATOM      5  C3  PXY d   1      -0.197   1.094  -0.100  0.00  0.00     0.003 A 
ATOM      6  C4  PXY d   1      -0.094  -0.258  -0.296  0.00  0.00    -0.082 A 
ATOM      7  C5  PXY d   1      -0.747  -0.832  -1.328  0.00  0.00     0.003 A 
ATOM      8  C6  PXY d   1      -1.514  -0.035  -2.173  0.00  0.00     0.003 A 
ENDROOT
TORSDOF 0
ENDMDL
