MODEL 1
REMARK minimizedAffinity -2.77388382
REMARK minimizedRMSD -1
REMARK  0 active torsions:
REMARK  status: ('A' for Active; 'I' for Inactive)
ROOT
ATOM      1  C4' PXY d   1       1.264  -2.865   1.167  0.00  0.00     0.077 C 
ATOM      2  C1' PXY d   1      -1.200   1.885  -1.020  0.00  0.00     0.077 C 
ATOM      3  C1  PXY d   1      -0.563   0.639  -0.437  0.00  0.00    -0.082 A 
ATOM      4  C2  PXY d   1       0.713   0.382  -0.678  0.00  0.00     0.003 A 
ATOM      5  C3  PXY d   1       1.297  -0.756  -0.185  0.00  0.00     0.003 A 
ATOM      6  C4  PXY d   1       0.582  -1.614   0.607  0.00  0.00    -0.082 A 
ATOM      7  C5  PXY d   1      -0.717  -1.354   0.867  0.00  0.00     0.003 A 
ATOM      8  C6  PXY d   1      -1.302  -0.214   0.323  0.00  0.00     0.003 A 
ENDROOT
TORSDOF 0
ENDMDL
