MODEL 1
REMARK minimizedAffinity -3.18711734
REMARK minimizedRMSD -1
REMARK  0 active torsions:
REMARK  status: ('A' for Active; 'I' for Inactive)
ROOT
ATOM      1  C4' PXY d   1      -1.133   1.617  -0.431  0.00  0.00     0.077 C 
ATOM      2  C1' PXY d   1       1.450  -3.301   1.168  0.00  0.00     0.077 C 
ATOM      3  C1  PXY d   1       0.761  -2.017   0.751  0.00  0.00    -0.082 A 
ATOM      4  C2  PXY d   1       1.392  -1.163  -0.038  0.00  0.00     0.003 A 
ATOM      5  C3  PXY d   1       0.796   0.018  -0.400  0.00  0.00     0.003 A 
ATOM      6  C4  PXY d   1      -0.480   0.303   0.008  0.00  0.00    -0.082 A 
ATOM      7  C5  PXY d   1      -1.134  -0.568   0.804  0.00  0.00     0.003 A 
ATOM      8  C6  PXY d   1      -0.496  -1.742   1.193  0.00  0.00     0.003 A 
ENDROOT
TORSDOF 0
ENDMDL
