MODEL 1
REMARK minimizedAffinity -3.65724158
REMARK minimizedRMSD -1
REMARK  0 active torsions:
REMARK  status: ('A' for Active; 'I' for Inactive)
ROOT
ATOM      1  C4' PXY d   1       0.706  -2.543   0.857  0.00  0.00     0.077 C 
ATOM      2  C1' PXY d   1      -0.829   2.825  -0.638  0.00  0.00     0.077 C 
ATOM      3  C1  PXY d   1      -0.434   1.418  -0.236  0.00  0.00    -0.082 A 
ATOM      4  C2  PXY d   1       0.746   0.941  -0.596  0.00  0.00     0.003 A 
ATOM      5  C3  PXY d   1       1.106  -0.341  -0.268  0.00  0.00     0.003 A 
ATOM      6  C4  PXY d   1       0.270  -1.125   0.481  0.00  0.00    -0.082 A 
ATOM      7  C5  PXY d   1      -0.932  -0.642   0.861  0.00  0.00     0.003 A 
ATOM      8  C6  PXY d   1      -1.295   0.647   0.483  0.00  0.00     0.003 A 
ENDROOT
TORSDOF 0
ENDMDL
