MODEL 1
REMARK minimizedAffinity -2.6334486
REMARK minimizedRMSD -1
REMARK  0 active torsions:
REMARK  status: ('A' for Active; 'I' for Inactive)
ROOT
ATOM      1  C4' PXY d   1      -1.199   1.742  -1.454  0.00  0.00     0.077 C 
ATOM      2  C1' PXY d   1       2.291  -2.315   0.733  0.00  0.00     0.077 C 
ATOM      3  C1  PXY d   1       1.373  -1.259   0.149  0.00  0.00    -0.082 A 
ATOM      4  C2  PXY d   1       1.543   0.011   0.481  0.00  0.00     0.003 A 
ATOM      5  C3  PXY d   1       0.702   0.975  -0.013  0.00  0.00     0.003 A 
ATOM      6  C4  PXY d   1      -0.290   0.643  -0.896  0.00  0.00    -0.082 A 
ATOM      7  C5  PXY d   1      -0.463  -0.649  -1.248  0.00  0.00     0.003 A 
ATOM      8  C6  PXY d   1       0.375  -1.618  -0.704  0.00  0.00     0.003 A 
ENDROOT
TORSDOF 0
ENDMDL
