MODEL 1
REMARK minimizedAffinity -5.58319426
REMARK minimizedRMSD -1
REMARK  0 active torsions:
REMARK  status: ('A' for Active; 'I' for Inactive)
ROOT
ATOM      1  C4' PXY d   1      -1.159   1.909  -1.347  0.00  0.00     0.077 C 
ATOM      2  C1' PXY d   1       1.602  -2.745   0.685  0.00  0.00     0.077 C 
ATOM      3  C1  PXY d   1       0.889  -1.517   0.153  0.00  0.00    -0.082 A 
ATOM      4  C2  PXY d   1      -0.422  -1.408   0.297  0.00  0.00     0.003 A 
ATOM      5  C3  PXY d   1      -1.087  -0.320  -0.206  0.00  0.00     0.003 A 
ATOM      6  C4  PXY d   1      -0.396   0.692  -0.817  0.00  0.00    -0.082 A 
ATOM      7  C5  PXY d   1       0.943   0.593  -0.959  0.00  0.00     0.003 A 
ATOM      8  C6  PXY d   1       1.594  -0.539  -0.477  0.00  0.00     0.003 A 
ENDROOT
TORSDOF 0
ENDMDL
