MODEL 1
REMARK minimizedAffinity -5.19551373
REMARK minimizedRMSD -1
REMARK  0 active torsions:
REMARK  status: ('A' for Active; 'I' for Inactive)
ROOT
ATOM      1  C4' PXY d   1       1.394  -2.975   1.524  0.00  0.00     0.077 C 
ATOM      2  C1' PXY d   1      -0.719   1.821  -0.914  0.00  0.00     0.077 C 
ATOM      3  C1  PXY d   1      -0.174   0.564  -0.265  0.00  0.00    -0.082 A 
ATOM      4  C2  PXY d   1       1.078   0.201  -0.492  0.00  0.00     0.003 A 
ATOM      5  C3  PXY d   1       1.578  -0.950   0.061  0.00  0.00     0.003 A 
ATOM      6  C4  PXY d   1       0.804  -1.709   0.898  0.00  0.00    -0.082 A 
ATOM      7  C5  PXY d   1      -0.470  -1.339   1.144  0.00  0.00     0.003 A 
ATOM      8  C6  PXY d   1      -0.971  -0.189   0.540  0.00  0.00     0.003 A 
ENDROOT
TORSDOF 0
ENDMDL
