MODEL 1
REMARK minimizedAffinity -2.83051801
REMARK minimizedRMSD -1
REMARK  0 active torsions:
REMARK  status: ('A' for Active; 'I' for Inactive)
ROOT
ATOM      1  C4' PXY d   1      -2.175  -1.960   2.166  0.00  0.00     0.077 C 
ATOM      2  C1' PXY d   1       2.433   0.160  -0.607  0.00  0.00     0.077 C 
ATOM      3  C1  PXY d   1       1.228  -0.408   0.117  0.00  0.00    -0.082 A 
ATOM      4  C2  PXY d   1       0.172   0.359   0.332  0.00  0.00     0.003 A 
ATOM      5  C3  PXY d   1      -0.914  -0.129   1.012  0.00  0.00     0.003 A 
ATOM      6  C4  PXY d   1      -0.940  -1.432   1.431  0.00  0.00    -0.082 A 
ATOM      7  C5  PXY d   1       0.129  -2.225   1.206  0.00  0.00     0.003 A 
ATOM      8  C6  PXY d   1       1.237  -1.698   0.550  0.00  0.00     0.003 A 
ENDROOT
TORSDOF 0
ENDMDL
