MODEL 1
REMARK minimizedAffinity -4.74684811
REMARK minimizedRMSD -1
REMARK  0 active torsions:
REMARK  status: ('A' for Active; 'I' for Inactive)
ROOT
ATOM      1  C4' PXY d   1      -0.788   1.931  -0.944  0.00  0.00     0.077 C 
ATOM      2  C1' PXY d   1       1.829  -2.871   0.928  0.00  0.00     0.077 C 
ATOM      3  C1  PXY d   1       1.154  -1.606   0.435  0.00  0.00    -0.082 A 
ATOM      4  C2  PXY d   1      -0.074  -1.321   0.836  0.00  0.00     0.003 A 
ATOM      5  C3  PXY d   1      -0.711  -0.198   0.375  0.00  0.00     0.003 A 
ATOM      6  C4  PXY d   1      -0.065   0.670  -0.464  0.00  0.00    -0.082 A 
ATOM      7  C5  PXY d   1       1.192   0.391  -0.870  0.00  0.00     0.003 A 
ATOM      8  C6  PXY d   1       1.806  -0.775  -0.423  0.00  0.00     0.003 A 
ENDROOT
TORSDOF 0
ENDMDL
