MODEL 1
REMARK minimizedAffinity -3.51382399
REMARK minimizedRMSD -1
REMARK  0 active torsions:
REMARK  status: ('A' for Active; 'I' for Inactive)
ROOT
ATOM      1  C4' PXY d   1      -0.747   2.059  -1.313  0.00  0.00     0.077 C 
ATOM      2  C1' PXY d   1       1.414  -2.845   0.855  0.00  0.00     0.077 C 
ATOM      3  C1  PXY d   1       0.835  -1.564   0.287  0.00  0.00    -0.082 A 
ATOM      4  C2  PXY d   1       1.593  -0.780  -0.462  0.00  0.00     0.003 A 
ATOM      5  C3  PXY d   1       1.095   0.398  -0.957  0.00  0.00     0.003 A 
ATOM      6  C4  PXY d   1      -0.207   0.751  -0.726  0.00  0.00    -0.082 A 
ATOM      7  C5  PXY d   1      -0.990  -0.049   0.028  0.00  0.00     0.003 A 
ATOM      8  C6  PXY d   1      -0.453  -1.220   0.556  0.00  0.00     0.003 A 
ENDROOT
TORSDOF 0
ENDMDL
