MODEL 1
REMARK minimizedAffinity -4.14224958
REMARK minimizedRMSD -1
REMARK  0 active torsions:
REMARK  status: ('A' for Active; 'I' for Inactive)
ROOT
ATOM      1  C4' PXY d   1      -1.317   1.540  -0.880  0.00  0.00     0.077 C 
ATOM      2  C1' PXY d   1       1.988  -2.570   1.488  0.00  0.00     0.077 C 
ATOM      3  C1  PXY d   1       1.111  -1.498   0.872  0.00  0.00    -0.082 A 
ATOM      4  C2  PXY d   1       1.533  -0.841  -0.196  0.00  0.00     0.003 A 
ATOM      5  C3  PXY d   1       0.766   0.154  -0.747  0.00  0.00     0.003 A 
ATOM      6  C4  PXY d   1      -0.469   0.443  -0.230  0.00  0.00    -0.082 A 
ATOM      7  C5  PXY d   1      -0.911  -0.230   0.853  0.00  0.00     0.003 A 
ATOM      8  C6  PXY d   1      -0.100  -1.208   1.422  0.00  0.00     0.003 A 
ENDROOT
TORSDOF 0
ENDMDL
