MODEL 1
REMARK minimizedAffinity -5.27654028
REMARK minimizedRMSD -1
REMARK  0 active torsions:
REMARK  status: ('A' for Active; 'I' for Inactive)
ROOT
ATOM      1  C4' PXY d   1       1.658  -2.711   1.034  0.00  0.00     0.077 C 
ATOM      2  C1' PXY d   1      -0.871   1.971  -1.225  0.00  0.00     0.077 C 
ATOM      3  C1  PXY d   1      -0.198   0.744  -0.641  0.00  0.00    -0.082 A 
ATOM      4  C2  PXY d   1      -0.918  -0.138   0.033  0.00  0.00     0.003 A 
ATOM      5  C3  PXY d   1      -0.320  -1.237   0.595  0.00  0.00     0.003 A 
ATOM      6  C4  PXY d   1       1.019  -1.462   0.419  0.00  0.00    -0.082 A 
ATOM      7  C5  PXY d   1       1.758  -0.572  -0.276  0.00  0.00     0.003 A 
ATOM      8  C6  PXY d   1       1.140   0.558  -0.803  0.00  0.00     0.003 A 
ENDROOT
TORSDOF 0
ENDMDL
