MODEL 1
REMARK minimizedAffinity -5.15411997
REMARK minimizedRMSD -1
REMARK  0 active torsions:
REMARK  status: ('A' for Active; 'I' for Inactive)
ROOT
ATOM      1  C4' PXY d   1      -1.533   1.792  -1.343  0.00  0.00     0.077 C 
ATOM      2  C1' PXY d   1       1.838  -2.405   0.763  0.00  0.00     0.077 C 
ATOM      3  C1  PXY d   1       0.965  -1.297   0.209  0.00  0.00    -0.082 A 
ATOM      4  C2  PXY d   1      -0.320  -1.257   0.524  0.00  0.00     0.003 A 
ATOM      5  C3  PXY d   1      -1.131  -0.281   0.006  0.00  0.00     0.003 A 
ATOM      6  C4  PXY d   1      -0.611   0.697  -0.799  0.00  0.00    -0.082 A 
ATOM      7  C5  PXY d   1       0.701   0.670  -1.116  0.00  0.00     0.003 A 
ATOM      8  C6  PXY d   1       1.499  -0.353  -0.614  0.00  0.00     0.003 A 
ENDROOT
TORSDOF 0
ENDMDL
