MODEL 1
REMARK minimizedAffinity -4.83021307
REMARK minimizedRMSD -1
REMARK  0 active torsions:
REMARK  status: ('A' for Active; 'I' for Inactive)
ROOT
ATOM      1  C4' PXY d   1       1.491  -3.114   1.300  0.00  0.00     0.077 C 
ATOM      2  C1' PXY d   1      -0.781   1.797  -0.734  0.00  0.00     0.077 C 
ATOM      3  C1  PXY d   1      -0.193   0.510  -0.190  0.00  0.00    -0.082 A 
ATOM      4  C2  PXY d   1       1.011   0.124  -0.582  0.00  0.00     0.003 A 
ATOM      5  C3  PXY d   1       1.544  -1.054  -0.125  0.00  0.00     0.003 A 
ATOM      6  C4  PXY d   1       0.862  -1.817   0.784  0.00  0.00    -0.082 A 
ATOM      7  C5  PXY d   1      -0.362  -1.424   1.197  0.00  0.00     0.003 A 
ATOM      8  C6  PXY d   1      -0.904  -0.247   0.689  0.00  0.00     0.003 A 
ENDROOT
TORSDOF 0
ENDMDL
