MODEL 1
REMARK minimizedAffinity -5.45148134
REMARK minimizedRMSD -1
REMARK  0 active torsions:
REMARK  status: ('A' for Active; 'I' for Inactive)
ROOT
ATOM      1  C4' PXY d   1      -1.009   1.942  -0.665  0.00  0.00     0.077 C 
ATOM      2  C1' PXY d   1       1.682  -2.926   0.908  0.00  0.00     0.077 C 
ATOM      3  C1  PXY d   1       0.965  -1.655   0.497  0.00  0.00    -0.082 A 
ATOM      4  C2  PXY d   1       1.591  -0.765  -0.255  0.00  0.00     0.003 A 
ATOM      5  C3  PXY d   1       0.968   0.404  -0.609  0.00  0.00     0.003 A 
ATOM      6  C4  PXY d   1      -0.327   0.640  -0.234  0.00  0.00    -0.082 A 
ATOM      7  C5  PXY d   1      -0.977  -0.268   0.525  0.00  0.00     0.003 A 
ATOM      8  C6  PXY d   1      -0.313  -1.430   0.908  0.00  0.00     0.003 A 
ENDROOT
TORSDOF 0
ENDMDL
