MODEL 1
REMARK minimizedAffinity -4.09171438
REMARK minimizedRMSD -1
REMARK  0 active torsions:
REMARK  status: ('A' for Active; 'I' for Inactive)
ROOT
ATOM      1  C4' PXY d   1      -1.391  -1.212   2.252  0.00  0.00     0.077 C 
ATOM      2  C1' PXY d   1       2.885   0.447  -1.266  0.00  0.00     0.077 C 
ATOM      3  C1  PXY d   1       1.759   0.024  -0.343  0.00  0.00    -0.082 A 
ATOM      4  C2  PXY d   1       1.910  -1.040   0.429  0.00  0.00     0.003 A 
ATOM      5  C3  PXY d   1       0.890  -1.455   1.245  0.00  0.00     0.003 A 
ATOM      6  C4  PXY d   1      -0.277  -0.742   1.312  0.00  0.00    -0.082 A 
ATOM      7  C5  PXY d   1      -0.435   0.350   0.535  0.00  0.00     0.003 A 
ATOM      8  C6  PXY d   1       0.597   0.731  -0.317  0.00  0.00     0.003 A 
ENDROOT
TORSDOF 0
ENDMDL
