MODEL 1
REMARK minimizedAffinity 9.94024372
REMARK minimizedRMSD -1
REMARK  1 active torsions:
REMARK  status: ('A' for Active; 'I' for Inactive)
REMARK    1  A    between atoms: C1_2  and  C2_3 
ROOT
ATOM      1  C2  UNL d   1      -0.476   1.928   3.789  0.00  0.00    -0.077 A 
ATOM      2  C3  UNL d   1       0.642   1.083   3.822  0.00  0.00     0.002 A 
ATOM      3  C4  UNL d   1       1.504   1.096   4.920  0.00  0.00     0.002 A 
ATOM      4  C5  UNL d   1       1.255   1.948   5.994  0.00  0.00    -0.004 A 
ATOM      5  C6  UNL d   1       0.147   2.794   5.970  0.00  0.00     0.002 A 
ATOM      6  C7  UNL d   1      -0.715   2.783   4.872  0.00  0.00     0.002 A 
ENDROOT
BRANCH   1   7
ATOM      7  C1  UNL d   1      -1.435   1.881   2.628  0.00  0.00     0.055 C 
ATOM      8  C   UNL d   1      -2.728   1.175   3.006  0.00  0.00     0.019 C 
ENDBRANCH   1   7
TORSDOF 1
ENDMDL
