MODEL 1
REMARK minimizedAffinity 9.20181751
REMARK minimizedRMSD -1
REMARK  1 active torsions:
REMARK  status: ('A' for Active; 'I' for Inactive)
REMARK    1  A    between atoms: C1_2  and  C2_3 
ROOT
ATOM      1  C2  UNL d   1      -1.384  -2.102  -3.151  0.00  0.00    -0.077 A 
ATOM      2  C3  UNL d   1      -2.684  -2.398  -3.586  0.00  0.00     0.002 A 
ATOM      3  C4  UNL d   1      -3.169  -3.706  -3.523  0.00  0.00     0.002 A 
ATOM      4  C5  UNL d   1      -2.363  -4.726  -3.023  0.00  0.00    -0.004 A 
ATOM      5  C6  UNL d   1      -1.069  -4.443  -2.590  0.00  0.00     0.002 A 
ATOM      6  C7  UNL d   1      -0.581  -3.137  -2.653  0.00  0.00     0.002 A 
ENDROOT
BRANCH   1   7
ATOM      7  C1  UNL d   1      -0.876  -0.684  -3.171  0.00  0.00     0.055 C 
ATOM      8  C   UNL d   1      -2.023   0.315  -3.144  0.00  0.00     0.019 C 
ENDBRANCH   1   7
TORSDOF 1
ENDMDL
