MODEL 1
REMARK minimizedAffinity 7.37293053
REMARK minimizedRMSD -1
REMARK  1 active torsions:
REMARK  status: ('A' for Active; 'I' for Inactive)
REMARK    1  A    between atoms: C1_2  and  C2_3 
ROOT
ATOM      1  C2  UNL d   1      -3.833  -3.923  -4.485  0.00  0.00    -0.077 A 
ATOM      2  C3  UNL d   1      -2.631  -3.245  -4.732  0.00  0.00     0.002 A 
ATOM      3  C4  UNL d   1      -1.483  -3.552  -3.997  0.00  0.00     0.002 A 
ATOM      4  C5  UNL d   1      -1.526  -4.538  -3.015  0.00  0.00    -0.004 A 
ATOM      5  C6  UNL d   1      -2.718  -5.216  -2.760  0.00  0.00     0.002 A 
ATOM      6  C7  UNL d   1      -3.866  -4.911  -3.493  0.00  0.00     0.002 A 
ENDROOT
BRANCH   1   7
ATOM      7  C1  UNL d   1      -5.058  -3.628  -5.310  0.00  0.00     0.055 C 
ATOM      8  C   UNL d   1      -5.586  -4.886  -5.986  0.00  0.00     0.019 C 
ENDBRANCH   1   7
TORSDOF 1
ENDMDL
