MODEL 1
REMARK minimizedAffinity 12.406621
REMARK minimizedRMSD -1
REMARK  1 active torsions:
REMARK  status: ('A' for Active; 'I' for Inactive)
REMARK    1  A    between atoms: C1_2  and  C2_3 
ROOT
ATOM      1  C2  UNL d   1       2.864   0.456  -2.314  0.00  0.00    -0.077 A 
ATOM      2  C3  UNL d   1       2.871  -0.729  -1.566  0.00  0.00     0.002 A 
ATOM      3  C4  UNL d   1       3.639  -0.826  -0.403  0.00  0.00     0.002 A 
ATOM      4  C5  UNL d   1       4.400   0.260   0.023  0.00  0.00    -0.004 A 
ATOM      5  C6  UNL d   1       4.401   1.443  -0.715  0.00  0.00     0.002 A 
ATOM      6  C7  UNL d   1       3.635   1.541  -1.878  0.00  0.00     0.002 A 
ENDROOT
BRANCH   1   7
ATOM      7  C1  UNL d   1       1.998   0.579  -3.541  0.00  0.00     0.055 C 
ATOM      8  C   UNL d   1       2.540  -0.264  -4.687  0.00  0.00     0.019 C 
ENDBRANCH   1   7
TORSDOF 1
ENDMDL
