MODEL 1
REMARK minimizedAffinity 14.4409695
REMARK minimizedRMSD -1
REMARK  1 active torsions:
REMARK  status: ('A' for Active; 'I' for Inactive)
REMARK    1  A    between atoms: C1_2  and  C2_3 
ROOT
ATOM      1  C2  UNL d   1       0.368  -1.850  -3.775  0.00  0.00    -0.077 A 
ATOM      2  C3  UNL d   1       0.741  -2.189  -5.083  0.00  0.00     0.002 A 
ATOM      3  C4  UNL d   1       1.680  -1.419  -5.772  0.00  0.00     0.002 A 
ATOM      4  C5  UNL d   1       2.257  -0.308  -5.160  0.00  0.00    -0.004 A 
ATOM      5  C6  UNL d   1       1.891   0.039  -3.861  0.00  0.00     0.002 A 
ATOM      6  C7  UNL d   1       0.952  -0.729  -3.171  0.00  0.00     0.002 A 
ENDROOT
BRANCH   1   7
ATOM      7  C1  UNL d   1      -0.607  -2.708  -3.013  0.00  0.00     0.055 C 
ATOM      8  C   UNL d   1      -2.040  -2.240  -3.226  0.00  0.00     0.019 C 
ENDBRANCH   1   7
TORSDOF 1
ENDMDL
