MODEL 1
REMARK minimizedAffinity 2.99982619
REMARK minimizedRMSD -1
REMARK  1 active torsions:
REMARK  status: ('A' for Active; 'I' for Inactive)
REMARK    1  A    between atoms: C1_2  and  C2_3 
ROOT
ATOM      1  C2  UNL d   1       3.372  -4.782  -1.136  0.00  0.00    -0.077 A 
ATOM      2  C3  UNL d   1       2.429  -4.888  -2.168  0.00  0.00     0.002 A 
ATOM      3  C4  UNL d   1       1.774  -3.751  -2.646  0.00  0.00     0.002 A 
ATOM      4  C5  UNL d   1       2.058  -2.500  -2.101  0.00  0.00    -0.004 A 
ATOM      5  C6  UNL d   1       2.993  -2.385  -1.073  0.00  0.00     0.002 A 
ATOM      6  C7  UNL d   1       3.648  -3.520  -0.594  0.00  0.00     0.002 A 
ENDROOT
BRANCH   1   7
ATOM      7  C1  UNL d   1       4.115  -6.000  -0.653  0.00  0.00     0.055 C 
ATOM      8  C   UNL d   1       5.558  -5.996  -1.137  0.00  0.00     0.019 C 
ENDBRANCH   1   7
TORSDOF 1
ENDMDL
