MODEL 1
REMARK minimizedAffinity 3.51342559
REMARK minimizedRMSD -1
REMARK  1 active torsions:
REMARK  status: ('A' for Active; 'I' for Inactive)
REMARK    1  A    between atoms: C1_2  and  C2_3 
ROOT
ATOM      1  C2  UNL d   1       1.945  -0.093  -1.291  0.00  0.00    -0.077 A 
ATOM      2  C3  UNL d   1       2.529   0.840  -2.159  0.00  0.00     0.002 A 
ATOM      3  C4  UNL d   1       2.657   2.177  -1.777  0.00  0.00     0.002 A 
ATOM      4  C5  UNL d   1       2.209   2.591  -0.524  0.00  0.00    -0.004 A 
ATOM      5  C6  UNL d   1       1.625   1.671   0.346  0.00  0.00     0.002 A 
ATOM      6  C7  UNL d   1       1.495   0.334  -0.036  0.00  0.00     0.002 A 
ENDROOT
BRANCH   1   7
ATOM      7  C1  UNL d   1       1.850  -1.545  -1.683  0.00  0.00     0.055 C 
ATOM      8  C   UNL d   1       1.570  -2.427  -0.475  0.00  0.00     0.019 C 
ENDBRANCH   1   7
TORSDOF 1
ENDMDL
