MODEL 1
REMARK minimizedAffinity 18.5028973
REMARK minimizedRMSD -1
REMARK  1 active torsions:
REMARK  status: ('A' for Active; 'I' for Inactive)
REMARK    1  A    between atoms: C1_2  and  C2_3 
ROOT
ATOM      1  C2  UNL d   1      -2.104  -4.834  -2.196  0.00  0.00    -0.077 A 
ATOM      2  C3  UNL d   1      -0.840  -4.252  -2.363  0.00  0.00     0.002 A 
ATOM      3  C4  UNL d   1      -0.670  -3.171  -3.230  0.00  0.00     0.002 A 
ATOM      4  C5  UNL d   1      -1.760  -2.661  -3.934  0.00  0.00    -0.004 A 
ATOM      5  C6  UNL d   1      -3.020  -3.235  -3.776  0.00  0.00     0.002 A 
ATOM      6  C7  UNL d   1      -3.192  -4.316  -2.910  0.00  0.00     0.002 A 
ENDROOT
BRANCH   1   7
ATOM      7  C1  UNL d   1      -2.300  -5.968  -1.224  0.00  0.00     0.055 C 
ATOM      8  C   UNL d   1      -3.077  -5.517   0.004  0.00  0.00     0.019 C 
ENDBRANCH   1   7
TORSDOF 1
ENDMDL
