MODEL 1
REMARK minimizedAffinity 10.9643717
REMARK minimizedRMSD -1
REMARK  1 active torsions:
REMARK  status: ('A' for Active; 'I' for Inactive)
REMARK    1  A    between atoms: C1_2  and  C2_3 
ROOT
ATOM      1  C2  UNL d   1      -2.290   0.417   2.820  0.00  0.00    -0.077 A 
ATOM      2  C3  UNL d   1      -1.354  -0.510   3.298  0.00  0.00     0.002 A 
ATOM      3  C4  UNL d   1       0.004  -0.188   3.335  0.00  0.00     0.002 A 
ATOM      4  C5  UNL d   1       0.437   1.063   2.899  0.00  0.00    -0.004 A 
ATOM      5  C6  UNL d   1      -0.486   1.991   2.419  0.00  0.00     0.002 A 
ATOM      6  C7  UNL d   1      -1.844   1.670   2.381  0.00  0.00     0.002 A 
ENDROOT
BRANCH   1   7
ATOM      7  C1  UNL d   1      -3.761   0.090   2.826  0.00  0.00     0.055 C 
ATOM      8  C   UNL d   1      -3.998  -1.386   3.112  0.00  0.00     0.019 C 
ENDBRANCH   1   7
TORSDOF 1
ENDMDL
