MODEL 1
REMARK minimizedAffinity 1.11158407
REMARK minimizedRMSD -1
REMARK  1 active torsions:
REMARK  status: ('A' for Active; 'I' for Inactive)
REMARK    1  A    between atoms: C1_2  and  C2_3 
ROOT
ATOM      1  C2  UNL d   1      -2.809  -5.104  -3.823  0.00  0.00    -0.077 A 
ATOM      2  C3  UNL d   1      -4.098  -5.377  -4.302  0.00  0.00     0.002 A 
ATOM      3  C4  UNL d   1      -4.616  -4.661  -5.382  0.00  0.00     0.002 A 
ATOM      4  C5  UNL d   1      -3.852  -3.670  -5.995  0.00  0.00    -0.004 A 
ATOM      5  C6  UNL d   1      -2.570  -3.390  -5.525  0.00  0.00     0.002 A 
ATOM      6  C7  UNL d   1      -2.050  -4.104  -4.444  0.00  0.00     0.002 A 
ENDROOT
BRANCH   1   7
ATOM      7  C1  UNL d   1      -2.229  -5.909  -2.689  0.00  0.00     0.055 C 
ATOM      8  C   UNL d   1      -0.802  -5.479  -2.378  0.00  0.00     0.019 C 
ENDBRANCH   1   7
TORSDOF 1
ENDMDL
