MODEL 1
REMARK minimizedAffinity 6.61846256
REMARK minimizedRMSD -1
REMARK  1 active torsions:
REMARK  status: ('A' for Active; 'I' for Inactive)
REMARK    1  A    between atoms: C1_2  and  C2_3 
ROOT
ATOM      1  C2  UNL d   1      -3.729   1.521   3.938  0.00  0.00    -0.077 A 
ATOM      2  C3  UNL d   1      -2.401   1.969   3.923  0.00  0.00     0.002 A 
ATOM      3  C4  UNL d   1      -1.518   1.595   4.938  0.00  0.00     0.002 A 
ATOM      4  C5  UNL d   1      -1.952   0.769   5.972  0.00  0.00    -0.004 A 
ATOM      5  C6  UNL d   1      -3.271   0.319   5.997  0.00  0.00     0.002 A 
ATOM      6  C7  UNL d   1      -4.156   0.693   4.984  0.00  0.00     0.002 A 
ENDROOT
BRANCH   1   7
ATOM      7  C1  UNL d   1      -4.670   1.883   2.819  0.00  0.00     0.055 C 
ATOM      8  C   UNL d   1      -3.930   2.016   1.495  0.00  0.00     0.019 C 
ENDBRANCH   1   7
TORSDOF 1
ENDMDL
