MODEL 1
REMARK minimizedAffinity -5.17396355
REMARK minimizedRMSD -1
REMARK  0 active torsions:
REMARK  status: ('A' for Active; 'I' for Inactive)
ROOT
ATOM      1  C   UNL d   1       2.457   2.616   1.132  0.00  0.00     0.078 C 
ATOM      2  C1  UNL d   1       1.824   1.323   0.709  0.00  0.00    -0.077 A 
ATOM      3  C2  UNL d   1       2.562   0.133   0.686  0.00  0.00    -0.001 A 
ATOM      4  C3  UNL d   1       1.963  -1.061   0.281  0.00  0.00     0.003 A 
ATOM      5  C4  UNL d   1       0.624  -1.076  -0.107  0.00  0.00    -0.005 A 
ATOM      6  C5  UNL d   1      -0.117   0.104  -0.090  0.00  0.00     0.003 A 
ATOM      7  C6  UNL d   1       0.481   1.299   0.315  0.00  0.00    -0.001 A 
ENDROOT
TORSDOF 0
ENDMDL
