MODEL 1
REMARK minimizedAffinity -1.09885335
REMARK minimizedRMSD -1
REMARK  0 active torsions:
REMARK  status: ('A' for Active; 'I' for Inactive)
ROOT
ATOM      1  C   UNL d   1       0.854   2.802   1.507  0.00  0.00     0.078 C 
ATOM      2  C1  UNL d   1       1.412   1.461   1.135  0.00  0.00    -0.077 A 
ATOM      3  C2  UNL d   1       0.884   0.733   0.062  0.00  0.00    -0.001 A 
ATOM      4  C3  UNL d   1       1.407  -0.519  -0.268  0.00  0.00     0.003 A 
ATOM      5  C4  UNL d   1       2.461  -1.053   0.471  0.00  0.00    -0.005 A 
ATOM      6  C5  UNL d   1       2.991  -0.337   1.542  0.00  0.00     0.003 A 
ATOM      7  C6  UNL d   1       2.470   0.914   1.873  0.00  0.00    -0.001 A 
ENDROOT
TORSDOF 0
ENDMDL
