MODEL 1
REMARK minimizedAffinity 1.36294532
REMARK minimizedRMSD -1
REMARK  0 active torsions:
REMARK  status: ('A' for Active; 'I' for Inactive)
ROOT
ATOM      1  C   UNL d   1       2.508  -2.633   0.006  0.00  0.00     0.078 C 
ATOM      2  C1  UNL d   1       1.355  -1.703  -0.224  0.00  0.00    -0.077 A 
ATOM      3  C2  UNL d   1       0.152  -2.167  -0.770  0.00  0.00    -0.001 A 
ATOM      4  C3  UNL d   1      -0.910  -1.288  -0.987  0.00  0.00     0.003 A 
ATOM      5  C4  UNL d   1      -0.780   0.061  -0.662  0.00  0.00    -0.005 A 
ATOM      6  C5  UNL d   1       0.414   0.532  -0.120  0.00  0.00     0.003 A 
ATOM      7  C6  UNL d   1       1.477  -0.345   0.098  0.00  0.00    -0.001 A 
ENDROOT
TORSDOF 0
ENDMDL
