MODEL 1
REMARK minimizedAffinity 6.81752443
REMARK minimizedRMSD -1
REMARK  0 active torsions:
REMARK  status: ('A' for Active; 'I' for Inactive)
ROOT
ATOM      1  C   UNL d   1       0.932  -1.269   0.396  0.00  0.00     0.078 C 
ATOM      2  C1  UNL d   1       1.075  -0.570   1.715  0.00  0.00    -0.077 A 
ATOM      3  C2  UNL d   1       1.261  -1.294   2.899  0.00  0.00    -0.001 A 
ATOM      4  C3  UNL d   1       1.383  -0.631   4.121  0.00  0.00     0.003 A 
ATOM      5  C4  UNL d   1       1.319   0.761   4.171  0.00  0.00    -0.005 A 
ATOM      6  C5  UNL d   1       1.132   1.490   2.999  0.00  0.00     0.003 A 
ATOM      7  C6  UNL d   1       1.010   0.828   1.776  0.00  0.00    -0.001 A 
ENDROOT
TORSDOF 0
ENDMDL
