MODEL 1
REMARK minimizedAffinity -3.54978561
REMARK minimizedRMSD -1
REMARK  0 active torsions:
REMARK  status: ('A' for Active; 'I' for Inactive)
ROOT
ATOM      1  C   UNL d   1       3.232   1.809   0.377  0.00  0.00     0.078 C 
ATOM      2  C1  UNL d   1       2.820   0.435  -0.060  0.00  0.00    -0.077 A 
ATOM      3  C2  UNL d   1       3.628  -0.322  -0.917  0.00  0.00    -0.001 A 
ATOM      4  C3  UNL d   1       3.228  -1.596  -1.323  0.00  0.00     0.003 A 
ATOM      5  C4  UNL d   1       2.017  -2.124  -0.879  0.00  0.00    -0.005 A 
ATOM      6  C5  UNL d   1       1.205  -1.377  -0.028  0.00  0.00     0.003 A 
ATOM      7  C6  UNL d   1       1.604  -0.103   0.380  0.00  0.00    -0.001 A 
ENDROOT
TORSDOF 0
ENDMDL
