MODEL 1
REMARK minimizedAffinity 3.48163223
REMARK minimizedRMSD -1
REMARK  0 active torsions:
REMARK  status: ('A' for Active; 'I' for Inactive)
ROOT
ATOM      1  C   UNL d   1      -0.863  -2.129  -3.186  0.00  0.00     0.078 C 
ATOM      2  C1  UNL d   1      -0.492  -1.940  -1.745  0.00  0.00    -0.077 A 
ATOM      3  C2  UNL d   1      -0.625  -0.692  -1.124  0.00  0.00    -0.001 A 
ATOM      4  C3  UNL d   1      -0.266  -0.528   0.214  0.00  0.00     0.003 A 
ATOM      5  C4  UNL d   1       0.230  -1.607   0.943  0.00  0.00    -0.005 A 
ATOM      6  C5  UNL d   1       0.368  -2.852   0.333  0.00  0.00     0.003 A 
ATOM      7  C6  UNL d   1       0.009  -3.018  -1.005  0.00  0.00    -0.001 A 
ENDROOT
TORSDOF 0
ENDMDL
