MODEL 1
REMARK minimizedAffinity 3.18526149
REMARK minimizedRMSD -1
REMARK  0 active torsions:
REMARK  status: ('A' for Active; 'I' for Inactive)
ROOT
ATOM      1  C   UNL d   1       0.932   1.337   0.432  0.00  0.00     0.078 C 
ATOM      2  C1  UNL d   1       0.491  -0.039   0.033  0.00  0.00    -0.077 A 
ATOM      3  C2  UNL d   1      -0.807  -0.273  -0.438  0.00  0.00    -0.001 A 
ATOM      4  C3  UNL d   1      -1.207  -1.561  -0.796  0.00  0.00     0.003 A 
ATOM      5  C4  UNL d   1      -0.316  -2.626  -0.685  0.00  0.00    -0.005 A 
ATOM      6  C5  UNL d   1       0.977  -2.404  -0.216  0.00  0.00     0.003 A 
ATOM      7  C6  UNL d   1       1.379  -1.117   0.143  0.00  0.00    -0.001 A 
ENDROOT
TORSDOF 0
ENDMDL
