MODEL 1
REMARK minimizedAffinity 1.71403778
REMARK minimizedRMSD -1
REMARK  0 active torsions:
REMARK  status: ('A' for Active; 'I' for Inactive)
ROOT
ATOM      1  C   UNL d   1       1.124   1.227  -0.125  0.00  0.00     0.078 C 
ATOM      2  C1  UNL d   1       0.639  -0.121  -0.569  0.00  0.00    -0.077 A 
ATOM      3  C2  UNL d   1      -0.583  -0.263  -1.238  0.00  0.00    -0.001 A 
ATOM      4  C3  UNL d   1      -1.027  -1.525  -1.637  0.00  0.00     0.003 A 
ATOM      5  C4  UNL d   1      -0.255  -2.654  -1.371  0.00  0.00    -0.005 A 
ATOM      6  C5  UNL d   1       0.961  -2.523  -0.704  0.00  0.00     0.003 A 
ATOM      7  C6  UNL d   1       1.406  -1.262  -0.304  0.00  0.00    -0.001 A 
ENDROOT
TORSDOF 0
ENDMDL
