MODEL 1
REMARK minimizedAffinity -1.31720519
REMARK minimizedRMSD -1
REMARK  1 active torsions:
REMARK  status: ('A' for Active; 'I' for Inactive)
REMARK    1  A    between atoms: C1_2  and  C2_3 
ROOT
ATOM      1  C2  UNL d   1       5.178   2.230  -5.971  0.00  0.00    -0.077 A 
ATOM      2  C3  UNL d   1       5.889   3.438  -5.966  0.00  0.00     0.002 A 
ATOM      3  C4  UNL d   1       5.210   4.658  -5.978  0.00  0.00     0.002 A 
ATOM      4  C5  UNL d   1       3.817   4.682  -5.992  0.00  0.00    -0.004 A 
ATOM      5  C6  UNL d   1       3.100   3.486  -6.000  0.00  0.00     0.002 A 
ATOM      6  C7  UNL d   1       3.777   2.266  -5.988  0.00  0.00     0.002 A 
ENDROOT
BRANCH   1   7
ATOM      7  C1  UNL d   1       5.907   0.914  -5.908  0.00  0.00     0.055 C 
ATOM      8  C   UNL d   1       5.999   0.400  -4.478  0.00  0.00     0.019 C 
ENDBRANCH   1   7
TORSDOF 1
ENDMDL
