MODEL 1
REMARK minimizedAffinity -0.799958706
REMARK minimizedRMSD -1
REMARK  1 active torsions:
REMARK  status: ('A' for Active; 'I' for Inactive)
REMARK    1  A    between atoms: C1_2  and  C2_3 
ROOT
ATOM      1  C2  UNL d   1      -3.623  -2.878  -1.547  0.00  0.00    -0.077 A 
ATOM      2  C3  UNL d   1      -4.440  -3.957  -1.912  0.00  0.00     0.002 A 
ATOM      3  C4  UNL d   1      -5.551  -4.296  -1.137  0.00  0.00     0.002 A 
ATOM      4  C5  UNL d   1      -5.857  -3.559   0.006  0.00  0.00    -0.004 A 
ATOM      5  C6  UNL d   1      -5.049  -2.486   0.378  0.00  0.00     0.002 A 
ATOM      6  C7  UNL d   1      -3.938  -2.146  -0.395  0.00  0.00     0.002 A 
ENDROOT
BRANCH   1   7
ATOM      7  C1  UNL d   1      -2.454  -2.480  -2.408  0.00  0.00     0.055 C 
ATOM      8  C   UNL d   1      -2.891  -2.192  -3.837  0.00  0.00     0.019 C 
ENDBRANCH   1   7
TORSDOF 1
ENDMDL
