MODEL 1
REMARK minimizedAffinity 4.76129627
REMARK minimizedRMSD -1
REMARK  1 active torsions:
REMARK  status: ('A' for Active; 'I' for Inactive)
REMARK    1  A    between atoms: C1_2  and  C2_3 
ROOT
ATOM      1  C2  UNL d   1       3.573   2.022  -5.675  0.00  0.00    -0.077 A 
ATOM      2  C3  UNL d   1       4.795   2.627  -6.000  0.00  0.00     0.002 A 
ATOM      3  C4  UNL d   1       6.000   1.970  -5.741  0.00  0.00     0.002 A 
ATOM      4  C5  UNL d   1       5.993   0.703  -5.160  0.00  0.00    -0.004 A 
ATOM      5  C6  UNL d   1       4.783   0.094  -4.831  0.00  0.00     0.002 A 
ATOM      6  C7  UNL d   1       3.578   0.750  -5.088  0.00  0.00     0.002 A 
ENDROOT
BRANCH   1   7
ATOM      7  C1  UNL d   1       2.272   2.709  -5.998  0.00  0.00     0.055 C 
ATOM      8  C   UNL d   1       1.504   3.063  -4.733  0.00  0.00     0.019 C 
ENDBRANCH   1   7
TORSDOF 1
ENDMDL
