MODEL 1
REMARK minimizedAffinity 10.1757784
REMARK minimizedRMSD -1
REMARK  1 active torsions:
REMARK  status: ('A' for Active; 'I' for Inactive)
REMARK    1  A    between atoms: C1_2  and  C2_3 
ROOT
ATOM      1  C2  UNL d   1       1.763  -0.097   3.462  0.00  0.00    -0.077 A 
ATOM      2  C3  UNL d   1       3.054  -0.546   3.773  0.00  0.00     0.002 A 
ATOM      3  C4  UNL d   1       4.084  -0.437   2.837  0.00  0.00     0.002 A 
ATOM      4  C5  UNL d   1       3.835   0.123   1.586  0.00  0.00    -0.004 A 
ATOM      5  C6  UNL d   1       2.553   0.570   1.266  0.00  0.00     0.002 A 
ATOM      6  C7  UNL d   1       1.522   0.461   2.200  0.00  0.00     0.002 A 
ENDROOT
BRANCH   1   7
ATOM      7  C1  UNL d   1       0.662  -0.169   4.488  0.00  0.00     0.055 C 
ATOM      8  C   UNL d   1      -0.577  -0.851   3.924  0.00  0.00     0.019 C 
ENDBRANCH   1   7
TORSDOF 1
ENDMDL
