MODEL 1
REMARK minimizedAffinity 2.5980258
REMARK minimizedRMSD -1
REMARK  1 active torsions:
REMARK  status: ('A' for Active; 'I' for Inactive)
REMARK    1  A    between atoms: C1_2  and  C2_3 
ROOT
ATOM      1  C2  UNL d   1      -1.253  -2.608  -2.040  0.00  0.00    -0.077 A 
ATOM      2  C3  UNL d   1      -1.914  -1.736  -1.163  0.00  0.00     0.002 A 
ATOM      3  C4  UNL d   1      -1.543  -1.672   0.181  0.00  0.00     0.002 A 
ATOM      4  C5  UNL d   1      -0.509  -2.473   0.660  0.00  0.00    -0.004 A 
ATOM      5  C6  UNL d   1       0.153  -3.345  -0.204  0.00  0.00     0.002 A 
ATOM      6  C7  UNL d   1      -0.217  -3.412  -1.548  0.00  0.00     0.002 A 
ENDROOT
BRANCH   1   7
ATOM      7  C1  UNL d   1      -1.619  -2.644  -3.501  0.00  0.00     0.055 C 
ATOM      8  C   UNL d   1      -2.272  -3.966  -3.877  0.00  0.00     0.019 C 
ENDBRANCH   1   7
TORSDOF 1
ENDMDL
