MODEL 1
REMARK minimizedAffinity 5.93796396
REMARK minimizedRMSD -1
REMARK  1 active torsions:
REMARK  status: ('A' for Active; 'I' for Inactive)
REMARK    1  A    between atoms: C1_2  and  C2_3 
ROOT
ATOM      1  C2  UNL d   1      -0.913  -3.020   2.562  0.00  0.00    -0.077 A 
ATOM      2  C3  UNL d   1      -0.420  -2.321   1.451  0.00  0.00     0.002 A 
ATOM      3  C4  UNL d   1       0.269  -2.996   0.441  0.00  0.00     0.002 A 
ATOM      4  C5  UNL d   1       0.466  -4.372   0.529  0.00  0.00    -0.004 A 
ATOM      5  C6  UNL d   1      -0.018  -5.076   1.631  0.00  0.00     0.002 A 
ATOM      6  C7  UNL d   1      -0.705  -4.403   2.643  0.00  0.00     0.002 A 
ENDROOT
BRANCH   1   7
ATOM      7  C1  UNL d   1      -1.698  -2.303   3.629  0.00  0.00     0.055 C 
ATOM      8  C   UNL d   1      -0.918  -1.124   4.192  0.00  0.00     0.019 C 
ENDBRANCH   1   7
TORSDOF 1
ENDMDL
