MODEL 1
REMARK minimizedAffinity 2.33585405
REMARK minimizedRMSD -1
REMARK  1 active torsions:
REMARK  status: ('A' for Active; 'I' for Inactive)
REMARK    1  A    between atoms: C1_2  and  C2_3 
ROOT
ATOM      1  C2  UNL d   1       4.057   1.931  -0.366  0.00  0.00    -0.077 A 
ATOM      2  C3  UNL d   1       4.516   0.840   0.385  0.00  0.00     0.002 A 
ATOM      3  C4  UNL d   1       3.892   0.497   1.587  0.00  0.00     0.002 A 
ATOM      4  C5  UNL d   1       2.804   1.237   2.045  0.00  0.00    -0.004 A 
ATOM      5  C6  UNL d   1       2.342   2.325   1.306  0.00  0.00     0.002 A 
ATOM      6  C7  UNL d   1       2.965   2.670   0.106  0.00  0.00     0.002 A 
ENDROOT
BRANCH   1   7
ATOM      7  C1  UNL d   1       4.697   2.272  -1.686  0.00  0.00     0.055 C 
ATOM      8  C   UNL d   1       6.000   1.511  -1.883  0.00  0.00     0.019 C 
ENDBRANCH   1   7
TORSDOF 1
ENDMDL
