MODEL 1
REMARK minimizedAffinity 8.10663319
REMARK minimizedRMSD -1
REMARK  1 active torsions:
REMARK  status: ('A' for Active; 'I' for Inactive)
REMARK    1  A    between atoms: C1_2  and  C2_3 
ROOT
ATOM      1  C2  UNL d   1      -1.161  -2.272   1.310  0.00  0.00    -0.077 A 
ATOM      2  C3  UNL d   1      -2.172  -1.769   0.479  0.00  0.00     0.002 A 
ATOM      3  C4  UNL d   1      -2.047  -1.843  -0.910  0.00  0.00     0.002 A 
ATOM      4  C5  UNL d   1      -0.915  -2.423  -1.479  0.00  0.00    -0.004 A 
ATOM      5  C6  UNL d   1       0.096  -2.924  -0.661  0.00  0.00     0.002 A 
ATOM      6  C7  UNL d   1      -0.026  -2.850   0.727  0.00  0.00     0.002 A 
ENDROOT
BRANCH   1   7
ATOM      7  C1  UNL d   1      -1.317  -2.238   2.808  0.00  0.00     0.055 C 
ATOM      8  C   UNL d   1      -1.433  -3.642   3.385  0.00  0.00     0.019 C 
ENDBRANCH   1   7
TORSDOF 1
ENDMDL
