MODEL 1
REMARK minimizedAffinity 9.21429825
REMARK minimizedRMSD -1
REMARK  1 active torsions:
REMARK  status: ('A' for Active; 'I' for Inactive)
REMARK    1  A    between atoms: C1_2  and  C2_3 
ROOT
ATOM      1  C2  UNL d   1      -2.509  -2.621  -3.635  0.00  0.00    -0.077 A 
ATOM      2  C3  UNL d   1      -2.813  -1.521  -2.821  0.00  0.00     0.002 A 
ATOM      3  C4  UNL d   1      -2.382  -1.485  -1.493  0.00  0.00     0.002 A 
ATOM      4  C5  UNL d   1      -1.643  -2.543  -0.970  0.00  0.00    -0.004 A 
ATOM      5  C6  UNL d   1      -1.337  -3.643  -1.771  0.00  0.00     0.002 A 
ATOM      6  C7  UNL d   1      -1.768  -3.681  -3.097  0.00  0.00     0.002 A 
ENDROOT
BRANCH   1   7
ATOM      7  C1  UNL d   1      -2.931  -2.640  -5.081  0.00  0.00     0.055 C 
ATOM      8  C   UNL d   1      -1.744  -2.893  -6.000  0.00  0.00     0.019 C 
ENDBRANCH   1   7
TORSDOF 1
ENDMDL
