MODEL 1
REMARK minimizedAffinity 4.04772997
REMARK minimizedRMSD -1
REMARK  1 active torsions:
REMARK  status: ('A' for Active; 'I' for Inactive)
REMARK    1  A    between atoms: C1_2  and  C2_3 
ROOT
ATOM      1  C2  UNL d   1      -1.807  -3.066  -3.611  0.00  0.00    -0.077 A 
ATOM      2  C3  UNL d   1      -1.063  -3.145  -4.796  0.00  0.00     0.002 A 
ATOM      3  C4  UNL d   1      -1.669  -3.560  -5.984  0.00  0.00     0.002 A 
ATOM      4  C5  UNL d   1      -3.021  -3.894  -5.999  0.00  0.00    -0.004 A 
ATOM      5  C6  UNL d   1      -3.769  -3.820  -4.825  0.00  0.00     0.002 A 
ATOM      6  C7  UNL d   1      -3.166  -3.407  -3.637  0.00  0.00     0.002 A 
ENDROOT
BRANCH   1   7
ATOM      7  C1  UNL d   1      -1.168  -2.571  -2.340  0.00  0.00     0.055 C 
ATOM      8  C   UNL d   1      -2.147  -1.755  -1.509  0.00  0.00     0.019 C 
ENDBRANCH   1   7
TORSDOF 1
ENDMDL
