MODEL 1
REMARK minimizedAffinity 0.906739652
REMARK minimizedRMSD -1
REMARK  1 active torsions:
REMARK  status: ('A' for Active; 'I' for Inactive)
REMARK    1  A    between atoms: C1_2  and  C2_3 
ROOT
ATOM      1  C2  UNL d   1       5.044  -0.802  -5.290  0.00  0.00    -0.077 A 
ATOM      2  C3  UNL d   1       5.372  -1.929  -4.523  0.00  0.00     0.002 A 
ATOM      3  C4  UNL d   1       4.505  -3.022  -4.467  0.00  0.00     0.002 A 
ATOM      4  C5  UNL d   1       3.308  -3.001  -5.179  0.00  0.00    -0.004 A 
ATOM      5  C6  UNL d   1       2.972  -1.885  -5.944  0.00  0.00     0.002 A 
ATOM      6  C7  UNL d   1       3.836  -0.791  -6.000  0.00  0.00     0.002 A 
ENDROOT
BRANCH   1   7
ATOM      7  C1  UNL d   1       6.000   0.358  -5.391  0.00  0.00     0.055 C 
ATOM      8  C   UNL d   1       5.998   1.188  -4.116  0.00  0.00     0.019 C 
ENDBRANCH   1   7
TORSDOF 1
ENDMDL
