MODEL 1
REMARK minimizedAffinity 2.22197938
REMARK minimizedRMSD -1
REMARK  1 active torsions:
REMARK  status: ('A' for Active; 'I' for Inactive)
REMARK    1  A    between atoms: C1_2  and  C2_3 
ROOT
ATOM      1  C2  UNL d   1      -1.526  -2.567  -3.555  0.00  0.00    -0.077 A 
ATOM      2  C3  UNL d   1      -1.125  -1.970  -4.758  0.00  0.00     0.002 A 
ATOM      3  C4  UNL d   1      -1.328  -2.624  -5.974  0.00  0.00     0.002 A 
ATOM      4  C5  UNL d   1      -1.937  -3.877  -6.000  0.00  0.00    -0.004 A 
ATOM      5  C6  UNL d   1      -2.339  -4.481  -4.809  0.00  0.00     0.002 A 
ATOM      6  C7  UNL d   1      -2.135  -3.829  -3.592  0.00  0.00     0.002 A 
ENDROOT
BRANCH   1   7
ATOM      7  C1  UNL d   1      -1.352  -1.842  -2.247  0.00  0.00     0.055 C 
ATOM      8  C   UNL d   1      -0.518  -2.656  -1.269  0.00  0.00     0.019 C 
ENDBRANCH   1   7
TORSDOF 1
ENDMDL
