MODEL 1
REMARK minimizedAffinity 1.13657761
REMARK minimizedRMSD -1
REMARK  1 active torsions:
REMARK  status: ('A' for Active; 'I' for Inactive)
REMARK    1  A    between atoms: N_2  and  C1_3 
ROOT
ATOM      1  C1  UNL d   1      -5.832  -1.631   3.058  0.00  0.00     0.143 A 
ATOM      2  C2  UNL d   1      -6.000  -1.032   4.312  0.00  0.00    -0.057 A 
ATOM      3  C3  UNL d   1      -5.720   0.326   4.511  0.00  0.00     0.033 A 
ATOM      4  C4  UNL d   1      -5.238   1.104   3.464  0.00  0.00    -0.042 A 
ATOM      5  C5  UNL d   1      -5.040   0.524   2.216  0.00  0.00     0.033 A 
ATOM      6  C6  UNL d   1      -5.328  -0.831   2.021  0.00  0.00    -0.057 A 
ENDROOT
BRANCH   1   7
ATOM      7  N   UNL d   1      -6.000  -2.997   2.821  0.00  0.00    -0.732 N 
ATOM      8  C   UNL d   1      -5.997  -3.942   3.917  0.00  0.00     0.284 C 
ATOM      9  H3  UNL d   1      -6.705  -3.185   2.112  0.00  0.00     0.395 HD
ENDBRANCH   1   7
TORSDOF 1
ENDMDL
