MODEL 1
REMARK minimizedAffinity -2.44998026
REMARK minimizedRMSD -1
REMARK  1 active torsions:
REMARK  status: ('A' for Active; 'I' for Inactive)
REMARK    1  A    between atoms: N_2  and  C1_3 
ROOT
ATOM      1  C1  UNL d   1      -0.637  -1.712  -0.647  0.00  0.00     0.143 A 
ATOM      2  C2  UNL d   1       0.659  -1.186  -0.613  0.00  0.00    -0.057 A 
ATOM      3  C3  UNL d   1       0.998  -0.149   0.264  0.00  0.00     0.033 A 
ATOM      4  C4  UNL d   1       0.037   0.402   1.105  0.00  0.00    -0.042 A 
ATOM      5  C5  UNL d   1      -1.263  -0.089   1.071  0.00  0.00     0.033 A 
ATOM      6  C6  UNL d   1      -1.595  -1.129   0.198  0.00  0.00    -0.057 A 
ENDROOT
BRANCH   1   7
ATOM      7  N   UNL d   1      -1.062  -2.676  -1.565  0.00  0.00    -0.732 N 
ATOM      8  C   UNL d   1      -0.619  -4.049  -1.451  0.00  0.00     0.284 C 
ATOM      9  H3  UNL d   1      -2.045  -2.575  -1.807  0.00  0.00     0.395 HD
ENDBRANCH   1   7
TORSDOF 1
ENDMDL
