MODEL 1
REMARK minimizedAffinity -2.97787452
REMARK minimizedRMSD -1
REMARK  1 active torsions:
REMARK  status: ('A' for Active; 'I' for Inactive)
REMARK    1  A    between atoms: N_2  and  C1_3 
ROOT
ATOM      1  C1  UNL d   1      -0.084   0.767   0.724  0.00  0.00     0.143 A 
ATOM      2  C2  UNL d   1       0.855  -0.263   0.607  0.00  0.00    -0.057 A 
ATOM      3  C3  UNL d   1       1.402  -0.610  -0.635  0.00  0.00     0.033 A 
ATOM      4  C4  UNL d   1       0.996   0.052  -1.789  0.00  0.00    -0.042 A 
ATOM      5  C5  UNL d   1       0.045   1.062  -1.700  0.00  0.00     0.033 A 
ATOM      6  C6  UNL d   1      -0.493   1.408  -0.456  0.00  0.00    -0.057 A 
ENDROOT
BRANCH   1   7
ATOM      7  N   UNL d   1      -0.737   1.092   1.915  0.00  0.00    -0.732 N 
ATOM      8  C   UNL d   1      -2.013   1.775   1.894  0.00  0.00     0.284 C 
ATOM      9  H3  UNL d   1      -0.676   0.349   2.607  0.00  0.00     0.395 HD
ENDBRANCH   1   7
TORSDOF 1
ENDMDL
