MODEL 1
REMARK minimizedAffinity -0.729965687
REMARK minimizedRMSD -1
REMARK  1 active torsions:
REMARK  status: ('A' for Active; 'I' for Inactive)
REMARK    1  A    between atoms: N_2  and  C1_3 
ROOT
ATOM      1  C1  UNL d   1      -1.089   0.644   0.283  0.00  0.00     0.143 A 
ATOM      2  C2  UNL d   1      -1.946   1.572   0.883  0.00  0.00    -0.057 A 
ATOM      3  C3  UNL d   1      -1.603   2.207   2.083  0.00  0.00     0.033 A 
ATOM      4  C4  UNL d   1      -0.405   1.902   2.721  0.00  0.00    -0.042 A 
ATOM      5  C5  UNL d   1       0.452   0.964   2.155  0.00  0.00     0.033 A 
ATOM      6  C6  UNL d   1       0.106   0.338   0.953  0.00  0.00    -0.057 A 
ENDROOT
BRANCH   1   7
ATOM      7  N   UNL d   1      -1.417  -0.094  -0.857  0.00  0.00    -0.732 N 
ATOM      8  C   UNL d   1      -1.295  -1.536  -0.863  0.00  0.00     0.284 C 
ATOM      9  H3  UNL d   1      -2.254   0.254  -1.318  0.00  0.00     0.395 HD
ENDBRANCH   1   7
TORSDOF 1
ENDMDL
