MODEL 1
REMARK minimizedAffinity -4.49727917
REMARK minimizedRMSD -1
REMARK  1 active torsions:
REMARK  status: ('A' for Active; 'I' for Inactive)
REMARK    1  A    between atoms: N_2  and  C1_3 
ROOT
ATOM      1  C1  UNL d   1       0.086  -0.107  -0.126  0.00  0.00     0.143 A 
ATOM      2  C2  UNL d   1       0.811   0.218   1.026  0.00  0.00    -0.057 A 
ATOM      3  C3  UNL d   1       0.383   1.232   1.891  0.00  0.00     0.033 A 
ATOM      4  C4  UNL d   1      -0.766   1.962   1.603  0.00  0.00    -0.042 A 
ATOM      5  C5  UNL d   1      -1.488   1.673   0.450  0.00  0.00     0.033 A 
ATOM      6  C6  UNL d   1      -1.059   0.655  -0.406  0.00  0.00    -0.057 A 
ENDROOT
BRANCH   1   7
ATOM      7  N   UNL d   1       0.512  -1.038  -1.076  0.00  0.00    -0.732 N 
ATOM      8  C   UNL d   1      -0.324  -2.164  -1.432  0.00  0.00     0.284 C 
ATOM      9  H3  UNL d   1       0.978  -0.599  -1.868  0.00  0.00     0.395 HD
ENDBRANCH   1   7
TORSDOF 1
ENDMDL
