MODEL 1
REMARK minimizedAffinity -1.75780249
REMARK minimizedRMSD -1
REMARK  1 active torsions:
REMARK  status: ('A' for Active; 'I' for Inactive)
REMARK    1  A    between atoms: N_2  and  C1_3 
ROOT
ATOM      1  C1  UNL d   1       0.008   0.826   1.230  0.00  0.00     0.143 A 
ATOM      2  C2  UNL d   1      -0.346   0.853  -0.123  0.00  0.00    -0.057 A 
ATOM      3  C3  UNL d   1      -0.060  -0.224  -0.970  0.00  0.00     0.033 A 
ATOM      4  C4  UNL d   1       0.615  -1.339  -0.484  0.00  0.00    -0.042 A 
ATOM      5  C5  UNL d   1       0.999  -1.377   0.852  0.00  0.00     0.033 A 
ATOM      6  C6  UNL d   1       0.704  -0.301   1.694  0.00  0.00    -0.057 A 
ENDROOT
BRANCH   1   7
ATOM      7  N   UNL d   1      -0.161   1.906   2.100  0.00  0.00    -0.732 N 
ATOM      8  C   UNL d   1      -0.544   3.206   1.595  0.00  0.00     0.284 C 
ATOM      9  H3  UNL d   1      -0.632   1.639   2.962  0.00  0.00     0.395 HD
ENDBRANCH   1   7
TORSDOF 1
ENDMDL
