MODEL 1
REMARK minimizedAffinity -2.74334145
REMARK minimizedRMSD -1
REMARK  1 active torsions:
REMARK  status: ('A' for Active; 'I' for Inactive)
REMARK    1  A    between atoms: N_2  and  C1_3 
ROOT
ATOM      1  C1  UNL d   1      -0.313  -1.334  -0.392  0.00  0.00     0.143 A 
ATOM      2  C2  UNL d   1       0.857  -1.974  -0.815  0.00  0.00    -0.057 A 
ATOM      3  C3  UNL d   1       0.839  -3.303  -1.254  0.00  0.00     0.033 A 
ATOM      4  C4  UNL d   1      -0.348  -4.028  -1.249  0.00  0.00    -0.042 A 
ATOM      5  C5  UNL d   1      -1.518  -3.420  -0.809  0.00  0.00     0.033 A 
ATOM      6  C6  UNL d   1      -1.496  -2.090  -0.379  0.00  0.00    -0.057 A 
ENDROOT
BRANCH   1   7
ATOM      7  N   UNL d   1      -0.343  -0.046   0.148  0.00  0.00    -0.732 N 
ATOM      8  C   UNL d   1       0.068   0.191   1.515  0.00  0.00     0.284 C 
ATOM      9  H3  UNL d   1      -0.021   0.659  -0.511  0.00  0.00     0.395 HD
ENDBRANCH   1   7
TORSDOF 1
ENDMDL
