MODEL 1
REMARK minimizedAffinity -3.30365133
REMARK minimizedRMSD -1
REMARK  1 active torsions:
REMARK  status: ('A' for Active; 'I' for Inactive)
REMARK    1  A    between atoms: N_2  and  C1_3 
ROOT
ATOM      1  C1  UNL d   1      -0.025  -0.106   0.372  0.00  0.00     0.143 A 
ATOM      2  C2  UNL d   1       0.328   0.160   1.699  0.00  0.00    -0.057 A 
ATOM      3  C3  UNL d   1      -0.169   1.283   2.372  0.00  0.00     0.033 A 
ATOM      4  C4  UNL d   1      -1.009   2.177   1.717  0.00  0.00    -0.042 A 
ATOM      5  C5  UNL d   1      -1.354   1.946   0.390  0.00  0.00     0.033 A 
ATOM      6  C6  UNL d   1      -0.859   0.819  -0.274  0.00  0.00    -0.057 A 
ENDROOT
BRANCH   1   7
ATOM      7  N   UNL d   1       0.514  -1.152  -0.382  0.00  0.00    -0.732 N 
ATOM      8  C   UNL d   1      -0.198  -2.404  -0.521  0.00  0.00     0.284 C 
ATOM      9  H3  UNL d   1       0.953  -0.826  -1.240  0.00  0.00     0.395 HD
ENDBRANCH   1   7
TORSDOF 1
ENDMDL
