MODEL 1
REMARK minimizedAffinity -4.91291904
REMARK minimizedRMSD -1
REMARK  1 active torsions:
REMARK  status: ('A' for Active; 'I' for Inactive)
REMARK    1  A    between atoms: N_2  and  C1_3 
ROOT
ATOM      1  C1  UNL d   1       0.005  -0.050   0.014  0.00  0.00     0.143 A 
ATOM      2  C2  UNL d   1       0.362   0.153   1.352  0.00  0.00    -0.057 A 
ATOM      3  C3  UNL d   1      -0.040   1.301   2.045  0.00  0.00     0.033 A 
ATOM      4  C4  UNL d   1      -0.785   2.284   1.401  0.00  0.00    -0.042 A 
ATOM      5  C5  UNL d   1      -1.130   2.116   0.065  0.00  0.00     0.033 A 
ATOM      6  C6  UNL d   1      -0.731   0.964  -0.620  0.00  0.00    -0.057 A 
ENDROOT
BRANCH   1   7
ATOM      7  N   UNL d   1       0.457  -1.123  -0.757  0.00  0.00    -0.732 N 
ATOM      8  C   UNL d   1      -0.354  -2.311  -0.914  0.00  0.00     0.284 C 
ATOM      9  H3  UNL d   1       0.920  -0.820  -1.611  0.00  0.00     0.395 HD
ENDBRANCH   1   7
TORSDOF 1
ENDMDL
