MODEL 1
REMARK minimizedAffinity -1.27773941
REMARK minimizedRMSD -1
REMARK  0 active torsions:
REMARK  status: ('A' for Active; 'I' for Inactive)
ROOT
ATOM      1  N1  IND d   1       2.624   3.113   0.007  0.00  0.00    -0.196 N 
ATOM      2  C2  IND d   1       3.721   2.960   0.808  0.00  0.00     0.054 A 
ATOM      3  C3  IND d   1       3.762   1.707   1.316  0.00  0.00    -0.031 A 
ATOM      4  C4  IND d   1       2.188  -0.284   0.887  0.00  0.00     0.051 A 
ATOM      5  C5  IND d   1       1.023  -0.619   0.255  0.00  0.00    -0.031 A 
ATOM      6  C6  IND d   1       0.319   0.289  -0.508  0.00  0.00     0.015 A 
ATOM      7  C7  IND d   1       0.763   1.570  -0.679  0.00  0.00    -0.016 A 
ATOM      8  C8  IND d   1       1.942   1.917  -0.034  0.00  0.00    -0.047 A 
ATOM      9  C9  IND d   1       2.637   1.011   0.777  0.00  0.00    -0.096 A 
ATOM     10  HN1 IND d   1       2.398   3.834  -0.402  0.00  0.00     0.298 HD
ENDROOT
TORSDOF 0
ENDMDL
