MODEL 1
REMARK minimizedAffinity -1.27957308
REMARK minimizedRMSD -1
REMARK  0 active torsions:
REMARK  status: ('A' for Active; 'I' for Inactive)
ROOT
ATOM      1  N1  IND d   1       0.974  -0.584   0.851  0.00  0.00    -0.196 N 
ATOM      2  C2  IND d   1       1.188   0.540   0.102  0.00  0.00     0.054 A 
ATOM      3  C3  IND d   1       0.191   0.704  -0.797  0.00  0.00    -0.031 A 
ATOM      4  C4  IND d   1      -1.942  -0.695  -1.145  0.00  0.00     0.051 A 
ATOM      5  C5  IND d   1      -2.561  -1.839  -0.725  0.00  0.00    -0.031 A 
ATOM      6  C6  IND d   1      -2.024  -2.637   0.264  0.00  0.00     0.015 A 
ATOM      7  C7  IND d   1      -0.848  -2.314   0.880  0.00  0.00    -0.016 A 
ATOM      8  C8  IND d   1      -0.213  -1.157   0.451  0.00  0.00    -0.047 A 
ATOM      9  C9  IND d   1      -0.732  -0.365  -0.582  0.00  0.00    -0.096 A 
ATOM     10  HN1 IND d   1       1.493  -0.882   1.467  0.00  0.00     0.298 HD
ENDROOT
TORSDOF 0
ENDMDL
