MODEL 1
REMARK minimizedAffinity -2.28992844
REMARK minimizedRMSD -1
REMARK  0 active torsions:
REMARK  status: ('A' for Active; 'I' for Inactive)
ROOT
ATOM      1  N1  IND d   1       4.796   5.026  -1.742  0.00  0.00    -0.196 N 
ATOM      2  C2  IND d   1       5.638   4.471  -2.665  0.00  0.00     0.054 A 
ATOM      3  C3  IND d   1       5.544   3.122  -2.637  0.00  0.00    -0.031 A 
ATOM      4  C4  IND d   1       4.001   1.620  -1.227  0.00  0.00     0.051 A 
ATOM      5  C5  IND d   1       3.082   1.666  -0.216  0.00  0.00    -0.031 A 
ATOM      6  C6  IND d   1       2.677   2.859   0.347  0.00  0.00     0.015 A 
ATOM      7  C7  IND d   1       3.170   4.057  -0.090  0.00  0.00    -0.016 A 
ATOM      8  C8  IND d   1       4.108   4.013  -1.111  0.00  0.00    -0.047 A 
ATOM      9  C9  IND d   1       4.555   2.802  -1.657  0.00  0.00    -0.096 A 
ATOM     10  HN1 IND d   1       4.710   5.866  -1.583  0.00  0.00     0.298 HD
ENDROOT
TORSDOF 0
ENDMDL
