MODEL 1
REMARK minimizedAffinity -3.84898067
REMARK minimizedRMSD -1
REMARK  0 active torsions:
REMARK  status: ('A' for Active; 'I' for Inactive)
ROOT
ATOM      1  N1  IND d   1       0.962  -1.509   1.082  0.00  0.00    -0.196 N 
ATOM      2  C2  IND d   1       0.197  -2.311   1.881  0.00  0.00     0.054 A 
ATOM      3  C3  IND d   1      -1.102  -2.241   1.512  0.00  0.00    -0.031 A 
ATOM      4  C4  IND d   1      -2.180  -0.952  -0.439  0.00  0.00     0.051 A 
ATOM      5  C5  IND d   1      -1.891  -0.051  -1.425  0.00  0.00    -0.031 A 
ATOM      6  C6  IND d   1      -0.610   0.417  -1.632  0.00  0.00     0.015 A 
ATOM      7  C7  IND d   1       0.437  -0.008  -0.864  0.00  0.00    -0.016 A 
ATOM      8  C8  IND d   1       0.146  -0.918   0.143  0.00  0.00    -0.047 A 
ATOM      9  C9  IND d   1      -1.160  -1.364   0.385  0.00  0.00    -0.096 A 
ATOM     10  HN1 IND d   1       1.811  -1.392   1.154  0.00  0.00     0.298 HD
ENDROOT
TORSDOF 0
ENDMDL
