MODEL 1
REMARK minimizedAffinity 1.53592932
REMARK minimizedRMSD -1
REMARK  0 active torsions:
REMARK  status: ('A' for Active; 'I' for Inactive)
ROOT
ATOM      1  N1  IND d   1       0.068  -0.904   0.902  0.00  0.00    -0.196 N 
ATOM      2  C2  IND d   1       1.333  -0.393   0.827  0.00  0.00     0.054 A 
ATOM      3  C3  IND d   1       1.505   0.267  -0.341  0.00  0.00    -0.031 A 
ATOM      4  C4  IND d   1      -0.186   0.718  -2.229  0.00  0.00     0.051 A 
ATOM      5  C5  IND d   1      -1.458   0.420  -2.629  0.00  0.00    -0.031 A 
ATOM      6  C6  IND d   1      -2.305  -0.347  -1.856  0.00  0.00     0.015 A 
ATOM      7  C7  IND d   1      -1.913  -0.839  -0.643  0.00  0.00    -0.016 A 
ATOM      8  C8  IND d   1      -0.619  -0.544  -0.236  0.00  0.00    -0.047 A 
ATOM      9  C9  IND d   1       0.259   0.199  -1.036  0.00  0.00    -0.096 A 
ATOM     10  HN1 IND d   1      -0.246  -1.372   1.552  0.00  0.00     0.298 HD
ENDROOT
TORSDOF 0
ENDMDL
