MODEL 1
REMARK minimizedAffinity -3.75377202
REMARK minimizedRMSD -1
REMARK  0 active torsions:
REMARK  status: ('A' for Active; 'I' for Inactive)
ROOT
ATOM      1  N1  IND d   1       3.967   4.945  -1.254  0.00  0.00    -0.196 N 
ATOM      2  C2  IND d   1       4.690   4.327  -2.236  0.00  0.00     0.054 A 
ATOM      3  C3  IND d   1       4.631   2.984  -2.090  0.00  0.00    -0.031 A 
ATOM      4  C4  IND d   1       3.323   1.583  -0.371  0.00  0.00     0.051 A 
ATOM      5  C5  IND d   1       2.547   1.700   0.748  0.00  0.00    -0.031 A 
ATOM      6  C6  IND d   1       2.195   2.930   1.265  0.00  0.00     0.015 A 
ATOM      7  C7  IND d   1       2.598   4.093   0.674  0.00  0.00    -0.016 A 
ATOM      8  C8  IND d   1       3.393   3.978  -0.458  0.00  0.00    -0.047 A 
ATOM      9  C9  IND d   1       3.789   2.733  -0.963  0.00  0.00    -0.096 A 
ATOM     10  HN1 IND d   1       3.885   5.795  -1.151  0.00  0.00     0.298 HD
ENDROOT
TORSDOF 0
ENDMDL
