MODEL 1
REMARK minimizedAffinity -1.90381682
REMARK minimizedRMSD -1
REMARK  0 active torsions:
REMARK  status: ('A' for Active; 'I' for Inactive)
ROOT
ATOM      1  N1  IND d   1       0.915   1.325  -0.171  0.00  0.00    -0.196 N 
ATOM      2  C2  IND d   1       1.417   0.454   0.755  0.00  0.00     0.054 A 
ATOM      3  C3  IND d   1       0.705  -0.696   0.755  0.00  0.00    -0.031 A 
ATOM      4  C4  IND d   1      -1.258  -1.403  -0.753  0.00  0.00     0.051 A 
ATOM      5  C5  IND d   1      -2.094  -0.930  -1.726  0.00  0.00    -0.031 A 
ATOM      6  C6  IND d   1      -1.965   0.343  -2.243  0.00  0.00     0.015 A 
ATOM      7  C7  IND d   1      -0.984   1.191  -1.812  0.00  0.00    -0.016 A 
ATOM      8  C8  IND d   1      -0.138   0.717  -0.819  0.00  0.00    -0.047 A 
ATOM      9  C9  IND d   1      -0.291  -0.559  -0.261  0.00  0.00    -0.096 A 
ATOM     10  HN1 IND d   1       1.208   2.118  -0.324  0.00  0.00     0.298 HD
ENDROOT
TORSDOF 0
ENDMDL
