MODEL 1
REMARK minimizedAffinity -2.64554405
REMARK minimizedRMSD -1
REMARK  0 active torsions:
REMARK  status: ('A' for Active; 'I' for Inactive)
ROOT
ATOM      1  N1  IND d   1      -2.040  -0.450  -1.351  0.00  0.00    -0.196 N 
ATOM      2  C2  IND d   1      -1.525   0.398  -2.292  0.00  0.00     0.054 A 
ATOM      3  C3  IND d   1      -0.233   0.682  -2.011  0.00  0.00    -0.031 A 
ATOM      4  C4  IND d   1       1.265  -0.212  -0.119  0.00  0.00     0.051 A 
ATOM      5  C5  IND d   1       1.231  -0.984   1.009  0.00  0.00    -0.031 A 
ATOM      6  C6  IND d   1       0.082  -1.632   1.414  0.00  0.00     0.015 A 
ATOM      7  C7  IND d   1      -1.077  -1.542   0.698  0.00  0.00    -0.016 A 
ATOM      8  C8  IND d   1      -1.048  -0.754  -0.444  0.00  0.00    -0.047 A 
ATOM      9  C9  IND d   1       0.103  -0.059  -0.837  0.00  0.00    -0.096 A 
ATOM     10  HN1 IND d   1      -2.848  -0.744  -1.329  0.00  0.00     0.298 HD
ENDROOT
TORSDOF 0
ENDMDL
