MODEL 1
REMARK minimizedAffinity 1.75028658
REMARK minimizedRMSD -1
REMARK  0 active torsions:
REMARK  status: ('A' for Active; 'I' for Inactive)
ROOT
ATOM      1  N1  IND d   1       1.488   1.145  -0.980  0.00  0.00    -0.196 N 
ATOM      2  C2  IND d   1       2.097   0.610   0.121  0.00  0.00     0.054 A 
ATOM      3  C3  IND d   1       1.266  -0.255   0.745  0.00  0.00    -0.031 A 
ATOM      4  C4  IND d   1      -1.099  -1.021   0.076  0.00  0.00     0.051 A 
ATOM      5  C5  IND d   1      -2.091  -0.784  -0.834  0.00  0.00    -0.031 A 
ATOM      6  C6  IND d   1      -1.936   0.124  -1.861  0.00  0.00     0.015 A 
ATOM      7  C7  IND d   1      -0.775   0.824  -2.024  0.00  0.00    -0.016 A 
ATOM      8  C8  IND d   1       0.232   0.591  -1.098  0.00  0.00    -0.047 A 
ATOM      9  C9  IND d   1       0.066  -0.298  -0.029  0.00  0.00    -0.096 A 
ATOM     10  HN1 IND d   1       1.832   1.728  -1.509  0.00  0.00     0.298 HD
ENDROOT
TORSDOF 0
ENDMDL
