MODEL 1
REMARK minimizedAffinity -4.1989913
REMARK minimizedRMSD -1
REMARK  0 active torsions:
REMARK  status: ('A' for Active; 'I' for Inactive)
ROOT
ATOM      1  N1  IND d   1       0.535  -0.501   0.585  0.00  0.00    -0.196 N 
ATOM      2  C2  IND d   1       0.585   0.709  -0.049  0.00  0.00     0.054 A 
ATOM      3  C3  IND d   1      -0.539   0.908  -0.773  0.00  0.00    -0.031 A 
ATOM      4  C4  IND d   1      -2.634  -0.574  -0.981  0.00  0.00     0.051 A 
ATOM      5  C5  IND d   1      -3.132  -1.793  -0.616  0.00  0.00    -0.031 A 
ATOM      6  C6  IND d   1      -2.419  -2.661   0.187  0.00  0.00     0.015 A 
ATOM      7  C7  IND d   1      -1.182  -2.335   0.666  0.00  0.00    -0.016 A 
ATOM      8  C8  IND d   1      -0.670  -1.100   0.291  0.00  0.00    -0.047 A 
ATOM      9  C9  IND d   1      -1.371  -0.234  -0.558  0.00  0.00    -0.096 A 
ATOM     10  HN1 IND d   1       1.152  -0.833   1.083  0.00  0.00     0.298 HD
ENDROOT
TORSDOF 0
ENDMDL
