MODEL 1
REMARK minimizedAffinity -1.04746687
REMARK minimizedRMSD -1
REMARK  0 active torsions:
REMARK  status: ('A' for Active; 'I' for Inactive)
ROOT
ATOM      1  N1  IND d   1       0.600  -0.545   0.792  0.00  0.00    -0.196 N 
ATOM      2  C2  IND d   1       1.494   0.420   0.421  0.00  0.00     0.054 A 
ATOM      3  C3  IND d   1       1.101   1.007  -0.732  0.00  0.00    -0.031 A 
ATOM      4  C4  IND d   1      -1.027   0.612  -2.126  0.00  0.00     0.051 A 
ATOM      5  C5  IND d   1      -2.127  -0.195  -2.207  0.00  0.00    -0.031 A 
ATOM      6  C6  IND d   1      -2.381  -1.178  -1.272  0.00  0.00     0.015 A 
ATOM      7  C7  IND d   1      -1.547  -1.383  -0.210  0.00  0.00    -0.016 A 
ATOM      8  C8  IND d   1      -0.425  -0.571  -0.128  0.00  0.00    -0.047 A 
ATOM      9  C9  IND d   1      -0.139   0.400  -1.097  0.00  0.00    -0.096 A 
ATOM     10  HN1 IND d   1       0.666  -1.051   1.484  0.00  0.00     0.298 HD
ENDROOT
TORSDOF 0
ENDMDL
