MODEL 1
REMARK minimizedAffinity -3.13064384
REMARK minimizedRMSD -1
REMARK  0 active torsions:
REMARK  status: ('A' for Active; 'I' for Inactive)
ROOT
ATOM      1  N1  IND d   1       1.747   0.151   2.198  0.00  0.00    -0.196 N 
ATOM      2  C2  IND d   1       1.903  -0.718   1.154  0.00  0.00     0.054 A 
ATOM      3  C3  IND d   1       2.419  -0.076   0.081  0.00  0.00    -0.031 A 
ATOM      4  C4  IND d   1       3.176   2.373  -0.151  0.00  0.00     0.051 A 
ATOM      5  C5  IND d   1       3.197   3.563   0.522  0.00  0.00    -0.031 A 
ATOM      6  C6  IND d   1       2.729   3.677   1.815  0.00  0.00     0.015 A 
ATOM      7  C7  IND d   1       2.230   2.600   2.490  0.00  0.00    -0.016 A 
ATOM      8  C8  IND d   1       2.201   1.392   1.808  0.00  0.00    -0.047 A 
ATOM      9  C9  IND d   1       2.635   1.278   0.481  0.00  0.00    -0.096 A 
ATOM     10  HN1 IND d   1       1.420  -0.045   2.969  0.00  0.00     0.298 HD
ENDROOT
TORSDOF 0
ENDMDL
