MODEL 1
REMARK minimizedAffinity -3.20641136
REMARK minimizedRMSD -1
REMARK  0 active torsions:
REMARK  status: ('A' for Active; 'I' for Inactive)
ROOT
ATOM      1  N1  IND d   1       0.997  -0.282   0.989  0.00  0.00    -0.196 N 
ATOM      2  C2  IND d   1       1.771   0.733   0.499  0.00  0.00     0.054 A 
ATOM      3  C3  IND d   1       1.169   1.311  -0.564  0.00  0.00    -0.031 A 
ATOM      4  C4  IND d   1      -1.133   0.822  -1.608  0.00  0.00     0.051 A 
ATOM      5  C5  IND d   1      -2.190  -0.041  -1.528  0.00  0.00    -0.031 A 
ATOM      6  C6  IND d   1      -2.242  -1.046  -0.584  0.00  0.00     0.015 A 
ATOM      7  C7  IND d   1      -1.238  -1.220   0.326  0.00  0.00    -0.016 A 
ATOM      8  C8  IND d   1      -0.159  -0.351   0.244  0.00  0.00    -0.047 A 
ATOM      9  C9  IND d   1      -0.082   0.644  -0.739  0.00  0.00    -0.096 A 
ATOM     10  HN1 IND d   1       1.199  -0.792   1.652  0.00  0.00     0.298 HD
ENDROOT
TORSDOF 0
ENDMDL
