MODEL 1
REMARK minimizedAffinity -1.47304547
REMARK minimizedRMSD -1
REMARK  0 active torsions:
REMARK  status: ('A' for Active; 'I' for Inactive)
ROOT
ATOM      1  N1  IND d   1       1.049  -0.308   0.919  0.00  0.00    -0.196 N 
ATOM      2  C2  IND d   1       1.826   0.775   0.615  0.00  0.00     0.054 A 
ATOM      3  C3  IND d   1       1.340   1.412  -0.473  0.00  0.00    -0.031 A 
ATOM      4  C4  IND d   1      -0.777   0.913  -1.851  0.00  0.00     0.051 A 
ATOM      5  C5  IND d   1      -1.789   0.004  -1.979  0.00  0.00    -0.031 A 
ATOM      6  C6  IND d   1      -1.911  -1.076  -1.128  0.00  0.00     0.015 A 
ATOM      7  C7  IND d   1      -1.028  -1.282  -0.106  0.00  0.00    -0.016 A 
ATOM      8  C8  IND d   1       0.006  -0.364   0.022  0.00  0.00    -0.047 A 
ATOM      9  C9  IND d   1       0.159   0.710  -0.864  0.00  0.00    -0.096 A 
ATOM     10  HN1 IND d   1       1.189  -0.860   1.563  0.00  0.00     0.298 HD
ENDROOT
TORSDOF 0
ENDMDL
