MODEL 1
REMARK minimizedAffinity -0.389229804
REMARK minimizedRMSD -1
REMARK  0 active torsions:
REMARK  status: ('A' for Active; 'I' for Inactive)
ROOT
ATOM      1  N1  IND d   1       0.681  -0.014   0.498  0.00  0.00    -0.196 N 
ATOM      2  C2  IND d   1       0.581   0.906  -0.508  0.00  0.00     0.054 A 
ATOM      3  C3  IND d   1      -0.512   0.659  -1.265  0.00  0.00    -0.031 A 
ATOM      4  C4  IND d   1      -2.330  -1.140  -0.973  0.00  0.00     0.051 A 
ATOM      5  C5  IND d   1      -2.652  -2.234  -0.219  0.00  0.00    -0.031 A 
ATOM      6  C6  IND d   1      -1.865  -2.650   0.835  0.00  0.00     0.015 A 
ATOM      7  C7  IND d   1      -0.727  -1.979   1.183  0.00  0.00    -0.016 A 
ATOM      8  C8  IND d   1      -0.393  -0.872   0.416  0.00  0.00    -0.047 A 
ATOM      9  C9  IND d   1      -1.166  -0.469  -0.682  0.00  0.00    -0.096 A 
ATOM     10  HN1 IND d   1       1.310  -0.051   1.083  0.00  0.00     0.298 HD
ENDROOT
TORSDOF 0
ENDMDL
