MODEL 1
REMARK minimizedAffinity -1.69558001
REMARK minimizedRMSD -1
REMARK  0 active torsions:
REMARK  status: ('A' for Active; 'I' for Inactive)
ROOT
ATOM      1  N1  IND d   1       4.061   4.917  -0.900  0.00  0.00    -0.196 N 
ATOM      2  C2  IND d   1       4.408   4.332  -2.085  0.00  0.00     0.054 A 
ATOM      3  C3  IND d   1       4.110   3.013  -2.064  0.00  0.00    -0.031 A 
ATOM      4  C4  IND d   1       2.957   1.626  -0.226  0.00  0.00     0.051 A 
ATOM      5  C5  IND d   1       2.488   1.714   1.054  0.00  0.00    -0.031 A 
ATOM      6  C6  IND d   1       2.517   2.898   1.762  0.00  0.00     0.015 A 
ATOM      7  C7  IND d   1       3.008   4.046   1.209  0.00  0.00    -0.016 A 
ATOM      8  C8  IND d   1       3.492   3.960  -0.088  0.00  0.00    -0.047 A 
ATOM      9  C9  IND d   1       3.505   2.751  -0.797  0.00  0.00    -0.096 A 
ATOM     10  HN1 IND d   1       4.179   5.744  -0.695  0.00  0.00     0.298 HD
ENDROOT
TORSDOF 0
ENDMDL
