MODEL 1
REMARK minimizedAffinity 2.45403481
REMARK minimizedRMSD -1
REMARK  1 active torsions:
REMARK  status: ('A' for Active; 'I' for Inactive)
REMARK    1  A    between atoms: C1_2  and  C2_3 
ROOT
ATOM      1  C2  UNL d   1       3.836   5.020   2.687  0.00  0.00    -0.081 A 
ATOM      2  C3  UNL d   1       3.830   5.656   1.439  0.00  0.00     0.006 A 
ATOM      3  C4  UNL d   1       4.384   5.029   0.321  0.00  0.00     0.002 A 
ATOM      4  C5  UNL d   1       4.946   3.752   0.430  0.00  0.00    -0.080 A 
ATOM      5  C6  UNL d   1       5.518   3.055  -0.769  0.00  0.00     0.076 C 
ATOM      6  C7  UNL d   1       4.968   3.123   1.679  0.00  0.00     0.002 A 
ATOM      7  C8  UNL d   1       4.414   3.751   2.798  0.00  0.00     0.006 A 
ENDROOT
BRANCH   1   8
ATOM      8  C1  UNL d   1       3.181   5.667   3.880  0.00  0.00     0.054 C 
ATOM      9  C   UNL d   1       4.202   6.000   4.959  0.00  0.00     0.018 C 
ENDBRANCH   1   8
TORSDOF 1
ENDMDL
