MODEL 1
REMARK minimizedAffinity -3.81260943
REMARK minimizedRMSD -1
REMARK  1 active torsions:
REMARK  status: ('A' for Active; 'I' for Inactive)
REMARK    1  A    between atoms: C1_2  and  C2_3 
ROOT
ATOM      1  C2  UNL d   1      -2.450  -3.837   0.174  0.00  0.00    -0.081 A 
ATOM      2  C3  UNL d   1      -1.298  -4.344  -0.438  0.00  0.00     0.006 A 
ATOM      3  C4  UNL d   1      -0.111  -3.609  -0.433  0.00  0.00     0.002 A 
ATOM      4  C5  UNL d   1      -0.053  -2.358   0.191  0.00  0.00    -0.080 A 
ATOM      5  C6  UNL d   1       1.223  -1.571   0.230  0.00  0.00     0.076 C 
ATOM      6  C7  UNL d   1      -1.209  -1.843   0.788  0.00  0.00     0.002 A 
ATOM      7  C8  UNL d   1      -2.397  -2.578   0.783  0.00  0.00     0.006 A 
ENDROOT
BRANCH   1   8
ATOM      8  C1  UNL d   1      -3.714  -4.656   0.227  0.00  0.00     0.054 C 
ATOM      9  C   UNL d   1      -3.534  -5.997  -0.470  0.00  0.00     0.018 C 
ENDBRANCH   1   8
TORSDOF 1
ENDMDL
