MODEL 1
REMARK minimizedAffinity -1.00946641
REMARK minimizedRMSD -1
REMARK  1 active torsions:
REMARK  status: ('A' for Active; 'I' for Inactive)
REMARK    1  A    between atoms: C1_2  and  C2_3 
ROOT
ATOM      1  C2  UNL d   1      -1.354  -3.302  -1.118  0.00  0.00    -0.081 A 
ATOM      2  C3  UNL d   1      -0.558  -3.024   0.000  0.00  0.00     0.006 A 
ATOM      3  C4  UNL d   1      -0.935  -2.031   0.908  0.00  0.00     0.002 A 
ATOM      4  C5  UNL d   1      -2.117  -1.307   0.717  0.00  0.00    -0.080 A 
ATOM      5  C6  UNL d   1      -2.548  -0.260   1.701  0.00  0.00     0.076 C 
ATOM      6  C7  UNL d   1      -2.903  -1.573  -0.409  0.00  0.00     0.002 A 
ATOM      7  C8  UNL d   1      -2.526  -2.565  -1.317  0.00  0.00     0.006 A 
ENDROOT
BRANCH   1   8
ATOM      8  C1  UNL d   1      -0.983  -4.416  -2.064  0.00  0.00     0.054 C 
ATOM      9  C   UNL d   1      -1.154  -5.779  -1.408  0.00  0.00     0.018 C 
ENDBRANCH   1   8
TORSDOF 1
ENDMDL
