MODEL 1
REMARK minimizedAffinity -0.120839417
REMARK minimizedRMSD -1
REMARK  1 active torsions:
REMARK  status: ('A' for Active; 'I' for Inactive)
REMARK    1  A    between atoms: C1_2  and  C2_3 
ROOT
ATOM      1  C2  UNL d   1      -0.602  -2.447  -0.151  0.00  0.00    -0.081 A 
ATOM      2  C3  UNL d   1       0.082  -3.666  -0.077  0.00  0.00     0.006 A 
ATOM      3  C4  UNL d   1      -0.467  -4.821  -0.640  0.00  0.00     0.002 A 
ATOM      4  C5  UNL d   1      -1.703  -4.774  -1.293  0.00  0.00    -0.080 A 
ATOM      5  C6  UNL d   1      -2.289  -6.000  -1.928  0.00  0.00     0.076 C 
ATOM      6  C7  UNL d   1      -2.395  -3.559  -1.351  0.00  0.00     0.002 A 
ATOM      7  C8  UNL d   1      -1.847  -2.404  -0.788  0.00  0.00     0.006 A 
ENDROOT
BRANCH   1   8
ATOM      8  C1  UNL d   1       0.017  -1.187   0.399  0.00  0.00     0.054 C 
ATOM      9  C   UNL d   1       1.489  -1.085   0.025  0.00  0.00     0.018 C 
ENDBRANCH   1   8
TORSDOF 1
ENDMDL
