MODEL 1
REMARK minimizedAffinity -1.57631373
REMARK minimizedRMSD -1
REMARK  1 active torsions:
REMARK  status: ('A' for Active; 'I' for Inactive)
REMARK    1  A    between atoms: C1_2  and  C2_3 
ROOT
ATOM      1  C2  UNL d   1       1.599  -0.724   0.146  0.00  0.00    -0.081 A 
ATOM      2  C3  UNL d   1       2.681  -1.585  -0.075  0.00  0.00     0.006 A 
ATOM      3  C4  UNL d   1       2.489  -2.968  -0.120  0.00  0.00     0.002 A 
ATOM      4  C5  UNL d   1       1.211  -3.512   0.049  0.00  0.00    -0.080 A 
ATOM      5  C6  UNL d   1       0.985  -4.993  -0.026  0.00  0.00     0.076 C 
ATOM      6  C7  UNL d   1       0.133  -2.653   0.288  0.00  0.00     0.002 A 
ATOM      7  C8  UNL d   1       0.325  -1.270   0.333  0.00  0.00     0.006 A 
ENDROOT
BRANCH   1   8
ATOM      8  C1  UNL d   1       1.793   0.771   0.130  0.00  0.00     0.054 C 
ATOM      9  C   UNL d   1       2.534   1.246   1.372  0.00  0.00     0.018 C 
ENDBRANCH   1   8
TORSDOF 1
ENDMDL
