MODEL 1
REMARK minimizedAffinity 6.38635445
REMARK minimizedRMSD -1
REMARK  1 active torsions:
REMARK  status: ('A' for Active; 'I' for Inactive)
REMARK    1  A    between atoms: C1_2  and  C2_3 
ROOT
ATOM      1  C2  UNL d   1       0.996  -3.083   0.005  0.00  0.00    -0.081 A 
ATOM      2  C3  UNL d   1       0.173  -2.136   0.627  0.00  0.00     0.006 A 
ATOM      3  C4  UNL d   1       0.680  -0.884   0.986  0.00  0.00     0.002 A 
ATOM      4  C5  UNL d   1       2.014  -0.556   0.722  0.00  0.00    -0.080 A 
ATOM      5  C6  UNL d   1       2.562   0.794   1.075  0.00  0.00     0.076 C 
ATOM      6  C7  UNL d   1       2.840  -1.509   0.117  0.00  0.00     0.002 A 
ATOM      7  C8  UNL d   1       2.335  -2.761  -0.242  0.00  0.00     0.006 A 
ENDROOT
BRANCH   1   8
ATOM      8  C1  UNL d   1       0.435  -4.409  -0.441  0.00  0.00     0.054 C 
ATOM      9  C   UNL d   1      -0.923  -4.240  -1.108  0.00  0.00     0.018 C 
ENDBRANCH   1   8
TORSDOF 1
ENDMDL
