MODEL 1
REMARK minimizedAffinity 8.07980156
REMARK minimizedRMSD -1
REMARK  1 active torsions:
REMARK  status: ('A' for Active; 'I' for Inactive)
REMARK    1  A    between atoms: C1_2  and  C2_3 
ROOT
ATOM      1  C2  UNL d   1       3.934   4.168   2.667  0.00  0.00    -0.081 A 
ATOM      2  C3  UNL d   1       4.660   2.997   2.419  0.00  0.00     0.006 A 
ATOM      3  C4  UNL d   1       4.011   1.843   1.972  0.00  0.00     0.002 A 
ATOM      4  C5  UNL d   1       2.628   1.844   1.759  0.00  0.00    -0.080 A 
ATOM      5  C6  UNL d   1       1.924   0.621   1.251  0.00  0.00     0.076 C 
ATOM      6  C7  UNL d   1       1.901   3.009   2.024  0.00  0.00     0.002 A 
ATOM      7  C8  UNL d   1       2.549   4.163   2.471  0.00  0.00     0.006 A 
ENDROOT
BRANCH   1   8
ATOM      8  C1  UNL d   1       4.640   5.433   3.086  0.00  0.00     0.054 C 
ATOM      9  C   UNL d   1       4.875   5.462   4.590  0.00  0.00     0.018 C 
ENDBRANCH   1   8
TORSDOF 1
ENDMDL
