MODEL 1
REMARK minimizedAffinity 1.91421747
REMARK minimizedRMSD -1
REMARK  1 active torsions:
REMARK  status: ('A' for Active; 'I' for Inactive)
REMARK    1  A    between atoms: C1_2  and  C2_3 
ROOT
ATOM      1  C2  UNL d   1       3.073   2.362   2.159  0.00  0.00    -0.081 A 
ATOM      2  C3  UNL d   1       3.704   3.611   2.213  0.00  0.00     0.006 A 
ATOM      3  C4  UNL d   1       3.296   4.570   3.143  0.00  0.00     0.002 A 
ATOM      4  C5  UNL d   1       2.258   4.294   4.038  0.00  0.00    -0.080 A 
ATOM      5  C6  UNL d   1       1.831   5.304   5.062  0.00  0.00     0.076 C 
ATOM      6  C7  UNL d   1       1.616   3.053   3.972  0.00  0.00     0.002 A 
ATOM      7  C8  UNL d   1       2.022   2.094   3.042  0.00  0.00     0.006 A 
ENDROOT
BRANCH   1   8
ATOM      8  C1  UNL d   1       3.553   1.302   1.200  0.00  0.00     0.054 C 
ATOM      9  C   UNL d   1       2.385   0.590   0.532  0.00  0.00     0.018 C 
ENDBRANCH   1   8
TORSDOF 1
ENDMDL
