MODEL 1
REMARK minimizedAffinity 7.35850239
REMARK minimizedRMSD -1
REMARK  1 active torsions:
REMARK  status: ('A' for Active; 'I' for Inactive)
REMARK    1  A    between atoms: C1_2  and  C2_3 
ROOT
ATOM      1  C2  UNL d   1       1.897   3.302   2.531  0.00  0.00    -0.081 A 
ATOM      2  C3  UNL d   1       2.306   2.093   1.956  0.00  0.00     0.006 A 
ATOM      3  C4  UNL d   1       3.629   1.916   1.545  0.00  0.00     0.002 A 
ATOM      4  C5  UNL d   1       4.567   2.941   1.710  0.00  0.00    -0.080 A 
ATOM      5  C6  UNL d   1       5.998   2.754   1.301  0.00  0.00     0.076 C 
ATOM      6  C7  UNL d   1       4.154   4.156   2.269  0.00  0.00     0.002 A 
ATOM      7  C8  UNL d   1       2.831   4.333   2.679  0.00  0.00     0.006 A 
ENDROOT
BRANCH   1   8
ATOM      8  C1  UNL d   1       0.487   3.473   3.035  0.00  0.00     0.054 C 
ATOM      9  C   UNL d   1       0.321   4.789   3.781  0.00  0.00     0.018 C 
ENDBRANCH   1   8
TORSDOF 1
ENDMDL
