MODEL 1
REMARK minimizedAffinity 10.8459368
REMARK minimizedRMSD -1
REMARK  1 active torsions:
REMARK  status: ('A' for Active; 'I' for Inactive)
REMARK    1  A    between atoms: C1_2  and  C2_3 
ROOT
ATOM      1  C2  UNL d   1       3.693   4.578   2.906  0.00  0.00    -0.081 A 
ATOM      2  C3  UNL d   1       4.568   3.491   2.790  0.00  0.00     0.006 A 
ATOM      3  C4  UNL d   1       4.139   2.296   2.209  0.00  0.00     0.002 A 
ATOM      4  C5  UNL d   1       2.832   2.169   1.728  0.00  0.00    -0.080 A 
ATOM      5  C6  UNL d   1       2.368   0.901   1.075  0.00  0.00     0.076 C 
ATOM      6  C7  UNL d   1       1.952   3.248   1.860  0.00  0.00     0.002 A 
ATOM      7  C8  UNL d   1       2.380   4.444   2.441  0.00  0.00     0.006 A 
ENDROOT
BRANCH   1   8
ATOM      8  C1  UNL d   1       4.171   5.890   3.473  0.00  0.00     0.054 C 
ATOM      9  C   UNL d   1       4.217   5.852   4.994  0.00  0.00     0.018 C 
ENDBRANCH   1   8
TORSDOF 1
ENDMDL
