MODEL 1
REMARK minimizedAffinity 4.13655424
REMARK minimizedRMSD -1
REMARK  1 active torsions:
REMARK  status: ('A' for Active; 'I' for Inactive)
REMARK    1  A    between atoms: C1_2  and  C2_3 
ROOT
ATOM      1  C2  UNL d   1      -1.870  -4.101  -0.951  0.00  0.00    -0.081 A 
ATOM      2  C3  UNL d   1      -1.689  -2.874  -0.300  0.00  0.00     0.006 A 
ATOM      3  C4  UNL d   1      -0.414  -2.465   0.096  0.00  0.00     0.002 A 
ATOM      4  C5  UNL d   1       0.702  -3.270  -0.158  0.00  0.00    -0.080 A 
ATOM      5  C6  UNL d   1       2.080  -2.828   0.235  0.00  0.00     0.076 C 
ATOM      6  C7  UNL d   1       0.518  -4.503  -0.793  0.00  0.00     0.002 A 
ATOM      7  C8  UNL d   1      -0.756  -4.914  -1.188  0.00  0.00     0.006 A 
ENDROOT
BRANCH   1   8
ATOM      8  C1  UNL d   1      -3.235  -4.516  -1.437  0.00  0.00     0.054 C 
ATOM      9  C   UNL d   1      -3.870  -5.534  -0.500  0.00  0.00     0.018 C 
ENDBRANCH   1   8
TORSDOF 1
ENDMDL
