MODEL 1
REMARK minimizedAffinity 3.6441884
REMARK minimizedRMSD -1
REMARK  1 active torsions:
REMARK  status: ('A' for Active; 'I' for Inactive)
REMARK    1  A    between atoms: C1_2  and  C2_3 
ROOT
ATOM      1  C2  UNL d   1       1.143  -3.756   0.109  0.00  0.00    -0.081 A 
ATOM      2  C3  UNL d   1       1.449  -5.032  -0.378  0.00  0.00     0.006 A 
ATOM      3  C4  UNL d   1       0.496  -5.766  -1.089  0.00  0.00     0.002 A 
ATOM      4  C5  UNL d   1      -0.775  -5.234  -1.330  0.00  0.00    -0.080 A 
ATOM      5  C6  UNL d   1      -1.796  -5.999  -2.118  0.00  0.00     0.076 C 
ATOM      6  C7  UNL d   1      -1.086  -3.966  -0.829  0.00  0.00     0.002 A 
ATOM      7  C8  UNL d   1      -0.135  -3.232  -0.118  0.00  0.00     0.006 A 
ENDROOT
BRANCH   1   8
ATOM      8  C1  UNL d   1       2.189  -2.935   0.819  0.00  0.00     0.054 C 
ATOM      9  C   UNL d   1       2.293  -1.537   0.226  0.00  0.00     0.018 C 
ENDBRANCH   1   8
TORSDOF 1
ENDMDL
