MODEL 1
REMARK minimizedAffinity 11.6073704
REMARK minimizedRMSD -1
REMARK  1 active torsions:
REMARK  status: ('A' for Active; 'I' for Inactive)
REMARK    1  A    between atoms: C1_2  and  C2_3 
ROOT
ATOM      1  C2  UNL d   1       4.560   3.597   3.552  0.00  0.00    -0.081 A 
ATOM      2  C3  UNL d   1       4.843   4.324   2.390  0.00  0.00     0.006 A 
ATOM      3  C4  UNL d   1       3.891   4.434   1.374  0.00  0.00     0.002 A 
ATOM      4  C5  UNL d   1       2.638   3.827   1.506  0.00  0.00    -0.080 A 
ATOM      5  C6  UNL d   1       1.596   3.963   0.436  0.00  0.00     0.076 C 
ATOM      6  C7  UNL d   1       2.361   3.086   2.660  0.00  0.00     0.002 A 
ATOM      7  C8  UNL d   1       3.313   2.974   3.676  0.00  0.00     0.006 A 
ENDROOT
BRANCH   1   8
ATOM      8  C1  UNL d   1       5.561   3.530   4.678  0.00  0.00     0.054 C 
ATOM      9  C   UNL d   1       5.535   4.799   5.517  0.00  0.00     0.018 C 
ENDBRANCH   1   8
TORSDOF 1
ENDMDL
