MODEL 1
REMARK minimizedAffinity 11.581687
REMARK minimizedRMSD -1
REMARK  1 active torsions:
REMARK  status: ('A' for Active; 'I' for Inactive)
REMARK    1  A    between atoms: C1_2  and  C2_3 
ROOT
ATOM      1  C2  UNL d   1       3.367   1.874   1.872  0.00  0.00    -0.081 A 
ATOM      2  C3  UNL d   1       2.286   2.672   2.264  0.00  0.00     0.006 A 
ATOM      3  C4  UNL d   1       2.486   4.004   2.634  0.00  0.00     0.002 A 
ATOM      4  C5  UNL d   1       3.769   4.562   2.611  0.00  0.00    -0.080 A 
ATOM      5  C6  UNL d   1       3.993   6.000   2.976  0.00  0.00     0.076 C 
ATOM      6  C7  UNL d   1       4.852   3.760   2.236  0.00  0.00     0.002 A 
ATOM      7  C8  UNL d   1       4.652   2.428   1.866  0.00  0.00     0.006 A 
ENDROOT
BRANCH   1   8
ATOM      8  C1  UNL d   1       3.146   0.456   1.410  0.00  0.00     0.054 C 
ATOM      9  C   UNL d   1       1.867   0.333   0.595  0.00  0.00     0.018 C 
ENDBRANCH   1   8
TORSDOF 1
ENDMDL
