MODEL 1
REMARK minimizedAffinity 10.5718975
REMARK minimizedRMSD -1
REMARK  1 active torsions:
REMARK  status: ('A' for Active; 'I' for Inactive)
REMARK    1  A    between atoms: C1_2  and  C2_3 
ROOT
ATOM      1  C2  UNL d   1      -3.282   1.995  -5.994  0.00  0.00    -0.081 A 
ATOM      2  C3  UNL d   1      -2.937   0.639  -6.000  0.00  0.00     0.006 A 
ATOM      3  C4  UNL d   1      -1.595   0.249  -5.999  0.00  0.00     0.002 A 
ATOM      4  C5  UNL d   1      -0.577   1.209  -5.986  0.00  0.00    -0.080 A 
ATOM      5  C6  UNL d   1       0.866   0.805  -5.955  0.00  0.00     0.076 C 
ATOM      6  C7  UNL d   1      -0.922   2.565  -5.999  0.00  0.00     0.002 A 
ATOM      7  C8  UNL d   1      -2.264   2.955  -5.999  0.00  0.00     0.006 A 
ENDROOT
BRANCH   1   8
ATOM      8  C1  UNL d   1      -4.728   2.418  -5.929  0.00  0.00     0.054 C 
ATOM      9  C   UNL d   1      -5.225   2.468  -4.492  0.00  0.00     0.018 C 
ENDBRANCH   1   8
TORSDOF 1
ENDMDL
