MODEL 1
REMARK minimizedAffinity 1.79362774
REMARK minimizedRMSD -1
REMARK  1 active torsions:
REMARK  status: ('A' for Active; 'I' for Inactive)
REMARK    1  A    between atoms: C1_2  and  C2_3 
ROOT
ATOM      1  C2  UNL d   1       3.532   4.561   2.988  0.00  0.00    -0.081 A 
ATOM      2  C3  UNL d   1       2.793   3.386   3.171  0.00  0.00     0.006 A 
ATOM      3  C4  UNL d   1       2.342   2.654   2.070  0.00  0.00     0.002 A 
ATOM      4  C5  UNL d   1       2.627   3.080   0.769  0.00  0.00    -0.080 A 
ATOM      5  C6  UNL d   1       2.174   2.288  -0.421  0.00  0.00     0.076 C 
ATOM      6  C7  UNL d   1       3.350   4.264   0.585  0.00  0.00     0.002 A 
ATOM      7  C8  UNL d   1       3.801   4.996   1.685  0.00  0.00     0.006 A 
ENDROOT
BRANCH   1   8
ATOM      8  C1  UNL d   1       4.076   5.317   4.173  0.00  0.00     0.054 C 
ATOM      9  C   UNL d   1       2.961   5.998   4.954  0.00  0.00     0.018 C 
ENDBRANCH   1   8
TORSDOF 1
ENDMDL
