MODEL 1
REMARK minimizedAffinity -2.32095337
REMARK minimizedRMSD -1
REMARK  1 active torsions:
REMARK  status: ('A' for Active; 'I' for Inactive)
REMARK    1  A    between atoms: C1_2  and  C2_3 
ROOT
ATOM      1  C2  UNL d   1      -4.465  -2.510  -4.850  0.00  0.00    -0.081 A 
ATOM      2  C3  UNL d   1      -3.714  -2.799  -5.996  0.00  0.00     0.006 A 
ATOM      3  C4  UNL d   1      -2.743  -3.803  -5.972  0.00  0.00     0.002 A 
ATOM      4  C5  UNL d   1      -2.513  -4.540  -4.806  0.00  0.00    -0.080 A 
ATOM      5  C6  UNL d   1      -1.495  -5.641  -4.775  0.00  0.00     0.076 C 
ATOM      6  C7  UNL d   1      -3.251  -4.240  -3.656  0.00  0.00     0.002 A 
ATOM      7  C8  UNL d   1      -4.222  -3.236  -3.679  0.00  0.00     0.006 A 
ENDROOT
BRANCH   1   8
ATOM      8  C1  UNL d   1      -5.558  -1.472  -4.891  0.00  0.00     0.054 C 
ATOM      9  C   UNL d   1      -5.986  -1.064  -3.489  0.00  0.00     0.018 C 
ENDBRANCH   1   8
TORSDOF 1
ENDMDL
