MODEL 1
REMARK minimizedAffinity -1.08890426
REMARK minimizedRMSD -1
REMARK  1 active torsions:
REMARK  status: ('A' for Active; 'I' for Inactive)
REMARK    1  A    between atoms: C1_2  and  C2_3 
ROOT
ATOM      1  C2  UNL d   1      -3.064  -5.243  -5.214  0.00  0.00    -0.081 A 
ATOM      2  C3  UNL d   1      -4.232  -4.819  -5.858  0.00  0.00     0.006 A 
ATOM      3  C4  UNL d   1      -5.190  -4.071  -5.168  0.00  0.00     0.002 A 
ATOM      4  C5  UNL d   1      -4.991  -3.729  -3.826  0.00  0.00    -0.080 A 
ATOM      5  C6  UNL d   1      -5.996  -2.901  -3.083  0.00  0.00     0.076 C 
ATOM      6  C7  UNL d   1      -3.831  -4.167  -3.178  0.00  0.00     0.002 A 
ATOM      7  C8  UNL d   1      -2.874  -4.916  -3.867  0.00  0.00     0.006 A 
ENDROOT
BRANCH   1   8
ATOM      8  C1  UNL d   1      -2.000  -5.994  -5.973  0.00  0.00     0.054 C 
ATOM      9  C   UNL d   1      -0.675  -5.984  -5.224  0.00  0.00     0.018 C 
ENDBRANCH   1   8
TORSDOF 1
ENDMDL
