MODEL 1
REMARK minimizedAffinity 3.23476267
REMARK minimizedRMSD -1
REMARK  1 active torsions:
REMARK  status: ('A' for Active; 'I' for Inactive)
REMARK    1  A    between atoms: C1_2  and  C2_3 
ROOT
ATOM      1  C2  UNL d   1      -3.180  -0.943  -0.466  0.00  0.00    -0.081 A 
ATOM      2  C3  UNL d   1      -2.152  -0.012  -0.277  0.00  0.00     0.006 A 
ATOM      3  C4  UNL d   1      -1.003  -0.360   0.438  0.00  0.00     0.002 A 
ATOM      4  C5  UNL d   1      -0.861  -1.646   0.969  0.00  0.00    -0.080 A 
ATOM      5  C6  UNL d   1       0.380  -2.042   1.713  0.00  0.00     0.076 C 
ATOM      6  C7  UNL d   1      -1.896  -2.572   0.796  0.00  0.00     0.002 A 
ATOM      7  C8  UNL d   1      -3.045  -2.224   0.082  0.00  0.00     0.006 A 
ENDROOT
BRANCH   1   8
ATOM      8  C1  UNL d   1      -4.391  -0.592  -1.292  0.00  0.00     0.054 C 
ATOM      9  C   UNL d   1      -5.448   0.112  -0.452  0.00  0.00     0.018 C 
ENDBRANCH   1   8
TORSDOF 1
ENDMDL
