MODEL 1
REMARK minimizedAffinity 0.228000477
REMARK minimizedRMSD -1
REMARK  1 active torsions:
REMARK  status: ('A' for Active; 'I' for Inactive)
REMARK    1  A    between atoms: C1_2  and  C2_3 
ROOT
ATOM      1  C2  UNL d   1      -5.437  -1.792  -4.693  0.00  0.00    -0.081 A 
ATOM      2  C3  UNL d   1      -5.846  -2.905  -3.948  0.00  0.00     0.006 A 
ATOM      3  C4  UNL d   1      -5.285  -4.162  -4.187  0.00  0.00     0.002 A 
ATOM      4  C5  UNL d   1      -4.302  -4.326  -5.169  0.00  0.00    -0.080 A 
ATOM      5  C6  UNL d   1      -3.671  -5.664  -5.415  0.00  0.00     0.076 C 
ATOM      6  C7  UNL d   1      -3.906  -3.217  -5.925  0.00  0.00     0.002 A 
ATOM      7  C8  UNL d   1      -4.466  -1.961  -5.687  0.00  0.00     0.006 A 
ENDROOT
BRANCH   1   8
ATOM      8  C1  UNL d   1      -5.992  -0.423  -4.394  0.00  0.00     0.054 C 
ATOM      9  C   UNL d   1      -5.985  -0.138  -2.899  0.00  0.00     0.018 C 
ENDBRANCH   1   8
TORSDOF 1
ENDMDL
