MODEL 1
REMARK minimizedAffinity 4.85869312
REMARK minimizedRMSD -1
REMARK  1 active torsions:
REMARK  status: ('A' for Active; 'I' for Inactive)
REMARK    1  A    between atoms: C1_2  and  C2_3 
ROOT
ATOM      1  C2  UNL d   1      -4.617  -3.201  -4.494  0.00  0.00    -0.081 A 
ATOM      2  C3  UNL d   1      -3.849  -3.500  -5.627  0.00  0.00     0.006 A 
ATOM      3  C4  UNL d   1      -2.593  -4.096  -5.494  0.00  0.00     0.002 A 
ATOM      4  C5  UNL d   1      -2.087  -4.411  -4.229  0.00  0.00    -0.080 A 
ATOM      5  C6  UNL d   1      -0.753  -5.079  -4.074  0.00  0.00     0.076 C 
ATOM      6  C7  UNL d   1      -2.846  -4.097  -3.096  0.00  0.00     0.002 A 
ATOM      7  C8  UNL d   1      -4.102  -3.501  -3.228  0.00  0.00     0.006 A 
ENDROOT
BRANCH   1   8
ATOM      8  C1  UNL d   1      -5.999  -2.618  -4.637  0.00  0.00     0.054 C 
ATOM      9  C   UNL d   1      -5.996  -1.118  -4.376  0.00  0.00     0.018 C 
ENDBRANCH   1   8
TORSDOF 1
ENDMDL
