MODEL 1
REMARK minimizedAffinity -2.30206156
REMARK minimizedRMSD -1
REMARK  1 active torsions:
REMARK  status: ('A' for Active; 'I' for Inactive)
REMARK    1  A    between atoms: C1_2  and  C2_3 
ROOT
ATOM      1  C2  UNL d   1      -4.441  -3.737  -4.905  0.00  0.00    -0.081 A 
ATOM      2  C3  UNL d   1      -3.570  -3.673  -6.000  0.00  0.00     0.006 A 
ATOM      3  C4  UNL d   1      -2.374  -4.395  -5.996  0.00  0.00     0.002 A 
ATOM      4  C5  UNL d   1      -2.032  -5.197  -4.902  0.00  0.00    -0.080 A 
ATOM      5  C6  UNL d   1      -0.765  -6.000  -4.898  0.00  0.00     0.076 C 
ATOM      6  C7  UNL d   1      -2.893  -5.246  -3.801  0.00  0.00     0.002 A 
ATOM      7  C8  UNL d   1      -4.089  -4.525  -3.803  0.00  0.00     0.006 A 
ENDROOT
BRANCH   1   8
ATOM      8  C1  UNL d   1      -5.762  -3.011  -4.933  0.00  0.00     0.054 C 
ATOM      9  C   UNL d   1      -5.585  -1.528  -4.640  0.00  0.00     0.018 C 
ENDBRANCH   1   8
TORSDOF 1
ENDMDL
