MODEL 1
REMARK minimizedAffinity -1.94922578
REMARK minimizedRMSD -1
REMARK  1 active torsions:
REMARK  status: ('A' for Active; 'I' for Inactive)
REMARK    1  A    between atoms: C1_2  and  C2_3 
ROOT
ATOM      1  C2  UNL d   1      -4.673  -3.781  -4.804  0.00  0.00    -0.081 A 
ATOM      2  C3  UNL d   1      -4.106  -4.241  -3.609  0.00  0.00     0.006 A 
ATOM      3  C4  UNL d   1      -2.850  -4.851  -3.610  0.00  0.00     0.002 A 
ATOM      4  C5  UNL d   1      -2.136  -5.004  -4.803  0.00  0.00    -0.080 A 
ATOM      5  C6  UNL d   1      -0.773  -5.630  -4.814  0.00  0.00     0.076 C 
ATOM      6  C7  UNL d   1      -2.710  -4.561  -6.000  0.00  0.00     0.002 A 
ATOM      7  C8  UNL d   1      -3.967  -3.951  -5.999  0.00  0.00     0.006 A 
ENDROOT
BRANCH   1   8
ATOM      8  C1  UNL d   1      -5.999  -3.065  -4.797  0.00  0.00     0.054 C 
ATOM      9  C   UNL d   1      -5.986  -1.867  -5.737  0.00  0.00     0.018 C 
ENDBRANCH   1   8
TORSDOF 1
ENDMDL
