MODEL 1
REMARK minimizedAffinity -2.73131585
REMARK minimizedRMSD -1
REMARK  1 active torsions:
REMARK  status: ('A' for Active; 'I' for Inactive)
REMARK    1  A    between atoms: C1_2  and  C2_3 
ROOT
ATOM      1  C2  UNL d   1      -4.610  -4.281  -5.129  0.00  0.00    -0.081 A 
ATOM      2  C3  UNL d   1      -4.401  -5.439  -5.887  0.00  0.00     0.006 A 
ATOM      3  C4  UNL d   1      -3.122  -5.990  -6.000  0.00  0.00     0.002 A 
ATOM      4  C5  UNL d   1      -2.034  -5.398  -5.350  0.00  0.00    -0.080 A 
ATOM      5  C6  UNL d   1      -0.662  -5.997  -5.438  0.00  0.00     0.076 C 
ATOM      6  C7  UNL d   1      -2.240  -4.231  -4.607  0.00  0.00     0.002 A 
ATOM      7  C8  UNL d   1      -3.518  -3.679  -4.494  0.00  0.00     0.006 A 
ENDROOT
BRANCH   1   8
ATOM      8  C1  UNL d   1      -5.998  -3.720  -4.952  0.00  0.00     0.054 C 
ATOM      9  C   UNL d   1      -5.956  -2.248  -4.570  0.00  0.00     0.018 C 
ENDBRANCH   1   8
TORSDOF 1
ENDMDL
