MODEL 1
REMARK minimizedAffinity 1.43135345
REMARK minimizedRMSD -1
REMARK  1 active torsions:
REMARK  status: ('A' for Active; 'I' for Inactive)
REMARK    1  A    between atoms: C1_2  and  C2_3 
ROOT
ATOM      1  C2  UNL d   1      -4.307  -3.516  -4.202  0.00  0.00    -0.081 A 
ATOM      2  C3  UNL d   1      -3.826  -3.331  -5.504  0.00  0.00     0.006 A 
ATOM      3  C4  UNL d   1      -2.787  -4.125  -5.995  0.00  0.00     0.002 A 
ATOM      4  C5  UNL d   1      -2.216  -5.121  -5.195  0.00  0.00    -0.080 A 
ATOM      5  C6  UNL d   1      -1.120  -6.000  -5.720  0.00  0.00     0.076 C 
ATOM      6  C7  UNL d   1      -2.685  -5.294  -3.888  0.00  0.00     0.002 A 
ATOM      7  C8  UNL d   1      -3.724  -4.501  -3.397  0.00  0.00     0.006 A 
ENDROOT
BRANCH   1   8
ATOM      8  C1  UNL d   1      -5.471  -2.706  -3.693  0.00  0.00     0.054 C 
ATOM      9  C   UNL d   1      -5.739  -1.501  -4.584  0.00  0.00     0.018 C 
ENDBRANCH   1   8
TORSDOF 1
ENDMDL
