MODEL 1
REMARK minimizedAffinity 2.69027781
REMARK minimizedRMSD -1
REMARK  1 active torsions:
REMARK  status: ('A' for Active; 'I' for Inactive)
REMARK    1  A    between atoms: C1_2  and  C2_3 
ROOT
ATOM      1  C2  UNL d   1       2.600   1.335  -3.397  0.00  0.00    -0.081 A 
ATOM      2  C3  UNL d   1       2.312   1.780  -4.693  0.00  0.00     0.006 A 
ATOM      3  C4  UNL d   1       1.094   2.403  -4.974  0.00  0.00     0.002 A 
ATOM      4  C5  UNL d   1       0.147   2.599  -3.962  0.00  0.00    -0.080 A 
ATOM      5  C6  UNL d   1      -1.152   3.293  -4.244  0.00  0.00     0.076 C 
ATOM      6  C7  UNL d   1       0.427   2.138  -2.671  0.00  0.00     0.002 A 
ATOM      7  C8  UNL d   1       1.645   1.514  -2.391  0.00  0.00     0.006 A 
ENDROOT
BRANCH   1   8
ATOM      8  C1  UNL d   1       3.939   0.721  -3.078  0.00  0.00     0.054 C 
ATOM      9  C   UNL d   1       4.677   1.525  -2.017  0.00  0.00     0.018 C 
ENDBRANCH   1   8
TORSDOF 1
ENDMDL
