MODEL 1
REMARK minimizedAffinity -0.0592459142
REMARK minimizedRMSD -1
REMARK  1 active torsions:
REMARK  status: ('A' for Active; 'I' for Inactive)
REMARK    1  A    between atoms: C1_2  and  C2_3 
ROOT
ATOM      1  C2  UNL d   1      -3.141  -4.913  -4.973  0.00  0.00    -0.081 A 
ATOM      2  C3  UNL d   1      -3.317  -3.976  -5.998  0.00  0.00     0.006 A 
ATOM      3  C4  UNL d   1      -4.250  -2.945  -5.862  0.00  0.00     0.002 A 
ATOM      4  C5  UNL d   1      -5.015  -2.829  -4.696  0.00  0.00    -0.080 A 
ATOM      5  C6  UNL d   1      -5.999  -1.709  -4.525  0.00  0.00     0.076 C 
ATOM      6  C7  UNL d   1      -4.852  -3.776  -3.680  0.00  0.00     0.002 A 
ATOM      7  C8  UNL d   1      -3.920  -4.807  -3.816  0.00  0.00     0.006 A 
ENDROOT
BRANCH   1   8
ATOM      8  C1  UNL d   1      -2.090  -5.988  -5.090  0.00  0.00     0.054 C 
ATOM      9  C   UNL d   1      -1.173  -5.999  -3.876  0.00  0.00     0.018 C 
ENDBRANCH   1   8
TORSDOF 1
ENDMDL
