MODEL 1
REMARK minimizedAffinity -1.56767952
REMARK minimizedRMSD -1
REMARK  1 active torsions:
REMARK  status: ('A' for Active; 'I' for Inactive)
REMARK    1  A    between atoms: C1_2  and  C2_3 
ROOT
ATOM      1  C2  UNL d   1      -4.641  -4.239  -4.952  0.00  0.00    -0.081 A 
ATOM      2  C3  UNL d   1      -4.574  -5.435  -5.678  0.00  0.00     0.006 A 
ATOM      3  C4  UNL d   1      -3.338  -6.000  -6.000  0.00  0.00     0.002 A 
ATOM      4  C5  UNL d   1      -2.149  -5.384  -5.594  0.00  0.00    -0.080 A 
ATOM      5  C6  UNL d   1      -0.816  -5.996  -5.907  0.00  0.00     0.076 C 
ATOM      6  C7  UNL d   1      -2.215  -4.181  -4.884  0.00  0.00     0.002 A 
ATOM      7  C8  UNL d   1      -3.451  -3.615  -4.562  0.00  0.00     0.006 A 
ENDROOT
BRANCH   1   8
ATOM      8  C1  UNL d   1      -5.973  -3.662  -4.547  0.00  0.00     0.054 C 
ATOM      9  C   UNL d   1      -6.000  -2.151  -4.732  0.00  0.00     0.018 C 
ENDBRANCH   1   8
TORSDOF 1
ENDMDL
