MODEL 1
REMARK minimizedAffinity -0.61802882
REMARK minimizedRMSD -1
REMARK  2 active torsions:
REMARK  status: ('A' for Active; 'I' for Inactive)
REMARK    1  A    between atoms: C2'_3  and  C1'_4 
REMARK    2  A    between atoms: C1'_4  and  C1_5 
ROOT
ATOM      1  C1  I4B d   1      -0.532   2.420  -2.131  0.00  0.00    -0.075 A 
ATOM      2  C2  I4B d   1       0.734   2.642  -2.614  0.00  0.00     0.003 A 
ATOM      3  C3  I4B d   1       0.919   3.319  -3.843  0.00  0.00     0.002 A 
ATOM      4  C4  I4B d   1      -0.182   3.709  -4.577  0.00  0.00    -0.004 A 
ATOM      5  C5  I4B d   1      -1.464   3.503  -4.076  0.00  0.00     0.002 A 
ATOM      6  C6  I4B d   1      -1.640   2.866  -2.839  0.00  0.00     0.003 A 
ENDROOT
BRANCH   1   7
ATOM      7  C1' I4B d   1      -0.692   1.672  -0.845  0.00  0.00     0.060 C 
BRANCH   7   8
ATOM      8  C2' I4B d   1      -0.389   0.212  -1.113  0.00  0.00    -0.013 C 
ATOM      9  C4' I4B d   1       0.483  -0.371  -0.032  0.00  0.00     0.013 C 
ATOM     10  C3' I4B d   1      -1.694  -0.521  -1.211  0.00  0.00     0.013 C 
ENDBRANCH   7   8
ENDBRANCH   1   7
TORSDOF 2
ENDMDL
