MODEL 1
REMARK minimizedAffinity 1.75909245
REMARK minimizedRMSD -1
REMARK  2 active torsions:
REMARK  status: ('A' for Active; 'I' for Inactive)
REMARK    1  A    between atoms: C2'_3  and  C1'_4 
REMARK    2  A    between atoms: C1'_4  and  C1_5 
ROOT
ATOM      1  C1  I4B d   1       1.260  -1.498   2.098  0.00  0.00    -0.075 A 
ATOM      2  C2  I4B d   1       2.510  -0.932   2.149  0.00  0.00     0.003 A 
ATOM      3  C3  I4B d   1       3.026  -0.242   1.025  0.00  0.00     0.002 A 
ATOM      4  C4  I4B d   1       2.284  -0.184  -0.137  0.00  0.00    -0.004 A 
ATOM      5  C5  I4B d   1       1.008  -0.738  -0.178  0.00  0.00     0.002 A 
ATOM      6  C6  I4B d   1       0.487  -1.388   0.950  0.00  0.00     0.003 A 
ENDROOT
BRANCH   1   7
ATOM      7  C1' I4B d   1       0.760  -2.248   3.292  0.00  0.00     0.060 C 
BRANCH   7   8
ATOM      8  C2' I4B d   1      -0.441  -3.065   2.860  0.00  0.00    -0.013 C 
ATOM      9  C4' I4B d   1      -0.017  -4.364   2.226  0.00  0.00     0.013 C 
ATOM     10  C3' I4B d   1      -1.296  -3.306   4.068  0.00  0.00     0.013 C 
ENDBRANCH   7   8
ENDBRANCH   1   7
TORSDOF 2
ENDMDL
