MODEL 1
REMARK minimizedAffinity -5.90148973
REMARK minimizedRMSD -1
REMARK  2 active torsions:
REMARK  status: ('A' for Active; 'I' for Inactive)
REMARK    1  A    between atoms: C2'_3  and  C1'_4 
REMARK    2  A    between atoms: C1'_4  and  C1_5 
ROOT
ATOM      1  C1  I4B d   1       0.330  -0.290   0.099  0.00  0.00    -0.075 A 
ATOM      2  C2  I4B d   1      -0.717  -0.205   0.983  0.00  0.00     0.003 A 
ATOM      3  C3  I4B d   1      -0.514  -0.482   2.357  0.00  0.00     0.002 A 
ATOM      4  C4  I4B d   1       0.732  -0.885   2.792  0.00  0.00    -0.004 A 
ATOM      5  C5  I4B d   1       1.797  -0.949   1.899  0.00  0.00     0.002 A 
ATOM      6  C6  I4B d   1       1.599  -0.637   0.546  0.00  0.00     0.003 A 
ENDROOT
BRANCH   1   7
ATOM      7  C1' I4B d   1       0.073  -0.023  -1.350  0.00  0.00     0.060 C 
BRANCH   7   8
ATOM      8  C2' I4B d   1      -0.477   1.383  -1.475  0.00  0.00    -0.013 C 
ATOM      9  C4' I4B d   1       0.593   2.350  -1.909  0.00  0.00     0.013 C 
ATOM     10  C3' I4B d   1      -1.609   1.352  -2.459  0.00  0.00     0.013 C 
ENDBRANCH   7   8
ENDBRANCH   1   7
TORSDOF 2
ENDMDL
