MODEL 1
REMARK minimizedAffinity -0.29067722
REMARK minimizedRMSD -1
REMARK  2 active torsions:
REMARK  status: ('A' for Active; 'I' for Inactive)
REMARK    1  A    between atoms: C2'_3  and  C1'_4 
REMARK    2  A    between atoms: C1'_4  and  C1_5 
ROOT
ATOM      1  C1  I4B d   1      -0.226  -0.081  -0.238  0.00  0.00    -0.075 A 
ATOM      2  C2  I4B d   1       0.182   1.029   0.457  0.00  0.00     0.003 A 
ATOM      3  C3  I4B d   1       1.411   1.018   1.160  0.00  0.00     0.002 A 
ATOM      4  C4  I4B d   1       2.170  -0.135   1.183  0.00  0.00    -0.004 A 
ATOM      5  C5  I4B d   1       1.765  -1.252   0.459  0.00  0.00     0.002 A 
ATOM      6  C6  I4B d   1       0.566  -1.222  -0.267  0.00  0.00     0.003 A 
ENDROOT
BRANCH   1   7
ATOM      7  C1' I4B d   1      -1.546  -0.046  -0.943  0.00  0.00     0.060 C 
BRANCH   7   8
ATOM      8  C2' I4B d   1      -2.482  -0.998  -0.228  0.00  0.00    -0.013 C 
ATOM      9  C4' I4B d   1      -2.756  -0.541   1.180  0.00  0.00     0.013 C 
ATOM     10  C3' I4B d   1      -3.750  -1.086  -1.025  0.00  0.00     0.013 C 
ENDBRANCH   7   8
ENDBRANCH   1   7
TORSDOF 2
ENDMDL
