MODEL 1
REMARK minimizedAffinity 4.48335552
REMARK minimizedRMSD -1
REMARK  2 active torsions:
REMARK  status: ('A' for Active; 'I' for Inactive)
REMARK    1  A    between atoms: C2'_3  and  C1'_4 
REMARK    2  A    between atoms: C1'_4  and  C1_5 
ROOT
ATOM      1  C1  I4B d   1      -0.432   3.373  -2.814  0.00  0.00    -0.075 A 
ATOM      2  C2  I4B d   1       0.405   4.412  -2.492  0.00  0.00     0.003 A 
ATOM      3  C3  I4B d   1       1.517   4.713  -3.316  0.00  0.00     0.002 A 
ATOM      4  C4  I4B d   1       1.781   3.924  -4.417  0.00  0.00    -0.004 A 
ATOM      5  C5  I4B d   1       0.918   2.885  -4.754  0.00  0.00     0.002 A 
ATOM      6  C6  I4B d   1      -0.203   2.615  -3.955  0.00  0.00     0.003 A 
ENDROOT
BRANCH   1   7
ATOM      7  C1' I4B d   1      -1.577   3.062  -1.904  0.00  0.00     0.060 C 
BRANCH   7   8
ATOM      8  C2' I4B d   1      -2.777   2.720  -2.763  0.00  0.00    -0.013 C 
ATOM      9  C4' I4B d   1      -3.168   1.275  -2.603  0.00  0.00     0.013 C 
ATOM     10  C3' I4B d   1      -3.902   3.632  -2.372  0.00  0.00     0.013 C 
ENDBRANCH   7   8
ENDBRANCH   1   7
TORSDOF 2
ENDMDL
