MODEL 1
REMARK minimizedAffinity -0.406855166
REMARK minimizedRMSD -1
REMARK  2 active torsions:
REMARK  status: ('A' for Active; 'I' for Inactive)
REMARK    1  A    between atoms: C1_2  and  C2_3 
REMARK    2  A    between atoms: C2_3  and  C3_4 
ROOT
ATOM      1  C3  UNL d   1      -4.917   2.990  -4.155  0.00  0.00    -0.075 A 
ATOM      2  C4  UNL d   1      -4.250   4.177  -3.817  0.00  0.00     0.002 A 
ATOM      3  C5  UNL d   1      -4.467   5.344  -4.549  0.00  0.00     0.002 A 
ATOM      4  C6  UNL d   1      -5.345   5.338  -5.632  0.00  0.00    -0.004 A 
ATOM      5  C7  UNL d   1      -6.000   4.161  -5.986  0.00  0.00     0.002 A 
ATOM      6  C8  UNL d   1      -5.788   2.992  -5.252  0.00  0.00     0.002 A 
ENDROOT
BRANCH   1   7
ATOM      7  C2  UNL d   1      -4.708   1.730  -3.348  0.00  0.00     0.056 C 
BRANCH   7   8
ATOM      8  C1  UNL d   1      -5.987   0.918  -3.118  0.00  0.00     0.007 C 
ATOM      9  C   UNL d   1      -5.999   0.182  -1.785  0.00  0.00     0.009 C 
ENDBRANCH   7   8
ENDBRANCH   1   7
TORSDOF 2
ENDMDL
