MODEL 1
REMARK minimizedAffinity 12.2077103
REMARK minimizedRMSD -1
REMARK  2 active torsions:
REMARK  status: ('A' for Active; 'I' for Inactive)
REMARK    1  A    between atoms: C1_2  and  C2_3 
REMARK    2  A    between atoms: C2_3  and  C3_4 
ROOT
ATOM      1  C3  UNL d   1      -1.553   3.606  -1.900  0.00  0.00    -0.075 A 
ATOM      2  C4  UNL d   1      -1.237   4.931  -2.231  0.00  0.00     0.002 A 
ATOM      3  C5  UNL d   1       0.073   5.397  -2.117  0.00  0.00     0.002 A 
ATOM      4  C6  UNL d   1       1.080   4.549  -1.661  0.00  0.00    -0.004 A 
ATOM      5  C7  UNL d   1       0.774   3.235  -1.313  0.00  0.00     0.002 A 
ATOM      6  C8  UNL d   1      -0.535   2.765  -1.431  0.00  0.00     0.002 A 
ENDROOT
BRANCH   1   7
ATOM      7  C2  UNL d   1      -2.963   3.087  -2.050  0.00  0.00     0.056 C 
BRANCH   7   8
ATOM      8  C1  UNL d   1      -3.695   2.876  -0.720  0.00  0.00     0.007 C 
ATOM      9  C   UNL d   1      -5.199   2.703  -0.883  0.00  0.00     0.009 C 
ENDBRANCH   7   8
ENDBRANCH   1   7
TORSDOF 2
ENDMDL
