MODEL 1
REMARK minimizedAffinity -3.85237789
REMARK minimizedRMSD -1
REMARK  2 active torsions:
REMARK  status: ('A' for Active; 'I' for Inactive)
REMARK    1  A    between atoms: C1_2  and  C2_3 
REMARK    2  A    between atoms: C2_3  and  C3_4 
ROOT
ATOM      1  C3  UNL d   1      -2.803   4.869   1.206  0.00  0.00    -0.075 A 
ATOM      2  C4  UNL d   1      -2.619   3.642   1.862  0.00  0.00     0.002 A 
ATOM      3  C5  UNL d   1      -1.875   2.624   1.265  0.00  0.00     0.002 A 
ATOM      4  C6  UNL d   1      -1.315   2.815   0.004  0.00  0.00    -0.004 A 
ATOM      5  C7  UNL d   1      -1.505   4.023  -0.664  0.00  0.00     0.002 A 
ATOM      6  C8  UNL d   1      -2.246   5.045  -0.067  0.00  0.00     0.002 A 
ENDROOT
BRANCH   1   7
ATOM      7  C2  UNL d   1      -3.582   5.985   1.860  0.00  0.00     0.056 C 
BRANCH   7   8
ATOM      8  C1  UNL d   1      -5.072   6.000   1.499  0.00  0.00     0.007 C 
ATOM      9  C   UNL d   1      -5.794   4.714   1.878  0.00  0.00     0.009 C 
ENDBRANCH   7   8
ENDBRANCH   1   7
TORSDOF 2
ENDMDL
