MODEL 1
REMARK minimizedAffinity 8.75503063
REMARK minimizedRMSD -1
REMARK  2 active torsions:
REMARK  status: ('A' for Active; 'I' for Inactive)
REMARK    1  A    between atoms: C1_2  and  C2_3 
REMARK    2  A    between atoms: C2_3  and  C3_4 
ROOT
ATOM      1  C3  UNL d   1       2.745  -5.589  -1.071  0.00  0.00    -0.075 A 
ATOM      2  C4  UNL d   1       2.230  -6.000   0.167  0.00  0.00     0.002 A 
ATOM      3  C5  UNL d   1       0.874  -5.849   0.456  0.00  0.00     0.002 A 
ATOM      4  C6  UNL d   1       0.018  -5.276  -0.483  0.00  0.00    -0.004 A 
ATOM      5  C7  UNL d   1       0.522  -4.849  -1.709  0.00  0.00     0.002 A 
ATOM      6  C8  UNL d   1       1.878  -5.003  -2.003  0.00  0.00     0.002 A 
ENDROOT
BRANCH   1   7
ATOM      7  C2  UNL d   1       4.206  -5.777  -1.401  0.00  0.00     0.056 C 
BRANCH   7   8
ATOM      8  C1  UNL d   1       4.486  -5.999  -2.891  0.00  0.00     0.007 C 
ATOM      9  C   UNL d   1       5.947  -5.789  -3.266  0.00  0.00     0.009 C 
ENDBRANCH   7   8
ENDBRANCH   1   7
TORSDOF 2
ENDMDL
