MODEL 1
REMARK minimizedAffinity -4.57169485
REMARK minimizedRMSD -1
REMARK  0 active torsions:
REMARK  status: ('A' for Active; 'I' for Inactive)
ROOT
ATOM      1  C   UNL d   1      -1.281   0.159   3.005  0.00  0.00     0.020 A 
ATOM      2  C1  UNL d   1      -2.009   0.267   1.821  0.00  0.00     0.020 A 
ATOM      3  C2  UNL d   1      -1.387   0.022   0.595  0.00  0.00     0.034 A 
ATOM      4  C3  UNL d   1      -0.034  -0.332   0.550  0.00  0.00     0.017 A 
ATOM      5  C4  UNL d   1       0.696  -0.440   1.739  0.00  0.00     0.017 A 
ATOM      6  C5  UNL d   1       0.069  -0.193   2.964  0.00  0.00     0.034 A 
ATOM      7 Cl   UNL d   1       2.369  -0.872   1.763  0.00  0.00    -0.070 Cl
ATOM      8 Cl1  UNL d   1       0.670  -0.621  -1.002  0.00  0.00    -0.070 Cl
ENDROOT
TORSDOF 0
ENDMDL
