MODEL 1
REMARK minimizedAffinity -4.41717577
REMARK minimizedRMSD -1
REMARK  0 active torsions:
REMARK  status: ('A' for Active; 'I' for Inactive)
ROOT
ATOM      1  C   UNL d   1       1.184   0.503   3.057  0.00  0.00     0.020 A 
ATOM      2  C1  UNL d   1      -0.097   0.803   3.519  0.00  0.00     0.020 A 
ATOM      3  C2  UNL d   1      -1.171   0.840   2.627  0.00  0.00     0.034 A 
ATOM      4  C3  UNL d   1      -0.966   0.576   1.268  0.00  0.00     0.017 A 
ATOM      5  C4  UNL d   1       0.319   0.275   0.805  0.00  0.00     0.017 A 
ATOM      6  C5  UNL d   1       1.391   0.239   1.702  0.00  0.00     0.034 A 
ATOM      7 Cl   UNL d   1       0.650  -0.062  -0.858  0.00  0.00    -0.070 Cl
ATOM      8 Cl1  UNL d   1      -2.340   0.639   0.222  0.00  0.00    -0.070 Cl
ENDROOT
TORSDOF 0
ENDMDL
