MODEL 1
REMARK minimizedAffinity -3.45965075
REMARK minimizedRMSD -1
REMARK  0 active torsions:
REMARK  status: ('A' for Active; 'I' for Inactive)
ROOT
ATOM      1  C   UNL d   1       2.259  -0.069   2.887  0.00  0.00     0.020 A 
ATOM      2  C1  UNL d   1       1.249   0.274   3.785  0.00  0.00     0.020 A 
ATOM      3  C2  UNL d   1      -0.053   0.482   3.326  0.00  0.00     0.034 A 
ATOM      4  C3  UNL d   1      -0.349   0.347   1.965  0.00  0.00     0.017 A 
ATOM      5  C4  UNL d   1       0.665   0.002   1.064  0.00  0.00     0.017 A 
ATOM      6  C5  UNL d   1       1.967  -0.205   1.529  0.00  0.00     0.034 A 
ATOM      7 Cl   UNL d   1       0.376  -0.183  -0.630  0.00  0.00    -0.070 Cl
ATOM      8 Cl1  UNL d   1      -1.982   0.619   1.467  0.00  0.00    -0.070 Cl
ENDROOT
TORSDOF 0
ENDMDL
