MODEL 1
REMARK minimizedAffinity -3.90362597
REMARK minimizedRMSD -1
REMARK  0 active torsions:
REMARK  status: ('A' for Active; 'I' for Inactive)
ROOT
ATOM      1  C   UNL d   1       2.381  -0.682   2.629  0.00  0.00     0.020 A 
ATOM      2  C1  UNL d   1       2.277  -1.318   1.393  0.00  0.00     0.020 A 
ATOM      3  C2  UNL d   1       1.231  -0.994   0.527  0.00  0.00     0.034 A 
ATOM      4  C3  UNL d   1       0.284  -0.031   0.896  0.00  0.00     0.017 A 
ATOM      5  C4  UNL d   1       0.390   0.607   2.137  0.00  0.00     0.017 A 
ATOM      6  C5  UNL d   1       1.439   0.279   3.000  0.00  0.00     0.034 A 
ATOM      7 Cl   UNL d   1      -0.740   1.806   2.662  0.00  0.00    -0.070 Cl
ATOM      8 Cl1  UNL d   1      -0.983   0.321  -0.225  0.00  0.00    -0.070 Cl
ENDROOT
TORSDOF 0
ENDMDL
