MODEL 1
REMARK minimizedAffinity -1.07886279
REMARK minimizedRMSD -1
REMARK  0 active torsions:
REMARK  status: ('A' for Active; 'I' for Inactive)
ROOT
ATOM      1  C   UNL d   1      -1.703   0.316   0.318  0.00  0.00     0.020 A 
ATOM      2  C1  UNL d   1      -1.726   0.704   1.657  0.00  0.00     0.020 A 
ATOM      3  C2  UNL d   1      -0.643   0.409   2.488  0.00  0.00     0.034 A 
ATOM      4  C3  UNL d   1       0.467  -0.277   1.982  0.00  0.00     0.017 A 
ATOM      5  C4  UNL d   1       0.489  -0.667   0.638  0.00  0.00     0.017 A 
ATOM      6  C5  UNL d   1      -0.598  -0.368  -0.190  0.00  0.00     0.034 A 
ATOM      7 Cl   UNL d   1       1.823  -1.516  -0.059  0.00  0.00    -0.070 Cl
ATOM      8 Cl1  UNL d   1       1.770  -0.609   3.067  0.00  0.00    -0.070 Cl
ENDROOT
TORSDOF 0
ENDMDL
