MODEL 1
REMARK minimizedAffinity -1.98609626
REMARK minimizedRMSD -1
REMARK  0 active torsions:
REMARK  status: ('A' for Active; 'I' for Inactive)
ROOT
ATOM      1  C   UNL d   1      -0.956   0.636   3.667  0.00  0.00     0.020 A 
ATOM      2  C1  UNL d   1       0.238  -0.036   3.926  0.00  0.00     0.020 A 
ATOM      3  C2  UNL d   1       0.868  -0.757   2.909  0.00  0.00     0.034 A 
ATOM      4  C3  UNL d   1       0.304  -0.809   1.630  0.00  0.00     0.017 A 
ATOM      5  C4  UNL d   1      -0.895  -0.135   1.371  0.00  0.00     0.017 A 
ATOM      6  C5  UNL d   1      -1.521   0.587   2.392  0.00  0.00     0.034 A 
ATOM      7 Cl   UNL d   1      -1.651  -0.152  -0.183  0.00  0.00    -0.070 Cl
ATOM      8 Cl1  UNL d   1       1.137  -1.721   0.421  0.00  0.00    -0.070 Cl
ENDROOT
TORSDOF 0
ENDMDL
