MODEL 1
REMARK minimizedAffinity 15.5548534
REMARK minimizedRMSD -1
REMARK  0 active torsions:
REMARK  status: ('A' for Active; 'I' for Inactive)
ROOT
ATOM      1  C   UNL d   1       5.156   4.199  -5.993  0.00  0.00     0.023 A 
ATOM      2  C1  UNL d   1       3.788   4.372  -5.784  0.00  0.00     0.003 A 
ATOM      3  C2  UNL d   1       2.965   3.262  -5.581  0.00  0.00     0.048 A 
ATOM      4  C3  UNL d   1       3.517   1.982  -5.588  0.00  0.00     0.023 A 
ATOM      5  C4  UNL d   1       4.886   1.804  -5.796  0.00  0.00     0.048 A 
ATOM      6  C5  UNL d   1       5.704   2.916  -6.000  0.00  0.00     0.003 A 
ATOM      7  I   UNL d   1       2.295   0.328  -5.286  0.00  0.00    -0.146 I 
ENDROOT
TORSDOF 0
ENDMDL
