MODEL 1
REMARK minimizedAffinity 4.19100428
REMARK minimizedRMSD -1
REMARK  0 active torsions:
REMARK  status: ('A' for Active; 'I' for Inactive)
ROOT
ATOM      1  C   UNL d   1       2.322  -5.836   2.190  0.00  0.00     0.023 A 
ATOM      2  C1  UNL d   1       3.683  -5.767   1.892  0.00  0.00     0.003 A 
ATOM      3  C2  UNL d   1       4.627  -5.813   2.921  0.00  0.00     0.048 A 
ATOM      4  C3  UNL d   1       4.202  -5.929   4.244  0.00  0.00     0.023 A 
ATOM      5  C4  UNL d   1       2.842  -5.999   4.546  0.00  0.00     0.048 A 
ATOM      6  C5  UNL d   1       1.902  -5.951   3.515  0.00  0.00     0.003 A 
ATOM      7  I   UNL d   1       5.605  -5.998   5.776  0.00  0.00    -0.146 I 
ENDROOT
TORSDOF 0
ENDMDL
