MODEL 1
REMARK minimizedAffinity 10.6992149
REMARK minimizedRMSD -1
REMARK  0 active torsions:
REMARK  status: ('A' for Active; 'I' for Inactive)
ROOT
ATOM      1  C   UNL d   1      -4.825   3.419   1.702  0.00  0.00     0.023 A 
ATOM      2  C1  UNL d   1      -3.662   3.467   2.471  0.00  0.00     0.003 A 
ATOM      3  C2  UNL d   1      -3.665   4.124   3.703  0.00  0.00     0.048 A 
ATOM      4  C3  UNL d   1      -4.834   4.731   4.161  0.00  0.00     0.023 A 
ATOM      5  C4  UNL d   1      -6.000   4.685   3.395  0.00  0.00     0.048 A 
ATOM      6  C5  UNL d   1      -5.992   4.028   2.163  0.00  0.00     0.003 A 
ATOM      7  I   UNL d   1      -4.840   5.709   5.994  0.00  0.00    -0.146 I 
ENDROOT
TORSDOF 0
ENDMDL
