MODEL 1
REMARK minimizedAffinity 17.0295277
REMARK minimizedRMSD -1
REMARK  0 active torsions:
REMARK  status: ('A' for Active; 'I' for Inactive)
ROOT
ATOM      1  C   UNL d   1      -1.370   1.568   1.378  0.00  0.00     0.023 A 
ATOM      2  C1  UNL d   1      -1.622   2.739   2.092  0.00  0.00     0.003 A 
ATOM      3  C2  UNL d   1      -2.888   3.327   2.048  0.00  0.00     0.048 A 
ATOM      4  C3  UNL d   1      -3.898   2.736   1.289  0.00  0.00     0.023 A 
ATOM      5  C4  UNL d   1      -3.650   1.564   0.573  0.00  0.00     0.048 A 
ATOM      6  C5  UNL d   1      -2.383   0.980   0.620  0.00  0.00     0.003 A 
ATOM      7  I   UNL d   1      -5.783   3.608   1.221  0.00  0.00    -0.146 I 
ENDROOT
TORSDOF 0
ENDMDL
