MODEL 1
REMARK minimizedAffinity 3.77982736
REMARK minimizedRMSD -1
REMARK  0 active torsions:
REMARK  status: ('A' for Active; 'I' for Inactive)
ROOT
ATOM      1  C   UNL d   1       2.978   0.207   2.478  0.00  0.00     0.023 A 
ATOM      2  C1  UNL d   1       1.770   0.877   2.285  0.00  0.00     0.003 A 
ATOM      3  C2  UNL d   1       1.539   1.576   1.098  0.00  0.00     0.048 A 
ATOM      4  C3  UNL d   1       2.521   1.599   0.108  0.00  0.00     0.023 A 
ATOM      5  C4  UNL d   1       3.731   0.930   0.296  0.00  0.00     0.048 A 
ATOM      6  C5  UNL d   1       3.958   0.234   1.485  0.00  0.00     0.003 A 
ATOM      7  I   UNL d   1       2.180   2.638  -1.660  0.00  0.00    -0.146 I 
ENDROOT
TORSDOF 0
ENDMDL
