MODEL 1
REMARK minimizedAffinity 12.4591122
REMARK minimizedRMSD -1
REMARK  0 active torsions:
REMARK  status: ('A' for Active; 'I' for Inactive)
ROOT
ATOM      1  C   UNL d   1       2.397   0.770  -3.395  0.00  0.00     0.023 A 
ATOM      2  C1  UNL d   1       1.098   0.406  -3.040  0.00  0.00     0.003 A 
ATOM      3  C2  UNL d   1       0.411  -0.554  -3.787  0.00  0.00     0.048 A 
ATOM      4  C3  UNL d   1       1.030  -1.146  -4.887  0.00  0.00     0.023 A 
ATOM      5  C4  UNL d   1       2.330  -0.786  -5.245  0.00  0.00     0.048 A 
ATOM      6  C5  UNL d   1       3.012   0.174  -4.496  0.00  0.00     0.003 A 
ATOM      7  I   UNL d   1       0.010  -2.575  -5.999  0.00  0.00    -0.146 I 
ENDROOT
TORSDOF 0
ENDMDL
