MODEL 1
REMARK minimizedAffinity 13.031064
REMARK minimizedRMSD -1
REMARK  0 active torsions:
REMARK  status: ('A' for Active; 'I' for Inactive)
ROOT
ATOM      1  C   UNL d   1      -1.834   0.228   1.947  0.00  0.00     0.023 A 
ATOM      2  C1  UNL d   1      -1.864   1.493   2.535  0.00  0.00     0.003 A 
ATOM      3  C2  UNL d   1      -3.059   2.214   2.581  0.00  0.00     0.048 A 
ATOM      4  C3  UNL d   1      -4.220   1.664   2.039  0.00  0.00     0.023 A 
ATOM      5  C4  UNL d   1      -4.195   0.399   1.451  0.00  0.00     0.048 A 
ATOM      6  C5  UNL d   1      -2.998  -0.318   1.406  0.00  0.00     0.003 A 
ATOM      7  I   UNL d   1      -6.000   2.736   2.107  0.00  0.00    -0.146 I 
ENDROOT
TORSDOF 0
ENDMDL
