MODEL 1
REMARK minimizedAffinity 8.58213329
REMARK minimizedRMSD -1
REMARK  0 active torsions:
REMARK  status: ('A' for Active; 'I' for Inactive)
ROOT
ATOM      1  C   UNL d   1      -1.008   0.221  -5.973  0.00  0.00     0.023 A 
ATOM      2  C1  UNL d   1      -2.399   0.326  -5.965  0.00  0.00     0.003 A 
ATOM      3  C2  UNL d   1      -3.187  -0.827  -5.973  0.00  0.00     0.048 A 
ATOM      4  C3  UNL d   1      -2.578  -2.081  -5.988  0.00  0.00     0.023 A 
ATOM      5  C4  UNL d   1      -1.186  -2.191  -5.995  0.00  0.00     0.048 A 
ATOM      6  C5  UNL d   1      -0.402  -1.036  -5.988  0.00  0.00     0.003 A 
ATOM      7  I   UNL d   1      -3.749  -3.798  -6.000  0.00  0.00    -0.146 I 
ENDROOT
TORSDOF 0
ENDMDL
