MODEL 1
REMARK minimizedAffinity 13.6780586
REMARK minimizedRMSD -1
REMARK  0 active torsions:
REMARK  status: ('A' for Active; 'I' for Inactive)
ROOT
ATOM      1  C   UNL d   1       1.690   5.247  -5.026  0.00  0.00     0.023 A 
ATOM      2  C1  UNL d   1       1.895   4.215  -5.942  0.00  0.00     0.003 A 
ATOM      3  C2  UNL d   1       3.130   3.566  -6.000  0.00  0.00     0.048 A 
ATOM      4  C3  UNL d   1       4.156   3.953  -5.138  0.00  0.00     0.023 A 
ATOM      5  C4  UNL d   1       3.955   4.985  -4.219  0.00  0.00     0.048 A 
ATOM      6  C5  UNL d   1       2.719   5.631  -4.166  0.00  0.00     0.003 A 
ATOM      7  I   UNL d   1       5.995   2.989  -5.222  0.00  0.00    -0.146 I 
ENDROOT
TORSDOF 0
ENDMDL
