MODEL 1
REMARK minimizedAffinity 15.520052
REMARK minimizedRMSD -1
REMARK  0 active torsions:
REMARK  status: ('A' for Active; 'I' for Inactive)
ROOT
ATOM      1  C   UNL d   1       5.398   4.407  -5.181  0.00  0.00     0.023 A 
ATOM      2  C1  UNL d   1       5.043   5.450  -4.325  0.00  0.00     0.003 A 
ATOM      3  C2  UNL d   1       3.723   5.904  -4.287  0.00  0.00     0.048 A 
ATOM      4  C3  UNL d   1       2.764   5.311  -5.107  0.00  0.00     0.023 A 
ATOM      5  C4  UNL d   1       3.114   4.267  -5.964  0.00  0.00     0.048 A 
ATOM      6  C5  UNL d   1       4.435   3.816  -6.000  0.00  0.00     0.003 A 
ATOM      7  I   UNL d   1       0.799   5.986  -5.052  0.00  0.00    -0.146 I 
ENDROOT
TORSDOF 0
ENDMDL
