MODEL 1
REMARK minimizedAffinity 17.9754791
REMARK minimizedRMSD -1
REMARK  0 active torsions:
REMARK  status: ('A' for Active; 'I' for Inactive)
ROOT
ATOM      1  C   UNL d   1      -1.806   1.463   2.675  0.00  0.00     0.023 A 
ATOM      2  C1  UNL d   1      -2.442   1.281   1.447  0.00  0.00     0.003 A 
ATOM      3  C2  UNL d   1      -2.340   0.058   0.780  0.00  0.00     0.048 A 
ATOM      4  C3  UNL d   1      -1.601  -0.980   1.349  0.00  0.00     0.023 A 
ATOM      5  C4  UNL d   1      -0.964  -0.803   2.578  0.00  0.00     0.048 A 
ATOM      6  C5  UNL d   1      -1.068   0.422   3.240  0.00  0.00     0.003 A 
ATOM      7  I   UNL d   1      -1.448  -2.801   0.359  0.00  0.00    -0.146 I 
ENDROOT
TORSDOF 0
ENDMDL
