MODEL 1
REMARK minimizedAffinity 14.5681562
REMARK minimizedRMSD -1
REMARK  0 active torsions:
REMARK  status: ('A' for Active; 'I' for Inactive)
ROOT
ATOM      1  C   UNL d   1      -0.963  -4.254  -5.989  0.00  0.00     0.023 A 
ATOM      2  C1  UNL d   1      -1.503  -5.540  -5.983  0.00  0.00     0.003 A 
ATOM      3  C2  UNL d   1      -2.889  -5.716  -5.981  0.00  0.00     0.048 A 
ATOM      4  C3  UNL d   1      -3.727  -4.602  -5.987  0.00  0.00     0.023 A 
ATOM      5  C4  UNL d   1      -3.191  -3.314  -5.994  0.00  0.00     0.048 A 
ATOM      6  C5  UNL d   1      -1.805  -3.142  -5.995  0.00  0.00     0.003 A 
ATOM      7  I   UNL d   1      -5.790  -4.862  -5.985  0.00  0.00    -0.146 I 
ENDROOT
TORSDOF 0
ENDMDL
