MODEL 1
REMARK minimizedAffinity 16.7695198
REMARK minimizedRMSD -1
REMARK  0 active torsions:
REMARK  status: ('A' for Active; 'I' for Inactive)
ROOT
ATOM      1  C   UNL d   1      -3.623  -0.878   5.999  0.00  0.00     0.023 A 
ATOM      2  C1  UNL d   1      -3.748  -0.041   4.890  0.00  0.00     0.003 A 
ATOM      3  C2  UNL d   1      -4.429  -0.482   3.754  0.00  0.00     0.048 A 
ATOM      4  C3  UNL d   1      -4.984  -1.761   3.733  0.00  0.00     0.023 A 
ATOM      5  C4  UNL d   1      -4.862  -2.602   4.841  0.00  0.00     0.048 A 
ATOM      6  C5  UNL d   1      -4.179  -2.157   5.974  0.00  0.00     0.003 A 
ATOM      7  I   UNL d   1      -5.999  -2.419   2.043  0.00  0.00    -0.146 I 
ENDROOT
TORSDOF 0
ENDMDL
