MODEL 1
REMARK minimizedAffinity 6.91888571
REMARK minimizedRMSD -1
REMARK  0 active torsions:
REMARK  status: ('A' for Active; 'I' for Inactive)
ROOT
ATOM      1  C   UNL d   1      -3.883   0.444   1.650  0.00  0.00     0.023 A 
ATOM      2  C1  UNL d   1      -2.915  -0.467   2.071  0.00  0.00     0.003 A 
ATOM      3  C2  UNL d   1      -1.589  -0.058   2.226  0.00  0.00     0.048 A 
ATOM      4  C3  UNL d   1      -1.238   1.265   1.959  0.00  0.00     0.023 A 
ATOM      5  C4  UNL d   1      -2.204   2.181   1.538  0.00  0.00     0.048 A 
ATOM      6  C5  UNL d   1      -3.528   1.767   1.384  0.00  0.00     0.003 A 
ATOM      7  I   UNL d   1       0.735   1.877   2.189  0.00  0.00    -0.146 I 
ENDROOT
TORSDOF 0
ENDMDL
