MODEL 1
REMARK minimizedAffinity -2.7001102
REMARK minimizedRMSD -1
REMARK  1 active torsions:
REMARK  status: ('A' for Active; 'I' for Inactive)
REMARK    1  A    between atoms: N_2  and  C1_3 
ROOT
ATOM      1  C1  UNL d   1       0.411  -1.425  -0.424  0.00  0.00     0.143 A 
ATOM      2  C2  UNL d   1       0.543  -0.957  -1.735  0.00  0.00    -0.057 A 
ATOM      3  C3  UNL d   1       0.158   0.343  -2.084  0.00  0.00     0.033 A 
ATOM      4  C4  UNL d   1      -0.396   1.190  -1.130  0.00  0.00    -0.042 A 
ATOM      5  C5  UNL d   1      -0.560   0.738   0.174  0.00  0.00     0.033 A 
ATOM      6  C6  UNL d   1      -0.167  -0.559   0.518  0.00  0.00    -0.057 A 
ENDROOT
BRANCH   1   7
ATOM      7  N   UNL d   1       0.684  -2.739  -0.036  0.00  0.00    -0.732 N 
ATOM      8  C   UNL d   1      -0.393  -3.664   0.247  0.00  0.00     0.284 C 
ATOM      9  H3  UNL d   1       1.454  -3.147  -0.561  0.00  0.00     0.395 HD
ENDBRANCH   1   7
TORSDOF 1
ENDMDL
