MODEL 1
REMARK minimizedAffinity -4.84696484
REMARK minimizedRMSD -1
REMARK  1 active torsions:
REMARK  status: ('A' for Active; 'I' for Inactive)
REMARK    1  A    between atoms: N_2  and  C1_3 
ROOT
ATOM      1  C1  UNL d   1       0.376  -0.151   0.467  0.00  0.00     0.143 A 
ATOM      2  C2  UNL d   1       0.356  -1.315  -0.309  0.00  0.00    -0.057 A 
ATOM      3  C3  UNL d   1      -0.537  -2.357  -0.031  0.00  0.00     0.033 A 
ATOM      4  C4  UNL d   1      -1.408  -2.266   1.049  0.00  0.00    -0.042 A 
ATOM      5  C5  UNL d   1      -1.388  -1.129   1.849  0.00  0.00     0.033 A 
ATOM      6  C6  UNL d   1      -0.499  -0.088   1.563  0.00  0.00    -0.057 A 
ENDROOT
BRANCH   1   7
ATOM      7  N   UNL d   1       1.307   0.878   0.302  0.00  0.00    -0.732 N 
ATOM      8  C   UNL d   1       0.883   2.194  -0.125  0.00  0.00     0.284 C 
ATOM      9  H3  UNL d   1       2.011   0.886   1.036  0.00  0.00     0.395 HD
ENDBRANCH   1   7
TORSDOF 1
ENDMDL
