MODEL 1
REMARK minimizedAffinity -3.08093548
REMARK minimizedRMSD -1
REMARK  1 active torsions:
REMARK  status: ('A' for Active; 'I' for Inactive)
REMARK    1  A    between atoms: N_2  and  C1_3 
ROOT
ATOM      1  C1  UNL d   1      -0.168  -1.921   0.748  0.00  0.00     0.143 A 
ATOM      2  C2  UNL d   1       0.624  -1.059  -0.018  0.00  0.00    -0.057 A 
ATOM      3  C3  UNL d   1       0.402   0.323  -0.018  0.00  0.00     0.033 A 
ATOM      4  C4  UNL d   1      -0.639   0.866   0.728  0.00  0.00    -0.042 A 
ATOM      5  C5  UNL d   1      -1.455   0.026   1.477  0.00  0.00     0.033 A 
ATOM      6  C6  UNL d   1      -1.224  -1.353   1.478  0.00  0.00    -0.057 A 
ENDROOT
BRANCH   1   7
ATOM      7  N   UNL d   1      -0.060  -3.314   0.714  0.00  0.00    -0.732 N 
ATOM      8  C   UNL d   1      -0.097  -4.025  -0.546  0.00  0.00     0.284 C 
ATOM      9  H3  UNL d   1       0.634  -3.666   1.369  0.00  0.00     0.395 HD
ENDBRANCH   1   7
TORSDOF 1
ENDMDL
