MODEL 1
REMARK minimizedAffinity -2.67800689
REMARK minimizedRMSD -1
REMARK  1 active torsions:
REMARK  status: ('A' for Active; 'I' for Inactive)
REMARK    1  A    between atoms: N_2  and  C1_3 
ROOT
ATOM      1  C1  UNL d   1      -0.540  -0.673   0.010  0.00  0.00     0.143 A 
ATOM      2  C2  UNL d   1      -0.439  -1.526  -1.094  0.00  0.00    -0.057 A 
ATOM      3  C3  UNL d   1      -0.993  -2.812  -1.072  0.00  0.00     0.033 A 
ATOM      4  C4  UNL d   1      -1.635  -3.279   0.070  0.00  0.00    -0.042 A 
ATOM      5  C5  UNL d   1      -1.727  -2.458   1.188  0.00  0.00     0.033 A 
ATOM      6  C6  UNL d   1      -1.177  -1.172   1.157  0.00  0.00    -0.057 A 
ENDROOT
BRANCH   1   7
ATOM      7  N   UNL d   1       0.075   0.579   0.085  0.00  0.00    -0.732 N 
ATOM      8  C   UNL d   1      -0.354   1.664  -0.772  0.00  0.00     0.284 C 
ATOM      9  H3  UNL d   1       0.270   0.859   1.044  0.00  0.00     0.395 HD
ENDBRANCH   1   7
TORSDOF 1
ENDMDL
