MODEL 1
REMARK minimizedAffinity -4.12382936
REMARK minimizedRMSD -1
REMARK  1 active torsions:
REMARK  status: ('A' for Active; 'I' for Inactive)
REMARK    1  A    between atoms: N_2  and  C1_3 
ROOT
ATOM      1  C1  UNL d   1      -0.119  -0.329   0.182  0.00  0.00     0.143 A 
ATOM      2  C2  UNL d   1      -1.337  -0.864   0.613  0.00  0.00    -0.057 A 
ATOM      3  C3  UNL d   1      -1.518  -2.247   0.742  0.00  0.00     0.033 A 
ATOM      4  C4  UNL d   1      -0.489  -3.123   0.413  0.00  0.00    -0.042 A 
ATOM      5  C5  UNL d   1       0.723  -2.614  -0.042  0.00  0.00     0.033 A 
ATOM      6  C6  UNL d   1       0.899  -1.232  -0.162  0.00  0.00    -0.057 A 
ENDROOT
BRANCH   1   7
ATOM      7  N   UNL d   1       0.091   1.031  -0.061  0.00  0.00    -0.732 N 
ATOM      8  C   UNL d   1       1.363   1.647   0.248  0.00  0.00     0.284 C 
ATOM      9  H3  UNL d   1      -0.314   1.334  -0.944  0.00  0.00     0.395 HD
ENDBRANCH   1   7
TORSDOF 1
ENDMDL
