MODEL 1
REMARK minimizedAffinity -1.44181871
REMARK minimizedRMSD -1
REMARK  1 active torsions:
REMARK  status: ('A' for Active; 'I' for Inactive)
REMARK    1  A    between atoms: N_2  and  C1_3 
ROOT
ATOM      1  C1  UNL d   1      -0.282  -0.490  -0.827  0.00  0.00     0.143 A 
ATOM      2  C2  UNL d   1      -0.449   0.364   0.268  0.00  0.00    -0.057 A 
ATOM      3  C3  UNL d   1      -1.013  -0.092   1.465  0.00  0.00     0.033 A 
ATOM      4  C4  UNL d   1      -1.448  -1.408   1.579  0.00  0.00    -0.042 A 
ATOM      5  C5  UNL d   1      -1.315  -2.269   0.495  0.00  0.00     0.033 A 
ATOM      6  C6  UNL d   1      -0.744  -1.809  -0.696  0.00  0.00    -0.057 A 
ENDROOT
BRANCH   1   7
ATOM      7  N   UNL d   1       0.182  -0.071  -2.077  0.00  0.00    -0.732 N 
ATOM      8  C   UNL d   1       0.754  -1.021  -3.007  0.00  0.00     0.284 C 
ATOM      9  H3  UNL d   1      -0.432   0.616  -2.509  0.00  0.00     0.395 HD
ENDBRANCH   1   7
TORSDOF 1
ENDMDL
