MODEL 1
REMARK minimizedAffinity -1.80422151
REMARK minimizedRMSD -1
REMARK  1 active torsions:
REMARK  status: ('A' for Active; 'I' for Inactive)
REMARK    1  A    between atoms: N_2  and  C1_3 
ROOT
ATOM      1  C1  UNL d   1       0.318   4.048   1.841  0.00  0.00     0.143 A 
ATOM      2  C2  UNL d   1       1.644   4.246   1.442  0.00  0.00    -0.057 A 
ATOM      3  C3  UNL d   1       2.188   3.549   0.357  0.00  0.00     0.033 A 
ATOM      4  C4  UNL d   1       1.420   2.617  -0.334  0.00  0.00    -0.042 A 
ATOM      5  C5  UNL d   1       0.107   2.386   0.060  0.00  0.00     0.033 A 
ATOM      6  C6  UNL d   1      -0.432   3.090   1.141  0.00  0.00    -0.057 A 
ENDROOT
BRANCH   1   7
ATOM      7  N   UNL d   1      -0.250   4.637   2.973  0.00  0.00    -0.732 N 
ATOM      8  C   UNL d   1      -1.609   5.133   2.942  0.00  0.00     0.284 C 
ATOM      9  H3  UNL d   1      -0.007   4.146   3.830  0.00  0.00     0.395 HD
ENDBRANCH   1   7
TORSDOF 1
ENDMDL
