MODEL 1
REMARK minimizedAffinity -2.06163907
REMARK minimizedRMSD -1
REMARK  1 active torsions:
REMARK  status: ('A' for Active; 'I' for Inactive)
REMARK    1  A    between atoms: N_2  and  C1_3 
ROOT
ATOM      1  C1  UNL d   1      -1.145  -0.867   0.473  0.00  0.00     0.143 A 
ATOM      2  C2  UNL d   1      -1.468  -2.144   0.943  0.00  0.00    -0.057 A 
ATOM      3  C3  UNL d   1      -0.490  -3.136   1.082  0.00  0.00     0.033 A 
ATOM      4  C4  UNL d   1       0.828  -2.877   0.724  0.00  0.00    -0.042 A 
ATOM      5  C5  UNL d   1       1.168  -1.622   0.230  0.00  0.00     0.033 A 
ATOM      6  C6  UNL d   1       0.188  -0.633   0.100  0.00  0.00    -0.057 A 
ENDROOT
BRANCH   1   7
ATOM      7  N   UNL d   1      -2.089   0.131   0.220  0.00  0.00    -0.732 N 
ATOM      8  C   UNL d   1      -3.278   0.245   1.036  0.00  0.00     0.284 C 
ATOM      9  H3  UNL d   1      -1.658   1.023  -0.014  0.00  0.00     0.395 HD
ENDBRANCH   1   7
TORSDOF 1
ENDMDL
