MODEL 1
REMARK minimizedAffinity -4.32055569
REMARK minimizedRMSD -1
REMARK  1 active torsions:
REMARK  status: ('A' for Active; 'I' for Inactive)
REMARK    1  A    between atoms: N_2  and  C1_3 
ROOT
ATOM      1  C1  UNL d   1       0.057  -0.264   0.232  0.00  0.00     0.143 A 
ATOM      2  C2  UNL d   1      -1.096  -0.551   0.970  0.00  0.00    -0.057 A 
ATOM      3  C3  UNL d   1      -1.437  -1.868   1.302  0.00  0.00     0.033 A 
ATOM      4  C4  UNL d   1      -0.642  -2.927   0.874  0.00  0.00    -0.042 A 
ATOM      5  C5  UNL d   1       0.495  -2.666   0.118  0.00  0.00     0.033 A 
ATOM      6  C6  UNL d   1       0.833  -1.349  -0.204  0.00  0.00    -0.057 A 
ENDROOT
BRANCH   1   7
ATOM      7  N   UNL d   1       0.396   1.016  -0.214  0.00  0.00    -0.732 N 
ATOM      8  C   UNL d   1       1.426   1.781   0.456  0.00  0.00     0.284 C 
ATOM      9  H3  UNL d   1       0.425   1.079  -1.229  0.00  0.00     0.395 HD
ENDBRANCH   1   7
TORSDOF 1
ENDMDL
