MODEL 1
REMARK minimizedAffinity -4.83466816
REMARK minimizedRMSD -1
REMARK  1 active torsions:
REMARK  status: ('A' for Active; 'I' for Inactive)
REMARK    1  A    between atoms: N_2  and  C1_3 
ROOT
ATOM      1  C1  UNL d   1       0.239   0.191  -0.158  0.00  0.00     0.143 A 
ATOM      2  C2  UNL d   1      -0.388  -0.544   0.853  0.00  0.00    -0.057 A 
ATOM      3  C3  UNL d   1      -0.370  -1.944   0.852  0.00  0.00     0.033 A 
ATOM      4  C4  UNL d   1       0.254  -2.636  -0.181  0.00  0.00    -0.042 A 
ATOM      5  C5  UNL d   1       0.863  -1.926  -1.210  0.00  0.00     0.033 A 
ATOM      6  C6  UNL d   1       0.846  -0.528  -1.199  0.00  0.00    -0.057 A 
ENDROOT
BRANCH   1   7
ATOM      7  N   UNL d   1       0.171   1.582  -0.265  0.00  0.00    -0.732 N 
ATOM      8  C   UNL d   1       1.311   2.405   0.078  0.00  0.00     0.284 C 
ATOM      9  H3  UNL d   1      -0.322   1.884  -1.103  0.00  0.00     0.395 HD
ENDBRANCH   1   7
TORSDOF 1
ENDMDL
