MODEL 1
REMARK minimizedAffinity -4.42438269
REMARK minimizedRMSD -1
REMARK  1 active torsions:
REMARK  status: ('A' for Active; 'I' for Inactive)
REMARK    1  A    between atoms: N_2  and  C1_3 
ROOT
ATOM      1  C1  UNL d   1       0.153  -0.086  -0.049  0.00  0.00     0.143 A 
ATOM      2  C2  UNL d   1       1.075  -1.085  -0.378  0.00  0.00    -0.057 A 
ATOM      3  C3  UNL d   1       1.024  -2.347   0.226  0.00  0.00     0.033 A 
ATOM      4  C4  UNL d   1       0.065  -2.623   1.195  0.00  0.00    -0.042 A 
ATOM      5  C5  UNL d   1      -0.846  -1.636   1.556  0.00  0.00     0.033 A 
ATOM      6  C6  UNL d   1      -0.794  -0.380   0.944  0.00  0.00    -0.057 A 
ENDROOT
BRANCH   1   7
ATOM      7  N   UNL d   1       0.212   1.220  -0.542  0.00  0.00    -0.732 N 
ATOM      8  C   UNL d   1       1.260   2.122  -0.116  0.00  0.00     0.284 C 
ATOM      9  H3  UNL d   1       0.000   1.270  -1.536  0.00  0.00     0.395 HD
ENDBRANCH   1   7
TORSDOF 1
ENDMDL
