MODEL 1
REMARK minimizedAffinity 12.777319
REMARK minimizedRMSD -1
REMARK  0 active torsions:
REMARK  status: ('A' for Active; 'I' for Inactive)
ROOT
ATOM      1  N1  IND d   1      -0.677  -0.199  -0.645  0.00  0.00    -0.196 N 
ATOM      2  C2  IND d   1       0.581  -0.728  -0.719  0.00  0.00     0.054 A 
ATOM      3  C3  IND d   1       1.021  -1.069   0.513  0.00  0.00    -0.031 A 
ATOM      4  C4  IND d   1      -0.195  -0.940   2.778  0.00  0.00     0.051 A 
ATOM      5  C5  IND d   1      -1.349  -0.493   3.357  0.00  0.00    -0.031 A 
ATOM      6  C6  IND d   1      -2.360   0.084   2.616  0.00  0.00     0.015 A 
ATOM      7  C7  IND d   1      -2.259   0.226   1.261  0.00  0.00    -0.016 A 
ATOM      8  C8  IND d   1      -1.085  -0.220   0.671  0.00  0.00    -0.047 A 
ATOM      9  C9  IND d   1      -0.038  -0.768   1.423  0.00  0.00    -0.096 A 
ATOM     10  HN1 IND d   1      -1.136   0.098  -1.308  0.00  0.00     0.298 HD
ENDROOT
TORSDOF 0
ENDMDL
