MODEL 1
REMARK minimizedAffinity 1.20911622
REMARK minimizedRMSD -1
REMARK  0 active torsions:
REMARK  status: ('A' for Active; 'I' for Inactive)
ROOT
ATOM      1  N1  IND d   1       1.562  -1.415  -0.173  0.00  0.00    -0.196 N 
ATOM      2  C2  IND d   1       0.905  -0.232  -0.364  0.00  0.00     0.054 A 
ATOM      3  C3  IND d   1      -0.057  -0.072   0.572  0.00  0.00    -0.031 A 
ATOM      4  C4  IND d   1      -0.662  -1.578   2.570  0.00  0.00     0.051 A 
ATOM      5  C5  IND d   1      -0.365  -2.785   3.138  0.00  0.00    -0.031 A 
ATOM      6  C6  IND d   1       0.611  -3.613   2.622  0.00  0.00     0.015 A 
ATOM      7  C7  IND d   1       1.338  -3.258   1.521  0.00  0.00    -0.016 A 
ATOM      8  C8  IND d   1       1.034  -2.036   0.938  0.00  0.00    -0.047 A 
ATOM      9  C9  IND d   1       0.016  -1.210   1.432  0.00  0.00    -0.096 A 
ATOM     10  HN1 IND d   1       2.198  -1.721  -0.665  0.00  0.00     0.298 HD
ENDROOT
TORSDOF 0
ENDMDL
