MODEL 1
REMARK minimizedAffinity 9.97070217
REMARK minimizedRMSD -1
REMARK  0 active torsions:
REMARK  status: ('A' for Active; 'I' for Inactive)
ROOT
ATOM      1  N1  IND d   1       0.792  -0.347  -1.078  0.00  0.00    -0.196 N 
ATOM      2  C2  IND d   1       1.953   0.281  -1.432  0.00  0.00     0.054 A 
ATOM      3  C3  IND d   1       1.684   1.452  -2.052  0.00  0.00    -0.031 A 
ATOM      4  C4  IND d   1      -0.585   2.582  -2.501  0.00  0.00     0.051 A 
ATOM      5  C5  IND d   1      -1.931   2.375  -2.394  0.00  0.00    -0.031 A 
ATOM      6  C6  IND d   1      -2.450   1.228  -1.829  0.00  0.00     0.015 A 
ATOM      7  C7  IND d   1      -1.637   0.246  -1.337  0.00  0.00    -0.016 A 
ATOM      8  C8  IND d   1      -0.269   0.450  -1.451  0.00  0.00    -0.047 A 
ATOM      9  C9  IND d   1       0.263   1.593  -2.062  0.00  0.00    -0.096 A 
ATOM     10  HN1 IND d   1       0.733  -1.111  -0.689  0.00  0.00     0.298 HD
ENDROOT
TORSDOF 0
ENDMDL
