MODEL 1
REMARK minimizedAffinity 2.22644305
REMARK minimizedRMSD -1
REMARK  0 active torsions:
REMARK  status: ('A' for Active; 'I' for Inactive)
ROOT
ATOM      1  N1  IND d   1       0.714  -1.089  -0.631  0.00  0.00    -0.196 N 
ATOM      2  C2  IND d   1      -0.203  -0.076  -0.577  0.00  0.00     0.054 A 
ATOM      3  C3  IND d   1      -0.875  -0.112   0.596  0.00  0.00    -0.031 A 
ATOM      4  C4  IND d   1      -0.563  -1.683   2.612  0.00  0.00     0.051 A 
ATOM      5  C5  IND d   1       0.128  -2.790   3.018  0.00  0.00    -0.031 A 
ATOM      6  C6  IND d   1       1.070  -3.397   2.214  0.00  0.00     0.015 A 
ATOM      7  C7  IND d   1       1.366  -2.911   0.972  0.00  0.00    -0.016 A 
ATOM      8  C8  IND d   1       0.662  -1.791   0.553  0.00  0.00    -0.047 A 
ATOM      9  C9  IND d   1      -0.326  -1.196   1.348  0.00  0.00    -0.096 A 
ATOM     10  HN1 IND d   1       1.235  -1.258  -1.293  0.00  0.00     0.298 HD
ENDROOT
TORSDOF 0
ENDMDL
