MODEL 1
REMARK minimizedAffinity -1.63156807
REMARK minimizedRMSD -1
REMARK  0 active torsions:
REMARK  status: ('A' for Active; 'I' for Inactive)
ROOT
ATOM      1  N1  IND d   1       1.438  -3.338   0.997  0.00  0.00    -0.196 N 
ATOM      2  C2  IND d   1       1.266  -4.201   2.043  0.00  0.00     0.054 A 
ATOM      3  C3  IND d   1       0.387  -3.690   2.935  0.00  0.00    -0.031 A 
ATOM      4  C4  IND d   1      -0.966  -1.503   2.828  0.00  0.00     0.051 A 
ATOM      5  C5  IND d   1      -1.122  -0.368   2.083  0.00  0.00    -0.031 A 
ATOM      6  C6  IND d   1      -0.420  -0.161   0.913  0.00  0.00     0.015 A 
ATOM      7  C7  IND d   1       0.460  -1.092   0.436  0.00  0.00    -0.016 A 
ATOM      8  C8  IND d   1       0.625  -2.243   1.194  0.00  0.00    -0.047 A 
ATOM      9  C9  IND d   1      -0.053  -2.439   2.404  0.00  0.00    -0.096 A 
ATOM     10  HN1 IND d   1       1.965  -3.459   0.328  0.00  0.00     0.298 HD
ENDROOT
TORSDOF 0
ENDMDL
