MODEL 1
REMARK minimizedAffinity 3.97096038
REMARK minimizedRMSD -1
REMARK  0 active torsions:
REMARK  status: ('A' for Active; 'I' for Inactive)
ROOT
ATOM      1  N1  IND d   1       0.478  -0.681  -0.159  0.00  0.00    -0.196 N 
ATOM      2  C2  IND d   1      -0.384   0.359   0.050  0.00  0.00     0.054 A 
ATOM      3  C3  IND d   1      -0.952   0.261   1.273  0.00  0.00    -0.031 A 
ATOM      4  C4  IND d   1      -0.536  -1.466   3.136  0.00  0.00     0.051 A 
ATOM      5  C5  IND d   1       0.138  -2.625   3.399  0.00  0.00    -0.031 A 
ATOM      6  C6  IND d   1       0.978  -3.207   2.472  0.00  0.00     0.015 A 
ATOM      7  C7  IND d   1       1.186  -2.641   1.245  0.00  0.00    -0.016 A 
ATOM      8  C8  IND d   1       0.498  -1.467   0.973  0.00  0.00    -0.047 A 
ATOM      9  C9  IND d   1      -0.389  -0.895   1.894  0.00  0.00    -0.096 A 
ATOM     10  HN1 IND d   1       0.931  -0.821  -0.876  0.00  0.00     0.298 HD
ENDROOT
TORSDOF 0
ENDMDL
