MODEL 1
REMARK minimizedAffinity 9.13589573
REMARK minimizedRMSD -1
REMARK  0 active torsions:
REMARK  status: ('A' for Active; 'I' for Inactive)
ROOT
ATOM      1  N1  IND d   1       0.856  -1.209   0.793  0.00  0.00    -0.196 N 
ATOM      2  C2  IND d   1       0.120  -0.067   0.639  0.00  0.00     0.054 A 
ATOM      3  C3  IND d   1      -0.961  -0.091   1.450  0.00  0.00    -0.031 A 
ATOM      4  C4  IND d   1      -1.665  -1.857   3.186  0.00  0.00     0.051 A 
ATOM      5  C5  IND d   1      -1.330  -3.093   3.662  0.00  0.00    -0.031 A 
ATOM      6  C6  IND d   1      -0.224  -3.777   3.198  0.00  0.00     0.015 A 
ATOM      7  C7  IND d   1       0.596  -3.243   2.246  0.00  0.00    -0.016 A 
ATOM      8  C8  IND d   1       0.255  -1.991   1.755  0.00  0.00    -0.047 A 
ATOM      9  C9  IND d   1      -0.890  -1.310   2.191  0.00  0.00    -0.096 A 
ATOM     10  HN1 IND d   1       1.573  -1.406   0.362  0.00  0.00     0.298 HD
ENDROOT
TORSDOF 0
ENDMDL
