MODEL 1
REMARK minimizedAffinity 0.413685828
REMARK minimizedRMSD -1
REMARK  0 active torsions:
REMARK  status: ('A' for Active; 'I' for Inactive)
ROOT
ATOM      1  N1  IND d   1      -1.817  -2.468   3.679  0.00  0.00    -0.196 N 
ATOM      2  C2  IND d   1      -1.389  -3.742   3.928  0.00  0.00     0.054 A 
ATOM      3  C3  IND d   1      -0.358  -4.060   3.113  0.00  0.00    -0.031 A 
ATOM      4  C4  IND d   1       0.855  -2.607   1.368  0.00  0.00     0.051 A 
ATOM      5  C5  IND d   1       0.802  -1.384   0.760  0.00  0.00    -0.031 A 
ATOM      6  C6  IND d   1      -0.145  -0.440   1.102  0.00  0.00     0.015 A 
ATOM      7  C7  IND d   1      -1.070  -0.681   2.078  0.00  0.00    -0.016 A 
ATOM      8  C8  IND d   1      -1.023  -1.924   2.693  0.00  0.00    -0.047 A 
ATOM      9  C9  IND d   1      -0.092  -2.901   2.321  0.00  0.00    -0.096 A 
ATOM     10  HN1 IND d   1      -2.471  -2.072   4.072  0.00  0.00     0.298 HD
ENDROOT
TORSDOF 0
ENDMDL
