MODEL 1
REMARK minimizedAffinity -2.48611689
REMARK minimizedRMSD -1
REMARK  0 active torsions:
REMARK  status: ('A' for Active; 'I' for Inactive)
ROOT
ATOM      1  N1  IND d   1       4.064   4.895   1.847  0.00  0.00    -0.196 N 
ATOM      2  C2  IND d   1       5.343   4.690   2.282  0.00  0.00     0.054 A 
ATOM      3  C3  IND d   1       5.439   4.959   3.604  0.00  0.00    -0.031 A 
ATOM      4  C4  IND d   1       3.603   5.652   5.270  0.00  0.00     0.051 A 
ATOM      5  C5  IND d   1       2.283   6.000   5.335  0.00  0.00    -0.031 A 
ATOM      6  C6  IND d   1       1.472   5.995   4.218  0.00  0.00     0.015 A 
ATOM      7  C7  IND d   1       1.950   5.629   2.992  0.00  0.00    -0.016 A 
ATOM      8  C8  IND d   1       3.292   5.282   2.921  0.00  0.00    -0.047 A 
ATOM      9  C9  IND d   1       4.130   5.325   4.042  0.00  0.00    -0.096 A 
ATOM     10  HN1 IND d   1       3.787   4.799   1.039  0.00  0.00     0.298 HD
ENDROOT
TORSDOF 0
ENDMDL
