MODEL 1
REMARK minimizedAffinity 9.06563282
REMARK minimizedRMSD -1
REMARK  0 active torsions:
REMARK  status: ('A' for Active; 'I' for Inactive)
ROOT
ATOM      1  N1  IND d   1      -4.510   3.551  -2.602  0.00  0.00    -0.196 N 
ATOM      2  C2  IND d   1      -3.228   3.401  -2.153  0.00  0.00     0.054 A 
ATOM      3  C3  IND d   1      -2.699   2.247  -2.617  0.00  0.00    -0.031 A 
ATOM      4  C4  IND d   1      -3.721   0.504  -4.211  0.00  0.00     0.051 A 
ATOM      5  C5  IND d   1      -4.882   0.187  -4.860  0.00  0.00    -0.031 A 
ATOM      6  C6  IND d   1      -6.000   0.993  -4.790  0.00  0.00     0.015 A 
ATOM      7  C7  IND d   1      -5.995   2.157  -4.074  0.00  0.00    -0.016 A 
ATOM      8  C8  IND d   1      -4.820   2.478  -3.409  0.00  0.00    -0.047 A 
ATOM      9  C9  IND d   1      -3.696   1.642  -3.442  0.00  0.00    -0.096 A 
ATOM     10  HN1 IND d   1      -5.035   4.205  -2.413  0.00  0.00     0.298 HD
ENDROOT
TORSDOF 0
ENDMDL
