MODEL 1
REMARK minimizedAffinity -3.02381182
REMARK minimizedRMSD -1
REMARK  0 active torsions:
REMARK  status: ('A' for Active; 'I' for Inactive)
ROOT
ATOM      1  N1  IND d   1       1.582  -2.048   0.763  0.00  0.00    -0.196 N 
ATOM      2  C2  IND d   1       2.137  -3.236   1.150  0.00  0.00     0.054 A 
ATOM      3  C3  IND d   1       1.436  -3.769   2.176  0.00  0.00    -0.031 A 
ATOM      4  C4  IND d   1      -0.713  -2.915   3.308  0.00  0.00     0.051 A 
ATOM      5  C5  IND d   1      -1.574  -1.854   3.323  0.00  0.00    -0.031 A 
ATOM      6  C6  IND d   1      -1.426  -0.783   2.466  0.00  0.00     0.015 A 
ATOM      7  C7  IND d   1      -0.413  -0.738   1.550  0.00  0.00    -0.016 A 
ATOM      8  C8  IND d   1       0.468  -1.811   1.537  0.00  0.00    -0.047 A 
ATOM      9  C9  IND d   1       0.347  -2.881   2.433  0.00  0.00    -0.096 A 
ATOM     10  HN1 IND d   1       1.879  -1.535   0.140  0.00  0.00     0.298 HD
ENDROOT
TORSDOF 0
ENDMDL
