MODEL 1
REMARK minimizedAffinity 3.46586275
REMARK minimizedRMSD -1
REMARK  0 active torsions:
REMARK  status: ('A' for Active; 'I' for Inactive)
ROOT
ATOM      1  N1  IND d   1       0.092  -0.183  -0.174  0.00  0.00    -0.196 N 
ATOM      2  C2  IND d   1       1.098  -1.109  -0.156  0.00  0.00     0.054 A 
ATOM      3  C3  IND d   1       1.059  -1.824   0.990  0.00  0.00    -0.031 A 
ATOM      4  C4  IND d   1      -0.630  -1.714   2.931  0.00  0.00     0.051 A 
ATOM      5  C5  IND d   1      -1.704  -1.001   3.384  0.00  0.00    -0.031 A 
ATOM      6  C6  IND d   1      -2.247   0.039   2.659  0.00  0.00     0.015 A 
ATOM      7  C7  IND d   1      -1.741   0.401   1.443  0.00  0.00    -0.016 A 
ATOM      8  C8  IND d   1      -0.646  -0.316   0.982  0.00  0.00    -0.047 A 
ATOM      9  C9  IND d   1      -0.064  -1.345   1.733  0.00  0.00    -0.096 A 
ATOM     10  HN1 IND d   1      -0.055   0.386  -0.801  0.00  0.00     0.298 HD
ENDROOT
TORSDOF 0
ENDMDL
