MODEL 1
REMARK minimizedAffinity 9.85722065
REMARK minimizedRMSD -1
REMARK  0 active torsions:
REMARK  status: ('A' for Active; 'I' for Inactive)
ROOT
ATOM      1  C   UNL d   1      -5.480  -0.803  -2.994  0.00  0.00     0.020 A 
ATOM      2  C1  UNL d   1      -5.863   0.341  -3.692  0.00  0.00     0.020 A 
ATOM      3  C2  UNL d   1      -5.996   1.558  -3.019  0.00  0.00     0.034 A 
ATOM      4  C3  UNL d   1      -5.746   1.632  -1.643  0.00  0.00     0.017 A 
ATOM      5  C4  UNL d   1      -5.361   0.482  -0.944  0.00  0.00     0.017 A 
ATOM      6  C5  UNL d   1      -5.229  -0.733  -1.623  0.00  0.00     0.034 A 
ATOM      7 Cl   UNL d   1      -5.035   0.495   0.753  0.00  0.00    -0.070 Cl
ATOM      8 Cl1  UNL d   1      -5.929   3.169  -0.875  0.00  0.00    -0.070 Cl
ENDROOT
TORSDOF 0
ENDMDL
