MODEL 1
REMARK minimizedAffinity 6.05864239
REMARK minimizedRMSD -1
REMARK  0 active torsions:
REMARK  status: ('A' for Active; 'I' for Inactive)
ROOT
ATOM      1  C   UNL d   1      -0.745  -2.293   1.640  0.00  0.00     0.020 A 
ATOM      2  C1  UNL d   1      -1.830  -1.578   1.132  0.00  0.00     0.020 A 
ATOM      3  C2  UNL d   1      -2.319  -0.468   1.823  0.00  0.00     0.034 A 
ATOM      4  C3  UNL d   1      -1.724  -0.068   3.025  0.00  0.00     0.017 A 
ATOM      5  C4  UNL d   1      -0.635  -0.785   3.533  0.00  0.00     0.017 A 
ATOM      6  C5  UNL d   1      -0.149  -1.897   2.838  0.00  0.00     0.034 A 
ATOM      7 Cl   UNL d   1       0.151  -0.353   5.010  0.00  0.00    -0.070 Cl
ATOM      8 Cl1  UNL d   1      -2.381   1.315   3.825  0.00  0.00    -0.070 Cl
ENDROOT
TORSDOF 0
ENDMDL
