MODEL 1
REMARK minimizedAffinity 11.4985485
REMARK minimizedRMSD -1
REMARK  0 active torsions:
REMARK  status: ('A' for Active; 'I' for Inactive)
ROOT
ATOM      1  C   UNL d   1      -2.314  -2.664   2.140  0.00  0.00     0.020 A 
ATOM      2  C1  UNL d   1      -2.221  -3.663   1.172  0.00  0.00     0.020 A 
ATOM      3  C2  UNL d   1      -0.977  -4.215   0.856  0.00  0.00     0.034 A 
ATOM      4  C3  UNL d   1       0.178  -3.768   1.509  0.00  0.00     0.017 A 
ATOM      5  C4  UNL d   1       0.082  -2.765   2.480  0.00  0.00     0.017 A 
ATOM      6  C5  UNL d   1      -1.165  -2.216   2.793  0.00  0.00     0.034 A 
ATOM      7 Cl   UNL d   1       1.463  -2.162   3.328  0.00  0.00    -0.070 Cl
ATOM      8 Cl1  UNL d   1       1.682  -4.495   1.069  0.00  0.00    -0.070 Cl
ENDROOT
TORSDOF 0
ENDMDL
