MODEL 1
REMARK minimizedAffinity 15.4717379
REMARK minimizedRMSD -1
REMARK  0 active torsions:
REMARK  status: ('A' for Active; 'I' for Inactive)
ROOT
ATOM      1  C   UNL d   1       5.447   3.312   1.122  0.00  0.00     0.020 A 
ATOM      2  C1  UNL d   1       4.147   2.809   1.119  0.00  0.00     0.020 A 
ATOM      3  C2  UNL d   1       3.398   2.817  -0.059  0.00  0.00     0.034 A 
ATOM      4  C3  UNL d   1       3.948   3.330  -1.240  0.00  0.00     0.017 A 
ATOM      5  C4  UNL d   1       5.253   3.836  -1.236  0.00  0.00     0.017 A 
ATOM      6  C5  UNL d   1       5.999   3.825  -0.053  0.00  0.00     0.034 A 
ATOM      7 Cl   UNL d   1       5.999   4.485  -2.653  0.00  0.00    -0.070 Cl
ATOM      8 Cl1  UNL d   1       2.964   3.308  -2.660  0.00  0.00    -0.070 Cl
ENDROOT
TORSDOF 0
ENDMDL
