MODEL 1
REMARK minimizedAffinity 11.3054094
REMARK minimizedRMSD -1
REMARK  0 active torsions:
REMARK  status: ('A' for Active; 'I' for Inactive)
ROOT
ATOM      1  C   UNL d   1       4.574   3.779  -4.947  0.00  0.00     0.020 A 
ATOM      2  C1  UNL d   1       5.746   4.310  -4.411  0.00  0.00     0.020 A 
ATOM      3  C2  UNL d   1       5.995   4.210  -3.041  0.00  0.00     0.034 A 
ATOM      4  C3  UNL d   1       5.071   3.577  -2.201  0.00  0.00     0.017 A 
ATOM      5  C4  UNL d   1       3.894   3.044  -2.740  0.00  0.00     0.017 A 
ATOM      6  C5  UNL d   1       3.650   3.147  -4.113  0.00  0.00     0.034 A 
ATOM      7 Cl   UNL d   1       2.707   2.249  -1.768  0.00  0.00    -0.070 Cl
ATOM      8 Cl1  UNL d   1       5.444   3.489  -0.517  0.00  0.00    -0.070 Cl
ENDROOT
TORSDOF 0
ENDMDL
