MODEL 1
REMARK minimizedAffinity 13.0957937
REMARK minimizedRMSD -1
REMARK  0 active torsions:
REMARK  status: ('A' for Active; 'I' for Inactive)
ROOT
ATOM      1  C   UNL d   1       5.331   3.474   1.498  0.00  0.00     0.020 A 
ATOM      2  C1  UNL d   1       5.998   3.324   0.282  0.00  0.00     0.020 A 
ATOM      3  C2  UNL d   1       5.832   2.157  -0.466  0.00  0.00     0.034 A 
ATOM      4  C3  UNL d   1       4.999   1.134   0.001  0.00  0.00     0.017 A 
ATOM      5  C4  UNL d   1       4.331   1.285   1.221  0.00  0.00     0.017 A 
ATOM      6  C5  UNL d   1       4.499   2.456   1.966  0.00  0.00     0.034 A 
ATOM      7 Cl   UNL d   1       3.286   0.066   1.863  0.00  0.00    -0.070 Cl
ATOM      8 Cl1  UNL d   1       4.841  -0.283  -0.976  0.00  0.00    -0.070 Cl
ENDROOT
TORSDOF 0
ENDMDL
