MODEL 1
REMARK minimizedAffinity 6.26489258
REMARK minimizedRMSD -1
REMARK  0 active torsions:
REMARK  status: ('A' for Active; 'I' for Inactive)
ROOT
ATOM      1  C   UNL d   1       5.971   3.865   1.782  0.00  0.00     0.020 A 
ATOM      2  C1  UNL d   1       5.107   4.730   1.112  0.00  0.00     0.020 A 
ATOM      3  C2  UNL d   1       3.859   4.275   0.681  0.00  0.00     0.034 A 
ATOM      4  C3  UNL d   1       3.472   2.951   0.920  0.00  0.00     0.017 A 
ATOM      5  C4  UNL d   1       4.340   2.083   1.592  0.00  0.00     0.017 A 
ATOM      6  C5  UNL d   1       5.588   2.544   2.022  0.00  0.00     0.034 A 
ATOM      7 Cl   UNL d   1       3.932   0.437   1.923  0.00  0.00    -0.070 Cl
ATOM      8 Cl1  UNL d   1       1.914   2.456   0.359  0.00  0.00    -0.070 Cl
ENDROOT
TORSDOF 0
ENDMDL
