MODEL 1
REMARK minimizedAffinity 13.6959858
REMARK minimizedRMSD -1
REMARK  0 active torsions:
REMARK  status: ('A' for Active; 'I' for Inactive)
ROOT
ATOM      1  C   UNL d   1      -4.511  -1.846   2.542  0.00  0.00     0.020 A 
ATOM      2  C1  UNL d   1      -3.722  -2.754   1.837  0.00  0.00     0.020 A 
ATOM      3  C2  UNL d   1      -2.338  -2.583   1.785  0.00  0.00     0.034 A 
ATOM      4  C3  UNL d   1      -1.737  -1.501   2.438  0.00  0.00     0.017 A 
ATOM      5  C4  UNL d   1      -2.529  -0.589   3.145  0.00  0.00     0.017 A 
ATOM      6  C5  UNL d   1      -3.916  -0.766   3.195  0.00  0.00     0.034 A 
ATOM      7 Cl   UNL d   1      -1.861   0.771   3.977  0.00  0.00    -0.070 Cl
ATOM      8 Cl1  UNL d   1      -0.019  -1.351   2.332  0.00  0.00    -0.070 Cl
ENDROOT
TORSDOF 0
ENDMDL
