MODEL 1
REMARK minimizedAffinity 23.2768936
REMARK minimizedRMSD -1
REMARK  0 active torsions:
REMARK  status: ('A' for Active; 'I' for Inactive)
ROOT
ATOM      1  C   UNL d   1       3.065  -4.628   0.342  0.00  0.00     0.020 A 
ATOM      2  C1  UNL d   1       3.764  -4.273  -0.811  0.00  0.00     0.020 A 
ATOM      3  C2  UNL d   1       3.994  -2.926  -1.100  0.00  0.00     0.034 A 
ATOM      4  C3  UNL d   1       3.525  -1.930  -0.237  0.00  0.00     0.017 A 
ATOM      5  C4  UNL d   1       2.823  -2.288   0.920  0.00  0.00     0.017 A 
ATOM      6  C5  UNL d   1       2.596  -3.638   1.206  0.00  0.00     0.034 A 
ATOM      7 Cl   UNL d   1       2.214  -1.115   2.034  0.00  0.00    -0.070 Cl
ATOM      8 Cl1  UNL d   1       3.846  -0.285  -0.657  0.00  0.00    -0.070 Cl
ENDROOT
TORSDOF 0
ENDMDL
