MODEL 1
REMARK minimizedAffinity 11.9491873
REMARK minimizedRMSD -1
REMARK  0 active torsions:
REMARK  status: ('A' for Active; 'I' for Inactive)
ROOT
ATOM      1  C   UNL d   1       2.254   3.221  -2.607  0.00  0.00     0.020 A 
ATOM      2  C1  UNL d   1       3.072   4.222  -2.085  0.00  0.00     0.020 A 
ATOM      3  C2  UNL d   1       4.224   4.611  -2.772  0.00  0.00     0.034 A 
ATOM      4  C3  UNL d   1       4.561   3.999  -3.984  0.00  0.00     0.017 A 
ATOM      5  C4  UNL d   1       3.739   2.994  -4.508  0.00  0.00     0.017 A 
ATOM      6  C5  UNL d   1       2.586   2.609  -3.816  0.00  0.00     0.034 A 
ATOM      7 Cl   UNL d   1       4.089   2.193  -5.999  0.00  0.00    -0.070 Cl
ATOM      8 Cl1  UNL d   1       6.000   4.530  -4.780  0.00  0.00    -0.070 Cl
ENDROOT
TORSDOF 0
ENDMDL
