MODEL 1
REMARK minimizedAffinity 9.91858673
REMARK minimizedRMSD -1
REMARK  0 active torsions:
REMARK  status: ('A' for Active; 'I' for Inactive)
ROOT
ATOM      1  C   UNL d   1      -5.906   5.093   4.166  0.00  0.00     0.020 A 
ATOM      2  C1  UNL d   1      -5.672   4.865   5.521  0.00  0.00     0.020 A 
ATOM      3  C2  UNL d   1      -5.531   3.559   5.996  0.00  0.00     0.034 A 
ATOM      4  C3  UNL d   1      -5.624   2.476   5.114  0.00  0.00     0.017 A 
ATOM      5  C4  UNL d   1      -5.859   2.706   3.754  0.00  0.00     0.017 A 
ATOM      6  C5  UNL d   1      -5.999   4.015   3.284  0.00  0.00     0.034 A 
ATOM      7 Cl   UNL d   1      -5.985   1.420   2.605  0.00  0.00    -0.070 Cl
ATOM      8 Cl1  UNL d   1      -5.438   0.888   5.770  0.00  0.00    -0.070 Cl
ENDROOT
TORSDOF 0
ENDMDL
