MODEL 1
REMARK minimizedAffinity 16.8572426
REMARK minimizedRMSD -1
REMARK  0 active torsions:
REMARK  status: ('A' for Active; 'I' for Inactive)
ROOT
ATOM      1  C   UNL d   1       1.371   6.000  -1.487  0.00  0.00     0.020 A 
ATOM      2  C1  UNL d   1       0.711   5.047  -2.261  0.00  0.00     0.020 A 
ATOM      3  C2  UNL d   1       1.442   4.074  -2.946  0.00  0.00     0.034 A 
ATOM      4  C3  UNL d   1       2.839   4.052  -2.858  0.00  0.00     0.017 A 
ATOM      5  C4  UNL d   1       3.501   5.010  -2.081  0.00  0.00     0.017 A 
ATOM      6  C5  UNL d   1       2.764   5.981  -1.398  0.00  0.00     0.034 A 
ATOM      7 Cl   UNL d   1       5.222   5.047  -1.924  0.00  0.00    -0.070 Cl
ATOM      8 Cl1  UNL d   1       3.680   2.821  -3.730  0.00  0.00    -0.070 Cl
ENDROOT
TORSDOF 0
ENDMDL
