MODEL 1
REMARK minimizedAffinity 6.38536978
REMARK minimizedRMSD -1
REMARK  0 active torsions:
REMARK  status: ('A' for Active; 'I' for Inactive)
ROOT
ATOM      1  C   UNL d   1       2.562   0.758  -0.852  0.00  0.00     0.020 A 
ATOM      2  C1  UNL d   1       1.991   1.024   0.392  0.00  0.00     0.020 A 
ATOM      3  C2  UNL d   1       2.658   1.844   1.305  0.00  0.00     0.034 A 
ATOM      4  C3  UNL d   1       3.899   2.400   0.976  0.00  0.00     0.017 A 
ATOM      5  C4  UNL d   1       4.471   2.132  -0.273  0.00  0.00     0.017 A 
ATOM      6  C5  UNL d   1       3.799   1.311  -1.184  0.00  0.00     0.034 A 
ATOM      7 Cl   UNL d   1       6.000   2.782  -0.751  0.00  0.00    -0.070 Cl
ATOM      8 Cl1  UNL d   1       4.668   3.404   2.153  0.00  0.00    -0.070 Cl
ENDROOT
TORSDOF 0
ENDMDL
