MODEL 1
REMARK minimizedAffinity 14.9811697
REMARK minimizedRMSD -1
REMARK  0 active torsions:
REMARK  status: ('A' for Active; 'I' for Inactive)
ROOT
ATOM      1  C   UNL d   1      -4.470  -4.552   0.853  0.00  0.00     0.020 A 
ATOM      2  C1  UNL d   1      -3.373  -4.818   1.671  0.00  0.00     0.020 A 
ATOM      3  C2  UNL d   1      -2.440  -3.813   1.936  0.00  0.00     0.034 A 
ATOM      4  C3  UNL d   1      -2.602  -2.538   1.382  0.00  0.00     0.017 A 
ATOM      5  C4  UNL d   1      -3.703  -2.272   0.561  0.00  0.00     0.017 A 
ATOM      6  C5  UNL d   1      -4.634  -3.282   0.299  0.00  0.00     0.034 A 
ATOM      7 Cl   UNL d   1      -3.970  -0.724  -0.159  0.00  0.00    -0.070 Cl
ATOM      8 Cl1  UNL d   1      -1.409  -1.344   1.753  0.00  0.00    -0.070 Cl
ENDROOT
TORSDOF 0
ENDMDL
