MODEL 1
REMARK minimizedAffinity 6.03170347
REMARK minimizedRMSD -1
REMARK  0 active torsions:
REMARK  status: ('A' for Active; 'I' for Inactive)
ROOT
ATOM      1  C   UNL d   1       1.922   2.510   0.004  0.00  0.00     0.020 A 
ATOM      2  C1  UNL d   1       2.567   1.579  -0.808  0.00  0.00     0.020 A 
ATOM      3  C2  UNL d   1       2.773   1.856  -2.161  0.00  0.00     0.034 A 
ATOM      4  C3  UNL d   1       2.333   3.067  -2.706  0.00  0.00     0.017 A 
ATOM      5  C4  UNL d   1       1.684   4.001  -1.891  0.00  0.00     0.017 A 
ATOM      6  C5  UNL d   1       1.481   3.719  -0.536  0.00  0.00     0.034 A 
ATOM      7 Cl   UNL d   1       1.113   5.518  -2.492  0.00  0.00    -0.070 Cl
ATOM      8 Cl1  UNL d   1       2.621   3.343  -4.388  0.00  0.00    -0.070 Cl
ENDROOT
TORSDOF 0
ENDMDL
