MODEL 1
REMARK minimizedAffinity 12.2939882
REMARK minimizedRMSD -1
REMARK  0 active torsions:
REMARK  status: ('A' for Active; 'I' for Inactive)
ROOT
ATOM      1  C   UNL d   1      -2.394   0.499   2.812  0.00  0.00     0.020 A 
ATOM      2  C1  UNL d   1      -3.450   0.163   1.966  0.00  0.00     0.020 A 
ATOM      3  C2  UNL d   1      -3.340  -0.943   1.119  0.00  0.00     0.034 A 
ATOM      4  C3  UNL d   1      -2.173  -1.715   1.117  0.00  0.00     0.017 A 
ATOM      5  C4  UNL d   1      -1.115  -1.377   1.968  0.00  0.00     0.017 A 
ATOM      6  C5  UNL d   1      -1.229  -0.269   2.813  0.00  0.00     0.034 A 
ATOM      7 Cl   UNL d   1       0.357  -2.282   2.022  0.00  0.00    -0.070 Cl
ATOM      8 Cl1  UNL d   1      -2.107  -3.068   0.045  0.00  0.00    -0.070 Cl
ENDROOT
TORSDOF 0
ENDMDL
