MODEL 1
REMARK minimizedAffinity 10.3556347
REMARK minimizedRMSD -1
REMARK  0 active torsions:
REMARK  status: ('A' for Active; 'I' for Inactive)
ROOT
ATOM      1  C   UNL d   1       3.882   1.876  -2.551  0.00  0.00     0.020 A 
ATOM      2  C1  UNL d   1       3.715   2.932  -3.447  0.00  0.00     0.020 A 
ATOM      3  C2  UNL d   1       2.437   3.435  -3.701  0.00  0.00     0.034 A 
ATOM      4  C3  UNL d   1       1.323   2.884  -3.059  0.00  0.00     0.017 A 
ATOM      5  C4  UNL d   1       1.492   1.824  -2.161  0.00  0.00     0.017 A 
ATOM      6  C5  UNL d   1       2.773   1.324  -1.910  0.00  0.00     0.034 A 
ATOM      7 Cl   UNL d   1       0.164   1.092  -1.331  0.00  0.00    -0.070 Cl
ATOM      8 Cl1  UNL d   1      -0.227   3.556  -3.421  0.00  0.00    -0.070 Cl
ENDROOT
TORSDOF 0
ENDMDL
