MODEL 1
REMARK minimizedAffinity 15.6432915
REMARK minimizedRMSD -1
REMARK  0 active torsions:
REMARK  status: ('A' for Active; 'I' for Inactive)
ROOT
ATOM      1  C   UNL d   1       5.037  -6.000   0.785  0.00  0.00     0.020 A 
ATOM      2  C1  UNL d   1       6.000  -5.000   0.916  0.00  0.00     0.020 A 
ATOM      3  C2  UNL d   1       5.830  -3.777   0.264  0.00  0.00     0.034 A 
ATOM      4  C3  UNL d   1       4.694  -3.550  -0.522  0.00  0.00     0.017 A 
ATOM      5  C4  UNL d   1       3.728  -4.554  -0.653  0.00  0.00     0.017 A 
ATOM      6  C5  UNL d   1       3.903  -5.777   0.002  0.00  0.00     0.034 A 
ATOM      7 Cl   UNL d   1       2.301  -4.348  -1.606  0.00  0.00    -0.070 Cl
ATOM      8 Cl1  UNL d   1       4.549  -2.014  -1.299  0.00  0.00    -0.070 Cl
ENDROOT
TORSDOF 0
ENDMDL
