MODEL 1
REMARK minimizedAffinity 12.6792536
REMARK minimizedRMSD -1
REMARK  0 active torsions:
REMARK  status: ('A' for Active; 'I' for Inactive)
ROOT
ATOM      1  C   UNL d   1       2.325   3.097  -2.071  0.00  0.00     0.020 A 
ATOM      2  C1  UNL d   1       2.471   2.580  -3.358  0.00  0.00     0.020 A 
ATOM      3  C2  UNL d   1       3.613   2.877  -4.104  0.00  0.00     0.034 A 
ATOM      4  C3  UNL d   1       4.614   3.694  -3.565  0.00  0.00     0.017 A 
ATOM      5  C4  UNL d   1       4.467   4.212  -2.273  0.00  0.00     0.017 A 
ATOM      6  C5  UNL d   1       3.321   3.911  -1.530  0.00  0.00     0.034 A 
ATOM      7 Cl   UNL d   1       5.658   5.227  -1.541  0.00  0.00    -0.070 Cl
ATOM      8 Cl1  UNL d   1       6.000   4.019  -4.544  0.00  0.00    -0.070 Cl
ENDROOT
TORSDOF 0
ENDMDL
