MODEL 1
REMARK minimizedAffinity 1.90057075
REMARK minimizedRMSD -1
REMARK  0 active torsions:
REMARK  status: ('A' for Active; 'I' for Inactive)
ROOT
ATOM      1  C2' OXE d   1       1.580   2.145   0.919  0.00  0.00     0.078 C 
ATOM      2  C1' OXE d   1       0.084   0.899  -1.103  0.00  0.00     0.078 C 
ATOM      3  C1  OXE d   1       1.078   0.057  -0.344  0.00  0.00    -0.078 A 
ATOM      4  C2  OXE d   1       1.839   0.685   0.613  0.00  0.00    -0.078 A 
ATOM      5  C3  OXE d   1       2.732  -0.057   1.380  0.00  0.00     0.003 A 
ATOM      6  C4  OXE d   1       2.973  -1.404   1.083  0.00  0.00    -0.002 A 
ATOM      7  C5  OXE d   1       2.237  -2.053   0.087  0.00  0.00    -0.002 A 
ATOM      8  C6  OXE d   1       1.258  -1.350  -0.606  0.00  0.00     0.003 A 
ENDROOT
TORSDOF 0
ENDMDL
