MODEL 1
REMARK minimizedAffinity 10.0205164
REMARK minimizedRMSD -1
REMARK  0 active torsions:
REMARK  status: ('A' for Active; 'I' for Inactive)
ROOT
ATOM      1  C2' OXE d   1       1.976  -1.857  -0.989  0.00  0.00     0.078 C 
ATOM      2  C1' OXE d   1       3.279  -1.561   1.480  0.00  0.00     0.078 C 
ATOM      3  C1  OXE d   1       2.491  -0.387   0.956  0.00  0.00    -0.078 A 
ATOM      4  C2  OXE d   1       1.895  -0.524  -0.275  0.00  0.00    -0.078 A 
ATOM      5  C3  OXE d   1       1.111   0.509  -0.781  0.00  0.00     0.003 A 
ATOM      6  C4  OXE d   1       1.050   1.741  -0.119  0.00  0.00    -0.002 A 
ATOM      7  C5  OXE d   1       1.682   1.916   1.117  0.00  0.00    -0.002 A 
ATOM      8  C6  OXE d   1       2.370   0.850   1.687  0.00  0.00     0.003 A 
ENDROOT
TORSDOF 0
ENDMDL
