MODEL 1
REMARK minimizedAffinity 9.9357729
REMARK minimizedRMSD -1
REMARK  0 active torsions:
REMARK  status: ('A' for Active; 'I' for Inactive)
ROOT
ATOM      1  C2' OXE d   1       1.780   2.762   2.688  0.00  0.00     0.078 C 
ATOM      2  C1' OXE d   1       0.045   4.453   1.270  0.00  0.00     0.078 C 
ATOM      3  C1  OXE d   1      -0.562   3.305   2.036  0.00  0.00    -0.078 A 
ATOM      4  C2  OXE d   1       0.298   2.455   2.689  0.00  0.00    -0.078 A 
ATOM      5  C3  OXE d   1      -0.213   1.412   3.456  0.00  0.00     0.003 A 
ATOM      6  C4  OXE d   1      -1.584   1.129   3.444  0.00  0.00    -0.002 A 
ATOM      7  C5  OXE d   1      -2.474   1.958   2.753  0.00  0.00    -0.002 A 
ATOM      8  C6  OXE d   1      -1.985   3.073   2.081  0.00  0.00     0.003 A 
ENDROOT
TORSDOF 0
ENDMDL
