MODEL 1
REMARK minimizedAffinity -0.647784173
REMARK minimizedRMSD -1
REMARK  0 active torsions:
REMARK  status: ('A' for Active; 'I' for Inactive)
ROOT
ATOM      1  C2' OXE d   1      -0.373  -4.942   0.106  0.00  0.00     0.078 C 
ATOM      2  C1' OXE d   1      -1.612  -3.142  -1.656  0.00  0.00     0.078 C 
ATOM      3  C1  OXE d   1      -0.357  -2.688  -0.955  0.00  0.00    -0.078 A 
ATOM      4  C2  OXE d   1       0.217  -3.558  -0.059  0.00  0.00    -0.078 A 
ATOM      5  C3  OXE d   1       1.407  -3.210   0.573  0.00  0.00     0.003 A 
ATOM      6  C4  OXE d   1       1.941  -1.925   0.423  0.00  0.00    -0.002 A 
ATOM      7  C5  OXE d   1       1.350  -1.009  -0.454  0.00  0.00    -0.002 A 
ATOM      8  C6  OXE d   1       0.228  -1.389  -1.181  0.00  0.00     0.003 A 
ENDROOT
TORSDOF 0
ENDMDL
