MODEL 1
REMARK minimizedAffinity 3.13294005
REMARK minimizedRMSD -1
REMARK  0 active torsions:
REMARK  status: ('A' for Active; 'I' for Inactive)
ROOT
ATOM      1  C2' OXE d   1       0.724   1.569   0.023  0.00  0.00     0.078 C 
ATOM      2  C1' OXE d   1       3.453   1.505  -0.631  0.00  0.00     0.078 C 
ATOM      3  C1  OXE d   1       2.717   0.191  -0.555  0.00  0.00    -0.078 A 
ATOM      4  C2  OXE d   1       1.393   0.228  -0.189  0.00  0.00    -0.078 A 
ATOM      5  C3  OXE d   1       0.653  -0.951  -0.157  0.00  0.00     0.003 A 
ATOM      6  C4  OXE d   1       1.281  -2.188  -0.344  0.00  0.00    -0.002 A 
ATOM      7  C5  OXE d   1       2.638  -2.251  -0.680  0.00  0.00    -0.002 A 
ATOM      8  C6  OXE d   1       3.358  -1.071  -0.830  0.00  0.00     0.003 A 
ENDROOT
TORSDOF 0
ENDMDL
