MODEL 1
REMARK minimizedAffinity 1.71170497
REMARK minimizedRMSD -1
REMARK  0 active torsions:
REMARK  status: ('A' for Active; 'I' for Inactive)
ROOT
ATOM      1  C2' OXE d   1       3.867  -1.104  -0.828  0.00  0.00     0.078 C 
ATOM      2  C1' OXE d   1       3.181  -3.082  -2.698  0.00  0.00     0.078 C 
ATOM      3  C1  OXE d   1       2.061  -2.396  -1.958  0.00  0.00    -0.078 A 
ATOM      4  C2  OXE d   1       2.408  -1.462  -1.011  0.00  0.00    -0.078 A 
ATOM      5  C3  OXE d   1       1.412  -0.760  -0.338  0.00  0.00     0.003 A 
ATOM      6  C4  OXE d   1       0.065  -1.105  -0.505  0.00  0.00    -0.002 A 
ATOM      7  C5  OXE d   1      -0.308  -2.081  -1.435  0.00  0.00    -0.002 A 
ATOM      8  C6  OXE d   1       0.673  -2.704  -2.199  0.00  0.00     0.003 A 
ENDROOT
TORSDOF 0
ENDMDL
