MODEL 1
REMARK minimizedAffinity 0.173140064
REMARK minimizedRMSD -1
REMARK  0 active torsions:
REMARK  status: ('A' for Active; 'I' for Inactive)
ROOT
ATOM      1  C2' OXE d   1       3.590   0.707  -0.904  0.00  0.00     0.078 C 
ATOM      2  C1' OXE d   1       1.122   1.863  -0.227  0.00  0.00     0.078 C 
ATOM      3  C1  OXE d   1       1.179   0.363  -0.377  0.00  0.00    -0.078 A 
ATOM      4  C2  OXE d   1       2.380  -0.189  -0.755  0.00  0.00    -0.078 A 
ATOM      5  C3  OXE d   1       2.501  -1.572  -0.855  0.00  0.00     0.003 A 
ATOM      6  C4  OXE d   1       1.374  -2.394  -0.725  0.00  0.00    -0.002 A 
ATOM      7  C5  OXE d   1       0.134  -1.848  -0.380  0.00  0.00    -0.002 A 
ATOM      8  C6  OXE d   1       0.028  -0.479  -0.161  0.00  0.00     0.003 A 
ENDROOT
TORSDOF 0
ENDMDL
