MODEL 1
REMARK minimizedAffinity -3.38126588
REMARK minimizedRMSD -1
REMARK  0 active torsions:
REMARK  status: ('A' for Active; 'I' for Inactive)
ROOT
ATOM      1  C2' OXE d   1       3.962   0.913  -0.749  0.00  0.00     0.078 C 
ATOM      2  C1' OXE d   1       4.473  -0.201  -3.275  0.00  0.00     0.078 C 
ATOM      3  C1  OXE d   1       3.502  -0.920  -2.372  0.00  0.00    -0.078 A 
ATOM      4  C2  OXE d   1       3.294  -0.393  -1.120  0.00  0.00    -0.078 A 
ATOM      5  C3  OXE d   1       2.367  -0.987  -0.268  0.00  0.00     0.003 A 
ATOM      6  C4  OXE d   1       1.760  -2.200  -0.614  0.00  0.00    -0.002 A 
ATOM      7  C5  OXE d   1       1.989  -2.775  -1.869  0.00  0.00    -0.002 A 
ATOM      8  C6  OXE d   1       2.822  -2.127  -2.774  0.00  0.00     0.003 A 
ENDROOT
TORSDOF 0
ENDMDL
