MODEL 1
REMARK minimizedAffinity 0.291722447
REMARK minimizedRMSD -1
REMARK  0 active torsions:
REMARK  status: ('A' for Active; 'I' for Inactive)
ROOT
ATOM      1  C2' OXE d   1      -1.023  -0.746   0.320  0.00  0.00     0.078 C 
ATOM      2  C1' OXE d   1       0.218   1.753   0.625  0.00  0.00     0.078 C 
ATOM      3  C1  OXE d   1       1.004   0.655  -0.046  0.00  0.00    -0.078 A 
ATOM      4  C2  OXE d   1       0.406  -0.578  -0.150  0.00  0.00    -0.078 A 
ATOM      5  C3  OXE d   1       1.066  -1.611  -0.809  0.00  0.00     0.003 A 
ATOM      6  C4  OXE d   1       2.391  -1.450  -1.232  0.00  0.00    -0.002 A 
ATOM      7  C5  OXE d   1       3.033  -0.214  -1.100  0.00  0.00    -0.002 A 
ATOM      8  C6  OXE d   1       2.340   0.859  -0.549  0.00  0.00     0.003 A 
ENDROOT
TORSDOF 0
ENDMDL
