MODEL 1
REMARK minimizedAffinity 11.530674
REMARK minimizedRMSD -1
REMARK  0 active torsions:
REMARK  status: ('A' for Active; 'I' for Inactive)
ROOT
ATOM      1  C2' OXE d   1      -0.811  -2.748  -2.862  0.00  0.00     0.078 C 
ATOM      2  C1' OXE d   1      -1.610  -0.328  -1.685  0.00  0.00     0.078 C 
ATOM      3  C1  OXE d   1      -0.340  -0.968  -1.184  0.00  0.00    -0.078 A 
ATOM      4  C2  OXE d   1       0.019  -2.176  -1.733  0.00  0.00    -0.078 A 
ATOM      5  C3  OXE d   1       1.211  -2.782  -1.346  0.00  0.00     0.003 A 
ATOM      6  C4  OXE d   1       1.967  -2.251  -0.294  0.00  0.00    -0.002 A 
ATOM      7  C5  OXE d   1       1.598  -1.043   0.306  0.00  0.00    -0.002 A 
ATOM      8  C6  OXE d   1       0.473  -0.368  -0.155  0.00  0.00     0.003 A 
ENDROOT
TORSDOF 0
ENDMDL
