MODEL 1
REMARK minimizedAffinity -1.19439793
REMARK minimizedRMSD -1
REMARK  0 active torsions:
REMARK  status: ('A' for Active; 'I' for Inactive)
ROOT
ATOM      1  C4' PXY d   1      -2.101   1.658  -1.986  0.00  0.00     0.077 C 
ATOM      2  C1' PXY d   1       2.018  -1.419   0.656  0.00  0.00     0.077 C 
ATOM      3  C1  PXY d   1       0.931  -0.613  -0.026  0.00  0.00    -0.082 A 
ATOM      4  C2  PXY d   1       0.838  -0.624  -1.346  0.00  0.00     0.003 A 
ATOM      5  C3  PXY d   1      -0.119   0.125  -1.980  0.00  0.00     0.003 A 
ATOM      6  C4  PXY d   1      -1.025   0.851  -1.254  0.00  0.00    -0.082 A 
ATOM      7  C5  PXY d   1      -0.944   0.859   0.093  0.00  0.00     0.003 A 
ATOM      8  C6  PXY d   1       0.061   0.124   0.716  0.00  0.00     0.003 A 
ENDROOT
TORSDOF 0
ENDMDL
