MODEL 1
REMARK minimizedAffinity -3.98608184
REMARK minimizedRMSD -1
REMARK  0 active torsions:
REMARK  status: ('A' for Active; 'I' for Inactive)
ROOT
ATOM      1  C4' PXY d   1       0.761  -1.872   2.502  0.00  0.00     0.077 C 
ATOM      2  C1' PXY d   1      -1.416   1.968  -1.230  0.00  0.00     0.077 C 
ATOM      3  C1  PXY d   1      -0.851   0.968  -0.241  0.00  0.00    -0.082 A 
ATOM      4  C2  PXY d   1       0.228   0.271  -0.560  0.00  0.00     0.003 A 
ATOM      5  C3  PXY d   1       0.734  -0.661   0.309  0.00  0.00     0.003 A 
ATOM      6  C4  PXY d   1       0.161  -0.844   1.539  0.00  0.00    -0.082 A 
ATOM      7  C5  PXY d   1      -0.934  -0.130   1.876  0.00  0.00     0.003 A 
ATOM      8  C6  PXY d   1      -1.456   0.782   0.963  0.00  0.00     0.003 A 
ENDROOT
TORSDOF 0
ENDMDL
