MODEL 1
REMARK minimizedAffinity -1.54524302
REMARK minimizedRMSD -1
REMARK  0 active torsions:
REMARK  status: ('A' for Active; 'I' for Inactive)
ROOT
ATOM      1  C4' PXY d   1      -1.649   1.997  -1.880  0.00  0.00     0.077 C 
ATOM      2  C1' PXY d   1       2.112  -1.424   0.870  0.00  0.00     0.077 C 
ATOM      3  C1  PXY d   1       1.117  -0.529   0.158  0.00  0.00    -0.082 A 
ATOM      4  C2  PXY d   1       1.213  -0.354  -1.150  0.00  0.00     0.003 A 
ATOM      5  C3  PXY d   1       0.341   0.477  -1.804  0.00  0.00     0.003 A 
ATOM      6  C4  PXY d   1      -0.672   1.095  -1.121  0.00  0.00    -0.082 A 
ATOM      7  C5  PXY d   1      -0.783   0.914   0.212  0.00  0.00     0.003 A 
ATOM      8  C6  PXY d   1       0.137   0.098   0.864  0.00  0.00     0.003 A 
ENDROOT
TORSDOF 0
ENDMDL
