MODEL 1
REMARK minimizedAffinity -3.47903728
REMARK minimizedRMSD -1
REMARK  0 active torsions:
REMARK  status: ('A' for Active; 'I' for Inactive)
ROOT
ATOM      1  C4' PXY d   1      -0.357  -1.098   2.620  0.00  0.00     0.077 C 
ATOM      2  C1' PXY d   1      -1.426   2.597  -1.695  0.00  0.00     0.077 C 
ATOM      3  C1  PXY d   1      -1.142   1.619  -0.572  0.00  0.00    -0.082 A 
ATOM      4  C2  PXY d   1      -1.773   1.749   0.584  0.00  0.00     0.003 A 
ATOM      5  C3  PXY d   1      -1.504   0.893   1.620  0.00  0.00     0.003 A 
ATOM      6  C4  PXY d   1      -0.620  -0.139   1.455  0.00  0.00    -0.082 A 
ATOM      7  C5  PXY d   1       0.020  -0.285   0.276  0.00  0.00     0.003 A 
ATOM      8  C6  PXY d   1      -0.236   0.620  -0.751  0.00  0.00     0.003 A 
ENDROOT
TORSDOF 0
ENDMDL
