MODEL 1
REMARK minimizedAffinity -5.23474407
REMARK minimizedRMSD -1
REMARK  0 active torsions:
REMARK  status: ('A' for Active; 'I' for Inactive)
ROOT
ATOM      1  C4' PXY d   1       2.074  -0.804   0.373  0.00  0.00     0.077 C 
ATOM      2  C1' PXY d   1      -2.226   1.538  -2.700  0.00  0.00     0.077 C 
ATOM      3  C1  PXY d   1      -1.099   0.934  -1.885  0.00  0.00    -0.082 A 
ATOM      4  C2  PXY d   1      -0.239   0.113  -2.467  0.00  0.00     0.003 A 
ATOM      5  C3  PXY d   1       0.767  -0.467  -1.738  0.00  0.00     0.003 A 
ATOM      6  C4  PXY d   1       0.926  -0.163  -0.412  0.00  0.00    -0.082 A 
ATOM      7  C5  PXY d   1       0.059   0.682   0.185  0.00  0.00     0.003 A 
ATOM      8  C6  PXY d   1      -0.980   1.228  -0.562  0.00  0.00     0.003 A 
ENDROOT
TORSDOF 0
ENDMDL
