MODEL 1
REMARK minimizedAffinity -1.7681936
REMARK minimizedRMSD -1
REMARK  0 active torsions:
REMARK  status: ('A' for Active; 'I' for Inactive)
ROOT
ATOM      1  C4' PXY d   1      -2.589   2.236  -2.387  0.00  0.00     0.077 C 
ATOM      2  C1' PXY d   1       1.613  -0.687   0.299  0.00  0.00     0.077 C 
ATOM      3  C1  PXY d   1       0.503   0.078  -0.395  0.00  0.00    -0.082 A 
ATOM      4  C2  PXY d   1       0.479   0.140  -1.717  0.00  0.00     0.003 A 
ATOM      5  C3  PXY d   1      -0.499   0.855  -2.359  0.00  0.00     0.003 A 
ATOM      6  C4  PXY d   1      -1.493   1.467  -1.644  0.00  0.00    -0.082 A 
ATOM      7  C5  PXY d   1      -1.481   1.399  -0.296  0.00  0.00     0.003 A 
ATOM      8  C6  PXY d   1      -0.456   0.704   0.339  0.00  0.00     0.003 A 
ENDROOT
TORSDOF 0
ENDMDL
