MODEL 1
REMARK minimizedAffinity -0.950924158
REMARK minimizedRMSD -1
REMARK  0 active torsions:
REMARK  status: ('A' for Active; 'I' for Inactive)
ROOT
ATOM      1  C4' PXY d   1       2.285  -1.587   1.095  0.00  0.00     0.077 C 
ATOM      2  C1' PXY d   1      -1.493   2.023  -1.377  0.00  0.00     0.077 C 
ATOM      3  C1  PXY d   1      -0.494   1.078  -0.739  0.00  0.00    -0.082 A 
ATOM      4  C2  PXY d   1      -0.914   0.168   0.124  0.00  0.00     0.003 A 
ATOM      5  C3  PXY d   1      -0.020  -0.674   0.735  0.00  0.00     0.003 A 
ATOM      6  C4  PXY d   1       1.311  -0.618   0.419  0.00  0.00    -0.082 A 
ATOM      7  C5  PXY d   1       1.746   0.301  -0.469  0.00  0.00     0.003 A 
ATOM      8  C6  PXY d   1       0.828   1.173  -1.047  0.00  0.00     0.003 A 
ENDROOT
TORSDOF 0
ENDMDL
