MODEL 1
REMARK minimizedAffinity -1.02832401
REMARK minimizedRMSD -1
REMARK  0 active torsions:
REMARK  status: ('A' for Active; 'I' for Inactive)
ROOT
ATOM      1  C4' PXY d   1      -1.524   1.797  -1.477  0.00  0.00     0.077 C 
ATOM      2  C1' PXY d   1       2.104  -1.644   1.424  0.00  0.00     0.077 C 
ATOM      3  C1  PXY d   1       1.142  -0.748   0.668  0.00  0.00    -0.082 A 
ATOM      4  C2  PXY d   1       1.540  -0.153  -0.445  0.00  0.00     0.003 A 
ATOM      5  C3  PXY d   1       0.694   0.686  -1.123  0.00  0.00     0.003 A 
ATOM      6  C4  PXY d   1      -0.590   0.876  -0.687  0.00  0.00    -0.082 A 
ATOM      7  C5  PXY d   1      -1.006   0.265   0.442  0.00  0.00     0.003 A 
ATOM      8  C6  PXY d   1      -0.119  -0.550   1.139  0.00  0.00     0.003 A 
ENDROOT
TORSDOF 0
ENDMDL
