MODEL 1
REMARK minimizedAffinity -3.544873
REMARK minimizedRMSD -1
REMARK  0 active torsions:
REMARK  status: ('A' for Active; 'I' for Inactive)
ROOT
ATOM      1  C4' PXY d   1       2.638   0.375  -1.379  0.00  0.00     0.077 C 
ATOM      2  C1' PXY d   1      -1.307  -0.889   2.653  0.00  0.00     0.077 C 
ATOM      3  C1  PXY d   1      -0.282  -0.551   1.589  0.00  0.00    -0.082 A 
ATOM      4  C2  PXY d   1       0.801  -1.301   1.462  0.00  0.00     0.003 A 
ATOM      5  C3  PXY d   1       1.754  -0.991   0.527  0.00  0.00     0.003 A 
ATOM      6  C4  PXY d   1       1.572   0.066  -0.324  0.00  0.00    -0.082 A 
ATOM      7  C5  PXY d   1       0.464   0.829  -0.209  0.00  0.00     0.003 A 
ATOM      8  C6  PXY d   1      -0.471   0.523   0.775  0.00  0.00     0.003 A 
ENDROOT
TORSDOF 0
ENDMDL
