MODEL 1
REMARK minimizedAffinity -3.65582013
REMARK minimizedRMSD -1
REMARK  0 active torsions:
REMARK  status: ('A' for Active; 'I' for Inactive)
ROOT
ATOM      1  C4' PXY d   1      -1.682   1.637  -2.283  0.00  0.00     0.077 C 
ATOM      2  C1' PXY d   1       1.859  -1.393   1.136  0.00  0.00     0.077 C 
ATOM      3  C1  PXY d   1       0.921  -0.599   0.248  0.00  0.00    -0.082 A 
ATOM      4  C2  PXY d   1       1.139  -0.550  -1.056  0.00  0.00     0.003 A 
ATOM      5  C3  PXY d   1       0.320   0.189  -1.869  0.00  0.00     0.003 A 
ATOM      6  C4  PXY d   1      -0.766   0.841  -1.350  0.00  0.00    -0.082 A 
ATOM      7  C5  PXY d   1      -1.002   0.787  -0.022  0.00  0.00     0.003 A 
ATOM      8  C6  PXY d   1      -0.135   0.065   0.792  0.00  0.00     0.003 A 
ENDROOT
TORSDOF 0
ENDMDL
