MODEL 1
REMARK minimizedAffinity -4.65327215
REMARK minimizedRMSD -1
REMARK  0 active torsions:
REMARK  status: ('A' for Active; 'I' for Inactive)
ROOT
ATOM      1  C4' PXY d   1       1.216  -0.681   0.410  0.00  0.00     0.077 C 
ATOM      2  C1' PXY d   1      -2.559   1.933  -3.102  0.00  0.00     0.077 C 
ATOM      3  C1  PXY d   1      -1.572   1.236  -2.187  0.00  0.00    -0.082 A 
ATOM      4  C2  PXY d   1      -1.222   1.808  -1.046  0.00  0.00     0.003 A 
ATOM      5  C3  PXY d   1      -0.307   1.206  -0.221  0.00  0.00     0.003 A 
ATOM      6  C4  PXY d   1       0.216  -0.018  -0.541  0.00  0.00    -0.082 A 
ATOM      7  C5  PXY d   1      -0.145  -0.613  -1.699  0.00  0.00     0.003 A 
ATOM      8  C6  PXY d   1      -1.044   0.034  -2.542  0.00  0.00     0.003 A 
ENDROOT
TORSDOF 0
ENDMDL
