MODEL 1
REMARK minimizedAffinity -4.23139715
REMARK minimizedRMSD -1
REMARK  0 active torsions:
REMARK  status: ('A' for Active; 'I' for Inactive)
ROOT
ATOM      1  C4' PXY d   1      -1.108   2.613  -2.205  0.00  0.00     0.077 C 
ATOM      2  C1' PXY d   1       1.980  -1.452   0.508  0.00  0.00     0.077 C 
ATOM      3  C1  PXY d   1       1.160  -0.388  -0.195  0.00  0.00    -0.082 A 
ATOM      4  C2  PXY d   1       1.436  -0.073  -1.450  0.00  0.00     0.003 A 
ATOM      5  C3  PXY d   1       0.726   0.909  -2.091  0.00  0.00     0.003 A 
ATOM      6  C4  PXY d   1      -0.313   1.538  -1.458  0.00  0.00    -0.082 A 
ATOM      7  C5  PXY d   1      -0.608   1.214  -0.181  0.00  0.00     0.003 A 
ATOM      8  C6  PXY d   1       0.152   0.243   0.465  0.00  0.00     0.003 A 
ENDROOT
TORSDOF 0
ENDMDL
