MODEL 1
REMARK minimizedAffinity -1.82055402
REMARK minimizedRMSD -1
REMARK  0 active torsions:
REMARK  status: ('A' for Active; 'I' for Inactive)
ROOT
ATOM      1  C4' PXY d   1       1.421  -0.561   0.574  0.00  0.00     0.077 C 
ATOM      2  C1' PXY d   1      -2.755   2.358  -2.156  0.00  0.00     0.077 C 
ATOM      3  C1  PXY d   1      -1.664   1.581  -1.445  0.00  0.00    -0.082 A 
ATOM      4  C2  PXY d   1      -1.123   2.074  -0.343  0.00  0.00     0.003 A 
ATOM      5  C3  PXY d   1      -0.113   1.400   0.294  0.00  0.00     0.003 A 
ATOM      6  C4  PXY d   1       0.310   0.184  -0.171  0.00  0.00    -0.082 A 
ATOM      7  C5  PXY d   1      -0.244  -0.330  -1.289  0.00  0.00     0.003 A 
ATOM      8  C6  PXY d   1      -1.240   0.389  -1.945  0.00  0.00     0.003 A 
ENDROOT
TORSDOF 0
ENDMDL
