MODEL 1
REMARK minimizedAffinity -3.32754874
REMARK minimizedRMSD -1
REMARK  0 active torsions:
REMARK  status: ('A' for Active; 'I' for Inactive)
ROOT
ATOM      1  C4' PXY d   1      -2.370   1.418  -2.380  0.00  0.00     0.077 C 
ATOM      2  C1' PXY d   1       1.778  -1.124   0.742  0.00  0.00     0.077 C 
ATOM      3  C1  PXY d   1       0.687  -0.450  -0.067  0.00  0.00    -0.082 A 
ATOM      4  C2  PXY d   1       0.144  -1.087  -1.091  0.00  0.00     0.003 A 
ATOM      5  C3  PXY d   1      -0.821  -0.479  -1.853  0.00  0.00     0.003 A 
ATOM      6  C4  PXY d   1      -1.272   0.773  -1.530  0.00  0.00    -0.082 A 
ATOM      7  C5  PXY d   1      -0.730   1.425  -0.480  0.00  0.00     0.003 A 
ATOM      8  C6  PXY d   1       0.277   0.807   0.256  0.00  0.00     0.003 A 
ENDROOT
TORSDOF 0
ENDMDL
