MODEL 1
REMARK minimizedAffinity -2.36107373
REMARK minimizedRMSD -1
REMARK  0 active torsions:
REMARK  status: ('A' for Active; 'I' for Inactive)
ROOT
ATOM      1  C4' PXY d   1      -1.935   1.509  -2.144  0.00  0.00     0.077 C 
ATOM      2  C1' PXY d   1       2.056  -1.533   0.726  0.00  0.00     0.077 C 
ATOM      3  C1  PXY d   1       1.001  -0.736  -0.017  0.00  0.00    -0.082 A 
ATOM      4  C2  PXY d   1       1.033  -0.682  -1.339  0.00  0.00     0.003 A 
ATOM      5  C3  PXY d   1       0.106   0.060  -2.024  0.00  0.00     0.003 A 
ATOM      6  C4  PXY d   1      -0.896   0.709  -1.353  0.00  0.00    -0.082 A 
ATOM      7  C5  PXY d   1      -0.941   0.649  -0.006  0.00  0.00     0.003 A 
ATOM      8  C6  PXY d   1       0.033  -0.075   0.674  0.00  0.00     0.003 A 
ENDROOT
TORSDOF 0
ENDMDL
