MODEL 1
REMARK minimizedAffinity -2.23173261
REMARK minimizedRMSD -1
REMARK  0 active torsions:
REMARK  status: ('A' for Active; 'I' for Inactive)
ROOT
ATOM      1  C4' PXY d   1      -1.523   1.328  -2.139  0.00  0.00     0.077 C 
ATOM      2  C1' PXY d   1       2.492  -1.265   1.112  0.00  0.00     0.077 C 
ATOM      3  C1  PXY d   1       1.430  -0.587   0.269  0.00  0.00    -0.082 A 
ATOM      4  C2  PXY d   1       1.565  -0.550  -1.047  0.00  0.00     0.003 A 
ATOM      5  C3  PXY d   1       0.630   0.087  -1.822  0.00  0.00     0.003 A 
ATOM      6  C4  PXY d   1      -0.480   0.646  -1.249  0.00  0.00    -0.082 A 
ATOM      7  C5  PXY d   1      -0.630   0.604   0.092  0.00  0.00     0.003 A 
ATOM      8  C6  PXY d   1       0.351  -0.011   0.865  0.00  0.00     0.003 A 
ENDROOT
TORSDOF 0
ENDMDL
