MODEL 1
REMARK minimizedAffinity -3.78017354
REMARK minimizedRMSD -1
REMARK  0 active torsions:
REMARK  status: ('A' for Active; 'I' for Inactive)
ROOT
ATOM      1  C4' PXY d   1       1.172  -2.108   3.052  0.00  0.00     0.077 C 
ATOM      2  C1' PXY d   1      -0.888   1.603  -0.873  0.00  0.00     0.077 C 
ATOM      3  C1  PXY d   1      -0.340   0.624   0.147  0.00  0.00    -0.082 A 
ATOM      4  C2  PXY d   1      -1.064   0.313   1.210  0.00  0.00     0.003 A 
ATOM      5  C3  PXY d   1      -0.571  -0.545   2.159  0.00  0.00     0.003 A 
ATOM      6  C4  PXY d   1       0.655  -1.132   1.991  0.00  0.00    -0.082 A 
ATOM      7  C5  PXY d   1       1.395  -0.828   0.904  0.00  0.00     0.003 A 
ATOM      8  C6  PXY d   1       0.894   0.077  -0.026  0.00  0.00     0.003 A 
ENDROOT
TORSDOF 0
ENDMDL
