MODEL 1
REMARK minimizedAffinity -1.18993211
REMARK minimizedRMSD -1
REMARK  0 active torsions:
REMARK  status: ('A' for Active; 'I' for Inactive)
ROOT
ATOM      1  C4' PXY d   1      -2.204   1.880  -2.243  0.00  0.00     0.077 C 
ATOM      2  C1' PXY d   1       2.101  -0.750   0.580  0.00  0.00     0.077 C 
ATOM      3  C1  PXY d   1       0.966  -0.057  -0.149  0.00  0.00    -0.082 A 
ATOM      4  C2  PXY d   1       0.705  -0.377  -1.406  0.00  0.00     0.003 A 
ATOM      5  C3  PXY d   1      -0.297   0.262  -2.090  0.00  0.00     0.003 A 
ATOM      6  C4  PXY d   1      -1.074   1.200  -1.465  0.00  0.00    -0.082 A 
ATOM      7  C5  PXY d   1      -0.821   1.524  -0.179  0.00  0.00     0.003 A 
ATOM      8  C6  PXY d   1       0.228   0.893   0.485  0.00  0.00     0.003 A 
ENDROOT
TORSDOF 0
ENDMDL
