MODEL 1
REMARK minimizedAffinity -2.08806825
REMARK minimizedRMSD -1
REMARK  0 active torsions:
REMARK  status: ('A' for Active; 'I' for Inactive)
ROOT
ATOM      1  C4' PXY d   1       1.111  -1.996   3.339  0.00  0.00     0.077 C 
ATOM      2  C1' PXY d   1      -0.511   1.231  -1.174  0.00  0.00     0.077 C 
ATOM      3  C1  PXY d   1      -0.077   0.379   0.002  0.00  0.00    -0.082 A 
ATOM      4  C2  PXY d   1      -0.905   0.195   1.018  0.00  0.00     0.003 A 
ATOM      5  C3  PXY d   1      -0.517  -0.547   2.103  0.00  0.00     0.003 A 
ATOM      6  C4  PXY d   1       0.711  -1.151   2.127  0.00  0.00    -0.082 A 
ATOM      7  C5  PXY d   1       1.558  -0.977   1.090  0.00  0.00     0.003 A 
ATOM      8  C6  PXY d   1       1.161  -0.186   0.015  0.00  0.00     0.003 A 
ENDROOT
TORSDOF 0
ENDMDL
