MODEL 1
REMARK minimizedAffinity 13.2713795
REMARK minimizedRMSD -1
REMARK  0 active torsions:
REMARK  status: ('A' for Active; 'I' for Inactive)
ROOT
ATOM      1  C4' PXY d   1      -2.926   2.712  -2.836  0.00  0.00     0.077 C 
ATOM      2  C1' PXY d   1      -1.188  -0.045   1.938  0.00  0.00     0.077 C 
ATOM      3  C1  PXY d   1      -1.648   0.666   0.681  0.00  0.00    -0.082 A 
ATOM      4  C2  PXY d   1      -1.115   1.834   0.359  0.00  0.00     0.003 A 
ATOM      5  C3  PXY d   1      -1.542   2.506  -0.758  0.00  0.00     0.003 A 
ATOM      6  C4  PXY d   1      -2.486   1.953  -1.581  0.00  0.00    -0.082 A 
ATOM      7  C5  PXY d   1      -3.026   0.757  -1.265  0.00  0.00     0.003 A 
ATOM      8  C6  PXY d   1      -2.609   0.110  -0.105  0.00  0.00     0.003 A 
ENDROOT
TORSDOF 0
ENDMDL
