MODEL 1
REMARK minimizedAffinity -1.89433622
REMARK minimizedRMSD -1
REMARK  1 active torsions:
REMARK  status: ('A' for Active; 'I' for Inactive)
REMARK    1  A    between atoms: N_2  and  C1_3 
ROOT
ATOM      1  C1  UNL d   1       5.067  -3.565   5.249  0.00  0.00     0.143 A 
ATOM      2  C2  UNL d   1       4.113  -2.850   4.517  0.00  0.00    -0.057 A 
ATOM      3  C3  UNL d   1       4.116  -1.450   4.493  0.00  0.00     0.033 A 
ATOM      4  C4  UNL d   1       5.058  -0.738   5.227  0.00  0.00    -0.042 A 
ATOM      5  C5  UNL d   1       6.000  -1.427   5.983  0.00  0.00     0.033 A 
ATOM      6  C6  UNL d   1       5.996  -2.825   5.997  0.00  0.00    -0.057 A 
ENDROOT
BRANCH   1   7
ATOM      7  N   UNL d   1       5.057  -4.955   5.392  0.00  0.00    -0.732 N 
ATOM      8  C   UNL d   1       5.818  -5.794   4.492  0.00  0.00     0.284 C 
ATOM      9  H3  UNL d   1       5.099  -5.245   6.366  0.00  0.00     0.395 HD
ENDBRANCH   1   7
TORSDOF 1
ENDMDL
