MODEL 1
REMARK minimizedAffinity -1.21550632
REMARK minimizedRMSD -1
REMARK  1 active torsions:
REMARK  status: ('A' for Active; 'I' for Inactive)
REMARK    1  A    between atoms: N_2  and  C1_3 
ROOT
ATOM      1  C1  UNL d   1       5.956   0.937   4.814  0.00  0.00     0.143 A 
ATOM      2  C2  UNL d   1       5.780   0.217   6.000  0.00  0.00    -0.057 A 
ATOM      3  C3  UNL d   1       5.695  -1.181   5.995  0.00  0.00     0.033 A 
ATOM      4  C4  UNL d   1       5.755  -1.883   4.796  0.00  0.00    -0.042 A 
ATOM      5  C5  UNL d   1       5.904  -1.186   3.602  0.00  0.00     0.033 A 
ATOM      6  C6  UNL d   1       5.995   0.209   3.614  0.00  0.00    -0.057 A 
ENDROOT
BRANCH   1   7
ATOM      7  N   UNL d   1       5.949   2.332   4.742  0.00  0.00    -0.732 N 
ATOM      8  C   UNL d   1       5.462   3.124   5.851  0.00  0.00     0.284 C 
ATOM      9  H3  UNL d   1       6.789   2.703   4.304  0.00  0.00     0.395 HD
ENDBRANCH   1   7
TORSDOF 1
ENDMDL
