MODEL 1
REMARK minimizedAffinity 0.758267224
REMARK minimizedRMSD -1
REMARK  1 active torsions:
REMARK  status: ('A' for Active; 'I' for Inactive)
REMARK    1  A    between atoms: N_2  and  C1_3 
ROOT
ATOM      1  C1  UNL d   1       5.885  -0.114   4.826  0.00  0.00     0.143 A 
ATOM      2  C2  UNL d   1       5.940  -0.873   6.000  0.00  0.00    -0.057 A 
ATOM      3  C3  UNL d   1       5.877  -2.272   5.963  0.00  0.00     0.033 A 
ATOM      4  C4  UNL d   1       5.728  -2.935   4.750  0.00  0.00    -0.042 A 
ATOM      5  C5  UNL d   1       5.646  -2.200   3.573  0.00  0.00     0.033 A 
ATOM      6  C6  UNL d   1       5.716  -0.804   3.616  0.00  0.00    -0.057 A 
ENDROOT
BRANCH   1   7
ATOM      7  N   UNL d   1       5.843   1.283   4.805  0.00  0.00    -0.732 N 
ATOM      8  C   UNL d   1       5.439   2.026   5.979  0.00  0.00     0.284 C 
ATOM      9  H3  UNL d   1       6.633   1.687   4.308  0.00  0.00     0.395 HD
ENDBRANCH   1   7
TORSDOF 1
ENDMDL
