MODEL 1
REMARK minimizedAffinity -3.20117378
REMARK minimizedRMSD -1
REMARK  1 active torsions:
REMARK  status: ('A' for Active; 'I' for Inactive)
REMARK    1  A    between atoms: N_2  and  C1_3 
ROOT
ATOM      1  C1  UNL d   1       5.303   0.642   4.838  0.00  0.00     0.143 A 
ATOM      2  C2  UNL d   1       5.749  -0.014   5.990  0.00  0.00    -0.057 A 
ATOM      3  C3  UNL d   1       5.970  -1.397   5.999  0.00  0.00     0.033 A 
ATOM      4  C4  UNL d   1       5.721  -2.155   4.860  0.00  0.00    -0.042 A 
ATOM      5  C5  UNL d   1       5.254  -1.527   3.710  0.00  0.00     0.033 A 
ATOM      6  C6  UNL d   1       5.041  -0.146   3.705  0.00  0.00    -0.057 A 
ENDROOT
BRANCH   1   7
ATOM      7  N   UNL d   1       4.971   1.998   4.794  0.00  0.00    -0.732 N 
ATOM      8  C   UNL d   1       6.000   3.012   4.875  0.00  0.00     0.284 C 
ATOM      9  H3  UNL d   1       4.243   2.197   4.112  0.00  0.00     0.395 HD
ENDBRANCH   1   7
TORSDOF 1
ENDMDL
