MODEL 1
REMARK minimizedAffinity 3.21119118
REMARK minimizedRMSD -1
REMARK  1 active torsions:
REMARK  status: ('A' for Active; 'I' for Inactive)
REMARK    1  A    between atoms: N_2  and  C1_3 
ROOT
ATOM      1  C1  UNL d   1       5.592  -1.085   4.935  0.00  0.00     0.143 A 
ATOM      2  C2  UNL d   1       5.992  -0.242   5.977  0.00  0.00    -0.057 A 
ATOM      3  C3  UNL d   1       5.635   1.112   5.993  0.00  0.00     0.033 A 
ATOM      4  C4  UNL d   1       4.893   1.654   4.949  0.00  0.00    -0.042 A 
ATOM      5  C5  UNL d   1       4.507   0.840   3.890  0.00  0.00     0.033 A 
ATOM      6  C6  UNL d   1       4.861  -0.512   3.883  0.00  0.00    -0.057 A 
ENDROOT
BRANCH   1   7
ATOM      7  N   UNL d   1       5.998  -2.416   4.812  0.00  0.00    -0.732 N 
ATOM      8  C   UNL d   1       5.992  -3.298   5.960  0.00  0.00     0.284 C 
ATOM      9  H3  UNL d   1       5.661  -2.848   3.955  0.00  0.00     0.395 HD
ENDBRANCH   1   7
TORSDOF 1
ENDMDL
