MODEL 1
REMARK minimizedAffinity -2.01745915
REMARK minimizedRMSD -1
REMARK  1 active torsions:
REMARK  status: ('A' for Active; 'I' for Inactive)
REMARK    1  A    between atoms: N_2  and  C1_3 
ROOT
ATOM      1  C1  UNL d   1       5.624   1.239   5.188  0.00  0.00     0.143 A 
ATOM      2  C2  UNL d   1       5.219   1.364   3.854  0.00  0.00    -0.057 A 
ATOM      3  C3  UNL d   1       5.228   2.605   3.206  0.00  0.00     0.033 A 
ATOM      4  C4  UNL d   1       5.617   3.752   3.891  0.00  0.00    -0.042 A 
ATOM      5  C5  UNL d   1       6.000   3.655   5.224  0.00  0.00     0.033 A 
ATOM      6  C6  UNL d   1       5.995   2.412   5.864  0.00  0.00    -0.057 A 
ENDROOT
BRANCH   1   7
ATOM      7  N   UNL d   1       5.543   0.050   5.917  0.00  0.00    -0.732 N 
ATOM      8  C   UNL d   1       5.607  -1.231   5.247  0.00  0.00     0.284 C 
ATOM      9  H3  UNL d   1       6.069   0.092   6.787  0.00  0.00     0.395 HD
ENDBRANCH   1   7
TORSDOF 1
ENDMDL
