MODEL 1
REMARK minimizedAffinity 1.47449946
REMARK minimizedRMSD -1
REMARK  1 active torsions:
REMARK  status: ('A' for Active; 'I' for Inactive)
REMARK    1  A    between atoms: N_2  and  C1_3 
ROOT
ATOM      1  C1  UNL d   1       5.830   2.771   5.208  0.00  0.00     0.143 A 
ATOM      2  C2  UNL d   1       5.675   1.488   5.745  0.00  0.00    -0.057 A 
ATOM      3  C3  UNL d   1       5.407   0.385   4.925  0.00  0.00     0.033 A 
ATOM      4  C4  UNL d   1       5.259   0.551   3.552  0.00  0.00    -0.042 A 
ATOM      5  C5  UNL d   1       5.384   1.821   2.999  0.00  0.00     0.033 A 
ATOM      6  C6  UNL d   1       5.659   2.917   3.822  0.00  0.00    -0.057 A 
ENDROOT
BRANCH   1   7
ATOM      7  N   UNL d   1       6.000   3.922   5.980  0.00  0.00    -0.732 N 
ATOM      8  C   UNL d   1       5.999   5.231   5.362  0.00  0.00     0.284 C 
ATOM      9  H3  UNL d   1       5.492   3.878   6.860  0.00  0.00     0.395 HD
ENDBRANCH   1   7
TORSDOF 1
ENDMDL
