MODEL 1
REMARK minimizedAffinity 3.14894652
REMARK minimizedRMSD -1
REMARK  1 active torsions:
REMARK  status: ('A' for Active; 'I' for Inactive)
REMARK    1  A    between atoms: N_2  and  C1_3 
ROOT
ATOM      1  C1  UNL d   1       0.831  -0.017  -2.248  0.00  0.00     0.143 A 
ATOM      2  C2  UNL d   1       1.609  -1.172  -2.384  0.00  0.00    -0.057 A 
ATOM      3  C3  UNL d   1       1.457  -2.256  -1.511  0.00  0.00     0.033 A 
ATOM      4  C4  UNL d   1       0.542  -2.193  -0.466  0.00  0.00    -0.042 A 
ATOM      5  C5  UNL d   1      -0.224  -1.045  -0.296  0.00  0.00     0.033 A 
ATOM      6  C6  UNL d   1      -0.073   0.032  -1.175  0.00  0.00    -0.057 A 
ENDROOT
BRANCH   1   7
ATOM      7  N   UNL d   1       1.004   1.133  -3.022  0.00  0.00    -0.732 N 
ATOM      8  C   UNL d   1       1.448   1.037  -4.396  0.00  0.00     0.284 C 
ATOM      9  H3  UNL d   1       0.267   1.818  -2.871  0.00  0.00     0.395 HD
ENDBRANCH   1   7
TORSDOF 1
ENDMDL
