MODEL 1
REMARK minimizedAffinity -3.31621575
REMARK minimizedRMSD -1
REMARK  1 active torsions:
REMARK  status: ('A' for Active; 'I' for Inactive)
REMARK    1  A    between atoms: N_2  and  C1_3 
ROOT
ATOM      1  C1  UNL d   1       5.618   2.130   4.821  0.00  0.00     0.143 A 
ATOM      2  C2  UNL d   1       5.660   1.375   5.998  0.00  0.00    -0.057 A 
ATOM      3  C3  UNL d   1       5.706  -0.024   5.962  0.00  0.00     0.033 A 
ATOM      4  C4  UNL d   1       5.682  -0.695   4.744  0.00  0.00    -0.042 A 
ATOM      5  C5  UNL d   1       5.616   0.034   3.562  0.00  0.00     0.033 A 
ATOM      6  C6  UNL d   1       5.576   1.431   3.605  0.00  0.00    -0.057 A 
ENDROOT
BRANCH   1   7
ATOM      7  N   UNL d   1       5.471   3.519   4.794  0.00  0.00    -0.732 N 
ATOM      8  C   UNL d   1       5.999   4.338   5.863  0.00  0.00     0.284 C 
ATOM      9  H3  UNL d   1       5.615   3.906   3.864  0.00  0.00     0.395 HD
ENDBRANCH   1   7
TORSDOF 1
ENDMDL
