MODEL 1
REMARK minimizedAffinity -2.36633086
REMARK minimizedRMSD -1
REMARK  1 active torsions:
REMARK  status: ('A' for Active; 'I' for Inactive)
REMARK    1  A    between atoms: N_2  and  C1_3 
ROOT
ATOM      1  C1  UNL d   1       5.282   2.208   5.131  0.00  0.00     0.143 A 
ATOM      2  C2  UNL d   1       5.324   1.112   5.999  0.00  0.00    -0.057 A 
ATOM      3  C3  UNL d   1       5.548  -0.185   5.521  0.00  0.00     0.033 A 
ATOM      4  C4  UNL d   1       5.706  -0.412   4.158  0.00  0.00    -0.042 A 
ATOM      5  C5  UNL d   1       5.643   0.659   3.274  0.00  0.00     0.033 A 
ATOM      6  C6  UNL d   1       5.425   1.953   3.758  0.00  0.00    -0.057 A 
ENDROOT
BRANCH   1   7
ATOM      7  N   UNL d   1       4.965   3.508   5.534  0.00  0.00    -0.732 N 
ATOM      8  C   UNL d   1       5.999   4.410   5.994  0.00  0.00     0.284 C 
ATOM      9  H3  UNL d   1       4.272   3.944   4.930  0.00  0.00     0.395 HD
ENDBRANCH   1   7
TORSDOF 1
ENDMDL
