MODEL 1
REMARK minimizedAffinity -2.48513246
REMARK minimizedRMSD -1
REMARK  1 active torsions:
REMARK  status: ('A' for Active; 'I' for Inactive)
REMARK    1  A    between atoms: N_2  and  C1_3 
ROOT
ATOM      1  C1  UNL d   1       5.995   3.149   4.765  0.00  0.00     0.143 A 
ATOM      2  C2  UNL d   1       5.999   3.372   3.384  0.00  0.00    -0.057 A 
ATOM      3  C3  UNL d   1       5.997   4.670   2.858  0.00  0.00     0.033 A 
ATOM      4  C4  UNL d   1       5.961   5.771   3.708  0.00  0.00    -0.042 A 
ATOM      5  C5  UNL d   1       5.931   5.572   5.084  0.00  0.00     0.033 A 
ATOM      6  C6  UNL d   1       5.940   4.274   5.602  0.00  0.00    -0.057 A 
ENDROOT
BRANCH   1   7
ATOM      7  N   UNL d   1       5.897   1.883   5.348  0.00  0.00    -0.732 N 
ATOM      8  C   UNL d   1       6.000   0.688   4.537  0.00  0.00     0.284 C 
ATOM      9  H3  UNL d   1       6.388   1.825   6.237  0.00  0.00     0.395 HD
ENDBRANCH   1   7
TORSDOF 1
ENDMDL
