MODEL 1
REMARK minimizedAffinity -3.26041079
REMARK minimizedRMSD -1
REMARK  1 active torsions:
REMARK  status: ('A' for Active; 'I' for Inactive)
REMARK    1  A    between atoms: C1_2  and  C2_3 
ROOT
ATOM      1  C2  UNL d   1       2.785   2.158   1.212  0.00  0.00    -0.081 A 
ATOM      2  C3  UNL d   1       3.086   3.165   2.138  0.00  0.00     0.006 A 
ATOM      3  C4  UNL d   1       3.658   4.367   1.717  0.00  0.00     0.002 A 
ATOM      4  C5  UNL d   1       3.932   4.587   0.363  0.00  0.00    -0.080 A 
ATOM      5  C6  UNL d   1       4.519   5.885  -0.106  0.00  0.00     0.076 C 
ATOM      6  C7  UNL d   1       3.649   3.575  -0.560  0.00  0.00     0.002 A 
ATOM      7  C8  UNL d   1       3.077   2.372  -0.140  0.00  0.00     0.006 A 
ENDROOT
BRANCH   1   8
ATOM      8  C1  UNL d   1       2.109   0.886   1.654  0.00  0.00     0.054 C 
ATOM      9  C   UNL d   1       1.148   0.372   0.592  0.00  0.00     0.018 C 
ENDBRANCH   1   8
TORSDOF 1
ENDMDL
