MODEL 1
REMARK minimizedAffinity -3.43880582
REMARK minimizedRMSD -1
REMARK  1 active torsions:
REMARK  status: ('A' for Active; 'I' for Inactive)
REMARK    1  A    between atoms: C1_2  and  C2_3 
ROOT
ATOM      1  C2  UNL d   1       2.399   1.587   1.142  0.00  0.00    -0.081 A 
ATOM      2  C3  UNL d   1       1.505   0.516   1.024  0.00  0.00     0.006 A 
ATOM      3  C4  UNL d   1       1.398  -0.189  -0.177  0.00  0.00     0.002 A 
ATOM      4  C5  UNL d   1       2.190   0.159  -1.277  0.00  0.00    -0.080 A 
ATOM      5  C6  UNL d   1       2.107  -0.609  -2.562  0.00  0.00     0.076 C 
ATOM      6  C7  UNL d   1       3.071   1.240  -1.165  0.00  0.00     0.002 A 
ATOM      7  C8  UNL d   1       3.177   1.946   0.036  0.00  0.00     0.006 A 
ENDROOT
BRANCH   1   8
ATOM      8  C1  UNL d   1       2.563   2.308   2.456  0.00  0.00     0.054 C 
ATOM      9  C   UNL d   1       3.428   1.510   3.421  0.00  0.00     0.018 C 
ENDBRANCH   1   8
TORSDOF 1
ENDMDL
