MODEL 1
REMARK minimizedAffinity 0.201805174
REMARK minimizedRMSD -1
REMARK  1 active torsions:
REMARK  status: ('A' for Active; 'I' for Inactive)
REMARK    1  A    between atoms: C1_2  and  C2_3 
ROOT
ATOM      1  C2  UNL d   1       0.776   0.011   1.100  0.00  0.00    -0.081 A 
ATOM      2  C3  UNL d   1       1.156   0.636   2.295  0.00  0.00     0.006 A 
ATOM      3  C4  UNL d   1       1.895   1.820   2.271  0.00  0.00     0.002 A 
ATOM      4  C5  UNL d   1       2.261   2.404   1.053  0.00  0.00    -0.080 A 
ATOM      5  C6  UNL d   1       3.029   3.692   1.014  0.00  0.00     0.076 C 
ATOM      6  C7  UNL d   1       1.897   1.771  -0.140  0.00  0.00     0.002 A 
ATOM      7  C8  UNL d   1       1.158   0.586  -0.117  0.00  0.00     0.006 A 
ENDROOT
BRANCH   1   8
ATOM      8  C1  UNL d   1      -0.076  -1.232   1.122  0.00  0.00     0.054 C 
ATOM      9  C   UNL d   1      -1.558  -0.886   1.098  0.00  0.00     0.018 C 
ENDBRANCH   1   8
TORSDOF 1
ENDMDL
