MODEL 1
REMARK minimizedAffinity -1.07501793
REMARK minimizedRMSD -1
REMARK  1 active torsions:
REMARK  status: ('A' for Active; 'I' for Inactive)
REMARK    1  A    between atoms: C1_2  and  C2_3 
ROOT
ATOM      1  C2  UNL d   1       1.630   0.695  -1.193  0.00  0.00    -0.081 A 
ATOM      2  C3  UNL d   1       0.661   0.589  -0.188  0.00  0.00     0.006 A 
ATOM      3  C4  UNL d   1       0.677   1.458   0.906  0.00  0.00     0.002 A 
ATOM      4  C5  UNL d   1       1.656   2.452   1.008  0.00  0.00    -0.080 A 
ATOM      5  C6  UNL d   1       1.667   3.411   2.162  0.00  0.00     0.076 C 
ATOM      6  C7  UNL d   1       2.634   2.547   0.013  0.00  0.00     0.002 A 
ATOM      7  C8  UNL d   1       2.619   1.678  -1.080  0.00  0.00     0.006 A 
ENDROOT
BRANCH   1   8
ATOM      8  C1  UNL d   1       1.577  -0.198  -2.406  0.00  0.00     0.054 C 
ATOM      9  C   UNL d   1       2.971  -0.475  -2.951  0.00  0.00     0.018 C 
ENDBRANCH   1   8
TORSDOF 1
ENDMDL
