MODEL 1
REMARK minimizedAffinity 1.02997851
REMARK minimizedRMSD -1
REMARK  1 active torsions:
REMARK  status: ('A' for Active; 'I' for Inactive)
REMARK    1  A    between atoms: C1_2  and  C2_3 
ROOT
ATOM      1  C2  UNL d   1       2.605   2.339   0.808  0.00  0.00    -0.081 A 
ATOM      2  C3  UNL d   1       2.012   1.754  -0.318  0.00  0.00     0.006 A 
ATOM      3  C4  UNL d   1       1.107   0.699  -0.174  0.00  0.00     0.002 A 
ATOM      4  C5  UNL d   1       0.775   0.217   1.097  0.00  0.00    -0.080 A 
ATOM      5  C6  UNL d   1      -0.218  -0.894   1.267  0.00  0.00     0.076 C 
ATOM      6  C7  UNL d   1       1.381   0.790   2.220  0.00  0.00     0.002 A 
ATOM      7  C8  UNL d   1       2.286   1.844   2.077  0.00  0.00     0.006 A 
ENDROOT
BRANCH   1   8
ATOM      8  C1  UNL d   1       3.531   3.519   0.659  0.00  0.00     0.054 C 
ATOM      9  C   UNL d   1       3.947   3.717  -0.791  0.00  0.00     0.018 C 
ENDBRANCH   1   8
TORSDOF 1
ENDMDL
