MODEL 1
REMARK minimizedAffinity -6.29723072
REMARK minimizedRMSD -1
REMARK  1 active torsions:
REMARK  status: ('A' for Active; 'I' for Inactive)
REMARK    1  A    between atoms: C1_2  and  C2_3 
ROOT
ATOM      1  C2  UNL d   1       2.138   2.136   1.013  0.00  0.00    -0.081 A 
ATOM      2  C3  UNL d   1       0.883   2.681   0.714  0.00  0.00     0.006 A 
ATOM      3  C4  UNL d   1      -0.256   1.872   0.706  0.00  0.00     0.002 A 
ATOM      4  C5  UNL d   1      -0.161   0.509   1.004  0.00  0.00    -0.080 A 
ATOM      5  C6  UNL d   1      -1.380  -0.364   1.029  0.00  0.00     0.076 C 
ATOM      6  C7  UNL d   1       1.095  -0.039   1.286  0.00  0.00     0.002 A 
ATOM      7  C8  UNL d   1       2.235   0.769   1.294  0.00  0.00     0.006 A 
ENDROOT
BRANCH   1   8
ATOM      8  C1  UNL d   1       3.358   3.018   1.087  0.00  0.00     0.054 C 
ATOM      9  C   UNL d   1       3.706   3.596  -0.278  0.00  0.00     0.018 C 
ENDBRANCH   1   8
TORSDOF 1
ENDMDL
