MODEL 1
REMARK minimizedAffinity -2.56969118
REMARK minimizedRMSD -1
REMARK  1 active torsions:
REMARK  status: ('A' for Active; 'I' for Inactive)
REMARK    1  A    between atoms: C1_2  and  C2_3 
ROOT
ATOM      1  C2  UNL d   1       0.364   0.056  -1.110  0.00  0.00    -0.081 A 
ATOM      2  C3  UNL d   1       0.262  -0.246   0.253  0.00  0.00     0.006 A 
ATOM      3  C4  UNL d   1      -0.965  -0.619   0.806  0.00  0.00     0.002 A 
ATOM      4  C5  UNL d   1      -2.109  -0.703   0.005  0.00  0.00    -0.080 A 
ATOM      5  C6  UNL d   1      -3.426  -1.130   0.581  0.00  0.00     0.076 C 
ATOM      6  C7  UNL d   1      -2.011  -0.384  -1.354  0.00  0.00     0.002 A 
ATOM      7  C8  UNL d   1      -0.784  -0.011  -1.907  0.00  0.00     0.006 A 
ENDROOT
BRANCH   1   8
ATOM      8  C1  UNL d   1       1.699   0.395  -1.723  0.00  0.00     0.054 C 
ATOM      9  C   UNL d   1       2.020  -0.524  -2.893  0.00  0.00     0.018 C 
ENDBRANCH   1   8
TORSDOF 1
ENDMDL
