MODEL 1
REMARK minimizedAffinity -3.65707827
REMARK minimizedRMSD -1
REMARK  1 active torsions:
REMARK  status: ('A' for Active; 'I' for Inactive)
REMARK    1  A    between atoms: C1_2  and  C2_3 
ROOT
ATOM      1  C2  UNL d   1       1.195  -0.076  -0.931  0.00  0.00    -0.081 A 
ATOM      2  C3  UNL d   1       0.960  -0.230   0.440  0.00  0.00     0.006 A 
ATOM      3  C4  UNL d   1      -0.346  -0.260   0.936  0.00  0.00     0.002 A 
ATOM      4  C5  UNL d   1      -1.437  -0.146   0.068  0.00  0.00    -0.080 A 
ATOM      5  C6  UNL d   1      -2.844  -0.208   0.583  0.00  0.00     0.076 C 
ATOM      6  C7  UNL d   1      -1.202   0.025  -1.300  0.00  0.00     0.002 A 
ATOM      7  C8  UNL d   1       0.104   0.057  -1.796  0.00  0.00     0.006 A 
ENDROOT
BRANCH   1   8
ATOM      8  C1  UNL d   1       2.601  -0.107  -1.476  0.00  0.00     0.054 C 
ATOM      9  C   UNL d   1       2.635  -0.680  -2.886  0.00  0.00     0.018 C 
ENDBRANCH   1   8
TORSDOF 1
ENDMDL
