MODEL 1
REMARK minimizedAffinity -1.53235078
REMARK minimizedRMSD -1
REMARK  1 active torsions:
REMARK  status: ('A' for Active; 'I' for Inactive)
REMARK    1  A    between atoms: C1_2  and  C2_3 
ROOT
ATOM      1  C2  UNL d   1       3.528   2.648   0.894  0.00  0.00    -0.081 A 
ATOM      2  C3  UNL d   1       3.056   3.750   1.617  0.00  0.00     0.006 A 
ATOM      3  C4  UNL d   1       2.959   3.695   3.009  0.00  0.00     0.002 A 
ATOM      4  C5  UNL d   1       3.338   2.540   3.702  0.00  0.00    -0.080 A 
ATOM      5  C6  UNL d   1       3.268   2.479   5.199  0.00  0.00     0.076 C 
ATOM      6  C7  UNL d   1       3.793   1.433   2.979  0.00  0.00     0.002 A 
ATOM      7  C8  UNL d   1       3.890   1.487   1.587  0.00  0.00     0.006 A 
ENDROOT
BRANCH   1   8
ATOM      8  C1  UNL d   1       3.695   2.727  -0.602  0.00  0.00     0.054 C 
ATOM      9  C   UNL d   1       4.577   3.902  -0.999  0.00  0.00     0.018 C 
ENDBRANCH   1   8
TORSDOF 1
ENDMDL
