MODEL 1
REMARK minimizedAffinity -3.26790357
REMARK minimizedRMSD -1
REMARK  1 active torsions:
REMARK  status: ('A' for Active; 'I' for Inactive)
REMARK    1  A    between atoms: C1_2  and  C2_3 
ROOT
ATOM      1  C2  UNL d   1      -2.050  -0.585  -0.551  0.00  0.00    -0.081 A 
ATOM      2  C3  UNL d   1      -0.830  -0.281   0.066  0.00  0.00     0.006 A 
ATOM      3  C4  UNL d   1      -0.406  -0.997   1.188  0.00  0.00     0.002 A 
ATOM      4  C5  UNL d   1      -1.190  -2.033   1.707  0.00  0.00    -0.080 A 
ATOM      5  C6  UNL d   1      -0.733  -2.829   2.893  0.00  0.00     0.076 C 
ATOM      6  C7  UNL d   1      -2.417  -2.325   1.102  0.00  0.00     0.002 A 
ATOM      7  C8  UNL d   1      -2.842  -1.609  -0.020  0.00  0.00     0.006 A 
ENDROOT
BRANCH   1   8
ATOM      8  C1  UNL d   1      -2.480   0.141  -1.800  0.00  0.00     0.054 C 
ATOM      9  C   UNL d   1      -2.488  -0.788  -3.005  0.00  0.00     0.018 C 
ENDBRANCH   1   8
TORSDOF 1
ENDMDL
