MODEL 1
REMARK minimizedAffinity -5.74587822
REMARK minimizedRMSD -1
REMARK  1 active torsions:
REMARK  status: ('A' for Active; 'I' for Inactive)
REMARK    1  A    between atoms: C1_2  and  C2_3 
ROOT
ATOM      1  C2  UNL d   1       0.157  -0.614   0.130  0.00  0.00    -0.081 A 
ATOM      2  C3  UNL d   1      -0.055  -1.720   0.962  0.00  0.00     0.006 A 
ATOM      3  C4  UNL d   1      -1.337  -2.255   1.116  0.00  0.00     0.002 A 
ATOM      4  C5  UNL d   1      -2.425  -1.698   0.436  0.00  0.00    -0.080 A 
ATOM      5  C6  UNL d   1      -3.800  -2.281   0.570  0.00  0.00     0.076 C 
ATOM      6  C7  UNL d   1      -2.216  -0.581  -0.381  0.00  0.00     0.002 A 
ATOM      7  C8  UNL d   1      -0.936  -0.046  -0.535  0.00  0.00     0.006 A 
ENDROOT
BRANCH   1   8
ATOM      8  C1  UNL d   1       1.547  -0.075  -0.089  0.00  0.00     0.054 C 
ATOM      9  C   UNL d   1       1.870   1.040   0.895  0.00  0.00     0.018 C 
ENDBRANCH   1   8
TORSDOF 1
ENDMDL
