MODEL 1
REMARK minimizedAffinity 6.77960253
REMARK minimizedRMSD -1
REMARK  0 active torsions:
REMARK  status: ('A' for Active; 'I' for Inactive)
ROOT
ATOM      1  O1  BZF d   1       3.529   0.767  -0.838  0.00  0.00    -0.204 OA
ATOM      2  C2  BZF d   1       2.672   1.002   0.219  0.00  0.00     0.174 A 
ATOM      3  C3  BZF d   1       1.855  -0.052   0.416  0.00  0.00    -0.012 A 
ATOM      4  C3A BZF d   1       2.286  -1.043  -0.523  0.00  0.00    -0.107 A 
ATOM      5  C4  BZF d   1       1.873  -2.314  -0.802  0.00  0.00     0.055 A 
ATOM      6  C5  BZF d   1       2.456  -2.987  -1.828  0.00  0.00    -0.016 A 
ATOM      7  C6  BZF d   1       3.449  -2.418  -2.599  0.00  0.00     0.022 A 
ATOM      8  C7  BZF d   1       3.895  -1.161  -2.357  0.00  0.00     0.029 A 
ATOM      9  C7A BZF d   1       3.331  -0.491  -1.300  0.00  0.00     0.058 A 
ENDROOT
TORSDOF 0
ENDMDL
