MODEL 1
REMARK minimizedAffinity 5.58268499
REMARK minimizedRMSD -1
REMARK  0 active torsions:
REMARK  status: ('A' for Active; 'I' for Inactive)
ROOT
ATOM      1  O1  BZF d   1       3.017   1.116  -0.134  0.00  0.00    -0.204 OA
ATOM      2  C2  BZF d   1       4.141   1.124  -0.937  0.00  0.00     0.174 A 
ATOM      3  C3  BZF d   1       4.413  -0.115  -1.393  0.00  0.00    -0.012 A 
ATOM      4  C3A BZF d   1       3.342  -0.935  -0.916  0.00  0.00    -0.107 A 
ATOM      5  C4  BZF d   1       3.041  -2.260  -1.052  0.00  0.00     0.055 A 
ATOM      6  C5  BZF d   1       1.960  -2.763  -0.400  0.00  0.00    -0.016 A 
ATOM      7  C6  BZF d   1       1.163  -1.972   0.401  0.00  0.00     0.022 A 
ATOM      8  C7  BZF d   1       1.418  -0.650   0.563  0.00  0.00     0.029 A 
ATOM      9  C7A BZF d   1       2.491  -0.133  -0.122  0.00  0.00     0.058 A 
ENDROOT
TORSDOF 0
ENDMDL
