MODEL 1
REMARK minimizedAffinity 4.64887381
REMARK minimizedRMSD -1
REMARK  0 active torsions:
REMARK  status: ('A' for Active; 'I' for Inactive)
ROOT
ATOM      1  O1  BZF d   1      -5.999   0.123  -1.804  0.00  0.00    -0.204 OA
ATOM      2  C2  BZF d   1      -5.880  -0.550  -0.604  0.00  0.00     0.174 A 
ATOM      3  C3  BZF d   1      -4.586  -0.811  -0.327  0.00  0.00    -0.012 A 
ATOM      4  C3A BZF d   1      -3.843  -0.185  -1.378  0.00  0.00    -0.107 A 
ATOM      5  C4  BZF d   1      -2.509  -0.079  -1.650  0.00  0.00     0.055 A 
ATOM      6  C5  BZF d   1      -2.116   0.536  -2.796  0.00  0.00    -0.016 A 
ATOM      7  C6  BZF d   1      -3.028   1.051  -3.694  0.00  0.00     0.022 A 
ATOM      8  C7  BZF d   1      -4.362   0.974  -3.465  0.00  0.00     0.029 A 
ATOM      9  C7A BZF d   1      -4.762   0.382  -2.291  0.00  0.00     0.058 A 
ENDROOT
TORSDOF 0
ENDMDL
