MODEL 1
REMARK minimizedAffinity 7.46748495
REMARK minimizedRMSD -1
REMARK  0 active torsions:
REMARK  status: ('A' for Active; 'I' for Inactive)
ROOT
ATOM      1  O1  BZF d   1      -4.918   2.950  -0.659  0.00  0.00    -0.204 OA
ATOM      2  C2  BZF d   1      -5.736   1.980  -1.205  0.00  0.00     0.174 A 
ATOM      3  C3  BZF d   1      -5.013   0.917  -1.612  0.00  0.00    -0.012 A 
ATOM      4  C3A BZF d   1      -3.668   1.203  -1.217  0.00  0.00    -0.107 A 
ATOM      5  C4  BZF d   1      -2.490   0.521  -1.329  0.00  0.00     0.055 A 
ATOM      6  C5  BZF d   1      -1.342   1.111  -0.906  0.00  0.00    -0.016 A 
ATOM      7  C6  BZF d   1      -1.333   2.383  -0.372  0.00  0.00     0.022 A 
ATOM      8  C7  BZF d   1      -2.476   3.097  -0.236  0.00  0.00     0.029 A 
ATOM      9  C7A BZF d   1      -3.643   2.491  -0.632  0.00  0.00     0.058 A 
ENDROOT
TORSDOF 0
ENDMDL
