MODEL 1
REMARK minimizedAffinity 4.02941513
REMARK minimizedRMSD -1
REMARK  0 active torsions:
REMARK  status: ('A' for Active; 'I' for Inactive)
ROOT
ATOM      1  O1  BZF d   1       3.347  -2.850  -0.959  0.00  0.00    -0.204 OA
ATOM      2  C2  BZF d   1       2.109  -3.257  -0.499  0.00  0.00     0.174 A 
ATOM      3  C3  BZF d   1       1.466  -2.239   0.108  0.00  0.00    -0.012 A 
ATOM      4  C3A BZF d   1       2.318  -1.102  -0.060  0.00  0.00    -0.107 A 
ATOM      5  C4  BZF d   1       2.219   0.208   0.312  0.00  0.00     0.055 A 
ATOM      6  C5  BZF d   1       3.259   1.047   0.060  0.00  0.00    -0.016 A 
ATOM      7  C6  BZF d   1       4.413   0.608  -0.555  0.00  0.00     0.022 A 
ATOM      8  C7  BZF d   1       4.555  -0.682  -0.947  0.00  0.00     0.029 A 
ATOM      9  C7A BZF d   1       3.493  -1.524  -0.723  0.00  0.00     0.058 A 
ENDROOT
TORSDOF 0
ENDMDL
