MODEL 1
REMARK minimizedAffinity 9.91750717
REMARK minimizedRMSD -1
REMARK  0 active torsions:
REMARK  status: ('A' for Active; 'I' for Inactive)
ROOT
ATOM      1  O1  BZF d   1      -0.738   0.726   3.584  0.00  0.00    -0.204 OA
ATOM      2  C2  BZF d   1       0.465   0.223   4.041  0.00  0.00     0.174 A 
ATOM      3  C3  BZF d   1       1.330   0.054   3.021  0.00  0.00    -0.012 A 
ATOM      4  C3A BZF d   1       0.656   0.564   1.867  0.00  0.00    -0.107 A 
ATOM      5  C4  BZF d   1       1.007   0.687   0.552  0.00  0.00     0.055 A 
ATOM      6  C5  BZF d   1       0.091   1.160  -0.334  0.00  0.00    -0.016 A 
ATOM      7  C6  BZF d   1      -1.183   1.514   0.058  0.00  0.00     0.022 A 
ATOM      8  C7  BZF d   1      -1.575   1.415   1.352  0.00  0.00     0.029 A 
ATOM      9  C7A BZF d   1      -0.642   0.968   2.255  0.00  0.00     0.058 A 
ENDROOT
TORSDOF 0
ENDMDL
