MODEL 1
REMARK minimizedAffinity 6.2217226
REMARK minimizedRMSD -1
REMARK  0 active torsions:
REMARK  status: ('A' for Active; 'I' for Inactive)
ROOT
ATOM      1  O1  BZF d   1      -0.066   1.019  -0.869  0.00  0.00    -0.204 OA
ATOM      2  C2  BZF d   1      -1.445   1.090  -0.827  0.00  0.00     0.174 A 
ATOM      3  C3  BZF d   1      -1.895   0.907   0.431  0.00  0.00    -0.012 A 
ATOM      4  C3A BZF d   1      -0.719   0.802   1.240  0.00  0.00    -0.107 A 
ATOM      5  C4  BZF d   1      -0.513   0.628   2.578  0.00  0.00     0.055 A 
ATOM      6  C5  BZF d   1       0.759   0.492   3.039  0.00  0.00    -0.016 A 
ATOM      7  C6  BZF d   1       1.845   0.520   2.189  0.00  0.00     0.022 A 
ATOM      8  C7  BZF d   1       1.691   0.695   0.854  0.00  0.00     0.029 A 
ATOM      9  C7A BZF d   1       0.409   0.866   0.390  0.00  0.00     0.058 A 
ENDROOT
TORSDOF 0
ENDMDL
