MODEL 1
REMARK minimizedAffinity 3.12109351
REMARK minimizedRMSD -1
REMARK  0 active torsions:
REMARK  status: ('A' for Active; 'I' for Inactive)
ROOT
ATOM      1  O1  BZF d   1      -0.696   0.765   3.697  0.00  0.00    -0.204 OA
ATOM      2  C2  BZF d   1       0.628   0.421   3.892  0.00  0.00     0.174 A 
ATOM      3  C3  BZF d   1       1.305   0.443   2.726  0.00  0.00    -0.012 A 
ATOM      4  C3A BZF d   1       0.366   0.915   1.755  0.00  0.00    -0.107 A 
ATOM      5  C4  BZF d   1       0.448   1.167   0.415  0.00  0.00     0.055 A 
ATOM      6  C5  BZF d   1      -0.670   1.550  -0.254  0.00  0.00    -0.016 A 
ATOM      7  C6  BZF d   1      -1.887   1.687   0.382  0.00  0.00     0.022 A 
ATOM      8  C7  BZF d   1      -2.016   1.453   1.711  0.00  0.00     0.029 A 
ATOM      9  C7A BZF d   1      -0.880   1.098   2.397  0.00  0.00     0.058 A 
ENDROOT
TORSDOF 0
ENDMDL
