MODEL 1
REMARK minimizedAffinity 3.26447821
REMARK minimizedRMSD -1
REMARK  0 active torsions:
REMARK  status: ('A' for Active; 'I' for Inactive)
ROOT
ATOM      1  O1  BZF d   1       4.232   1.659  -1.151  0.00  0.00    -0.204 OA
ATOM      2  C2  BZF d   1       3.675   2.195  -0.006  0.00  0.00     0.174 A 
ATOM      3  C3  BZF d   1       2.896   1.288   0.617  0.00  0.00    -0.012 A 
ATOM      4  C3A BZF d   1       3.044   0.083  -0.140  0.00  0.00    -0.107 A 
ATOM      5  C4  BZF d   1       2.530  -1.176  -0.010  0.00  0.00     0.055 A 
ATOM      6  C5  BZF d   1       2.814  -2.106  -0.959  0.00  0.00    -0.016 A 
ATOM      7  C6  BZF d   1       3.603  -1.811  -2.052  0.00  0.00     0.022 A 
ATOM      8  C7  BZF d   1       4.139  -0.578  -2.221  0.00  0.00     0.029 A 
ATOM      9  C7A BZF d   1       3.880   0.355  -1.246  0.00  0.00     0.058 A 
ENDROOT
TORSDOF 0
ENDMDL
