MODEL 1
REMARK minimizedAffinity 4.96553183
REMARK minimizedRMSD -1
REMARK  0 active torsions:
REMARK  status: ('A' for Active; 'I' for Inactive)
ROOT
ATOM      1  O1  BZF d   1       1.923  -3.131  -0.728  0.00  0.00    -0.204 OA
ATOM      2  C2  BZF d   1       1.185  -2.761   0.379  0.00  0.00     0.174 A 
ATOM      3  C3  BZF d   1       1.599  -1.569   0.855  0.00  0.00    -0.012 A 
ATOM      4  C3A BZF d   1       2.601  -1.125  -0.065  0.00  0.00    -0.107 A 
ATOM      5  C4  BZF d   1       3.375  -0.002  -0.140  0.00  0.00     0.055 A 
ATOM      6  C5  BZF d   1       4.309   0.091  -1.123  0.00  0.00    -0.016 A 
ATOM      7  C6  BZF d   1       4.500  -0.920  -2.042  0.00  0.00     0.022 A 
ATOM      8  C7  BZF d   1       3.753  -2.050  -2.010  0.00  0.00     0.029 A 
ATOM      9  C7A BZF d   1       2.786  -2.134  -1.039  0.00  0.00     0.058 A 
ENDROOT
TORSDOF 0
ENDMDL
