MODEL 1
REMARK minimizedAffinity 4.53173256
REMARK minimizedRMSD -1
REMARK  0 active torsions:
REMARK  status: ('A' for Active; 'I' for Inactive)
ROOT
ATOM      1  O1  BZF d   1       3.470  -2.571  -0.472  0.00  0.00    -0.204 OA
ATOM      2  C2  BZF d   1       2.254  -3.029  -0.000  0.00  0.00     0.174 A 
ATOM      3  C3  BZF d   1       1.482  -2.001   0.409  0.00  0.00    -0.012 A 
ATOM      4  C3A BZF d   1       2.228  -0.822   0.093  0.00  0.00    -0.107 A 
ATOM      5  C4  BZF d   1       1.981   0.513   0.243  0.00  0.00     0.055 A 
ATOM      6  C5  BZF d   1       2.946   1.406  -0.100  0.00  0.00    -0.016 A 
ATOM      7  C6  BZF d   1       4.170   0.999  -0.592  0.00  0.00     0.022 A 
ATOM      8  C7  BZF d   1       4.458  -0.314  -0.764  0.00  0.00     0.029 A 
ATOM      9  C7A BZF d   1       3.473  -1.217  -0.449  0.00  0.00     0.058 A 
ENDROOT
TORSDOF 0
ENDMDL
