MODEL 1
REMARK minimizedAffinity 20.0306702
REMARK minimizedRMSD -1
REMARK  0 active torsions:
REMARK  status: ('A' for Active; 'I' for Inactive)
ROOT
ATOM      1  C   UNL d   1      -4.670  -3.600  -5.490  0.00  0.00     0.124 A 
ATOM      2  C1  UNL d   1      -4.032  -4.800  -5.209  0.00  0.00     0.062 A 
ATOM      3  C2  UNL d   1      -2.677  -4.816  -4.893  0.00  0.00     0.162 A 
ATOM      4  C3  UNL d   1      -1.950  -3.627  -4.853  0.00  0.00    -0.034 A 
ATOM      5  C4  UNL d   1      -2.597  -2.423  -5.137  0.00  0.00     0.162 A 
ATOM      6  C5  UNL d   1      -3.952  -2.413  -5.453  0.00  0.00     0.062 A 
ATOM      7  F   UNL d   1      -4.566  -1.251  -5.723  0.00  0.00    -0.097 F 
ATOM      8  F1  UNL d   1      -1.928  -1.261  -5.108  0.00  0.00    -0.096 F 
ATOM      9  I   UNL d   1       0.077  -3.646  -4.380  0.00  0.00    -0.060 I 
ATOM     10  F2  UNL d   1      -2.087  -5.991  -4.627  0.00  0.00    -0.096 F 
ATOM     11  F3  UNL d   1      -4.723  -5.949  -5.245  0.00  0.00    -0.097 F 
ATOM     12  F4  UNL d   1      -5.974  -3.587  -5.795  0.00  0.00    -0.092 F 
ENDROOT
TORSDOF 0
ENDMDL
