MODEL 1
REMARK minimizedAffinity 21.1589928
REMARK minimizedRMSD -1
REMARK  0 active torsions:
REMARK  status: ('A' for Active; 'I' for Inactive)
ROOT
ATOM      1  C   UNL d   1      -0.554   2.747   1.341  0.00  0.00     0.124 A 
ATOM      2  C1  UNL d   1       0.122   2.489   0.157  0.00  0.00     0.062 A 
ATOM      3  C2  UNL d   1       0.094   3.414  -0.882  0.00  0.00     0.162 A 
ATOM      4  C3  UNL d   1      -0.613   4.609  -0.741  0.00  0.00    -0.034 A 
ATOM      5  C4  UNL d   1      -1.291   4.862   0.453  0.00  0.00     0.162 A 
ATOM      6  C5  UNL d   1      -1.260   3.933   1.488  0.00  0.00     0.062 A 
ATOM      7  F   UNL d   1      -1.913   4.185   2.631  0.00  0.00    -0.097 F 
ATOM      8  F1  UNL d   1      -1.980   6.000   0.622  0.00  0.00    -0.096 F 
ATOM      9  I   UNL d   1      -0.658   5.996  -2.292  0.00  0.00    -0.060 I 
ATOM     10  F2  UNL d   1       0.756   3.138  -2.015  0.00  0.00    -0.096 F 
ATOM     11  F3  UNL d   1       0.804   1.343   0.012  0.00  0.00    -0.097 F 
ATOM     12  F4  UNL d   1      -0.526   1.854   2.339  0.00  0.00    -0.092 F 
ENDROOT
TORSDOF 0
ENDMDL
