MODEL 1
REMARK minimizedAffinity 17.1061935
REMARK minimizedRMSD -1
REMARK  0 active torsions:
REMARK  status: ('A' for Active; 'I' for Inactive)
ROOT
ATOM      1  C   UNL d   1      -0.698   5.157  -2.812  0.00  0.00     0.124 A 
ATOM      2  C1  UNL d   1      -1.669   4.283  -2.343  0.00  0.00     0.062 A 
ATOM      3  C2  UNL d   1      -1.378   3.408  -1.301  0.00  0.00     0.162 A 
ATOM      4  C3  UNL d   1      -0.110   3.402  -0.720  0.00  0.00    -0.034 A 
ATOM      5  C4  UNL d   1       0.862   4.283  -1.198  0.00  0.00     0.162 A 
ATOM      6  C5  UNL d   1       0.566   5.156  -2.240  0.00  0.00     0.062 A 
ATOM      7  F   UNL d   1       1.505   6.000  -2.692  0.00  0.00    -0.097 F 
ATOM      8  F1  UNL d   1       2.091   4.304  -0.662  0.00  0.00    -0.096 F 
ATOM      9  I   UNL d   1       0.330   2.094   0.839  0.00  0.00    -0.060 I 
ATOM     10  F2  UNL d   1      -2.335   2.574  -0.867  0.00  0.00    -0.096 F 
ATOM     11  F3  UNL d   1      -2.891   4.282  -2.895  0.00  0.00    -0.097 F 
ATOM     12  F4  UNL d   1      -0.981   5.998  -3.815  0.00  0.00    -0.092 F 
ENDROOT
TORSDOF 0
ENDMDL
