MODEL 1
REMARK minimizedAffinity 16.5412521
REMARK minimizedRMSD -1
REMARK  0 active torsions:
REMARK  status: ('A' for Active; 'I' for Inactive)
ROOT
ATOM      1  C   UNL d   1       0.898   4.052  -1.127  0.00  0.00     0.124 A 
ATOM      2  C1  UNL d   1       0.076   3.028  -0.677  0.00  0.00     0.062 A 
ATOM      3  C2  UNL d   1      -1.249   2.958  -1.098  0.00  0.00     0.162 A 
ATOM      4  C3  UNL d   1      -1.761   3.915  -1.974  0.00  0.00    -0.034 A 
ATOM      5  C4  UNL d   1      -0.928   4.943  -2.421  0.00  0.00     0.162 A 
ATOM      6  C5  UNL d   1       0.395   5.008  -1.998  0.00  0.00     0.062 A 
ATOM      7  F   UNL d   1       1.188   5.999  -2.434  0.00  0.00    -0.097 F 
ATOM      8  F1  UNL d   1      -1.388   5.879  -3.264  0.00  0.00    -0.096 F 
ATOM      9  I   UNL d   1      -3.741   3.814  -2.605  0.00  0.00    -0.060 I 
ATOM     10  F2  UNL d   1      -2.020   1.957  -0.647  0.00  0.00    -0.096 F 
ATOM     11  F3  UNL d   1       0.559   2.104   0.165  0.00  0.00    -0.097 F 
ATOM     12  F4  UNL d   1       2.172   4.118  -0.720  0.00  0.00    -0.092 F 
ENDROOT
TORSDOF 0
ENDMDL
