MODEL 1
REMARK minimizedAffinity 18.3111267
REMARK minimizedRMSD -1
REMARK  0 active torsions:
REMARK  status: ('A' for Active; 'I' for Inactive)
ROOT
ATOM      1  C   UNL d   1       4.827  -4.919  -0.633  0.00  0.00     0.124 A 
ATOM      2  C1  UNL d   1       3.704  -4.366  -0.033  0.00  0.00     0.062 A 
ATOM      3  C2  UNL d   1       2.484  -4.358  -0.703  0.00  0.00     0.162 A 
ATOM      4  C3  UNL d   1       2.380  -4.906  -1.982  0.00  0.00    -0.034 A 
ATOM      5  C4  UNL d   1       3.514  -5.459  -2.580  0.00  0.00     0.162 A 
ATOM      6  C5  UNL d   1       4.731  -5.465  -1.905  0.00  0.00     0.062 A 
ATOM      7  F   UNL d   1       5.814  -6.000  -2.487  0.00  0.00    -0.097 F 
ATOM      8  F1  UNL d   1       3.449  -5.994  -3.808  0.00  0.00    -0.096 F 
ATOM      9  I   UNL d   1       0.558  -4.896  -2.988  0.00  0.00    -0.060 I 
ATOM     10  F2  UNL d   1       1.416  -3.817  -0.099  0.00  0.00    -0.096 F 
ATOM     11  F3  UNL d   1       3.794  -3.838   1.196  0.00  0.00    -0.097 F 
ATOM     12  F4  UNL d   1       5.999  -4.925   0.014  0.00  0.00    -0.092 F 
ENDROOT
TORSDOF 0
ENDMDL
