MODEL 1
REMARK minimizedAffinity 15.554781
REMARK minimizedRMSD -1
REMARK  0 active torsions:
REMARK  status: ('A' for Active; 'I' for Inactive)
ROOT
ATOM      1  C   UNL d   1      -0.495   4.074  -0.959  0.00  0.00     0.124 A 
ATOM      2  C1  UNL d   1      -0.540   2.834  -0.335  0.00  0.00     0.062 A 
ATOM      3  C2  UNL d   1      -1.561   1.937  -0.633  0.00  0.00     0.162 A 
ATOM      4  C3  UNL d   1      -2.547   2.275  -1.560  0.00  0.00    -0.034 A 
ATOM      5  C4  UNL d   1      -2.496   3.524  -2.182  0.00  0.00     0.162 A 
ATOM      6  C5  UNL d   1      -1.473   4.417  -1.881  0.00  0.00     0.062 A 
ATOM      7  F   UNL d   1      -1.432   5.614  -2.484  0.00  0.00    -0.097 F 
ATOM      8  F1  UNL d   1      -3.428   3.882  -3.079  0.00  0.00    -0.096 F 
ATOM      9  I   UNL d   1      -4.076   0.936  -2.008  0.00  0.00    -0.060 I 
ATOM     10  F2  UNL d   1      -1.579   0.746  -0.016  0.00  0.00    -0.096 F 
ATOM     11  F3  UNL d   1       0.404   2.500   0.557  0.00  0.00    -0.097 F 
ATOM     12  F4  UNL d   1       0.488   4.936  -0.669  0.00  0.00    -0.092 F 
ENDROOT
TORSDOF 0
ENDMDL
