MODEL 1
REMARK minimizedAffinity 15.6014042
REMARK minimizedRMSD -1
REMARK  0 active torsions:
REMARK  status: ('A' for Active; 'I' for Inactive)
ROOT
ATOM      1  C   UNL d   1      -4.178   5.777   0.470  0.00  0.00     0.124 A 
ATOM      2  C1  UNL d   1      -3.045   5.875   1.266  0.00  0.00     0.062 A 
ATOM      3  C2  UNL d   1      -1.779   5.841   0.689  0.00  0.00     0.162 A 
ATOM      4  C3  UNL d   1      -1.639   5.711  -0.693  0.00  0.00    -0.034 A 
ATOM      5  C4  UNL d   1      -2.783   5.613  -1.487  0.00  0.00     0.162 A 
ATOM      6  C5  UNL d   1      -4.046   5.647  -0.905  0.00  0.00     0.062 A 
ATOM      7  F   UNL d   1      -5.140   5.553  -1.675  0.00  0.00    -0.097 F 
ATOM      8  F1  UNL d   1      -2.685   5.487  -2.818  0.00  0.00    -0.096 F 
ATOM      9  I   UNL d   1       0.252   5.661  -1.560  0.00  0.00    -0.060 I 
ATOM     10  F2  UNL d   1      -0.702   5.937   1.482  0.00  0.00    -0.096 F 
ATOM     11  F3  UNL d   1      -3.170   6.000   2.595  0.00  0.00    -0.097 F 
ATOM     12  F4  UNL d   1      -5.395   5.809   1.029  0.00  0.00    -0.092 F 
ENDROOT
TORSDOF 0
ENDMDL
