MODEL 1
REMARK minimizedAffinity 19.2964268
REMARK minimizedRMSD -1
REMARK  0 active torsions:
REMARK  status: ('A' for Active; 'I' for Inactive)
ROOT
ATOM      1  C   UNL d   1       0.774   2.571  -0.544  0.00  0.00     0.124 A 
ATOM      2  C1  UNL d   1      -0.029   2.303   0.556  0.00  0.00     0.062 A 
ATOM      3  C2  UNL d   1      -0.888   3.280   1.051  0.00  0.00     0.162 A 
ATOM      4  C3  UNL d   1      -0.949   4.536   0.446  0.00  0.00    -0.034 A 
ATOM      5  C4  UNL d   1      -0.137   4.798  -0.659  0.00  0.00     0.162 A 
ATOM      6  C5  UNL d   1       0.719   3.818  -1.150  0.00  0.00     0.062 A 
ATOM      7  F   UNL d   1       1.494   4.079  -2.213  0.00  0.00    -0.097 F 
ATOM      8  F1  UNL d   1      -0.170   5.994  -1.265  0.00  0.00    -0.096 F 
ATOM      9  I   UNL d   1      -2.231   6.000   1.183  0.00  0.00    -0.060 I 
ATOM     10  F2  UNL d   1      -1.652   2.993   2.115  0.00  0.00    -0.096 F 
ATOM     11  F3  UNL d   1       0.022   1.099   1.144  0.00  0.00    -0.097 F 
ATOM     12  F4  UNL d   1       1.599   1.629  -1.017  0.00  0.00    -0.092 F 
ENDROOT
TORSDOF 0
ENDMDL
