MODEL 1
REMARK minimizedAffinity 31.7240276
REMARK minimizedRMSD -1
REMARK  0 active torsions:
REMARK  status: ('A' for Active; 'I' for Inactive)
ROOT
ATOM      1  C   UNL d   1       2.248  -1.372   2.467  0.00  0.00     0.124 A 
ATOM      2  C1  UNL d   1       2.409  -0.926   1.163  0.00  0.00     0.062 A 
ATOM      3  C2  UNL d   1       2.253  -1.808   0.097  0.00  0.00     0.162 A 
ATOM      4  C3  UNL d   1       1.932  -3.145   0.331  0.00  0.00    -0.034 A 
ATOM      5  C4  UNL d   1       1.772  -3.587   1.646  0.00  0.00     0.162 A 
ATOM      6  C5  UNL d   1       1.930  -2.702   2.708  0.00  0.00     0.062 A 
ATOM      7  F   UNL d   1       1.773  -3.134   3.967  0.00  0.00    -0.097 F 
ATOM      8  F1  UNL d   1       1.464  -4.866   1.907  0.00  0.00    -0.096 F 
ATOM      9  I   UNL d   1       1.698  -4.467  -1.259  0.00  0.00    -0.060 I 
ATOM     10  F2  UNL d   1       2.415  -1.349  -1.153  0.00  0.00    -0.096 F 
ATOM     11  F3  UNL d   1       2.718   0.357   0.928  0.00  0.00    -0.097 F 
ATOM     12  F4  UNL d   1       2.400  -0.522   3.491  0.00  0.00    -0.092 F 
ENDROOT
TORSDOF 0
ENDMDL
