MODEL 1
REMARK minimizedAffinity 20.7210407
REMARK minimizedRMSD -1
REMARK  0 active torsions:
REMARK  status: ('A' for Active; 'I' for Inactive)
ROOT
ATOM      1  C   UNL d   1       1.104  -3.742  -0.748  0.00  0.00     0.124 A 
ATOM      2  C1  UNL d   1       1.852  -2.695  -0.228  0.00  0.00     0.062 A 
ATOM      3  C2  UNL d   1       3.242  -2.755  -0.239  0.00  0.00     0.162 A 
ATOM      4  C3  UNL d   1       3.895  -3.865  -0.775  0.00  0.00    -0.034 A 
ATOM      5  C4  UNL d   1       3.136  -4.915  -1.296  0.00  0.00     0.162 A 
ATOM      6  C5  UNL d   1       1.746  -4.851  -1.282  0.00  0.00     0.062 A 
ATOM      7  F   UNL d   1       1.026  -5.863  -1.785  0.00  0.00    -0.097 F 
ATOM      8  F1  UNL d   1       3.731  -5.997  -1.818  0.00  0.00    -0.096 F 
ATOM      9  I   UNL d   1       5.974  -3.958  -0.794  0.00  0.00    -0.060 I 
ATOM     10  F2  UNL d   1       3.939  -1.728   0.271  0.00  0.00    -0.096 F 
ATOM     11  F3  UNL d   1       1.233  -1.624   0.289  0.00  0.00    -0.097 F 
ATOM     12  F4  UNL d   1      -0.234  -3.683  -0.735  0.00  0.00    -0.092 F 
ENDROOT
TORSDOF 0
ENDMDL
