MODEL 1
REMARK minimizedAffinity 4.51509094
REMARK minimizedRMSD -1
REMARK  1 active torsions:
REMARK  status: ('A' for Active; 'I' for Inactive)
REMARK    1  A    between atoms: C1_2  and  C2_3 
ROOT
ATOM      1  C2  UNL d   1       0.782   1.824   0.460  0.00  0.00    -0.077 A 
ATOM      2  C3  UNL d   1      -0.385   2.436  -0.016  0.00  0.00     0.002 A 
ATOM      3  C4  UNL d   1      -0.372   3.778  -0.403  0.00  0.00     0.002 A 
ATOM      4  C5  UNL d   1       0.807   4.516  -0.322  0.00  0.00    -0.004 A 
ATOM      5  C6  UNL d   1       1.973   3.916   0.153  0.00  0.00     0.002 A 
ATOM      6  C7  UNL d   1       1.961   2.576   0.541  0.00  0.00     0.002 A 
ENDROOT
BRANCH   1   7
ATOM      7  C1  UNL d   1       0.782   0.364   0.831  0.00  0.00     0.055 C 
ATOM      8  C   UNL d   1       1.741  -0.430  -0.044  0.00  0.00     0.019 C 
ENDBRANCH   1   7
TORSDOF 1
ENDMDL
