MODEL 1
REMARK minimizedAffinity 1.36235666
REMARK minimizedRMSD -1
REMARK  1 active torsions:
REMARK  status: ('A' for Active; 'I' for Inactive)
REMARK    1  A    between atoms: C1_2  and  C2_3 
ROOT
ATOM      1  C2  UNL d   1      -0.610   3.795  -0.428  0.00  0.00    -0.077 A 
ATOM      2  C3  UNL d   1       0.784   3.926  -0.497  0.00  0.00     0.002 A 
ATOM      3  C4  UNL d   1       1.359   5.023  -1.141  0.00  0.00     0.002 A 
ATOM      4  C5  UNL d   1       0.548   5.999  -1.718  0.00  0.00    -0.004 A 
ATOM      5  C6  UNL d   1      -0.839   5.876  -1.656  0.00  0.00     0.002 A 
ATOM      6  C7  UNL d   1      -1.416   4.779  -1.014  0.00  0.00     0.002 A 
ENDROOT
BRANCH   1   7
ATOM      7  C1  UNL d   1      -1.232   2.638   0.309  0.00  0.00     0.055 C 
ATOM      8  C   UNL d   1      -2.491   3.066   1.049  0.00  0.00     0.019 C 
ENDBRANCH   1   7
TORSDOF 1
ENDMDL
