MODEL 1
REMARK minimizedAffinity 12.0745811
REMARK minimizedRMSD -1
REMARK  1 active torsions:
REMARK  status: ('A' for Active; 'I' for Inactive)
REMARK    1  A    between atoms: C1_2  and  C2_3 
ROOT
ATOM      1  C2  UNL d   1      -1.739   3.610  -1.853  0.00  0.00    -0.077 A 
ATOM      2  C3  UNL d   1      -1.333   4.908  -2.195  0.00  0.00     0.002 A 
ATOM      3  C4  UNL d   1       0.011   5.275  -2.099  0.00  0.00     0.002 A 
ATOM      4  C5  UNL d   1       0.959   4.350  -1.666  0.00  0.00    -0.004 A 
ATOM      5  C6  UNL d   1       0.565   3.058  -1.322  0.00  0.00     0.002 A 
ATOM      6  C7  UNL d   1      -0.778   2.689  -1.416  0.00  0.00     0.002 A 
ENDROOT
BRANCH   1   7
ATOM      7  C1  UNL d   1      -3.180   3.197  -2.002  0.00  0.00     0.055 C 
ATOM      8  C   UNL d   1      -3.754   2.705  -0.682  0.00  0.00     0.019 C 
ENDBRANCH   1   7
TORSDOF 1
ENDMDL
