MODEL 1
REMARK minimizedAffinity 5.95650959
REMARK minimizedRMSD -1
REMARK  1 active torsions:
REMARK  status: ('A' for Active; 'I' for Inactive)
REMARK    1  A    between atoms: C1_2  and  C2_3 
ROOT
ATOM      1  C2  UNL d   1       3.156  -1.538   2.084  0.00  0.00    -0.077 A 
ATOM      2  C3  UNL d   1       3.796  -1.702   0.848  0.00  0.00     0.002 A 
ATOM      3  C4  UNL d   1       4.864  -2.593   0.719  0.00  0.00     0.002 A 
ATOM      4  C5  UNL d   1       5.297  -3.328   1.820  0.00  0.00    -0.004 A 
ATOM      5  C6  UNL d   1       4.667  -3.170   3.054  0.00  0.00     0.002 A 
ATOM      6  C7  UNL d   1       3.601  -2.280   3.185  0.00  0.00     0.002 A 
ENDROOT
BRANCH   1   7
ATOM      7  C1  UNL d   1       1.973  -0.614   2.213  0.00  0.00     0.055 C 
ATOM      8  C   UNL d   1       2.406   0.845   2.204  0.00  0.00     0.019 C 
ENDBRANCH   1   7
TORSDOF 1
ENDMDL
