MODEL 1
REMARK minimizedAffinity 4.63143444
REMARK minimizedRMSD -1
REMARK  1 active torsions:
REMARK  status: ('A' for Active; 'I' for Inactive)
REMARK    1  A    between atoms: C1_2  and  C2_3 
ROOT
ATOM      1  C2  UNL d   1      -0.362  -5.991  -4.596  0.00  0.00    -0.076 A 
ATOM      2  C3  UNL d   1       0.250  -6.000  -3.331  0.00  0.00     0.004 A 
ATOM      3  C4  UNL d   1      -0.513  -5.972  -2.164  0.00  0.00    -0.003 A 
ATOM      4  C5  UNL d   1      -1.901  -5.936  -2.245  0.00  0.00     0.000 A 
ATOM      5  C6  UNL d   1      -2.525  -5.945  -3.492  0.00  0.00     0.000 A 
ATOM      6  C7  UNL d   1      -1.771  -5.989  -4.677  0.00  0.00    -0.073 A 
ATOM      7  C8  UNL d   1      -2.496  -5.990  -5.995  0.00  0.00     0.078 C 
ENDROOT
BRANCH   1   8
ATOM      8  C1  UNL d   1       0.518  -5.994  -5.826  0.00  0.00     0.053 C 
ATOM      9  C   UNL d   1       1.831  -5.259  -5.605  0.00  0.00     0.018 C 
ENDBRANCH   1   8
TORSDOF 1
ENDMDL
