MODEL 1
REMARK minimizedAffinity 4.96821404
REMARK minimizedRMSD -1
REMARK  1 active torsions:
REMARK  status: ('A' for Active; 'I' for Inactive)
REMARK    1  A    between atoms: C1_2  and  C2_3 
ROOT
ATOM      1  C2  UNL d   1      -0.074  -5.930  -3.488  0.00  0.00    -0.076 A 
ATOM      2  C3  UNL d   1       1.328  -5.960  -3.393  0.00  0.00     0.004 A 
ATOM      3  C4  UNL d   1       2.124  -5.995  -4.536  0.00  0.00    -0.003 A 
ATOM      4  C5  UNL d   1       1.532  -6.000  -5.794  0.00  0.00     0.000 A 
ATOM      5  C6  UNL d   1       0.143  -5.952  -5.908  0.00  0.00     0.000 A 
ATOM      6  C7  UNL d   1      -0.674  -5.900  -4.765  0.00  0.00    -0.073 A 
ATOM      7  C8  UNL d   1      -2.167  -5.856  -4.947  0.00  0.00     0.078 C 
ENDROOT
BRANCH   1   8
ATOM      8  C1  UNL d   1      -0.887  -5.920  -2.214  0.00  0.00     0.053 C 
ATOM      9  C   UNL d   1      -2.373  -5.727  -2.472  0.00  0.00     0.018 C 
ENDBRANCH   1   8
TORSDOF 1
ENDMDL
