MODEL 1
REMARK minimizedAffinity 0.122989513
REMARK minimizedRMSD -1
REMARK  1 active torsions:
REMARK  status: ('A' for Active; 'I' for Inactive)
REMARK    1  A    between atoms: C1_2  and  C2_3 
ROOT
ATOM      1  C2  UNL d   1      -0.143  -5.913  -3.655  0.00  0.00    -0.076 A 
ATOM      2  C3  UNL d   1      -0.330  -5.950  -2.263  0.00  0.00     0.004 A 
ATOM      3  C4  UNL d   1      -1.610  -5.993  -1.711  0.00  0.00    -0.003 A 
ATOM      4  C5  UNL d   1      -2.723  -6.000  -2.544  0.00  0.00     0.000 A 
ATOM      5  C6  UNL d   1      -2.556  -5.982  -3.928  0.00  0.00     0.000 A 
ATOM      6  C7  UNL d   1      -1.273  -5.955  -4.501  0.00  0.00    -0.073 A 
ATOM      7  C8  UNL d   1      -1.151  -5.930  -6.000  0.00  0.00     0.078 C 
ENDROOT
BRANCH   1   8
ATOM      8  C1  UNL d   1       1.267  -5.840  -4.195  0.00  0.00     0.053 C 
ATOM      9  C   UNL d   1       2.317  -6.000  -3.106  0.00  0.00     0.018 C 
ENDBRANCH   1   8
TORSDOF 1
ENDMDL
