MODEL 1
REMARK minimizedAffinity 4.58038664
REMARK minimizedRMSD -1
REMARK  1 active torsions:
REMARK  status: ('A' for Active; 'I' for Inactive)
REMARK    1  A    between atoms: C1_2  and  C2_3 
ROOT
ATOM      1  C2  UNL d   1       4.800   2.428  -1.158  0.00  0.00    -0.076 A 
ATOM      2  C3  UNL d   1       3.642   1.642  -1.029  0.00  0.00     0.004 A 
ATOM      3  C4  UNL d   1       2.516   2.126  -0.365  0.00  0.00    -0.003 A 
ATOM      4  C5  UNL d   1       2.530   3.406   0.180  0.00  0.00     0.000 A 
ATOM      5  C6  UNL d   1       3.665   4.206   0.046  0.00  0.00     0.000 A 
ATOM      6  C7  UNL d   1       4.802   3.738  -0.635  0.00  0.00    -0.073 A 
ATOM      7  C8  UNL d   1       6.000   4.641  -0.744  0.00  0.00     0.078 C 
ENDROOT
BRANCH   1   8
ATOM      8  C1  UNL d   1       6.000   1.838  -1.865  0.00  0.00     0.053 C 
ATOM      9  C   UNL d   1       5.794   0.380  -2.245  0.00  0.00     0.018 C 
ENDBRANCH   1   8
TORSDOF 1
ENDMDL
