MODEL 1
REMARK minimizedAffinity 5.25470304
REMARK minimizedRMSD -1
REMARK  1 active torsions:
REMARK  status: ('A' for Active; 'I' for Inactive)
REMARK    1  A    between atoms: C1_2  and  C2_3 
ROOT
ATOM      1  C2  UNL d   1       0.852  -1.128   0.821  0.00  0.00    -0.076 A 
ATOM      2  C3  UNL d   1       1.085  -2.156   1.751  0.00  0.00     0.004 A 
ATOM      3  C4  UNL d   1       0.375  -3.354   1.689  0.00  0.00    -0.003 A 
ATOM      4  C5  UNL d   1      -0.579  -3.544   0.695  0.00  0.00     0.000 A 
ATOM      5  C6  UNL d   1      -0.811  -2.542  -0.246  0.00  0.00     0.000 A 
ATOM      6  C7  UNL d   1      -0.092  -1.334  -0.208  0.00  0.00    -0.073 A 
ATOM      7  C8  UNL d   1      -0.387  -0.285  -1.245  0.00  0.00     0.078 C 
ENDROOT
BRANCH   1   8
ATOM      8  C1  UNL d   1       1.632   0.160   0.954  0.00  0.00     0.053 C 
ATOM      9  C   UNL d   1       3.104  -0.013   0.612  0.00  0.00     0.018 C 
ENDBRANCH   1   8
TORSDOF 1
ENDMDL
