MODEL 1
REMARK minimizedAffinity 4.46611738
REMARK minimizedRMSD -1
REMARK  1 active torsions:
REMARK  status: ('A' for Active; 'I' for Inactive)
REMARK    1  A    between atoms: C1_2  and  C2_3 
ROOT
ATOM      1  C2  UNL d   1       1.933  -1.092   3.272  0.00  0.00    -0.076 A 
ATOM      2  C3  UNL d   1       0.819  -1.473   2.504  0.00  0.00     0.004 A 
ATOM      3  C4  UNL d   1       0.663  -1.024   1.194  0.00  0.00    -0.003 A 
ATOM      4  C5  UNL d   1       1.619  -0.187   0.630  0.00  0.00     0.000 A 
ATOM      5  C6  UNL d   1       2.740   0.187   1.370  0.00  0.00     0.000 A 
ATOM      6  C7  UNL d   1       2.920  -0.270   2.687  0.00  0.00    -0.073 A 
ATOM      7  C8  UNL d   1       4.145   0.169   3.442  0.00  0.00     0.078 C 
ENDROOT
BRANCH   1   8
ATOM      8  C1  UNL d   1       2.035  -1.588   4.697  0.00  0.00     0.053 C 
ATOM      9  C   UNL d   1       1.104  -2.758   4.974  0.00  0.00     0.018 C 
ENDBRANCH   1   8
TORSDOF 1
ENDMDL
