MODEL 1
REMARK minimizedAffinity 2.71972251
REMARK minimizedRMSD -1
REMARK  1 active torsions:
REMARK  status: ('A' for Active; 'I' for Inactive)
REMARK    1  A    between atoms: C1_2  and  C2_3 
ROOT
ATOM      1  C2  UNL d   1      -1.576  -5.157  -4.146  0.00  0.00    -0.076 A 
ATOM      2  C3  UNL d   1      -2.957  -4.919  -4.037  0.00  0.00     0.004 A 
ATOM      3  C4  UNL d   1      -3.648  -5.225  -2.866  0.00  0.00    -0.003 A 
ATOM      4  C5  UNL d   1      -2.969  -5.773  -1.784  0.00  0.00     0.000 A 
ATOM      5  C6  UNL d   1      -1.595  -6.000  -1.868  0.00  0.00     0.000 A 
ATOM      6  C7  UNL d   1      -0.881  -5.682  -3.036  0.00  0.00    -0.073 A 
ATOM      7  C8  UNL d   1       0.598  -5.953  -3.073  0.00  0.00     0.078 C 
ENDROOT
BRANCH   1   8
ATOM      8  C1  UNL d   1      -0.885  -4.831  -5.451  0.00  0.00     0.053 C 
ATOM      9  C   UNL d   1      -0.072  -5.999  -5.988  0.00  0.00     0.018 C 
ENDBRANCH   1   8
TORSDOF 1
ENDMDL
