MODEL 1
REMARK minimizedAffinity -1.56378973
REMARK minimizedRMSD -1
REMARK  1 active torsions:
REMARK  status: ('A' for Active; 'I' for Inactive)
REMARK    1  A    between atoms: C1_2  and  C2_3 
ROOT
ATOM      1  C2  UNL d   1      -0.866  -5.909  -4.469  0.00  0.00    -0.076 A 
ATOM      2  C3  UNL d   1      -1.580  -5.892  -5.680  0.00  0.00     0.004 A 
ATOM      3  C4  UNL d   1      -2.973  -5.938  -5.693  0.00  0.00    -0.003 A 
ATOM      4  C5  UNL d   1      -3.675  -6.000  -4.494  0.00  0.00     0.000 A 
ATOM      5  C6  UNL d   1      -2.984  -6.000  -3.283  0.00  0.00     0.000 A 
ATOM      6  C7  UNL d   1      -1.580  -5.938  -3.252  0.00  0.00    -0.073 A 
ATOM      7  C8  UNL d   1      -0.886  -5.947  -1.918  0.00  0.00     0.078 C 
ENDROOT
BRANCH   1   8
ATOM      8  C1  UNL d   1       0.645  -5.886  -4.518  0.00  0.00     0.053 C 
ATOM      9  C   UNL d   1       1.177  -5.518  -5.895  0.00  0.00     0.018 C 
ENDBRANCH   1   8
TORSDOF 1
ENDMDL
