MODEL 1
REMARK minimizedAffinity 0.670188367
REMARK minimizedRMSD -1
REMARK  1 active torsions:
REMARK  status: ('A' for Active; 'I' for Inactive)
REMARK    1  A    between atoms: C1_2  and  C2_3 
ROOT
ATOM      1  C2  UNL d   1      -1.698  -5.934  -3.255  0.00  0.00    -0.076 A 
ATOM      2  C3  UNL d   1      -2.467  -5.911  -4.431  0.00  0.00     0.004 A 
ATOM      3  C4  UNL d   1      -1.860  -5.839  -5.684  0.00  0.00    -0.003 A 
ATOM      4  C5  UNL d   1      -0.473  -5.789  -5.780  0.00  0.00     0.000 A 
ATOM      5  C6  UNL d   1       0.306  -5.829  -4.624  0.00  0.00     0.000 A 
ATOM      6  C7  UNL d   1      -0.290  -5.917  -3.355  0.00  0.00    -0.073 A 
ATOM      7  C8  UNL d   1       0.598  -5.950  -2.141  0.00  0.00     0.078 C 
ENDROOT
BRANCH   1   8
ATOM      8  C1  UNL d   1      -2.413  -5.985  -1.923  0.00  0.00     0.053 C 
ATOM      9  C   UNL d   1      -3.920  -5.834  -2.065  0.00  0.00     0.018 C 
ENDBRANCH   1   8
TORSDOF 1
ENDMDL
