MODEL 1
REMARK minimizedAffinity 13.2977638
REMARK minimizedRMSD -1
REMARK  0 active torsions:
REMARK  status: ('A' for Active; 'I' for Inactive)
ROOT
ATOM      1  C   UNL d   1      -6.000  -2.276  -4.347  0.00  0.00     0.078 C 
ATOM      2  C1  UNL d   1      -5.133  -3.231  -3.582  0.00  0.00    -0.077 A 
ATOM      3  C2  UNL d   1      -3.767  -2.981  -3.404  0.00  0.00    -0.001 A 
ATOM      4  C3  UNL d   1      -2.971  -3.884  -2.697  0.00  0.00     0.003 A 
ATOM      5  C4  UNL d   1      -3.531  -5.042  -2.164  0.00  0.00    -0.005 A 
ATOM      6  C5  UNL d   1      -4.889  -5.301  -2.337  0.00  0.00     0.003 A 
ATOM      7  C6  UNL d   1      -5.687  -4.399  -3.043  0.00  0.00    -0.001 A 
ENDROOT
TORSDOF 0
ENDMDL
