MODEL 1
REMARK minimizedAffinity 11.863265
REMARK minimizedRMSD -1
REMARK  0 active torsions:
REMARK  status: ('A' for Active; 'I' for Inactive)
ROOT
ATOM      1  C   UNL d   1      -2.627  -2.253   0.151  0.00  0.00     0.078 C 
ATOM      2  C1  UNL d   1      -2.266  -3.564   0.783  0.00  0.00    -0.077 A 
ATOM      3  C2  UNL d   1      -3.040  -4.709   0.561  0.00  0.00    -0.001 A 
ATOM      4  C3  UNL d   1      -2.698  -5.921   1.164  0.00  0.00     0.003 A 
ATOM      5  C4  UNL d   1      -1.581  -5.998   1.994  0.00  0.00    -0.005 A 
ATOM      6  C5  UNL d   1      -0.806  -4.863   2.222  0.00  0.00     0.003 A 
ATOM      7  C6  UNL d   1      -1.147  -3.651   1.620  0.00  0.00    -0.001 A 
ENDROOT
TORSDOF 0
ENDMDL
