MODEL 1
REMARK minimizedAffinity 3.56898189
REMARK minimizedRMSD -1
REMARK  0 active torsions:
REMARK  status: ('A' for Active; 'I' for Inactive)
ROOT
ATOM      1  C   UNL d   1       3.608  -0.942   1.766  0.00  0.00     0.078 C 
ATOM      2  C1  UNL d   1       2.327  -0.376   2.300  0.00  0.00    -0.077 A 
ATOM      3  C2  UNL d   1       1.769   0.787   1.755  0.00  0.00    -0.001 A 
ATOM      4  C3  UNL d   1       0.581   1.309   2.269  0.00  0.00     0.003 A 
ATOM      5  C4  UNL d   1      -0.059   0.675   3.332  0.00  0.00    -0.005 A 
ATOM      6  C5  UNL d   1       0.489  -0.482   3.883  0.00  0.00     0.003 A 
ATOM      7  C6  UNL d   1       1.677  -1.005   3.370  0.00  0.00    -0.001 A 
ENDROOT
TORSDOF 0
ENDMDL
