MODEL 1
REMARK minimizedAffinity 8.32484436
REMARK minimizedRMSD -1
REMARK  0 active torsions:
REMARK  status: ('A' for Active; 'I' for Inactive)
ROOT
ATOM      1  C   UNL d   1       3.410   3.180  -3.030  0.00  0.00     0.078 C 
ATOM      2  C1  UNL d   1       2.904   4.164  -4.043  0.00  0.00    -0.077 A 
ATOM      3  C2  UNL d   1       1.559   4.170  -4.434  0.00  0.00    -0.001 A 
ATOM      4  C3  UNL d   1       1.105   5.084  -5.385  0.00  0.00     0.003 A 
ATOM      5  C4  UNL d   1       1.988   5.999  -5.954  0.00  0.00    -0.005 A 
ATOM      6  C5  UNL d   1       3.328   6.000  -5.573  0.00  0.00     0.003 A 
ATOM      7  C6  UNL d   1       3.785   5.086  -4.622  0.00  0.00    -0.001 A 
ENDROOT
TORSDOF 0
ENDMDL
