MODEL 1
REMARK minimizedAffinity 7.74459457
REMARK minimizedRMSD -1
REMARK  0 active torsions:
REMARK  status: ('A' for Active; 'I' for Inactive)
ROOT
ATOM      1  C   UNL d   1      -1.898  -2.153   0.791  0.00  0.00     0.078 C 
ATOM      2  C1  UNL d   1      -1.669  -2.393  -0.671  0.00  0.00    -0.077 A 
ATOM      3  C2  UNL d   1      -2.735  -2.378  -1.580  0.00  0.00    -0.001 A 
ATOM      4  C3  UNL d   1      -2.508  -2.613  -2.937  0.00  0.00     0.003 A 
ATOM      5  C4  UNL d   1      -1.218  -2.866  -3.398  0.00  0.00    -0.005 A 
ATOM      6  C5  UNL d   1      -0.152  -2.886  -2.501  0.00  0.00     0.003 A 
ATOM      7  C6  UNL d   1      -0.376  -2.651  -1.143  0.00  0.00    -0.001 A 
ENDROOT
TORSDOF 0
ENDMDL
