MODEL 1
REMARK minimizedAffinity 5.37198496
REMARK minimizedRMSD -1
REMARK  0 active torsions:
REMARK  status: ('A' for Active; 'I' for Inactive)
ROOT
ATOM      1  C   UNL d   1      -1.024  -2.238  -4.617  0.00  0.00     0.078 C 
ATOM      2  C1  UNL d   1      -1.723  -2.359  -3.296  0.00  0.00    -0.077 A 
ATOM      3  C2  UNL d   1      -2.835  -3.196  -3.143  0.00  0.00    -0.001 A 
ATOM      4  C3  UNL d   1      -3.482  -3.292  -1.910  0.00  0.00     0.003 A 
ATOM      5  C4  UNL d   1      -3.026  -2.552  -0.821  0.00  0.00    -0.005 A 
ATOM      6  C5  UNL d   1      -1.922  -1.714  -0.964  0.00  0.00     0.003 A 
ATOM      7  C6  UNL d   1      -1.273  -1.617  -2.196  0.00  0.00    -0.001 A 
ENDROOT
TORSDOF 0
ENDMDL
