MODEL 1
REMARK minimizedAffinity 6.70158195
REMARK minimizedRMSD -1
REMARK  0 active torsions:
REMARK  status: ('A' for Active; 'I' for Inactive)
ROOT
ATOM      1  C   UNL d   1       4.931  -1.326   1.875  0.00  0.00     0.078 C 
ATOM      2  C1  UNL d   1       3.470  -1.147   2.165  0.00  0.00    -0.077 A 
ATOM      3  C2  UNL d   1       2.613  -0.573   1.218  0.00  0.00    -0.001 A 
ATOM      4  C3  UNL d   1       1.257  -0.403   1.505  0.00  0.00     0.003 A 
ATOM      5  C4  UNL d   1       0.747  -0.804   2.738  0.00  0.00    -0.005 A 
ATOM      6  C5  UNL d   1       1.593  -1.374   3.687  0.00  0.00     0.003 A 
ATOM      7  C6  UNL d   1       2.949  -1.544   3.402  0.00  0.00    -0.001 A 
ENDROOT
TORSDOF 0
ENDMDL
