MODEL 1
REMARK minimizedAffinity 0.766067266
REMARK minimizedRMSD -1
REMARK  0 active torsions:
REMARK  status: ('A' for Active; 'I' for Inactive)
ROOT
ATOM      1  C   UNL d   1       3.105   3.029   1.083  0.00  0.00     0.078 C 
ATOM      2  C1  UNL d   1       4.122   1.977   0.755  0.00  0.00    -0.077 A 
ATOM      3  C2  UNL d   1       5.062   2.175  -0.264  0.00  0.00    -0.001 A 
ATOM      4  C3  UNL d   1       5.996   1.183  -0.564  0.00  0.00     0.003 A 
ATOM      5  C4  UNL d   1       5.999  -0.014   0.148  0.00  0.00    -0.005 A 
ATOM      6  C5  UNL d   1       5.066  -0.222   1.162  0.00  0.00     0.003 A 
ATOM      7  C6  UNL d   1       4.131   0.769   1.464  0.00  0.00    -0.001 A 
ENDROOT
TORSDOF 0
ENDMDL
