MODEL 1
REMARK minimizedAffinity 5.28680897
REMARK minimizedRMSD -1
REMARK  0 active torsions:
REMARK  status: ('A' for Active; 'I' for Inactive)
ROOT
ATOM      1  C   UNL d   1       4.124   2.129  -3.097  0.00  0.00     0.078 C 
ATOM      2  C1  UNL d   1       4.404   0.852  -3.831  0.00  0.00    -0.077 A 
ATOM      3  C2  UNL d   1       3.360   0.024  -4.262  0.00  0.00    -0.001 A 
ATOM      4  C3  UNL d   1       3.635  -1.166  -4.936  0.00  0.00     0.003 A 
ATOM      5  C4  UNL d   1       4.954  -1.540  -5.185  0.00  0.00    -0.005 A 
ATOM      6  C5  UNL d   1       6.000  -0.724  -4.758  0.00  0.00     0.003 A 
ATOM      7  C6  UNL d   1       5.726   0.467  -4.084  0.00  0.00    -0.001 A 
ENDROOT
TORSDOF 0
ENDMDL
