MODEL 1
REMARK minimizedAffinity 3.527354
REMARK minimizedRMSD -1
REMARK  0 active torsions:
REMARK  status: ('A' for Active; 'I' for Inactive)
ROOT
ATOM      1  C   UNL d   1       5.528  -0.709   1.826  0.00  0.00     0.078 C 
ATOM      2  C1  UNL d   1       4.269   0.105   1.776  0.00  0.00    -0.077 A 
ATOM      3  C2  UNL d   1       3.125  -0.293   2.477  0.00  0.00    -0.001 A 
ATOM      4  C3  UNL d   1       1.957   0.470   2.414  0.00  0.00     0.003 A 
ATOM      5  C4  UNL d   1       1.923   1.634   1.649  0.00  0.00    -0.005 A 
ATOM      6  C5  UNL d   1       3.056   2.037   0.946  0.00  0.00     0.003 A 
ATOM      7  C6  UNL d   1       4.224   1.276   1.008  0.00  0.00    -0.001 A 
ENDROOT
TORSDOF 0
ENDMDL
