MODEL 1
REMARK minimizedAffinity 3.39593887
REMARK minimizedRMSD -1
REMARK  0 active torsions:
REMARK  status: ('A' for Active; 'I' for Inactive)
ROOT
ATOM      1  C   UNL d   1       2.523   2.441   1.300  0.00  0.00     0.078 C 
ATOM      2  C1  UNL d   1       3.738   1.717   0.802  0.00  0.00    -0.077 A 
ATOM      3  C2  UNL d   1       4.454   2.185  -0.306  0.00  0.00    -0.001 A 
ATOM      4  C3  UNL d   1       5.577   1.495  -0.764  0.00  0.00     0.003 A 
ATOM      5  C4  UNL d   1       5.994   0.332  -0.120  0.00  0.00    -0.005 A 
ATOM      6  C5  UNL d   1       5.287  -0.144   0.982  0.00  0.00     0.003 A 
ATOM      7  C6  UNL d   1       4.163   0.545   1.442  0.00  0.00    -0.001 A 
ENDROOT
TORSDOF 0
ENDMDL
