MODEL 1
REMARK minimizedAffinity 12.5918388
REMARK minimizedRMSD -1
REMARK  0 active torsions:
REMARK  status: ('A' for Active; 'I' for Inactive)
ROOT
ATOM      1  C   UNL d   1      -5.309  -3.578  -3.011  0.00  0.00     0.078 C 
ATOM      2  C1  UNL d   1      -3.994  -3.165  -2.419  0.00  0.00    -0.077 A 
ATOM      3  C2  UNL d   1      -3.907  -2.729  -1.092  0.00  0.00    -0.001 A 
ATOM      4  C3  UNL d   1      -2.678  -2.338  -0.557  0.00  0.00     0.003 A 
ATOM      5  C4  UNL d   1      -1.528  -2.379  -1.342  0.00  0.00    -0.005 A 
ATOM      6  C5  UNL d   1      -1.606  -2.810  -2.665  0.00  0.00     0.003 A 
ATOM      7  C6  UNL d   1      -2.833  -3.201  -3.202  0.00  0.00    -0.001 A 
ENDROOT
TORSDOF 0
ENDMDL
