MODEL 1
REMARK minimizedAffinity 10.8348274
REMARK minimizedRMSD -1
REMARK  0 active torsions:
REMARK  status: ('A' for Active; 'I' for Inactive)
ROOT
ATOM      1  C   UNL d   1       2.567   2.223  -1.780  0.00  0.00     0.078 C 
ATOM      2  C1  UNL d   1       3.675   1.654  -2.616  0.00  0.00    -0.077 A 
ATOM      3  C2  UNL d   1       4.976   1.544  -2.111  0.00  0.00    -0.001 A 
ATOM      4  C3  UNL d   1       5.999   1.022  -2.904  0.00  0.00     0.003 A 
ATOM      5  C4  UNL d   1       5.732   0.606  -4.207  0.00  0.00    -0.005 A 
ATOM      6  C5  UNL d   1       4.440   0.714  -4.719  0.00  0.00     0.003 A 
ATOM      7  C6  UNL d   1       3.416   1.236  -3.928  0.00  0.00    -0.001 A 
ENDROOT
TORSDOF 0
ENDMDL
