MODEL 1
REMARK minimizedAffinity -2.13921857
REMARK minimizedRMSD -1
REMARK  0 active torsions:
REMARK  status: ('A' for Active; 'I' for Inactive)
ROOT
ATOM      1  C   UNL d   1       5.123   2.559  -2.885  0.00  0.00     0.078 C 
ATOM      2  C1  UNL d   1       4.323   3.414  -3.820  0.00  0.00    -0.077 A 
ATOM      3  C2  UNL d   1       4.871   3.877  -5.023  0.00  0.00    -0.001 A 
ATOM      4  C3  UNL d   1       4.118   4.681  -5.880  0.00  0.00     0.003 A 
ATOM      5  C4  UNL d   1       2.811   5.030  -5.543  0.00  0.00    -0.005 A 
ATOM      6  C5  UNL d   1       2.258   4.576  -4.347  0.00  0.00     0.003 A 
ATOM      7  C6  UNL d   1       3.010   3.772  -3.489  0.00  0.00    -0.001 A 
ENDROOT
TORSDOF 0
ENDMDL
