MODEL 1
REMARK minimizedAffinity 4.50470781
REMARK minimizedRMSD -1
REMARK  1 active torsions:
REMARK  status: ('A' for Active; 'I' for Inactive)
REMARK    1  A    between atoms: C1_2  and  C2_3 
ROOT
ATOM      1  C2  UNL d   1       2.601   0.266   0.029  0.00  0.00    -0.073 A 
ATOM      2  C3  UNL d   1       3.489   1.335   0.196  0.00  0.00    -0.002 A 
ATOM      3  C4  UNL d   1       3.016   2.592   0.573  0.00  0.00     0.004 A 
ATOM      4  C5  UNL d   1       1.653   2.793   0.792  0.00  0.00    -0.004 A 
ATOM      5  C6  UNL d   1       0.751   1.735   0.641  0.00  0.00    -0.075 A 
ATOM      6  C7  UNL d   1      -0.718   1.934   0.871  0.00  0.00     0.076 C 
ATOM      7  C8  UNL d   1       1.234   0.475   0.260  0.00  0.00     0.001 A 
ENDROOT
BRANCH   1   8
ATOM      8  C1  UNL d   1       3.108  -1.095  -0.371  0.00  0.00     0.053 C 
ATOM      9  C   UNL d   1       2.432  -2.208   0.413  0.00  0.00     0.018 C 
ENDBRANCH   1   8
TORSDOF 1
ENDMDL
