MODEL 1
REMARK minimizedAffinity 2.52844286
REMARK minimizedRMSD -1
REMARK  1 active torsions:
REMARK  status: ('A' for Active; 'I' for Inactive)
REMARK    1  A    between atoms: C1_2  and  C2_3 
ROOT
ATOM      1  C2  UNL d   1       3.101   0.318   0.218  0.00  0.00    -0.073 A 
ATOM      2  C3  UNL d   1       3.724   1.485  -0.239  0.00  0.00    -0.002 A 
ATOM      3  C4  UNL d   1       3.150   2.733   0.008  0.00  0.00     0.004 A 
ATOM      4  C5  UNL d   1       1.954   2.828   0.719  0.00  0.00    -0.004 A 
ATOM      5  C6  UNL d   1       1.323   1.674   1.194  0.00  0.00    -0.075 A 
ATOM      6  C7  UNL d   1       0.035   1.758   1.959  0.00  0.00     0.076 C 
ATOM      7  C8  UNL d   1       1.904   0.424   0.940  0.00  0.00     0.001 A 
ENDROOT
BRANCH   1   8
ATOM      8  C1  UNL d   1       3.720  -1.031  -0.041  0.00  0.00     0.053 C 
ATOM      9  C   UNL d   1       2.678  -2.075  -0.408  0.00  0.00     0.018 C 
ENDBRANCH   1   8
TORSDOF 1
ENDMDL
