MODEL 1
REMARK minimizedAffinity 1.7747761
REMARK minimizedRMSD -1
REMARK  1 active torsions:
REMARK  status: ('A' for Active; 'I' for Inactive)
REMARK    1  A    between atoms: C1_2  and  C2_3 
ROOT
ATOM      1  C2  UNL d   1       2.262  -1.775  -0.007  0.00  0.00    -0.073 A 
ATOM      2  C3  UNL d   1       3.573  -1.575   0.440  0.00  0.00    -0.002 A 
ATOM      3  C4  UNL d   1       4.055  -0.283   0.652  0.00  0.00     0.004 A 
ATOM      4  C5  UNL d   1       3.232   0.820   0.427  0.00  0.00    -0.004 A 
ATOM      5  C6  UNL d   1       1.915   0.640  -0.008  0.00  0.00    -0.075 A 
ATOM      6  C7  UNL d   1       1.017   1.816  -0.257  0.00  0.00     0.076 C 
ATOM      7  C8  UNL d   1       1.438  -0.661  -0.222  0.00  0.00     0.001 A 
ENDROOT
BRANCH   1   8
ATOM      8  C1  UNL d   1       1.734  -3.169  -0.232  0.00  0.00     0.053 C 
ATOM      9  C   UNL d   1       0.501  -3.175  -1.121  0.00  0.00     0.018 C 
ENDBRANCH   1   8
TORSDOF 1
ENDMDL
