MODEL 1
REMARK minimizedAffinity -0.495486498
REMARK minimizedRMSD -1
REMARK  1 active torsions:
REMARK  status: ('A' for Active; 'I' for Inactive)
REMARK    1  A    between atoms: C3_4  and  O_7 
ROOT
ATOM      1  C   UNL d   1       1.185   1.263   0.162  0.00  0.00    -0.033 A 
ATOM      2  C1  UNL d   1       0.297   0.201   0.345  0.00  0.00     0.039 A 
ATOM      3  C2  UNL d   1       0.521  -0.731   1.360  0.00  0.00    -0.080 A 
ATOM      4  C3  UNL d   1       1.633  -0.590   2.185  0.00  0.00     0.150 A 
ATOM      5  C4  UNL d   1       2.519   0.468   2.011  0.00  0.00    -0.007 A 
ATOM      6  C5  UNL d   1       2.295   1.397   0.997  0.00  0.00     0.039 A 
ENDROOT
BRANCH   4   7
ATOM      7  O   UNL d   1       1.895  -1.477   3.186  0.00  0.00    -0.526 OA
ATOM      8  H5  UNL d   1       1.214  -2.171   3.169  0.00  0.00     0.418 HD
ENDBRANCH   4   7
TORSDOF 1
ENDMDL
