MODEL 1
REMARK minimizedAffinity 9.68444824
REMARK minimizedRMSD -1
REMARK  1 active torsions:
REMARK  status: ('A' for Active; 'I' for Inactive)
REMARK    1  A    between atoms: C3_4  and  O_7 
ROOT
ATOM      1  C   UNL d   1       2.816   2.274   0.129  0.00  0.00    -0.033 A 
ATOM      2  C1  UNL d   1       1.825   2.420   1.101  0.00  0.00     0.039 A 
ATOM      3  C2  UNL d   1       1.612   1.410   2.041  0.00  0.00    -0.080 A 
ATOM      4  C3  UNL d   1       2.397   0.261   1.999  0.00  0.00     0.150 A 
ATOM      5  C4  UNL d   1       3.389   0.110   1.035  0.00  0.00    -0.007 A 
ATOM      6  C5  UNL d   1       3.599   1.120   0.097  0.00  0.00     0.039 A 
ENDROOT
BRANCH   4   7
ATOM      7  O   UNL d   1       2.223  -0.754   2.892  0.00  0.00    -0.526 OA
ATOM      8  H5  UNL d   1       1.485  -0.523   3.480  0.00  0.00     0.418 HD
ENDBRANCH   4   7
TORSDOF 1
ENDMDL
