MODEL 1
REMARK minimizedAffinity 5.42704725
REMARK minimizedRMSD -1
REMARK  1 active torsions:
REMARK  status: ('A' for Active; 'I' for Inactive)
REMARK    1  A    between atoms: C3_4  and  O_7 
ROOT
ATOM      1  C   UNL d   1       1.480  -1.276   2.736  0.00  0.00    -0.033 A 
ATOM      2  C1  UNL d   1       0.763  -0.829   1.624  0.00  0.00     0.039 A 
ATOM      3  C2  UNL d   1       1.270   0.205   0.834  0.00  0.00    -0.080 A 
ATOM      4  C3  UNL d   1       2.494   0.781   1.165  0.00  0.00     0.150 A 
ATOM      5  C4  UNL d   1       3.215   0.337   2.269  0.00  0.00    -0.007 A 
ATOM      6  C5  UNL d   1       2.707  -0.694   3.057  0.00  0.00     0.039 A 
ENDROOT
BRANCH   4   7
ATOM      7  O   UNL d   1       3.027   1.795   0.426  0.00  0.00    -0.526 OA
ATOM      8  H5  UNL d   1       2.405   2.016  -0.287  0.00  0.00     0.418 HD
ENDBRANCH   4   7
TORSDOF 1
ENDMDL
