MODEL 1
REMARK minimizedAffinity -0.970268607
REMARK minimizedRMSD -1
REMARK  1 active torsions:
REMARK  status: ('A' for Active; 'I' for Inactive)
REMARK    1  A    between atoms: C3_4  and  O_7 
ROOT
ATOM      1  C   UNL d   1       6.000   5.999  -3.916  0.00  0.00    -0.033 A 
ATOM      2  C1  UNL d   1       5.906   5.999  -2.523  0.00  0.00     0.039 A 
ATOM      3  C2  UNL d   1       4.655   5.938  -1.905  0.00  0.00    -0.080 A 
ATOM      4  C3  UNL d   1       3.508   5.876  -2.691  0.00  0.00     0.150 A 
ATOM      5  C4  UNL d   1       3.594   5.871  -4.080  0.00  0.00    -0.007 A 
ATOM      6  C5  UNL d   1       4.844   5.933  -4.694  0.00  0.00     0.039 A 
ENDROOT
BRANCH   4   7
ATOM      7  O   UNL d   1       2.265   5.819  -2.134  0.00  0.00    -0.526 OA
ATOM      8  H5  UNL d   1       2.359   5.859  -1.168  0.00  0.00     0.418 HD
ENDBRANCH   4   7
TORSDOF 1
ENDMDL
