MODEL 1
REMARK minimizedAffinity 2.08280945
REMARK minimizedRMSD -1
REMARK  1 active torsions:
REMARK  status: ('A' for Active; 'I' for Inactive)
REMARK    1  A    between atoms: C3_4  and  O_7 
ROOT
ATOM      1  C   UNL d   1       0.778  -2.655   2.573  0.00  0.00    -0.033 A 
ATOM      2  C1  UNL d   1       0.178  -2.024   1.482  0.00  0.00     0.039 A 
ATOM      3  C2  UNL d   1       0.660  -0.792   1.034  0.00  0.00    -0.080 A 
ATOM      4  C3  UNL d   1       1.740  -0.204   1.686  0.00  0.00     0.150 A 
ATOM      5  C4  UNL d   1       2.344  -0.829   2.771  0.00  0.00    -0.007 A 
ATOM      6  C5  UNL d   1       1.862  -2.058   3.217  0.00  0.00     0.039 A 
ENDROOT
BRANCH   4   7
ATOM      7  O   UNL d   1       2.242   1.000   1.288  0.00  0.00    -0.526 OA
ATOM      8  H5  UNL d   1       1.707   1.326   0.546  0.00  0.00     0.418 HD
ENDBRANCH   4   7
TORSDOF 1
ENDMDL
