MODEL 1
REMARK minimizedAffinity 1.29228902
REMARK minimizedRMSD -1
REMARK  1 active torsions:
REMARK  status: ('A' for Active; 'I' for Inactive)
REMARK    1  A    between atoms: C3_4  and  O_7 
ROOT
ATOM      1  C   UNL d   1       0.882  -2.602   3.425  0.00  0.00    -0.033 A 
ATOM      2  C1  UNL d   1       0.282  -2.476   2.171  0.00  0.00     0.039 A 
ATOM      3  C2  UNL d   1       0.658  -1.437   1.316  0.00  0.00    -0.080 A 
ATOM      4  C3  UNL d   1       1.635  -0.534   1.727  0.00  0.00     0.150 A 
ATOM      5  C4  UNL d   1       2.240  -0.657   2.973  0.00  0.00    -0.007 A 
ATOM      6  C5  UNL d   1       1.863  -1.693   3.825  0.00  0.00     0.039 A 
ENDROOT
BRANCH   4   7
ATOM      7  O   UNL d   1       2.031   0.498   0.929  0.00  0.00    -0.526 OA
ATOM      8  H5  UNL d   1       1.507   0.473   0.111  0.00  0.00     0.418 HD
ENDBRANCH   4   7
TORSDOF 1
ENDMDL
