MODEL 1
REMARK minimizedAffinity 11.4983282
REMARK minimizedRMSD -1
REMARK  1 active torsions:
REMARK  status: ('A' for Active; 'I' for Inactive)
REMARK    1  A    between atoms: C3_4  and  O_7 
ROOT
ATOM      1  C   UNL d   1      -1.196   2.577  -4.279  0.00  0.00    -0.033 A 
ATOM      2  C1  UNL d   1      -2.239   2.999  -3.451  0.00  0.00     0.039 A 
ATOM      3  C2  UNL d   1      -3.560   2.690  -3.778  0.00  0.00    -0.080 A 
ATOM      4  C3  UNL d   1      -3.826   1.958  -4.932  0.00  0.00     0.150 A 
ATOM      5  C4  UNL d   1      -2.792   1.531  -5.759  0.00  0.00    -0.007 A 
ATOM      6  C5  UNL d   1      -1.473   1.842  -5.432  0.00  0.00     0.039 A 
ENDROOT
BRANCH   4   7
ATOM      7  O   UNL d   1      -5.100   1.636  -5.294  0.00  0.00    -0.526 OA
ATOM      8  H5  UNL d   1      -5.711   2.021  -4.645  0.00  0.00     0.418 HD
ENDBRANCH   4   7
TORSDOF 1
ENDMDL
