MODEL 1
REMARK minimizedAffinity 4.9368782
REMARK minimizedRMSD -1
REMARK  1 active torsions:
REMARK  status: ('A' for Active; 'I' for Inactive)
REMARK    1  A    between atoms: C3_4  and  O_7 
ROOT
ATOM      1  C   UNL d   1       1.455  -2.083   0.248  0.00  0.00    -0.033 A 
ATOM      2  C1  UNL d   1       2.273  -3.202   0.078  0.00  0.00     0.039 A 
ATOM      3  C2  UNL d   1       3.200  -3.547   1.064  0.00  0.00    -0.080 A 
ATOM      4  C3  UNL d   1       3.297  -2.768   2.213  0.00  0.00     0.150 A 
ATOM      5  C4  UNL d   1       2.483  -1.654   2.391  0.00  0.00    -0.007 A 
ATOM      6  C5  UNL d   1       1.559  -1.310   1.405  0.00  0.00     0.039 A 
ENDROOT
BRANCH   4   7
ATOM      7  O   UNL d   1       4.190  -3.062   3.200  0.00  0.00    -0.526 OA
ATOM      8  H5  UNL d   1       4.705  -3.840   2.928  0.00  0.00     0.418 HD
ENDBRANCH   4   7
TORSDOF 1
ENDMDL
