MODEL 1
REMARK minimizedAffinity 0.16291526
REMARK minimizedRMSD -1
REMARK  1 active torsions:
REMARK  status: ('A' for Active; 'I' for Inactive)
REMARK    1  A    between atoms: C3_4  and  O_7 
ROOT
ATOM      1  C   UNL d   1       5.987   4.805  -5.207  0.00  0.00    -0.033 A 
ATOM      2  C1  UNL d   1       5.174   3.742  -4.809  0.00  0.00     0.039 A 
ATOM      3  C2  UNL d   1       3.793   3.807  -5.002  0.00  0.00    -0.080 A 
ATOM      4  C3  UNL d   1       3.238   4.939  -5.594  0.00  0.00     0.150 A 
ATOM      5  C4  UNL d   1       4.043   6.000  -5.996  0.00  0.00    -0.007 A 
ATOM      6  C5  UNL d   1       5.422   5.933  -5.801  0.00  0.00     0.039 A 
ENDROOT
BRANCH   4   7
ATOM      7  O   UNL d   1       1.895   5.051  -5.798  0.00  0.00    -0.526 OA
ATOM      8  H5  UNL d   1       1.463   4.255  -5.445  0.00  0.00     0.418 HD
ENDBRANCH   4   7
TORSDOF 1
ENDMDL
