MODEL 1
REMARK minimizedAffinity 9.21873093
REMARK minimizedRMSD -1
REMARK  1 active torsions:
REMARK  status: ('A' for Active; 'I' for Inactive)
REMARK    1  A    between atoms: C3_4  and  O_7 
ROOT
ATOM      1  C   UNL d   1       1.083  -0.774   2.142  0.00  0.00    -0.033 A 
ATOM      2  C1  UNL d   1       2.385  -1.274   2.075  0.00  0.00     0.039 A 
ATOM      3  C2  UNL d   1       2.653  -2.433   1.343  0.00  0.00    -0.080 A 
ATOM      4  C3  UNL d   1       1.612  -3.080   0.683  0.00  0.00     0.150 A 
ATOM      5  C4  UNL d   1       0.313  -2.585   0.743  0.00  0.00    -0.007 A 
ATOM      6  C5  UNL d   1       0.048  -1.429   1.475  0.00  0.00     0.039 A 
ENDROOT
BRANCH   4   7
ATOM      7  O   UNL d   1       1.824  -4.216  -0.040  0.00  0.00    -0.526 OA
ATOM      8  H5  UNL d   1       2.763  -4.456   0.032  0.00  0.00     0.418 HD
ENDBRANCH   4   7
TORSDOF 1
ENDMDL
