MODEL 1
REMARK minimizedAffinity 5.31520176
REMARK minimizedRMSD -1
REMARK  1 active torsions:
REMARK  status: ('A' for Active; 'I' for Inactive)
REMARK    1  A    between atoms: C3_4  and  O_7 
ROOT
ATOM      1  C   UNL d   1       4.789  -5.993   5.992  0.00  0.00    -0.033 A 
ATOM      2  C1  UNL d   1       3.581  -5.292   6.000  0.00  0.00     0.039 A 
ATOM      3  C2  UNL d   1       3.581  -3.898   5.933  0.00  0.00    -0.080 A 
ATOM      4  C3  UNL d   1       4.794  -3.217   5.858  0.00  0.00     0.150 A 
ATOM      5  C4  UNL d   1       6.000  -3.909   5.846  0.00  0.00    -0.007 A 
ATOM      6  C5  UNL d   1       5.998  -5.302   5.913  0.00  0.00     0.039 A 
ENDROOT
BRANCH   4   7
ATOM      7  O   UNL d   1       4.844  -1.856   5.796  0.00  0.00    -0.526 OA
ATOM      8  H5  UNL d   1       3.936  -1.512   5.842  0.00  0.00     0.418 HD
ENDBRANCH   4   7
TORSDOF 1
ENDMDL
