MODEL 1
REMARK minimizedAffinity 10.8768997
REMARK minimizedRMSD -1
REMARK  1 active torsions:
REMARK  status: ('A' for Active; 'I' for Inactive)
REMARK    1  A    between atoms: C3_4  and  O_7 
ROOT
ATOM      1  C   UNL d   1       4.806  -1.270   5.077  0.00  0.00    -0.033 A 
ATOM      2  C1  UNL d   1       5.914  -1.819   5.725  0.00  0.00     0.039 A 
ATOM      3  C2  UNL d   1       5.961  -3.189   5.991  0.00  0.00    -0.080 A 
ATOM      4  C3  UNL d   1       4.896  -3.997   5.604  0.00  0.00     0.150 A 
ATOM      5  C4  UNL d   1       3.791  -3.457   4.954  0.00  0.00    -0.007 A 
ATOM      6  C5  UNL d   1       3.745  -2.089   4.690  0.00  0.00     0.039 A 
ENDROOT
BRANCH   4   7
ATOM      7  O   UNL d   1       4.894  -5.339   5.846  0.00  0.00    -0.526 OA
ATOM      8  H5  UNL d   1       5.708  -5.566   6.327  0.00  0.00     0.418 HD
ENDBRANCH   4   7
TORSDOF 1
ENDMDL
