MODEL 1
REMARK minimizedAffinity 1.98637855
REMARK minimizedRMSD -1
REMARK  1 active torsions:
REMARK  status: ('A' for Active; 'I' for Inactive)
REMARK    1  A    between atoms: C3_4  and  O_7 
ROOT
ATOM      1  C   UNL d   1       6.000   0.805   0.594  0.00  0.00    -0.033 A 
ATOM      2  C1  UNL d   1       5.999   1.357  -0.689  0.00  0.00     0.039 A 
ATOM      3  C2  UNL d   1       5.994   2.743  -0.853  0.00  0.00    -0.080 A 
ATOM      4  C3  UNL d   1       5.991   3.565   0.270  0.00  0.00     0.150 A 
ATOM      5  C4  UNL d   1       5.996   3.022   1.551  0.00  0.00    -0.007 A 
ATOM      6  C5  UNL d   1       6.000   1.637   1.713  0.00  0.00     0.039 A 
ENDROOT
BRANCH   4   7
ATOM      7  O   UNL d   1       5.981   4.924   0.160  0.00  0.00    -0.526 OA
ATOM      8  H5  UNL d   1       5.950   5.155  -0.784  0.00  0.00     0.418 HD
ENDBRANCH   4   7
TORSDOF 1
ENDMDL
