MODEL 1
REMARK minimizedAffinity 10.1212368
REMARK minimizedRMSD -1
REMARK  1 active torsions:
REMARK  status: ('A' for Active; 'I' for Inactive)
REMARK    1  A    between atoms: C3_4  and  O_7 
ROOT
ATOM      1  C   UNL d   1       5.665  -3.953   5.536  0.00  0.00    -0.033 A 
ATOM      2  C1  UNL d   1       4.345  -4.319   5.810  0.00  0.00     0.039 A 
ATOM      3  C2  UNL d   1       3.358  -3.339   5.930  0.00  0.00    -0.080 A 
ATOM      4  C3  UNL d   1       3.702  -1.999   5.771  0.00  0.00     0.150 A 
ATOM      5  C4  UNL d   1       5.014  -1.628   5.494  0.00  0.00    -0.007 A 
ATOM      6  C5  UNL d   1       5.999  -2.608   5.376  0.00  0.00     0.039 A 
ENDROOT
BRANCH   4   7
ATOM      7  O   UNL d   1       2.774  -1.007   5.883  0.00  0.00    -0.526 OA
ATOM      8  H5  UNL d   1       1.918  -1.410   6.105  0.00  0.00     0.418 HD
ENDBRANCH   4   7
TORSDOF 1
ENDMDL
