MODEL 1
REMARK minimizedAffinity -2.4725697
REMARK minimizedRMSD -1
REMARK  0 active torsions:
REMARK  status: ('A' for Active; 'I' for Inactive)
ROOT
ATOM      1  C2' OXE d   1       2.570  -1.030  -1.442  0.00  0.00     0.078 C 
ATOM      2  C1' OXE d   1       2.612  -0.335   1.277  0.00  0.00     0.078 C 
ATOM      3  C1  OXE d   1       1.271  -0.399   0.588  0.00  0.00    -0.078 A 
ATOM      4  C2  OXE d   1       1.264  -0.695  -0.754  0.00  0.00    -0.078 A 
ATOM      5  C3  OXE d   1       0.052  -0.820  -1.425  0.00  0.00     0.003 A 
ATOM      6  C4  OXE d   1      -1.151  -0.499  -0.784  0.00  0.00    -0.002 A 
ATOM      7  C5  OXE d   1      -1.162  -0.157   0.572  0.00  0.00    -0.002 A 
ATOM      8  C6  OXE d   1       0.033  -0.144   1.282  0.00  0.00     0.003 A 
ENDROOT
TORSDOF 0
ENDMDL
