MODEL 1
REMARK minimizedAffinity -4.25167894
REMARK minimizedRMSD -1
REMARK  0 active torsions:
REMARK  status: ('A' for Active; 'I' for Inactive)
ROOT
ATOM      1  C2' OXE d   1      -1.451  -0.417   1.408  0.00  0.00     0.078 C 
ATOM      2  C1' OXE d   1       0.038  -0.261  -0.966  0.00  0.00     0.078 C 
ATOM      3  C1  OXE d   1       0.771  -0.628   0.300  0.00  0.00    -0.078 A 
ATOM      4  C2  OXE d   1       0.043  -0.657   1.465  0.00  0.00    -0.078 A 
ATOM      5  C3  OXE d   1       0.658  -1.043   2.653  0.00  0.00     0.003 A 
ATOM      6  C4  OXE d   1       2.041  -1.253   2.699  0.00  0.00    -0.002 A 
ATOM      7  C5  OXE d   1       2.808  -1.190   1.531  0.00  0.00    -0.002 A 
ATOM      8  C6  OXE d   1       2.182  -0.921   0.318  0.00  0.00     0.003 A 
ENDROOT
TORSDOF 0
ENDMDL
