MODEL 1
REMARK minimizedAffinity -3.2518208
REMARK minimizedRMSD -1
REMARK  0 active torsions:
REMARK  status: ('A' for Active; 'I' for Inactive)
ROOT
ATOM      1  C2' OXE d   1       0.444   0.890  -0.420  0.00  0.00     0.078 C 
ATOM      2  C1' OXE d   1      -1.506  -0.943   0.429  0.00  0.00     0.078 C 
ATOM      3  C1  OXE d   1      -0.249  -0.821   1.253  0.00  0.00    -0.078 A 
ATOM      4  C2  OXE d   1       0.720   0.045   0.805  0.00  0.00    -0.078 A 
ATOM      5  C3  OXE d   1       1.875   0.236   1.557  0.00  0.00     0.003 A 
ATOM      6  C4  OXE d   1       2.127  -0.557   2.683  0.00  0.00    -0.002 A 
ATOM      7  C5  OXE d   1       1.171  -1.473   3.135  0.00  0.00    -0.002 A 
ATOM      8  C6  OXE d   1      -0.038  -1.586   2.457  0.00  0.00     0.003 A 
ENDROOT
TORSDOF 0
ENDMDL
