MODEL 1
REMARK minimizedAffinity -0.877017319
REMARK minimizedRMSD -1
REMARK  0 active torsions:
REMARK  status: ('A' for Active; 'I' for Inactive)
ROOT
ATOM      1  C2' OXE d   1       2.122  -3.508   0.757  0.00  0.00     0.078 C 
ATOM      2  C1' OXE d   1       2.017  -1.449  -1.147  0.00  0.00     0.078 C 
ATOM      3  C1  OXE d   1       1.164  -1.308   0.089  0.00  0.00    -0.078 A 
ATOM      4  C2  OXE d   1       1.187  -2.342   0.994  0.00  0.00    -0.078 A 
ATOM      5  C3  OXE d   1       0.461  -2.239   2.177  0.00  0.00     0.003 A 
ATOM      6  C4  OXE d   1      -0.409  -1.161   2.383  0.00  0.00    -0.002 A 
ATOM      7  C5  OXE d   1      -0.477  -0.116   1.456  0.00  0.00    -0.002 A 
ATOM      8  C6  OXE d   1       0.333  -0.153   0.327  0.00  0.00     0.003 A 
ENDROOT
TORSDOF 0
ENDMDL
