MODEL 1
REMARK minimizedAffinity 5.45192909
REMARK minimizedRMSD -1
REMARK  0 active torsions:
REMARK  status: ('A' for Active; 'I' for Inactive)
ROOT
ATOM      1  C2' OXE d   1       3.193  -1.109   0.360  0.00  0.00     0.078 C 
ATOM      2  C1' OXE d   1       5.999  -1.080   0.300  0.00  0.00     0.078 C 
ATOM      3  C1  OXE d   1       5.289   0.215   0.606  0.00  0.00    -0.078 A 
ATOM      4  C2  OXE d   1       3.915   0.202   0.587  0.00  0.00    -0.078 A 
ATOM      5  C3  OXE d   1       3.210   1.356   0.916  0.00  0.00     0.003 A 
ATOM      6  C4  OXE d   1       3.885   2.567   1.115  0.00  0.00    -0.002 A 
ATOM      7  C5  OXE d   1       5.283   2.611   1.099  0.00  0.00    -0.002 A 
ATOM      8  C6  OXE d   1       6.000   1.438   0.889  0.00  0.00     0.003 A 
ENDROOT
TORSDOF 0
ENDMDL
