MODEL 1
REMARK minimizedAffinity 8.94577217
REMARK minimizedRMSD -1
REMARK  0 active torsions:
REMARK  status: ('A' for Active; 'I' for Inactive)
ROOT
ATOM      1  C2' OXE d   1       3.880   5.642   3.214  0.00  0.00     0.078 C 
ATOM      2  C1' OXE d   1       3.805   5.995   5.998  0.00  0.00     0.078 C 
ATOM      3  C1  OXE d   1       2.490   5.907   5.264  0.00  0.00    -0.078 A 
ATOM      4  C2  OXE d   1       2.536   5.780   3.897  0.00  0.00    -0.078 A 
ATOM      5  C3  OXE d   1       1.353   5.639   3.177  0.00  0.00     0.003 A 
ATOM      6  C4  OXE d   1       0.115   5.779   3.815  0.00  0.00    -0.002 A 
ATOM      7  C5  OXE d   1       0.045   5.948   5.201  0.00  0.00    -0.002 A 
ATOM      8  C6  OXE d   1       1.220   5.971   5.945  0.00  0.00     0.003 A 
ENDROOT
TORSDOF 0
ENDMDL
