MODEL 1
REMARK minimizedAffinity -0.0569146276
REMARK minimizedRMSD -1
REMARK  0 active torsions:
REMARK  status: ('A' for Active; 'I' for Inactive)
ROOT
ATOM      1  C2' OXE d   1       1.502  -1.883  -0.607  0.00  0.00     0.078 C 
ATOM      2  C1' OXE d   1       1.759  -3.439   1.715  0.00  0.00     0.078 C 
ATOM      3  C1  OXE d   1       0.656  -2.412   1.675  0.00  0.00    -0.078 A 
ATOM      4  C2  OXE d   1       0.567  -1.623   0.553  0.00  0.00    -0.078 A 
ATOM      5  C3  OXE d   1      -0.467  -0.697   0.442  0.00  0.00     0.003 A 
ATOM      6  C4  OXE d   1      -1.322  -0.456   1.525  0.00  0.00    -0.002 A 
ATOM      7  C5  OXE d   1      -1.223  -1.221   2.691  0.00  0.00    -0.002 A 
ATOM      8  C6  OXE d   1      -0.269  -2.230   2.766  0.00  0.00     0.003 A 
ENDROOT
TORSDOF 0
ENDMDL
