MODEL 1
REMARK minimizedAffinity -3.36159253
REMARK minimizedRMSD -1
REMARK  0 active torsions:
REMARK  status: ('A' for Active; 'I' for Inactive)
ROOT
ATOM      1  C2' OXE d   1       1.614  -2.634   1.717  0.00  0.00     0.078 C 
ATOM      2  C1' OXE d   1       1.130  -1.421  -0.768  0.00  0.00     0.078 C 
ATOM      3  C1  OXE d   1       0.117  -1.206   0.329  0.00  0.00    -0.078 A 
ATOM      4  C2  OXE d   1       0.338  -1.842   1.527  0.00  0.00    -0.078 A 
ATOM      5  C3  OXE d   1      -0.536  -1.633   2.590  0.00  0.00     0.003 A 
ATOM      6  C4  OXE d   1      -1.718  -0.907   2.403  0.00  0.00    -0.002 A 
ATOM      7  C5  OXE d   1      -1.983  -0.284   1.179  0.00  0.00    -0.002 A 
ATOM      8  C6  OXE d   1      -1.056  -0.388   0.147  0.00  0.00     0.003 A 
ENDROOT
TORSDOF 0
ENDMDL
