MODEL 1
REMARK minimizedAffinity 7.40244007
REMARK minimizedRMSD -1
REMARK  0 active torsions:
REMARK  status: ('A' for Active; 'I' for Inactive)
ROOT
ATOM      1  C2' OXE d   1      -1.343  -3.338   3.779  0.00  0.00     0.078 C 
ATOM      2  C1' OXE d   1       0.908  -4.122   2.296  0.00  0.00     0.078 C 
ATOM      3  C1  OXE d   1       0.348  -2.744   2.049  0.00  0.00    -0.078 A 
ATOM      4  C2  OXE d   1      -0.781  -2.386   2.745  0.00  0.00    -0.078 A 
ATOM      5  C3  OXE d   1      -1.307  -1.106   2.595  0.00  0.00     0.003 A 
ATOM      6  C4  OXE d   1      -0.788  -0.236   1.629  0.00  0.00    -0.002 A 
ATOM      7  C5  OXE d   1       0.337  -0.595   0.881  0.00  0.00    -0.002 A 
ATOM      8  C6  OXE d   1       0.942  -1.827   1.108  0.00  0.00     0.003 A 
ENDROOT
TORSDOF 0
ENDMDL
