MODEL 1
REMARK minimizedAffinity -0.743194103
REMARK minimizedRMSD -1
REMARK  0 active torsions:
REMARK  status: ('A' for Active; 'I' for Inactive)
ROOT
ATOM      1  C2' OXE d   1       2.819  -3.184   3.485  0.00  0.00     0.078 C 
ATOM      2  C1' OXE d   1       2.735  -4.068   0.822  0.00  0.00     0.078 C 
ATOM      3  C1  OXE d   1       1.823  -2.933   1.215  0.00  0.00    -0.078 A 
ATOM      4  C2  OXE d   1       1.837  -2.538   2.532  0.00  0.00    -0.078 A 
ATOM      5  C3  OXE d   1       1.056  -1.459   2.936  0.00  0.00     0.003 A 
ATOM      6  C4  OXE d   1       0.143  -0.873   2.050  0.00  0.00    -0.002 A 
ATOM      7  C5  OXE d   1       0.085  -1.287   0.715  0.00  0.00    -0.002 A 
ATOM      8  C6  OXE d   1       0.946  -2.284   0.272  0.00  0.00     0.003 A 
ENDROOT
TORSDOF 0
ENDMDL
