MODEL 1
REMARK minimizedAffinity -0.283673644
REMARK minimizedRMSD -1
REMARK  0 active torsions:
REMARK  status: ('A' for Active; 'I' for Inactive)
ROOT
ATOM      1  C2' OXE d   1      -1.324  -1.433   0.285  0.00  0.00     0.078 C 
ATOM      2  C1' OXE d   1      -0.332  -2.205   2.795  0.00  0.00     0.078 C 
ATOM      3  C1  OXE d   1       0.366  -1.075   2.080  0.00  0.00    -0.078 A 
ATOM      4  C2  OXE d   1      -0.097  -0.735   0.832  0.00  0.00    -0.078 A 
ATOM      5  C3  OXE d   1       0.476   0.336   0.152  0.00  0.00     0.003 A 
ATOM      6  C4  OXE d   1       1.616   0.970   0.660  0.00  0.00    -0.002 A 
ATOM      7  C5  OXE d   1       2.128   0.613   1.912  0.00  0.00    -0.002 A 
ATOM      8  C6  OXE d   1       1.491  -0.377   2.652  0.00  0.00     0.003 A 
ENDROOT
TORSDOF 0
ENDMDL
