MODEL 1
REMARK minimizedAffinity 12.6928911
REMARK minimizedRMSD -1
REMARK  0 active torsions:
REMARK  status: ('A' for Active; 'I' for Inactive)
ROOT
ATOM      1  C   UNL d   1      -4.893   5.920   5.959  0.00  0.00     0.020 A 
ATOM      2  C1  UNL d   1      -5.998   5.182   5.535  0.00  0.00     0.020 A 
ATOM      3  C2  UNL d   1      -5.965   4.521   4.305  0.00  0.00     0.034 A 
ATOM      4  C3  UNL d   1      -4.825   4.596   3.496  0.00  0.00     0.017 A 
ATOM      5  C4  UNL d   1      -3.717   5.337   3.923  0.00  0.00     0.017 A 
ATOM      6  C5  UNL d   1      -3.756   5.997   5.155  0.00  0.00     0.034 A 
ATOM      7 Cl   UNL d   1      -2.276   5.476   2.979  0.00  0.00    -0.070 Cl
ATOM      8 Cl1  UNL d   1      -4.854   3.753   1.988  0.00  0.00    -0.070 Cl
ENDROOT
TORSDOF 0
ENDMDL
