MODEL 1
REMARK minimizedAffinity 14.7522144
REMARK minimizedRMSD -1
REMARK  0 active torsions:
REMARK  status: ('A' for Active; 'I' for Inactive)
ROOT
ATOM      1  C   UNL d   1      -5.979   5.771   4.703  0.00  0.00     0.020 A 
ATOM      2  C1  UNL d   1      -5.703   4.503   5.213  0.00  0.00     0.020 A 
ATOM      3  C2  UNL d   1      -5.362   3.462   4.347  0.00  0.00     0.034 A 
ATOM      4  C3  UNL d   1      -5.296   3.686   2.967  0.00  0.00     0.017 A 
ATOM      5  C4  UNL d   1      -5.573   4.960   2.456  0.00  0.00     0.017 A 
ATOM      6  C5  UNL d   1      -5.914   5.999   3.328  0.00  0.00     0.034 A 
ATOM      7 Cl   UNL d   1      -5.511   5.314   0.766  0.00  0.00    -0.070 Cl
ATOM      8 Cl1  UNL d   1      -4.867   2.353   1.956  0.00  0.00    -0.070 Cl
ENDROOT
TORSDOF 0
ENDMDL
