MODEL 1
REMARK minimizedAffinity 12.3867931
REMARK minimizedRMSD -1
REMARK  0 active torsions:
REMARK  status: ('A' for Active; 'I' for Inactive)
ROOT
ATOM      1  C   UNL d   1       3.019   1.429  -0.700  0.00  0.00     0.020 A 
ATOM      2  C1  UNL d   1       1.883   0.639  -0.876  0.00  0.00     0.020 A 
ATOM      3  C2  UNL d   1       1.632  -0.427  -0.010  0.00  0.00     0.034 A 
ATOM      4  C3  UNL d   1       2.518  -0.706   1.038  0.00  0.00     0.017 A 
ATOM      5  C4  UNL d   1       3.657   0.088   1.214  0.00  0.00     0.017 A 
ATOM      6  C5  UNL d   1       3.904   1.154   0.343  0.00  0.00     0.034 A 
ATOM      7 Cl   UNL d   1       4.796  -0.195   2.483  0.00  0.00    -0.070 Cl
ATOM      8 Cl1  UNL d   1       2.145  -2.039   2.071  0.00  0.00    -0.070 Cl
ENDROOT
TORSDOF 0
ENDMDL
