MODEL 1
REMARK minimizedAffinity 4.07642698
REMARK minimizedRMSD -1
REMARK  0 active torsions:
REMARK  status: ('A' for Active; 'I' for Inactive)
ROOT
ATOM      1  C   UNL d   1      -5.864   3.435   3.016  0.00  0.00     0.020 A 
ATOM      2  C1  UNL d   1      -4.666   3.435   2.303  0.00  0.00     0.020 A 
ATOM      3  C2  UNL d   1      -3.601   4.234   2.726  0.00  0.00     0.034 A 
ATOM      4  C3  UNL d   1      -3.733   5.036   3.866  0.00  0.00     0.017 A 
ATOM      5  C4  UNL d   1      -4.936   5.034   4.581  0.00  0.00     0.017 A 
ATOM      6  C5  UNL d   1      -5.998   4.233   4.153  0.00  0.00     0.034 A 
ATOM      7 Cl   UNL d   1      -5.173   5.997   5.997  0.00  0.00    -0.070 Cl
ATOM      8 Cl1  UNL d   1      -2.376   5.998   4.333  0.00  0.00    -0.070 Cl
ENDROOT
TORSDOF 0
ENDMDL
