MODEL 1
REMARK minimizedAffinity 7.24290895
REMARK minimizedRMSD -1
REMARK  0 active torsions:
REMARK  status: ('A' for Active; 'I' for Inactive)
ROOT
ATOM      1  C   UNL d   1       4.069   0.217  -0.141  0.00  0.00     0.020 A 
ATOM      2  C1  UNL d   1       3.685   0.388  -1.471  0.00  0.00     0.020 A 
ATOM      3  C2  UNL d   1       2.333   0.522  -1.795  0.00  0.00     0.034 A 
ATOM      4  C3  UNL d   1       1.361   0.483  -0.789  0.00  0.00     0.017 A 
ATOM      5  C4  UNL d   1       1.747   0.311   0.545  0.00  0.00     0.017 A 
ATOM      6  C5  UNL d   1       3.102   0.178   0.864  0.00  0.00     0.034 A 
ATOM      7 Cl   UNL d   1       0.605   0.254   1.841  0.00  0.00    -0.070 Cl
ATOM      8 Cl1  UNL d   1      -0.292   0.655  -1.263  0.00  0.00    -0.070 Cl
ENDROOT
TORSDOF 0
ENDMDL
