MODEL 1
REMARK minimizedAffinity 9.18358135
REMARK minimizedRMSD -1
REMARK  0 active torsions:
REMARK  status: ('A' for Active; 'I' for Inactive)
ROOT
ATOM      1  C   UNL d   1       4.129   1.018  -1.457  0.00  0.00     0.020 A 
ATOM      2  C1  UNL d   1       4.456   0.728  -0.133  0.00  0.00     0.020 A 
ATOM      3  C2  UNL d   1       3.444   0.508   0.804  0.00  0.00     0.034 A 
ATOM      4  C3  UNL d   1       2.101   0.577   0.419  0.00  0.00     0.017 A 
ATOM      5  C4  UNL d   1       1.773   0.867  -0.911  0.00  0.00     0.017 A 
ATOM      6  C5  UNL d   1       2.790   1.087  -1.845  0.00  0.00     0.034 A 
ATOM      7 Cl   UNL d   1       0.138   0.969  -1.461  0.00  0.00    -0.070 Cl
ATOM      8 Cl1  UNL d   1       0.902   0.293   1.630  0.00  0.00    -0.070 Cl
ENDROOT
TORSDOF 0
ENDMDL
