MODEL 1
REMARK minimizedAffinity 7.35920572
REMARK minimizedRMSD -1
REMARK  0 active torsions:
REMARK  status: ('A' for Active; 'I' for Inactive)
ROOT
ATOM      1  C   UNL d   1       3.576   1.109   0.610  0.00  0.00     0.020 A 
ATOM      2  C1  UNL d   1       3.322   1.121  -0.761  0.00  0.00     0.020 A 
ATOM      3  C2  UNL d   1       2.692   0.030  -1.364  0.00  0.00     0.034 A 
ATOM      4  C3  UNL d   1       2.315  -1.078  -0.597  0.00  0.00     0.017 A 
ATOM      5  C4  UNL d   1       2.571  -1.089   0.779  0.00  0.00     0.017 A 
ATOM      6  C5  UNL d   1       3.201   0.006   1.378  0.00  0.00     0.034 A 
ATOM      7 Cl   UNL d   1       2.134  -2.420   1.792  0.00  0.00    -0.070 Cl
ATOM      8 Cl1  UNL d   1       1.540  -2.391  -1.409  0.00  0.00    -0.070 Cl
ENDROOT
TORSDOF 0
ENDMDL
