MODEL 1
REMARK minimizedAffinity 5.52757788
REMARK minimizedRMSD -1
REMARK  0 active torsions:
REMARK  status: ('A' for Active; 'I' for Inactive)
ROOT
ATOM      1  C   UNL d   1      -4.913   5.961   6.000  0.00  0.00     0.020 A 
ATOM      2  C1  UNL d   1      -6.000   5.447   5.293  0.00  0.00     0.020 A 
ATOM      3  C2  UNL d   1      -5.823   4.966   3.994  0.00  0.00     0.034 A 
ATOM      4  C3  UNL d   1      -4.557   4.998   3.397  0.00  0.00     0.017 A 
ATOM      5  C4  UNL d   1      -3.467   5.514   4.108  0.00  0.00     0.017 A 
ATOM      6  C5  UNL d   1      -3.650   5.994   5.408  0.00  0.00     0.034 A 
ATOM      7 Cl   UNL d   1      -1.875   5.586   3.439  0.00  0.00    -0.070 Cl
ATOM      8 Cl1  UNL d   1      -4.412   4.386   1.788  0.00  0.00    -0.070 Cl
ENDROOT
TORSDOF 0
ENDMDL
