MODEL 1
REMARK minimizedAffinity 5.77520037
REMARK minimizedRMSD -1
REMARK  0 active torsions:
REMARK  status: ('A' for Active; 'I' for Inactive)
ROOT
ATOM      1  C   UNL d   1      -5.091   5.762   5.988  0.00  0.00     0.020 A 
ATOM      2  C1  UNL d   1      -5.995   4.877   5.402  0.00  0.00     0.020 A 
ATOM      3  C2  UNL d   1      -5.664   4.227   4.211  0.00  0.00     0.034 A 
ATOM      4  C3  UNL d   1      -4.425   4.461   3.603  0.00  0.00     0.017 A 
ATOM      5  C4  UNL d   1      -3.518   5.349   4.192  0.00  0.00     0.017 A 
ATOM      6  C5  UNL d   1      -3.855   5.997   5.385  0.00  0.00     0.034 A 
ATOM      7 Cl   UNL d   1      -1.971   5.688   3.501  0.00  0.00    -0.070 Cl
ATOM      8 Cl1  UNL d   1      -4.082   3.622   2.131  0.00  0.00    -0.070 Cl
ENDROOT
TORSDOF 0
ENDMDL
