MODEL 1
REMARK minimizedAffinity 7.28411102
REMARK minimizedRMSD -1
REMARK  0 active torsions:
REMARK  status: ('A' for Active; 'I' for Inactive)
ROOT
ATOM      1  C   UNL d   1       1.705   0.739  -1.271  0.00  0.00     0.020 A 
ATOM      2  C1  UNL d   1       1.441  -0.566  -0.859  0.00  0.00     0.020 A 
ATOM      3  C2  UNL d   1       2.229  -1.160   0.130  0.00  0.00     0.034 A 
ATOM      4  C3  UNL d   1       3.285  -0.447   0.710  0.00  0.00     0.017 A 
ATOM      5  C4  UNL d   1       3.549   0.863   0.296  0.00  0.00     0.017 A 
ATOM      6  C5  UNL d   1       2.757   1.452  -0.695  0.00  0.00     0.034 A 
ATOM      7 Cl   UNL d   1       4.835   1.805   0.965  0.00  0.00    -0.070 Cl
ATOM      8 Cl1  UNL d   1       4.217  -1.243   1.927  0.00  0.00    -0.070 Cl
ENDROOT
TORSDOF 0
ENDMDL
