MODEL 1
REMARK minimizedAffinity -4.63014269
REMARK minimizedRMSD -1
REMARK  0 active torsions:
REMARK  status: ('A' for Active; 'I' for Inactive)
ROOT
ATOM      1  C4' PXY d   1      -0.518  -3.232   0.443  0.00  0.00     0.077 C 
ATOM      2  C1' PXY d   1       0.201   2.416  -0.558  0.00  0.00     0.077 C 
ATOM      3  C1  PXY d   1       0.014   0.933  -0.308  0.00  0.00    -0.082 A 
ATOM      4  C2  PXY d   1      -0.639   0.528   0.769  0.00  0.00     0.003 A 
ATOM      5  C3  PXY d   1      -0.790  -0.810   1.027  0.00  0.00     0.003 A 
ATOM      6  C4  PXY d   1      -0.313  -1.744   0.145  0.00  0.00    -0.082 A 
ATOM      7  C5  PXY d   1       0.345  -1.339  -0.961  0.00  0.00     0.003 A 
ATOM      8  C6  PXY d   1       0.523   0.024  -1.184  0.00  0.00     0.003 A 
ENDROOT
TORSDOF 0
ENDMDL
