MODEL 1
REMARK minimizedAffinity -3.50112033
REMARK minimizedRMSD -1
REMARK  0 active torsions:
REMARK  status: ('A' for Active; 'I' for Inactive)
ROOT
ATOM      1  C4' PXY d   1       0.057  -3.759   0.727  0.00  0.00     0.077 C 
ATOM      2  C1' PXY d   1       0.262   1.699  -1.166  0.00  0.00     0.077 C 
ATOM      3  C1  PXY d   1       0.205   0.272  -0.658  0.00  0.00    -0.082 A 
ATOM      4  C2  PXY d   1       0.888  -0.673  -1.283  0.00  0.00     0.003 A 
ATOM      5  C3  PXY d   1       0.823  -1.974  -0.856  0.00  0.00     0.003 A 
ATOM      6  C4  PXY d   1       0.093  -2.303   0.255  0.00  0.00    -0.082 A 
ATOM      7  C5  PXY d   1      -0.598  -1.342   0.905  0.00  0.00     0.003 A 
ATOM      8  C6  PXY d   1      -0.551  -0.034   0.431  0.00  0.00     0.003 A 
ENDROOT
TORSDOF 0
ENDMDL
