MODEL 1
REMARK minimizedAffinity -1.70784473
REMARK minimizedRMSD -1
REMARK  0 active torsions:
REMARK  status: ('A' for Active; 'I' for Inactive)
ROOT
ATOM      1  C4' PXY d   1      -0.055   2.828   0.226  0.00  0.00     0.077 C 
ATOM      2  C1' PXY d   1      -0.491  -2.933   0.055  0.00  0.00     0.077 C 
ATOM      3  C1  PXY d   1      -0.367  -1.423   0.092  0.00  0.00    -0.082 A 
ATOM      4  C2  PXY d   1      -0.871  -0.750   1.113  0.00  0.00     0.003 A 
ATOM      5  C3  PXY d   1      -0.795   0.619   1.147  0.00  0.00     0.003 A 
ATOM      6  C4  PXY d   1      -0.150   1.302   0.152  0.00  0.00    -0.082 A 
ATOM      7  C5  PXY d   1       0.377   0.621  -0.889  0.00  0.00     0.003 A 
ATOM      8  C6  PXY d   1       0.253  -0.764  -0.925  0.00  0.00     0.003 A 
ENDROOT
TORSDOF 0
ENDMDL
