MODEL 1
REMARK minimizedAffinity -4.38941622
REMARK minimizedRMSD -1
REMARK  0 active torsions:
REMARK  status: ('A' for Active; 'I' for Inactive)
ROOT
ATOM      1  C4' PXY d   1       0.367   2.344  -0.085  0.00  0.00     0.077 C 
ATOM      2  C1' PXY d   1       0.076  -3.422   0.208  0.00  0.00     0.077 C 
ATOM      3  C1  PXY d   1       0.161  -1.911   0.121  0.00  0.00    -0.082 A 
ATOM      4  C2  PXY d   1      -0.110  -1.178   1.189  0.00  0.00     0.003 A 
ATOM      5  C3  PXY d   1      -0.070   0.191   1.120  0.00  0.00     0.003 A 
ATOM      6  C4  PXY d   1       0.304   0.815  -0.040  0.00  0.00    -0.082 A 
ATOM      7  C5  PXY d   1       0.592   0.074  -1.131  0.00  0.00     0.003 A 
ATOM      8  C6  PXY d   1       0.505  -1.313  -1.051  0.00  0.00     0.003 A 
ENDROOT
TORSDOF 0
ENDMDL
