MODEL 1
REMARK minimizedAffinity -3.59422565
REMARK minimizedRMSD -1
REMARK  0 active torsions:
REMARK  status: ('A' for Active; 'I' for Inactive)
ROOT
ATOM      1  C4' PXY d   1      -0.300  -3.309   0.438  0.00  0.00     0.077 C 
ATOM      2  C1' PXY d   1       0.525   2.380  -0.170  0.00  0.00     0.077 C 
ATOM      3  C1  PXY d   1       0.305   0.887  -0.023  0.00  0.00    -0.082 A 
ATOM      4  C2  PXY d   1       0.075   0.375   1.175  0.00  0.00     0.003 A 
ATOM      5  C3  PXY d   1      -0.094  -0.977   1.330  0.00  0.00     0.003 A 
ATOM      6  C4  PXY d   1      -0.082  -1.807   0.241  0.00  0.00    -0.082 A 
ATOM      7  C5  PXY d   1       0.141  -1.290  -0.986  0.00  0.00     0.003 A 
ATOM      8  C6  PXY d   1       0.352   0.080  -1.117  0.00  0.00     0.003 A 
ENDROOT
TORSDOF 0
ENDMDL
