MODEL 1
REMARK minimizedAffinity -3.5013392
REMARK minimizedRMSD -1
REMARK  0 active torsions:
REMARK  status: ('A' for Active; 'I' for Inactive)
ROOT
ATOM      1  C4' PXY d   1      -1.657  -2.982   0.763  0.00  0.00     0.077 C 
ATOM      2  C1' PXY d   1       0.659   2.207  -0.300  0.00  0.00     0.077 C 
ATOM      3  C1  PXY d   1       0.048   0.850  -0.009  0.00  0.00    -0.082 A 
ATOM      4  C2  PXY d   1       0.482  -0.216  -0.661  0.00  0.00     0.003 A 
ATOM      5  C3  PXY d   1      -0.081  -1.445  -0.433  0.00  0.00     0.003 A 
ATOM      6  C4  PXY d   1      -1.063  -1.594   0.509  0.00  0.00    -0.082 A 
ATOM      7  C5  PXY d   1      -1.505  -0.512   1.186  0.00  0.00     0.003 A 
ATOM      8  C6  PXY d   1      -0.948   0.733   0.911  0.00  0.00     0.003 A 
ENDROOT
TORSDOF 0
ENDMDL
