MODEL 1
REMARK minimizedAffinity -2.48873043
REMARK minimizedRMSD -1
REMARK  0 active torsions:
REMARK  status: ('A' for Active; 'I' for Inactive)
ROOT
ATOM      1  C4' PXY d   1       0.375   2.279   0.326  0.00  0.00     0.077 C 
ATOM      2  C1' PXY d   1      -0.588  -3.413   0.036  0.00  0.00     0.077 C 
ATOM      3  C1  PXY d   1      -0.347  -1.918   0.116  0.00  0.00    -0.082 A 
ATOM      4  C2  PXY d   1       0.601  -1.368  -0.624  0.00  0.00     0.003 A 
ATOM      5  C3  PXY d   1       0.853  -0.023  -0.540  0.00  0.00     0.003 A 
ATOM      6  C4  PXY d   1       0.091   0.776   0.271  0.00  0.00    -0.082 A 
ATOM      7  C5  PXY d   1      -0.886   0.223   1.021  0.00  0.00     0.003 A 
ATOM      8  C6  PXY d   1      -1.098  -1.151   0.952  0.00  0.00     0.003 A 
ENDROOT
TORSDOF 0
ENDMDL
