MODEL 1
REMARK minimizedAffinity -3.46244574
REMARK minimizedRMSD -1
REMARK  0 active torsions:
REMARK  status: ('A' for Active; 'I' for Inactive)
ROOT
ATOM      1  C4' PXY d   1       0.377  -3.800   0.764  0.00  0.00     0.077 C 
ATOM      2  C1' PXY d   1      -0.001   1.691  -1.004  0.00  0.00     0.077 C 
ATOM      3  C1  PXY d   1       0.095   0.255  -0.528  0.00  0.00    -0.082 A 
ATOM      4  C2  PXY d   1       0.823  -0.614  -1.211  0.00  0.00     0.003 A 
ATOM      5  C3  PXY d   1       0.895  -1.924  -0.813  0.00  0.00     0.003 A 
ATOM      6  C4  PXY d   1       0.259  -2.337   0.326  0.00  0.00    -0.082 A 
ATOM      7  C5  PXY d   1      -0.477  -1.455   1.035  0.00  0.00     0.003 A 
ATOM      8  C6  PXY d   1      -0.571  -0.139   0.591  0.00  0.00     0.003 A 
ENDROOT
TORSDOF 0
ENDMDL
