MODEL 1
REMARK minimizedAffinity -5.51752806
REMARK minimizedRMSD -1
REMARK  0 active torsions:
REMARK  status: ('A' for Active; 'I' for Inactive)
ROOT
ATOM      1  C4' PXY d   1      -0.766  -1.771   2.082  0.00  0.00     0.077 C 
ATOM      2  C1' PXY d   1       0.640  -0.340  -3.339  0.00  0.00     0.077 C 
ATOM      3  C1  PXY d   1       0.274  -0.704  -1.913  0.00  0.00    -0.082 A 
ATOM      4  C2  PXY d   1       0.314  -1.969  -1.530  0.00  0.00     0.003 A 
ATOM      5  C3  PXY d   1      -0.045  -2.319  -0.253  0.00  0.00     0.003 A 
ATOM      6  C4  PXY d   1      -0.396  -1.357   0.656  0.00  0.00    -0.082 A 
ATOM      7  C5  PXY d   1      -0.428  -0.063   0.275  0.00  0.00     0.003 A 
ATOM      8  C6  PXY d   1      -0.101   0.267  -1.036  0.00  0.00     0.003 A 
ENDROOT
TORSDOF 0
ENDMDL
