MODEL 1
REMARK minimizedAffinity -4.93380404
REMARK minimizedRMSD -1
REMARK  0 active torsions:
REMARK  status: ('A' for Active; 'I' for Inactive)
ROOT
ATOM      1  C4' PXY d   1      -0.432  -3.002   0.391  0.00  0.00     0.077 C 
ATOM      2  C1' PXY d   1       0.888   2.622   0.590  0.00  0.00     0.077 C 
ATOM      3  C1  PXY d   1       0.544   1.147   0.525  0.00  0.00    -0.082 A 
ATOM      4  C2  PXY d   1      -0.188   0.604   1.484  0.00  0.00     0.003 A 
ATOM      5  C3  PXY d   1      -0.482  -0.735   1.458  0.00  0.00     0.003 A 
ATOM      6  C4  PXY d   1      -0.068  -1.515   0.411  0.00  0.00    -0.082 A 
ATOM      7  C5  PXY d   1       0.670  -0.965  -0.577  0.00  0.00     0.003 A 
ATOM      8  C6  PXY d   1       0.993   0.387  -0.510  0.00  0.00     0.003 A 
ENDROOT
TORSDOF 0
ENDMDL
