MODEL 1
REMARK minimizedAffinity -4.82924461
REMARK minimizedRMSD -1
REMARK  0 active torsions:
REMARK  status: ('A' for Active; 'I' for Inactive)
ROOT
ATOM      1  C4' PXY d   1      -0.236  -3.777   0.634  0.00  0.00     0.077 C 
ATOM      2  C1' PXY d   1       0.142   1.717  -1.125  0.00  0.00     0.077 C 
ATOM      3  C1  PXY d   1       0.044   0.272  -0.676  0.00  0.00    -0.082 A 
ATOM      4  C2  PXY d   1      -0.560  -0.019   0.465  0.00  0.00     0.003 A 
ATOM      5  C3  PXY d   1      -0.629  -1.317   0.902  0.00  0.00     0.003 A 
ATOM      6  C4  PXY d   1      -0.122  -2.333   0.137  0.00  0.00    -0.082 A 
ATOM      7  C5  PXY d   1       0.486  -2.045  -1.033  0.00  0.00     0.003 A 
ATOM      8  C6  PXY d   1       0.582  -0.717  -1.439  0.00  0.00     0.003 A 
ENDROOT
TORSDOF 0
ENDMDL
