MODEL 1
REMARK minimizedAffinity -4.89409733
REMARK minimizedRMSD -1
REMARK  0 active torsions:
REMARK  status: ('A' for Active; 'I' for Inactive)
ROOT
ATOM      1  C4' PXY d   1       1.054   2.386  -0.105  0.00  0.00     0.077 C 
ATOM      2  C1' PXY d   1      -0.821  -3.034   0.621  0.00  0.00     0.077 C 
ATOM      3  C1  PXY d   1      -0.318  -1.617   0.426  0.00  0.00    -0.082 A 
ATOM      4  C2  PXY d   1      -0.849  -0.632   1.132  0.00  0.00     0.003 A 
ATOM      5  C3  PXY d   1      -0.428   0.660   0.945  0.00  0.00     0.003 A 
ATOM      6  C4  PXY d   1       0.584   0.939   0.065  0.00  0.00    -0.082 A 
ATOM      7  C5  PXY d   1       1.138  -0.063  -0.651  0.00  0.00     0.003 A 
ATOM      8  C6  PXY d   1       0.668  -1.361  -0.476  0.00  0.00     0.003 A 
ENDROOT
TORSDOF 0
ENDMDL
