MODEL 1
REMARK minimizedAffinity -2.51227117
REMARK minimizedRMSD -1
REMARK  0 active torsions:
REMARK  status: ('A' for Active; 'I' for Inactive)
ROOT
ATOM      1  C4' PXY d   1      -0.659   1.532   0.168  0.00  0.00     0.077 C 
ATOM      2  C1' PXY d   1       0.324  -4.138  -0.373  0.00  0.00     0.077 C 
ATOM      3  C1  PXY d   1       0.055  -2.654  -0.226  0.00  0.00    -0.082 A 
ATOM      4  C2  PXY d   1       0.712  -1.791  -0.985  0.00  0.00     0.003 A 
ATOM      5  C3  PXY d   1       0.503  -0.444  -0.843  0.00  0.00     0.003 A 
ATOM      6  C4  PXY d   1      -0.426   0.024   0.047  0.00  0.00    -0.082 A 
ATOM      7  C5  PXY d   1      -1.108  -0.850   0.817  0.00  0.00     0.003 A 
ATOM      8  C6  PXY d   1      -0.852  -2.212   0.687  0.00  0.00     0.003 A 
ENDROOT
TORSDOF 0
ENDMDL
