MODEL 1
REMARK minimizedAffinity -3.72178245
REMARK minimizedRMSD -1
REMARK  0 active torsions:
REMARK  status: ('A' for Active; 'I' for Inactive)
ROOT
ATOM      1  C4' PXY d   1       0.326   2.398  -0.003  0.00  0.00     0.077 C 
ATOM      2  C1' PXY d   1      -0.620  -3.305   0.012  0.00  0.00     0.077 C 
ATOM      3  C1  PXY d   1      -0.384  -1.808   0.014  0.00  0.00    -0.082 A 
ATOM      4  C2  PXY d   1       0.473  -1.280  -0.845  0.00  0.00     0.003 A 
ATOM      5  C3  PXY d   1       0.723   0.068  -0.836  0.00  0.00     0.003 A 
ATOM      6  C4  PXY d   1       0.049   0.892   0.025  0.00  0.00    -0.082 A 
ATOM      7  C5  PXY d   1      -0.835   0.363   0.897  0.00  0.00     0.003 A 
ATOM      8  C6  PXY d   1      -1.044  -1.014   0.900  0.00  0.00     0.003 A 
ENDROOT
TORSDOF 0
ENDMDL
