MODEL 1
REMARK minimizedAffinity -3.87235594
REMARK minimizedRMSD -1
REMARK  0 active torsions:
REMARK  status: ('A' for Active; 'I' for Inactive)
ROOT
ATOM      1  C4' PXY d   1      -1.549  -0.736   3.114  0.00  0.00     0.077 C 
ATOM      2  C1' PXY d   1       1.138  -1.160  -1.986  0.00  0.00     0.077 C 
ATOM      3  C1  PXY d   1       0.429  -1.061  -0.649  0.00  0.00    -0.082 A 
ATOM      4  C2  PXY d   1       0.067   0.125  -0.187  0.00  0.00     0.003 A 
ATOM      5  C3  PXY d   1      -0.547   0.235   1.034  0.00  0.00     0.003 A 
ATOM      6  C4  PXY d   1      -0.840  -0.884   1.766  0.00  0.00    -0.082 A 
ATOM      7  C5  PXY d   1      -0.483  -2.098   1.296  0.00  0.00     0.003 A 
ATOM      8  C6  PXY d   1       0.176  -2.186   0.073  0.00  0.00     0.003 A 
ENDROOT
TORSDOF 0
ENDMDL
