MODEL 1
REMARK minimizedAffinity -4.77864647
REMARK minimizedRMSD -1
REMARK  0 active torsions:
REMARK  status: ('A' for Active; 'I' for Inactive)
ROOT
ATOM      1  C4' PXY d   1       1.433  -1.837  -2.258  0.00  0.00     0.077 C 
ATOM      2  C1' PXY d   1      -1.606  -0.935   2.576  0.00  0.00     0.077 C 
ATOM      3  C1  PXY d   1      -0.805  -1.183   1.313  0.00  0.00    -0.082 A 
ATOM      4  C2  PXY d   1      -0.375  -0.156   0.598  0.00  0.00     0.003 A 
ATOM      5  C3  PXY d   1       0.323  -0.363  -0.564  0.00  0.00     0.003 A 
ATOM      6  C4  PXY d   1       0.629  -1.633  -0.971  0.00  0.00    -0.082 A 
ATOM      7  C5  PXY d   1       0.204  -2.687  -0.242  0.00  0.00     0.003 A 
ATOM      8  C6  PXY d   1      -0.539  -2.456   0.913  0.00  0.00     0.003 A 
ENDROOT
TORSDOF 0
ENDMDL
