MODEL 1
REMARK minimizedAffinity -0.291842759
REMARK minimizedRMSD -1
REMARK  0 active torsions:
REMARK  status: ('A' for Active; 'I' for Inactive)
ROOT
ATOM      1  C4' PXY d   1      -0.032   1.552  -0.443  0.00  0.00     0.077 C 
ATOM      2  C1' PXY d   1       0.164  -4.111   0.701  0.00  0.00     0.077 C 
ATOM      3  C1  PXY d   1       0.100  -2.626   0.404  0.00  0.00    -0.082 A 
ATOM      4  C2  PXY d   1       0.976  -2.087  -0.427  0.00  0.00     0.003 A 
ATOM      5  C3  PXY d   1       0.953  -0.740  -0.682  0.00  0.00     0.003 A 
ATOM      6  C4  PXY d   1      -0.011   0.055  -0.121  0.00  0.00    -0.082 A 
ATOM      7  C5  PXY d   1      -0.916  -0.490   0.720  0.00  0.00     0.003 A 
ATOM      8  C6  PXY d   1      -0.849  -1.852   0.997  0.00  0.00     0.003 A 
ENDROOT
TORSDOF 0
ENDMDL
