MODEL 1
REMARK minimizedAffinity -2.03176522
REMARK minimizedRMSD -1
REMARK  0 active torsions:
REMARK  status: ('A' for Active; 'I' for Inactive)
ROOT
ATOM      1  C4' PXY d   1       0.889   2.293  -0.197  0.00  0.00     0.077 C 
ATOM      2  C1' PXY d   1      -1.279  -3.032   0.402  0.00  0.00     0.077 C 
ATOM      3  C1  PXY d   1      -0.705  -1.639   0.234  0.00  0.00    -0.082 A 
ATOM      4  C2  PXY d   1      -0.568  -0.856   1.291  0.00  0.00     0.003 A 
ATOM      5  C3  PXY d   1      -0.080   0.418   1.153  0.00  0.00     0.003 A 
ATOM      6  C4  PXY d   1       0.322   0.876  -0.073  0.00  0.00    -0.082 A 
ATOM      7  C5  PXY d   1       0.195   0.080  -1.156  0.00  0.00     0.003 A 
ATOM      8  C6  PXY d   1      -0.341  -1.195  -1.000  0.00  0.00     0.003 A 
ENDROOT
TORSDOF 0
ENDMDL
