MODEL 1
REMARK minimizedAffinity -3.38084579
REMARK minimizedRMSD -1
REMARK  0 active torsions:
REMARK  status: ('A' for Active; 'I' for Inactive)
ROOT
ATOM      1  C4' PXY d   1       0.002  -3.373   0.373  0.00  0.00     0.077 C 
ATOM      2  C1' PXY d   1      -0.612   2.355  -0.104  0.00  0.00     0.077 C 
ATOM      3  C1  PXY d   1      -0.455   0.854   0.034  0.00  0.00    -0.082 A 
ATOM      4  C2  PXY d   1       0.350   0.202  -0.790  0.00  0.00     0.003 A 
ATOM      5  C3  PXY d   1       0.479  -1.160  -0.700  0.00  0.00     0.003 A 
ATOM      6  C4  PXY d   1      -0.181  -1.856   0.277  0.00  0.00    -0.082 A 
ATOM      7  C5  PXY d   1      -0.995  -1.197   1.128  0.00  0.00     0.003 A 
ATOM      8  C6  PXY d   1      -1.145   0.181   0.994  0.00  0.00     0.003 A 
ENDROOT
TORSDOF 0
ENDMDL
