MODEL 1
REMARK minimizedAffinity -3.87949061
REMARK minimizedRMSD -1
REMARK  0 active torsions:
REMARK  status: ('A' for Active; 'I' for Inactive)
ROOT
ATOM      1  C4' PXY d   1       0.393   2.314  -0.180  0.00  0.00     0.077 C 
ATOM      2  C1' PXY d   1      -0.065  -3.428   0.306  0.00  0.00     0.077 C 
ATOM      3  C1  PXY d   1       0.043  -1.921   0.184  0.00  0.00    -0.082 A 
ATOM      4  C2  PXY d   1       0.856  -1.394  -0.718  0.00  0.00     0.003 A 
ATOM      5  C3  PXY d   1       0.990  -0.033  -0.820  0.00  0.00     0.003 A 
ATOM      6  C4  PXY d   1       0.245   0.798  -0.028  0.00  0.00    -0.082 A 
ATOM      7  C5  PXY d   1      -0.595   0.269   0.887  0.00  0.00     0.003 A 
ATOM      8  C6  PXY d   1      -0.686  -1.115   1.003  0.00  0.00     0.003 A 
ENDROOT
TORSDOF 0
ENDMDL
