MODEL 1
REMARK minimizedAffinity 4.64359856
REMARK minimizedRMSD -1
REMARK  0 active torsions:
REMARK  status: ('A' for Active; 'I' for Inactive)
ROOT
ATOM      1  C   UNL d   1      -3.909  -1.864   3.134  0.00  0.00     0.078 C 
ATOM      2  C1  UNL d   1      -3.117  -1.294   1.995  0.00  0.00    -0.077 A 
ATOM      3  C2  UNL d   1      -3.221  -1.829   0.705  0.00  0.00    -0.001 A 
ATOM      4  C3  UNL d   1      -2.471  -1.294  -0.343  0.00  0.00     0.003 A 
ATOM      5  C4  UNL d   1      -1.610  -0.223  -0.113  0.00  0.00    -0.005 A 
ATOM      6  C5  UNL d   1      -1.498   0.314   1.168  0.00  0.00     0.003 A 
ATOM      7  C6  UNL d   1      -2.248  -0.219   2.218  0.00  0.00    -0.001 A 
ENDROOT
TORSDOF 0
ENDMDL
