MODEL 1
REMARK minimizedAffinity 2.3039248
REMARK minimizedRMSD -1
REMARK  0 active torsions:
REMARK  status: ('A' for Active; 'I' for Inactive)
ROOT
ATOM      1  C   UNL d   1       1.842  -0.222   1.891  0.00  0.00     0.078 C 
ATOM      2  C1  UNL d   1       0.503  -0.234   1.217  0.00  0.00    -0.077 A 
ATOM      3  C2  UNL d   1      -0.612   0.362   1.818  0.00  0.00    -0.001 A 
ATOM      4  C3  UNL d   1      -1.855   0.335   1.183  0.00  0.00     0.003 A 
ATOM      5  C4  UNL d   1      -1.995  -0.287  -0.056  0.00  0.00    -0.005 A 
ATOM      6  C5  UNL d   1      -0.891  -0.884  -0.661  0.00  0.00     0.003 A 
ATOM      7  C6  UNL d   1       0.352  -0.858  -0.028  0.00  0.00    -0.001 A 
ENDROOT
TORSDOF 0
ENDMDL
