MODEL 1
REMARK minimizedAffinity -2.24669051
REMARK minimizedRMSD -1
REMARK  0 active torsions:
REMARK  status: ('A' for Active; 'I' for Inactive)
ROOT
ATOM      1  C   UNL d   1       1.312  -1.034   0.474  0.00  0.00     0.078 C 
ATOM      2  C1  UNL d   1      -0.138  -0.769   0.754  0.00  0.00    -0.077 A 
ATOM      3  C2  UNL d   1      -1.097  -0.860  -0.262  0.00  0.00    -0.001 A 
ATOM      4  C3  UNL d   1      -2.441  -0.601   0.011  0.00  0.00     0.003 A 
ATOM      5  C4  UNL d   1      -2.838  -0.247   1.299  0.00  0.00    -0.005 A 
ATOM      6  C5  UNL d   1      -1.890  -0.152   2.316  0.00  0.00     0.003 A 
ATOM      7  C6  UNL d   1      -0.546  -0.411   2.045  0.00  0.00    -0.001 A 
ENDROOT
TORSDOF 0
ENDMDL
