MODEL 1
REMARK minimizedAffinity 5.77297163
REMARK minimizedRMSD -1
REMARK  0 active torsions:
REMARK  status: ('A' for Active; 'I' for Inactive)
ROOT
ATOM      1  C   UNL d   1       1.063  -0.347   1.017  0.00  0.00     0.078 C 
ATOM      2  C1  UNL d   1      -0.409  -0.296   0.737  0.00  0.00    -0.077 A 
ATOM      3  C2  UNL d   1      -1.262   0.506   1.505  0.00  0.00    -0.001 A 
ATOM      4  C3  UNL d   1      -2.632   0.536   1.239  0.00  0.00     0.003 A 
ATOM      5  C4  UNL d   1      -3.161  -0.235   0.206  0.00  0.00    -0.005 A 
ATOM      6  C5  UNL d   1      -2.321  -1.038  -0.562  0.00  0.00     0.003 A 
ATOM      7  C6  UNL d   1      -0.951  -1.069  -0.298  0.00  0.00    -0.001 A 
ENDROOT
TORSDOF 0
ENDMDL
