MODEL 1
REMARK minimizedAffinity -2.01513863
REMARK minimizedRMSD -1
REMARK  0 active torsions:
REMARK  status: ('A' for Active; 'I' for Inactive)
ROOT
ATOM      1  C   UNL d   1      -2.248   0.351   2.215  0.00  0.00     0.078 C 
ATOM      2  C1  UNL d   1      -1.697  -0.576   3.256  0.00  0.00    -0.077 A 
ATOM      3  C2  UNL d   1      -0.316  -0.690   3.462  0.00  0.00    -0.001 A 
ATOM      4  C3  UNL d   1       0.184  -1.565   4.428  0.00  0.00     0.003 A 
ATOM      5  C4  UNL d   1      -0.690  -2.333   5.195  0.00  0.00    -0.005 A 
ATOM      6  C5  UNL d   1      -2.065  -2.228   4.996  0.00  0.00     0.003 A 
ATOM      7  C6  UNL d   1      -2.567  -1.354   4.031  0.00  0.00    -0.001 A 
ENDROOT
TORSDOF 0
ENDMDL
