MODEL 1
REMARK minimizedAffinity 0.0451753251
REMARK minimizedRMSD -1
REMARK  0 active torsions:
REMARK  status: ('A' for Active; 'I' for Inactive)
ROOT
ATOM      1  C   UNL d   1       0.975  -0.506   1.181  0.00  0.00     0.078 C 
ATOM      2  C1  UNL d   1      -0.422  -0.285   0.683  0.00  0.00    -0.077 A 
ATOM      3  C2  UNL d   1      -1.364   0.400   1.460  0.00  0.00    -0.001 A 
ATOM      4  C3  UNL d   1      -2.664   0.591   0.988  0.00  0.00     0.003 A 
ATOM      5  C4  UNL d   1      -3.034   0.098  -0.262  0.00  0.00    -0.005 A 
ATOM      6  C5  UNL d   1      -2.103  -0.587  -1.041  0.00  0.00     0.003 A 
ATOM      7  C6  UNL d   1      -0.803  -0.778  -0.571  0.00  0.00    -0.001 A 
ENDROOT
TORSDOF 0
ENDMDL
