MODEL 1
REMARK minimizedAffinity -0.0683683455
REMARK minimizedRMSD -1
REMARK  0 active torsions:
REMARK  status: ('A' for Active; 'I' for Inactive)
ROOT
ATOM      1  C   UNL d   1       1.363  -0.411   1.215  0.00  0.00     0.078 C 
ATOM      2  C1  UNL d   1      -0.069  -0.302   0.784  0.00  0.00    -0.077 A 
ATOM      3  C2  UNL d   1      -0.458  -0.635  -0.519  0.00  0.00    -0.001 A 
ATOM      4  C3  UNL d   1      -1.793  -0.519  -0.909  0.00  0.00     0.003 A 
ATOM      5  C4  UNL d   1      -2.750  -0.070  -0.002  0.00  0.00    -0.005 A 
ATOM      6  C5  UNL d   1      -2.373   0.265   1.297  0.00  0.00     0.003 A 
ATOM      7  C6  UNL d   1      -1.038   0.150   1.689  0.00  0.00    -0.001 A 
ENDROOT
TORSDOF 0
ENDMDL
