MODEL 1
REMARK minimizedAffinity 5.9588809
REMARK minimizedRMSD -1
REMARK  0 active torsions:
REMARK  status: ('A' for Active; 'I' for Inactive)
ROOT
ATOM      1  C   UNL d   1      -1.770   0.098   2.307  0.00  0.00     0.078 C 
ATOM      2  C1  UNL d   1      -0.463  -0.399   2.848  0.00  0.00    -0.077 A 
ATOM      3  C2  UNL d   1      -0.359  -0.872   4.162  0.00  0.00    -0.001 A 
ATOM      4  C3  UNL d   1       0.867  -1.322   4.655  0.00  0.00     0.003 A 
ATOM      5  C4  UNL d   1       1.998  -1.302   3.842  0.00  0.00    -0.005 A 
ATOM      6  C5  UNL d   1       1.905  -0.831   2.534  0.00  0.00     0.003 A 
ATOM      7  C6  UNL d   1       0.681  -0.380   2.039  0.00  0.00    -0.001 A 
ENDROOT
TORSDOF 0
ENDMDL
