MODEL 1
REMARK minimizedAffinity -3.48847723
REMARK minimizedRMSD -1
REMARK  0 active torsions:
REMARK  status: ('A' for Active; 'I' for Inactive)
ROOT
ATOM      1  C   UNL d   1       1.551  -1.344   5.348  0.00  0.00     0.078 C 
ATOM      2  C1  UNL d   1       1.071  -0.899   3.999  0.00  0.00    -0.077 A 
ATOM      3  C2  UNL d   1       1.929  -0.896   2.892  0.00  0.00    -0.001 A 
ATOM      4  C3  UNL d   1       1.472  -0.471   1.645  0.00  0.00     0.003 A 
ATOM      5  C4  UNL d   1       0.154  -0.043   1.491  0.00  0.00    -0.005 A 
ATOM      6  C5  UNL d   1      -0.707  -0.040   2.586  0.00  0.00     0.003 A 
ATOM      7  C6  UNL d   1      -0.251  -0.466   3.835  0.00  0.00    -0.001 A 
ENDROOT
TORSDOF 0
ENDMDL
