MODEL 1
REMARK minimizedAffinity -4.63849306
REMARK minimizedRMSD -1
REMARK  0 active torsions:
REMARK  status: ('A' for Active; 'I' for Inactive)
ROOT
ATOM      1  C   UNL d   1      -2.891  -0.758  -0.497  0.00  0.00     0.020 A 
ATOM      2  C1  UNL d   1      -2.392  -0.561   0.790  0.00  0.00     0.020 A 
ATOM      3  C2  UNL d   1      -1.053  -0.210   0.973  0.00  0.00     0.034 A 
ATOM      4  C3  UNL d   1      -0.208  -0.056  -0.132  0.00  0.00     0.017 A 
ATOM      5  C4  UNL d   1      -0.710  -0.254  -1.423  0.00  0.00     0.017 A 
ATOM      6  C5  UNL d   1      -2.052  -0.605  -1.601  0.00  0.00     0.034 A 
ATOM      7 Cl   UNL d   1       0.271  -0.081  -2.836  0.00  0.00    -0.070 Cl
ATOM      8 Cl1  UNL d   1       1.437   0.380   0.168  0.00  0.00    -0.070 Cl
ENDROOT
TORSDOF 0
ENDMDL
