MODEL 1
REMARK minimizedAffinity -5.37621307
REMARK minimizedRMSD -1
REMARK  0 active torsions:
REMARK  status: ('A' for Active; 'I' for Inactive)
ROOT
ATOM      1  C   UNL d   1      -0.240   0.205  -1.674  0.00  0.00     0.020 A 
ATOM      2  C1  UNL d   1       0.811  -0.254  -0.882  0.00  0.00     0.020 A 
ATOM      3  C2  UNL d   1       0.544  -0.982   0.279  0.00  0.00     0.034 A 
ATOM      4  C3  UNL d   1      -0.778  -1.253   0.652  0.00  0.00     0.017 A 
ATOM      5  C4  UNL d   1      -1.832  -0.791  -0.144  0.00  0.00     0.017 A 
ATOM      6  C5  UNL d   1      -1.559  -0.063  -1.306  0.00  0.00     0.034 A 
ATOM      7 Cl   UNL d   1      -3.489  -1.086   0.250  0.00  0.00    -0.070 Cl
ATOM      8 Cl1  UNL d   1      -1.035  -2.159   2.100  0.00  0.00    -0.070 Cl
ENDROOT
TORSDOF 0
ENDMDL
