MODEL 1
REMARK minimizedAffinity -3.37642121
REMARK minimizedRMSD -1
REMARK  0 active torsions:
REMARK  status: ('A' for Active; 'I' for Inactive)
ROOT
ATOM      1  C   UNL d   1      -1.836   0.026  -1.492  0.00  0.00     0.020 A 
ATOM      2  C1  UNL d   1      -2.490  -0.762  -0.545  0.00  0.00     0.020 A 
ATOM      3  C2  UNL d   1      -1.751  -1.463   0.410  0.00  0.00     0.034 A 
ATOM      4  C3  UNL d   1      -0.354  -1.376   0.422  0.00  0.00     0.017 A 
ATOM      5  C4  UNL d   1       0.301  -0.585  -0.528  0.00  0.00     0.017 A 
ATOM      6  C5  UNL d   1      -0.444   0.114  -1.483  0.00  0.00     0.034 A 
ATOM      7 Cl   UNL d   1       2.022  -0.428  -0.577  0.00  0.00    -0.070 Cl
ATOM      8 Cl1  UNL d   1       0.496  -2.268   1.633  0.00  0.00    -0.070 Cl
ENDROOT
TORSDOF 0
ENDMDL
