MODEL 1
REMARK minimizedAffinity -0.631667614
REMARK minimizedRMSD -1
REMARK  0 active torsions:
REMARK  status: ('A' for Active; 'I' for Inactive)
ROOT
ATOM      1  C   UNL d   1       0.359   0.493  -1.479  0.00  0.00     0.020 A 
ATOM      2  C1  UNL d   1       1.156   0.152  -0.387  0.00  0.00     0.020 A 
ATOM      3  C2  UNL d   1       0.595  -0.514   0.705  0.00  0.00     0.034 A 
ATOM      4  C3  UNL d   1      -0.766  -0.840   0.707  0.00  0.00     0.017 A 
ATOM      5  C4  UNL d   1      -1.565  -0.496  -0.389  0.00  0.00     0.017 A 
ATOM      6  C5  UNL d   1      -0.998   0.170  -1.480  0.00  0.00     0.034 A 
ATOM      7 Cl   UNL d   1      -3.252  -0.865  -0.459  0.00  0.00    -0.070 Cl
ATOM      8 Cl1  UNL d   1      -1.393  -1.663   2.091  0.00  0.00    -0.070 Cl
ENDROOT
TORSDOF 0
ENDMDL
