MODEL 1
REMARK minimizedAffinity -1.64621198
REMARK minimizedRMSD -1
REMARK  0 active torsions:
REMARK  status: ('A' for Active; 'I' for Inactive)
ROOT
ATOM      1  C   UNL d   1      -2.464   0.892  -1.673  0.00  0.00     0.020 A 
ATOM      2  C1  UNL d   1      -3.176  -0.136  -1.055  0.00  0.00     0.020 A 
ATOM      3  C2  UNL d   1      -2.532  -0.988  -0.156  0.00  0.00     0.034 A 
ATOM      4  C3  UNL d   1      -1.173  -0.815   0.129  0.00  0.00     0.017 A 
ATOM      5  C4  UNL d   1      -0.459   0.217  -0.492  0.00  0.00     0.017 A 
ATOM      6  C5  UNL d   1      -1.109   1.068  -1.392  0.00  0.00     0.034 A 
ATOM      7 Cl   UNL d   1       1.220   0.494  -0.191  0.00  0.00    -0.070 Cl
ATOM      8 Cl1  UNL d   1      -0.441  -1.905   1.251  0.00  0.00    -0.070 Cl
ENDROOT
TORSDOF 0
ENDMDL
