MODEL 1
REMARK minimizedAffinity -5.15851212
REMARK minimizedRMSD -1
REMARK  0 active torsions:
REMARK  status: ('A' for Active; 'I' for Inactive)
ROOT
ATOM      1  C   UNL d   1      -3.108  -0.973   0.181  0.00  0.00     0.020 A 
ATOM      2  C1  UNL d   1      -2.797   0.158  -0.573  0.00  0.00     0.020 A 
ATOM      3  C2  UNL d   1      -1.466   0.558  -0.715  0.00  0.00     0.034 A 
ATOM      4  C3  UNL d   1      -0.442  -0.172  -0.101  0.00  0.00     0.017 A 
ATOM      5  C4  UNL d   1      -0.755  -1.307   0.655  0.00  0.00     0.017 A 
ATOM      6  C5  UNL d   1      -2.089  -1.704   0.794  0.00  0.00     0.034 A 
ATOM      7 Cl   UNL d   1       0.454  -2.259   1.442  0.00  0.00    -0.070 Cl
ATOM      8 Cl1  UNL d   1       1.180   0.381  -0.319  0.00  0.00    -0.070 Cl
ENDROOT
TORSDOF 0
ENDMDL
