MODEL 1
REMARK minimizedAffinity -4.70954227
REMARK minimizedRMSD -1
REMARK  0 active torsions:
REMARK  status: ('A' for Active; 'I' for Inactive)
ROOT
ATOM      1  C   UNL d   1      -2.491  -0.664   0.857  0.00  0.00     0.020 A 
ATOM      2  C1  UNL d   1      -3.128  -0.550  -0.378  0.00  0.00     0.020 A 
ATOM      3  C2  UNL d   1      -2.410  -0.125  -1.498  0.00  0.00     0.034 A 
ATOM      4  C3  UNL d   1      -1.050   0.186  -1.385  0.00  0.00     0.017 A 
ATOM      5  C4  UNL d   1      -0.411   0.071  -0.145  0.00  0.00     0.017 A 
ATOM      6  C5  UNL d   1      -1.136  -0.354   0.973  0.00  0.00     0.034 A 
ATOM      7 Cl   UNL d   1       1.264   0.437   0.072  0.00  0.00    -0.070 Cl
ATOM      8 Cl1  UNL d   1      -0.224   0.704  -2.811  0.00  0.00    -0.070 Cl
ENDROOT
TORSDOF 0
ENDMDL
