MODEL 1
REMARK minimizedAffinity -3.30569339
REMARK minimizedRMSD -1
REMARK  0 active torsions:
REMARK  status: ('A' for Active; 'I' for Inactive)
ROOT
ATOM      1  C   UNL d   1       3.236   3.028   2.292  0.00  0.00     0.020 A 
ATOM      2  C1  UNL d   1       2.467   1.924   2.660  0.00  0.00     0.020 A 
ATOM      3  C2  UNL d   1       2.043   1.014   1.690  0.00  0.00     0.034 A 
ATOM      4  C3  UNL d   1       2.387   1.205   0.347  0.00  0.00     0.017 A 
ATOM      5  C4  UNL d   1       3.159   2.313  -0.022  0.00  0.00     0.017 A 
ATOM      6  C5  UNL d   1       3.581   3.222   0.954  0.00  0.00     0.034 A 
ATOM      7 Cl   UNL d   1       3.623   2.616  -1.659  0.00  0.00    -0.070 Cl
ATOM      8 Cl1  UNL d   1       1.828   0.039  -0.800  0.00  0.00    -0.070 Cl
ENDROOT
TORSDOF 0
ENDMDL
