MODEL 1
REMARK minimizedAffinity 1.04963648
REMARK minimizedRMSD -1
REMARK  0 active torsions:
REMARK  status: ('A' for Active; 'I' for Inactive)
ROOT
ATOM      1  C   UNL d   1       1.188   0.613   0.485  0.00  0.00     0.020 A 
ATOM      2  C1  UNL d   1       0.912   0.558  -0.881  0.00  0.00     0.020 A 
ATOM      3  C2  UNL d   1      -0.190  -0.166  -1.341  0.00  0.00     0.034 A 
ATOM      4  C3  UNL d   1      -1.020  -0.837  -0.436  0.00  0.00     0.017 A 
ATOM      5  C4  UNL d   1      -0.742  -0.780   0.935  0.00  0.00     0.017 A 
ATOM      6  C5  UNL d   1       0.362  -0.054   1.391  0.00  0.00     0.034 A 
ATOM      7 Cl   UNL d   1      -1.721  -1.582   2.113  0.00  0.00    -0.070 Cl
ATOM      8 Cl1  UNL d   1      -2.366  -1.712  -1.075  0.00  0.00    -0.070 Cl
ENDROOT
TORSDOF 0
ENDMDL
