MODEL 1
REMARK minimizedAffinity -1.32189381
REMARK minimizedRMSD -1
REMARK  0 active torsions:
REMARK  status: ('A' for Active; 'I' for Inactive)
ROOT
ATOM      1  C   UNL d   1       2.311   3.562   0.860  0.00  0.00     0.020 A 
ATOM      2  C1  UNL d   1       3.312   2.787   1.445  0.00  0.00     0.020 A 
ATOM      3  C2  UNL d   1       3.298   1.399   1.295  0.00  0.00     0.034 A 
ATOM      4  C3  UNL d   1       2.280   0.781   0.559  0.00  0.00     0.017 A 
ATOM      5  C4  UNL d   1       1.276   1.559  -0.028  0.00  0.00     0.017 A 
ATOM      6  C5  UNL d   1       1.296   2.949   0.125  0.00  0.00     0.034 A 
ATOM      7 Cl   UNL d   1      -0.012   0.869  -0.951  0.00  0.00    -0.070 Cl
ATOM      8 Cl1  UNL d   1       2.325  -0.941   0.415  0.00  0.00    -0.070 Cl
ENDROOT
TORSDOF 0
ENDMDL
