MODEL 1
REMARK minimizedAffinity -3.19589186
REMARK minimizedRMSD -1
REMARK  0 active torsions:
REMARK  status: ('A' for Active; 'I' for Inactive)
ROOT
ATOM      1  C   UNL d   1      -2.192  -0.052  -1.182  0.00  0.00     0.020 A 
ATOM      2  C1  UNL d   1      -1.329   0.908  -1.708  0.00  0.00     0.020 A 
ATOM      3  C2  UNL d   1      -0.027   1.021  -1.216  0.00  0.00     0.034 A 
ATOM      4  C3  UNL d   1       0.415   0.172  -0.194  0.00  0.00     0.017 A 
ATOM      5  C4  UNL d   1      -0.452  -0.791   0.333  0.00  0.00     0.017 A 
ATOM      6  C5  UNL d   1      -1.755  -0.899  -0.164  0.00  0.00     0.034 A 
ATOM      7 Cl   UNL d   1       0.021  -1.874   1.594  0.00  0.00    -0.070 Cl
ATOM      8 Cl1  UNL d   1       2.038   0.367   0.366  0.00  0.00    -0.070 Cl
ENDROOT
TORSDOF 0
ENDMDL
