MODEL 1
REMARK minimizedAffinity -0.826978564
REMARK minimizedRMSD -1
REMARK  0 active torsions:
REMARK  status: ('A' for Active; 'I' for Inactive)
ROOT
ATOM      1  C   UNL d   1       1.480   0.544  -0.284  0.00  0.00     0.020 A 
ATOM      2  C1  UNL d   1       0.626   0.922  -1.319  0.00  0.00     0.020 A 
ATOM      3  C2  UNL d   1      -0.660   0.382  -1.395  0.00  0.00     0.034 A 
ATOM      4  C3  UNL d   1      -1.095  -0.539  -0.435  0.00  0.00     0.017 A 
ATOM      5  C4  UNL d   1      -0.237  -0.917   0.603  0.00  0.00     0.017 A 
ATOM      6  C5  UNL d   1       1.050  -0.374   0.675  0.00  0.00     0.034 A 
ATOM      7 Cl   UNL d   1      -0.702  -2.048   1.825  0.00  0.00    -0.070 Cl
ATOM      8 Cl1  UNL d   1      -2.698  -1.165  -0.591  0.00  0.00    -0.070 Cl
ENDROOT
TORSDOF 0
ENDMDL
