MODEL 1
REMARK minimizedAffinity -2.77945638
REMARK minimizedRMSD -1
REMARK  0 active torsions:
REMARK  status: ('A' for Active; 'I' for Inactive)
ROOT
ATOM      1  C   UNL d   1      -2.009  -0.636   0.567  0.00  0.00     0.020 A 
ATOM      2  C1  UNL d   1      -2.563  -0.688  -0.711  0.00  0.00     0.020 A 
ATOM      3  C2  UNL d   1      -1.812  -0.279  -1.815  0.00  0.00     0.034 A 
ATOM      4  C3  UNL d   1      -0.502   0.183  -1.642  0.00  0.00     0.017 A 
ATOM      5  C4  UNL d   1       0.053   0.235  -0.359  0.00  0.00     0.017 A 
ATOM      6  C5  UNL d   1      -0.704  -0.176   0.743  0.00  0.00     0.034 A 
ATOM      7 Cl   UNL d   1       1.663   0.793  -0.067  0.00  0.00    -0.070 Cl
ATOM      8 Cl1  UNL d   1       0.370   0.672  -3.052  0.00  0.00    -0.070 Cl
ENDROOT
TORSDOF 0
ENDMDL
