MODEL 1
REMARK minimizedAffinity -4.10084963
REMARK minimizedRMSD -1
REMARK  0 active torsions:
REMARK  status: ('A' for Active; 'I' for Inactive)
ROOT
ATOM      1  C   UNL d   1      -3.032  -0.801  -0.004  0.00  0.00     0.020 A 
ATOM      2  C1  UNL d   1      -2.358  -1.016   1.197  0.00  0.00     0.020 A 
ATOM      3  C2  UNL d   1      -1.003  -0.696   1.304  0.00  0.00     0.034 A 
ATOM      4  C3  UNL d   1      -0.317  -0.161   0.208  0.00  0.00     0.017 A 
ATOM      5  C4  UNL d   1      -0.995   0.055  -0.998  0.00  0.00     0.017 A 
ATOM      6  C5  UNL d   1      -2.352  -0.266  -1.099  0.00  0.00     0.034 A 
ATOM      7 Cl   UNL d   1      -0.217   0.713  -2.394  0.00  0.00    -0.070 Cl
ATOM      8 Cl1  UNL d   1       1.358   0.211   0.411  0.00  0.00    -0.070 Cl
ENDROOT
TORSDOF 0
ENDMDL
