MODEL 1
REMARK minimizedAffinity -2.38090611
REMARK minimizedRMSD -1
REMARK  0 active torsions:
REMARK  status: ('A' for Active; 'I' for Inactive)
ROOT
ATOM      1  C   UNL d   1      -2.941  -1.016  -0.734  0.00  0.00     0.020 A 
ATOM      2  C1  UNL d   1      -2.393  -1.105   0.545  0.00  0.00     0.020 A 
ATOM      3  C2  UNL d   1      -1.119  -0.591   0.796  0.00  0.00     0.034 A 
ATOM      4  C3  UNL d   1      -0.389   0.014  -0.233  0.00  0.00     0.017 A 
ATOM      5  C4  UNL d   1      -0.940   0.103  -1.517  0.00  0.00     0.017 A 
ATOM      6  C5  UNL d   1      -2.216  -0.413  -1.762  0.00  0.00     0.034 A 
ATOM      7 Cl   UNL d   1      -0.100   0.836  -2.837  0.00  0.00    -0.070 Cl
ATOM      8 Cl1  UNL d   1       1.181   0.628   0.149  0.00  0.00    -0.070 Cl
ENDROOT
TORSDOF 0
ENDMDL
