MODEL 1
REMARK minimizedAffinity -3.03224397
REMARK minimizedRMSD -1
REMARK  0 active torsions:
REMARK  status: ('A' for Active; 'I' for Inactive)
ROOT
ATOM      1  C   UNL d   1       0.189   0.541  -1.531  0.00  0.00     0.020 A 
ATOM      2  C1  UNL d   1       1.066   0.197  -0.503  0.00  0.00     0.020 A 
ATOM      3  C2  UNL d   1       0.577  -0.397   0.663  0.00  0.00     0.034 A 
ATOM      4  C3  UNL d   1      -0.793  -0.647   0.803  0.00  0.00     0.017 A 
ATOM      5  C4  UNL d   1      -1.673  -0.301  -0.229  0.00  0.00     0.017 A 
ATOM      6  C5  UNL d   1      -1.177   0.293  -1.394  0.00  0.00     0.034 A 
ATOM      7 Cl   UNL d   1      -3.375  -0.580  -0.128  0.00  0.00    -0.070 Cl
ATOM      8 Cl1  UNL d   1      -1.329  -1.385   2.272  0.00  0.00    -0.070 Cl
ENDROOT
TORSDOF 0
ENDMDL
