MODEL 1
REMARK minimizedAffinity -2.45591712
REMARK minimizedRMSD -1
REMARK  0 active torsions:
REMARK  status: ('A' for Active; 'I' for Inactive)
ROOT
ATOM      1  C   UNL d   1       1.309  -0.178   0.476  0.00  0.00     0.020 A 
ATOM      2  C1  UNL d   1       0.389  -0.904   1.231  0.00  0.00     0.020 A 
ATOM      3  C2  UNL d   1      -0.929  -1.034   0.789  0.00  0.00     0.034 A 
ATOM      4  C3  UNL d   1      -1.331  -0.438  -0.411  0.00  0.00     0.017 A 
ATOM      5  C4  UNL d   1      -0.407   0.291  -1.169  0.00  0.00     0.017 A 
ATOM      6  C5  UNL d   1       0.912   0.418  -0.721  0.00  0.00     0.034 A 
ATOM      7 Cl   UNL d   1      -0.828   1.056  -2.660  0.00  0.00    -0.070 Cl
ATOM      8 Cl1  UNL d   1      -2.977  -0.640  -0.898  0.00  0.00    -0.070 Cl
ENDROOT
TORSDOF 0
ENDMDL
