MODEL 1
REMARK minimizedAffinity -1.8289721
REMARK minimizedRMSD -1
REMARK  0 active torsions:
REMARK  status: ('A' for Active; 'I' for Inactive)
ROOT
ATOM      1  C   UNL d   1      -3.135  -0.740  -0.712  0.00  0.00     0.020 A 
ATOM      2  C1  UNL d   1      -2.835  -0.529   0.633  0.00  0.00     0.020 A 
ATOM      3  C2  UNL d   1      -1.539  -0.172   1.012  0.00  0.00     0.034 A 
ATOM      4  C3  UNL d   1      -0.538  -0.024   0.044  0.00  0.00     0.017 A 
ATOM      5  C4  UNL d   1      -0.841  -0.236  -1.306  0.00  0.00     0.017 A 
ATOM      6  C5  UNL d   1      -2.140  -0.594  -1.679  0.00  0.00     0.034 A 
ATOM      7 Cl   UNL d   1       0.341  -0.073  -2.557  0.00  0.00    -0.070 Cl
ATOM      8 Cl1  UNL d   1       1.042   0.420   0.584  0.00  0.00    -0.070 Cl
ENDROOT
TORSDOF 0
ENDMDL
