MODEL 1
REMARK minimizedAffinity 3.48475838
REMARK minimizedRMSD -1
REMARK  1 active torsions:
REMARK  status: ('A' for Active; 'I' for Inactive)
REMARK    1  A    between atoms: C3_4  and  O_7 
ROOT
ATOM      1  C   UNL d   1       2.874   1.706   3.922  0.00  0.00    -0.033 A 
ATOM      2  C1  UNL d   1       2.509   2.718   3.033  0.00  0.00     0.039 A 
ATOM      3  C2  UNL d   1       2.147   2.402   1.722  0.00  0.00    -0.080 A 
ATOM      4  C3  UNL d   1       2.152   1.070   1.315  0.00  0.00     0.150 A 
ATOM      5  C4  UNL d   1       2.511   0.056   2.197  0.00  0.00    -0.007 A 
ATOM      6  C5  UNL d   1       2.874   0.375   3.504  0.00  0.00     0.039 A 
ENDROOT
BRANCH   4   7
ATOM      7  O   UNL d   1       1.810   0.713   0.044  0.00  0.00    -0.526 OA
ATOM      8  H5  UNL d   1       1.613   1.520  -0.460  0.00  0.00     0.418 HD
ENDBRANCH   4   7
TORSDOF 1
ENDMDL
