MODEL 1
REMARK minimizedAffinity 4.66547823
REMARK minimizedRMSD -1
REMARK  1 active torsions:
REMARK  status: ('A' for Active; 'I' for Inactive)
REMARK    1  A    between atoms: C3_4  and  O_7 
ROOT
ATOM      1  C   UNL d   1       2.241  -0.217   2.389  0.00  0.00    -0.033 A 
ATOM      2  C1  UNL d   1       2.618   0.024   3.712  0.00  0.00     0.039 A 
ATOM      3  C2  UNL d   1       2.864   1.329   4.143  0.00  0.00    -0.080 A 
ATOM      4  C3  UNL d   1       2.730   2.383   3.243  0.00  0.00     0.150 A 
ATOM      5  C4  UNL d   1       2.352   2.150   1.924  0.00  0.00    -0.007 A 
ATOM      6  C5  UNL d   1       2.107   0.846   1.496  0.00  0.00     0.039 A 
ENDROOT
BRANCH   4   7
ATOM      7  O   UNL d   1       2.965   3.673   3.615  0.00  0.00    -0.526 OA
ATOM      8  H5  UNL d   1       3.246   3.678   4.546  0.00  0.00     0.418 HD
ENDBRANCH   4   7
TORSDOF 1
ENDMDL
