MODEL 1
REMARK minimizedAffinity 8.66575432
REMARK minimizedRMSD -1
REMARK  1 active torsions:
REMARK  status: ('A' for Active; 'I' for Inactive)
REMARK    1  A    between atoms: C3_4  and  O_7 
ROOT
ATOM      1  C   UNL d   1       0.829  -3.686  -2.031  0.00  0.00    -0.033 A 
ATOM      2  C1  UNL d   1       1.204  -3.656  -0.687  0.00  0.00     0.039 A 
ATOM      3  C2  UNL d   1       0.485  -2.877   0.223  0.00  0.00    -0.080 A 
ATOM      4  C3  UNL d   1      -0.604  -2.135  -0.225  0.00  0.00     0.150 A 
ATOM      5  C4  UNL d   1      -0.985  -2.163  -1.562  0.00  0.00    -0.007 A 
ATOM      6  C5  UNL d   1      -0.266  -2.941  -2.469  0.00  0.00     0.039 A 
ENDROOT
BRANCH   4   7
ATOM      7  O   UNL d   1      -1.333  -1.356   0.624  0.00  0.00    -0.526 OA
ATOM      8  H5  UNL d   1      -0.937  -1.413   1.510  0.00  0.00     0.418 HD
ENDBRANCH   4   7
TORSDOF 1
ENDMDL
