MODEL 1
REMARK minimizedAffinity 2.08342123
REMARK minimizedRMSD -1
REMARK  1 active torsions:
REMARK  status: ('A' for Active; 'I' for Inactive)
REMARK    1  A    between atoms: C3_4  and  O_7 
ROOT
ATOM      1  C   UNL d   1      -1.760  -4.246  -1.536  0.00  0.00    -0.033 A 
ATOM      2  C1  UNL d   1      -1.000  -3.989  -2.679  0.00  0.00     0.039 A 
ATOM      3  C2  UNL d   1      -1.334  -2.922  -3.516  0.00  0.00    -0.080 A 
ATOM      4  C3  UNL d   1      -2.426  -2.121  -3.198  0.00  0.00     0.150 A 
ATOM      5  C4  UNL d   1      -3.185  -2.368  -2.059  0.00  0.00    -0.007 A 
ATOM      6  C5  UNL d   1      -2.851  -3.435  -1.225  0.00  0.00     0.039 A 
ENDROOT
BRANCH   4   7
ATOM      7  O   UNL d   1      -2.793  -1.071  -3.987  0.00  0.00    -0.526 OA
ATOM      8  H5  UNL d   1      -2.196  -1.038  -4.753  0.00  0.00     0.418 HD
ENDBRANCH   4   7
TORSDOF 1
ENDMDL
