MODEL 1
REMARK minimizedAffinity -4.38664007
REMARK minimizedRMSD -1
REMARK  1 active torsions:
REMARK  status: ('A' for Active; 'I' for Inactive)
REMARK    1  A    between atoms: C3_4  and  O_7 
ROOT
ATOM      1  C   UNL d   1       3.400  -0.199   3.013  0.00  0.00    -0.033 A 
ATOM      2  C1  UNL d   1       2.751  -1.298   3.579  0.00  0.00     0.039 A 
ATOM      3  C2  UNL d   1       1.613  -1.829   2.969  0.00  0.00    -0.080 A 
ATOM      4  C3  UNL d   1       1.136  -1.254   1.794  0.00  0.00     0.150 A 
ATOM      5  C4  UNL d   1       1.780  -0.161   1.223  0.00  0.00    -0.007 A 
ATOM      6  C5  UNL d   1       2.916   0.368   1.834  0.00  0.00     0.039 A 
ENDROOT
BRANCH   4   7
ATOM      7  O   UNL d   1       0.026  -1.734   1.165  0.00  0.00    -0.526 OA
ATOM      8  H5  UNL d   1      -0.330  -2.471   1.689  0.00  0.00     0.418 HD
ENDBRANCH   4   7
TORSDOF 1
ENDMDL
