MODEL 1
REMARK minimizedAffinity 10.1729097
REMARK minimizedRMSD -1
REMARK  1 active torsions:
REMARK  status: ('A' for Active; 'I' for Inactive)
REMARK    1  A    between atoms: C1_2  and  C2_3 
ROOT
ATOM      1  C2  UNL d   1       3.236   3.905  -4.480  0.00  0.00    -0.076 A 
ATOM      2  C3  UNL d   1       4.404   4.483  -5.008  0.00  0.00     0.004 A 
ATOM      3  C4  UNL d   1       5.652   3.902  -4.792  0.00  0.00    -0.003 A 
ATOM      4  C5  UNL d   1       5.753   2.733  -4.046  0.00  0.00     0.000 A 
ATOM      5  C6  UNL d   1       4.603   2.136  -3.530  0.00  0.00     0.000 A 
ATOM      6  C7  UNL d   1       3.335   2.700  -3.752  0.00  0.00    -0.073 A 
ATOM      7  C8  UNL d   1       2.129   2.017  -3.167  0.00  0.00     0.078 C 
ENDROOT
BRANCH   1   8
ATOM      8  C1  UNL d   1       1.913   4.595  -4.724  0.00  0.00     0.053 C 
ATOM      9  C   UNL d   1       2.002   5.660  -5.806  0.00  0.00     0.018 C 
ENDBRANCH   1   8
TORSDOF 1
ENDMDL
