MODEL 1
REMARK minimizedAffinity 0.494259
REMARK minimizedRMSD -1
REMARK  1 active torsions:
REMARK  status: ('A' for Active; 'I' for Inactive)
REMARK    1  A    between atoms: C1_2  and  C2_3 
ROOT
ATOM      1  C2  UNL d   1       0.205   5.790  -4.786  0.00  0.00    -0.076 A 
ATOM      2  C3  UNL d   1       0.924   5.694  -5.990  0.00  0.00     0.004 A 
ATOM      3  C4  UNL d   1       2.317   5.741  -6.000  0.00  0.00    -0.003 A 
ATOM      4  C5  UNL d   1       3.014   5.884  -4.805  0.00  0.00     0.000 A 
ATOM      5  C6  UNL d   1       2.318   5.963  -3.600  0.00  0.00     0.000 A 
ATOM      6  C7  UNL d   1       0.914   5.901  -3.571  0.00  0.00    -0.073 A 
ATOM      7  C8  UNL d   1       0.214   5.998  -2.243  0.00  0.00     0.078 C 
ENDROOT
BRANCH   1   8
ATOM      8  C1  UNL d   1      -1.306   5.760  -4.840  0.00  0.00     0.053 C 
ATOM      9  C   UNL d   1      -1.940   5.866  -3.462  0.00  0.00     0.018 C 
ENDBRANCH   1   8
TORSDOF 1
ENDMDL
