MODEL 1
REMARK minimizedAffinity 7.31686354
REMARK minimizedRMSD -1
REMARK  1 active torsions:
REMARK  status: ('A' for Active; 'I' for Inactive)
REMARK    1  A    between atoms: C1_2  and  C2_3 
ROOT
ATOM      1  C2  UNL d   1      -0.201   0.325  -0.207  0.00  0.00    -0.076 A 
ATOM      2  C3  UNL d   1       0.346   0.838  -1.396  0.00  0.00     0.004 A 
ATOM      3  C4  UNL d   1       1.405   1.744  -1.366  0.00  0.00    -0.003 A 
ATOM      4  C5  UNL d   1       1.935   2.150  -0.146  0.00  0.00     0.000 A 
ATOM      5  C6  UNL d   1       1.416   1.637   1.043  0.00  0.00     0.000 A 
ATOM      6  C7  UNL d   1       0.359   0.711   1.029  0.00  0.00    -0.073 A 
ATOM      7  C8  UNL d   1      -0.165   0.195   2.341  0.00  0.00     0.078 C 
ENDROOT
BRANCH   1   8
ATOM      8  C1  UNL d   1      -1.367  -0.634  -0.301  0.00  0.00     0.053 C 
ATOM      9  C   UNL d   1      -2.345  -0.255  -1.403  0.00  0.00     0.018 C 
ENDBRANCH   1   8
TORSDOF 1
ENDMDL
