MODEL 1
REMARK minimizedAffinity 0.844185829
REMARK minimizedRMSD -1
REMARK  1 active torsions:
REMARK  status: ('A' for Active; 'I' for Inactive)
REMARK    1  A    between atoms: C1_2  and  C2_3 
ROOT
ATOM      1  C2  UNL d   1      -2.886   5.984  -4.127  0.00  0.00    -0.076 A 
ATOM      2  C3  UNL d   1      -4.287   6.000  -4.019  0.00  0.00     0.004 A 
ATOM      3  C4  UNL d   1      -4.911   5.996  -2.773  0.00  0.00    -0.003 A 
ATOM      4  C5  UNL d   1      -4.143   5.977  -1.614  0.00  0.00     0.000 A 
ATOM      5  C6  UNL d   1      -2.751   5.979  -1.702  0.00  0.00     0.000 A 
ATOM      6  C7  UNL d   1      -2.107   5.999  -2.950  0.00  0.00    -0.073 A 
ATOM      7  C8  UNL d   1      -0.603   5.995  -2.987  0.00  0.00     0.078 C 
ENDROOT
BRANCH   1   8
ATOM      8  C1  UNL d   1      -2.265   5.962  -5.506  0.00  0.00     0.053 C 
ATOM      9  C   UNL d   1      -0.745   5.950  -5.461  0.00  0.00     0.018 C 
ENDBRANCH   1   8
TORSDOF 1
ENDMDL
