MODEL 1
REMARK minimizedAffinity 3.85683656
REMARK minimizedRMSD -1
REMARK  1 active torsions:
REMARK  status: ('A' for Active; 'I' for Inactive)
REMARK    1  A    between atoms: C1_2  and  C2_3 
ROOT
ATOM      1  C2  UNL d   1      -0.948   5.207  -3.689  0.00  0.00    -0.076 A 
ATOM      2  C3  UNL d   1      -0.992   5.999  -4.850  0.00  0.00     0.004 A 
ATOM      3  C4  UNL d   1       0.060   5.990  -5.764  0.00  0.00    -0.003 A 
ATOM      4  C5  UNL d   1       1.172   5.189  -5.534  0.00  0.00     0.000 A 
ATOM      5  C6  UNL d   1       1.225   4.384  -4.397  0.00  0.00     0.000 A 
ATOM      6  C7  UNL d   1       0.167   4.369  -3.472  0.00  0.00    -0.073 A 
ATOM      7  C8  UNL d   1       0.280   3.486  -2.260  0.00  0.00     0.078 C 
ENDROOT
BRANCH   1   8
ATOM      8  C1  UNL d   1      -2.105   5.278  -2.719  0.00  0.00     0.053 C 
ATOM      9  C   UNL d   1      -3.370   5.829  -3.360  0.00  0.00     0.018 C 
ENDBRANCH   1   8
TORSDOF 1
ENDMDL
