MODEL 1
REMARK minimizedAffinity 1.61958039
REMARK minimizedRMSD -1
REMARK  1 active torsions:
REMARK  status: ('A' for Active; 'I' for Inactive)
REMARK    1  A    between atoms: C1_2  and  C2_3 
ROOT
ATOM      1  C2  UNL d   1       0.252   1.029   1.676  0.00  0.00    -0.076 A 
ATOM      2  C3  UNL d   1      -0.397   0.879   2.914  0.00  0.00     0.004 A 
ATOM      3  C4  UNL d   1      -1.474   0.005   3.058  0.00  0.00    -0.003 A 
ATOM      4  C5  UNL d   1      -1.918  -0.733   1.967  0.00  0.00     0.000 A 
ATOM      5  C6  UNL d   1      -1.275  -0.610   0.736  0.00  0.00     0.000 A 
ATOM      6  C7  UNL d   1      -0.178   0.255   0.577  0.00  0.00    -0.073 A 
ATOM      7  C8  UNL d   1       0.475   0.353  -0.774  0.00  0.00     0.078 C 
ENDROOT
BRANCH   1   8
ATOM      8  C1  UNL d   1       1.396   2.012   1.573  0.00  0.00     0.053 C 
ATOM      9  C   UNL d   1       2.755   1.341   1.702  0.00  0.00     0.018 C 
ENDBRANCH   1   8
TORSDOF 1
ENDMDL
