MODEL 1
REMARK minimizedAffinity 3.08689451
REMARK minimizedRMSD -1
REMARK  1 active torsions:
REMARK  status: ('A' for Active; 'I' for Inactive)
REMARK    1  A    between atoms: C1_2  and  C2_3 
ROOT
ATOM      1  C2  UNL d   1      -4.933  -3.780  -0.099  0.00  0.00    -0.076 A 
ATOM      2  C3  UNL d   1      -4.707  -2.393  -0.059  0.00  0.00     0.004 A 
ATOM      3  C4  UNL d   1      -4.028  -1.747  -1.090  0.00  0.00    -0.003 A 
ATOM      4  C5  UNL d   1      -3.563  -2.478  -2.179  0.00  0.00     0.000 A 
ATOM      5  C6  UNL d   1      -3.793  -3.851  -2.243  0.00  0.00     0.000 A 
ATOM      6  C7  UNL d   1      -4.491  -4.516  -1.220  0.00  0.00    -0.073 A 
ATOM      7  C8  UNL d   1      -4.706  -6.000  -1.338  0.00  0.00     0.078 C 
ENDROOT
BRANCH   1   8
ATOM      8  C1  UNL d   1      -5.652  -4.431   1.062  0.00  0.00     0.053 C 
ATOM      9  C   UNL d   1      -5.600  -3.587   2.326  0.00  0.00     0.018 C 
ENDBRANCH   1   8
TORSDOF 1
ENDMDL
