MODEL 1
REMARK minimizedAffinity 3.40866566
REMARK minimizedRMSD -1
REMARK  1 active torsions:
REMARK  status: ('A' for Active; 'I' for Inactive)
REMARK    1  A    between atoms: C1_2  and  C2_3 
ROOT
ATOM      1  C2  UNL d   1      -1.344   5.982  -2.103  0.00  0.00    -0.076 A 
ATOM      2  C3  UNL d   1      -2.494   5.965  -1.295  0.00  0.00     0.004 A 
ATOM      3  C4  UNL d   1      -3.768   5.974  -1.860  0.00  0.00    -0.003 A 
ATOM      4  C5  UNL d   1      -3.912   6.000  -3.243  0.00  0.00     0.000 A 
ATOM      5  C6  UNL d   1      -2.782   6.000  -4.060  0.00  0.00     0.000 A 
ATOM      6  C7  UNL d   1      -1.491   5.974  -3.506  0.00  0.00    -0.073 A 
ATOM      7  C8  UNL d   1      -0.307   5.981  -4.434  0.00  0.00     0.078 C 
ENDROOT
BRANCH   1   8
ATOM      8  C1  UNL d   1       0.012   5.999  -1.433  0.00  0.00     0.053 C 
ATOM      9  C   UNL d   1       0.429   4.626  -0.929  0.00  0.00     0.018 C 
ENDBRANCH   1   8
TORSDOF 1
ENDMDL
