MODEL 1
REMARK minimizedAffinity 1.96303082
REMARK minimizedRMSD -1
REMARK  1 active torsions:
REMARK  status: ('A' for Active; 'I' for Inactive)
REMARK    1  A    between atoms: C1_2  and  C2_3 
ROOT
ATOM      1  C2  UNL d   1       1.439   0.873   1.298  0.00  0.00    -0.076 A 
ATOM      2  C3  UNL d   1       0.726   1.276   2.440  0.00  0.00     0.004 A 
ATOM      3  C4  UNL d   1      -0.580   0.841   2.661  0.00  0.00    -0.003 A 
ATOM      4  C5  UNL d   1      -1.194  -0.004   1.743  0.00  0.00     0.000 A 
ATOM      5  C6  UNL d   1      -0.495  -0.427   0.613  0.00  0.00     0.000 A 
ATOM      6  C7  UNL d   1       0.828  -0.011   0.384  0.00  0.00    -0.073 A 
ATOM      7  C8  UNL d   1       1.532  -0.494  -0.855  0.00  0.00     0.078 C 
ENDROOT
BRANCH   1   8
ATOM      8  C1  UNL d   1       2.843   1.399   1.098  0.00  0.00     0.053 C 
ATOM      9  C   UNL d   1       3.762   1.062   2.261  0.00  0.00     0.018 C 
ENDBRANCH   1   8
TORSDOF 1
ENDMDL
