MODEL 1
REMARK minimizedAffinity 2.85719466
REMARK minimizedRMSD -1
REMARK  1 active torsions:
REMARK  status: ('A' for Active; 'I' for Inactive)
REMARK    1  A    between atoms: C1_2  and  C2_3 
ROOT
ATOM      1  C2  UNL d   1       0.807   0.828  -0.542  0.00  0.00    -0.076 A 
ATOM      2  C3  UNL d   1       1.549   2.022  -0.533  0.00  0.00     0.004 A 
ATOM      3  C4  UNL d   1       1.980   2.589   0.665  0.00  0.00    -0.003 A 
ATOM      4  C5  UNL d   1       1.676   1.972   1.874  0.00  0.00     0.000 A 
ATOM      5  C6  UNL d   1       0.955   0.778   1.882  0.00  0.00     0.000 A 
ATOM      6  C7  UNL d   1       0.528   0.184   0.682  0.00  0.00    -0.073 A 
ATOM      7  C8  UNL d   1      -0.251  -1.101   0.751  0.00  0.00     0.078 C 
ENDROOT
BRANCH   1   8
ATOM      8  C1  UNL d   1       0.344   0.274  -1.870  0.00  0.00     0.053 C 
ATOM      9  C   UNL d   1       1.408  -0.572  -2.552  0.00  0.00     0.018 C 
ENDBRANCH   1   8
TORSDOF 1
ENDMDL
