MODEL 1
REMARK minimizedAffinity -2.4990921
REMARK minimizedRMSD -1
REMARK  1 active torsions:
REMARK  status: ('A' for Active; 'I' for Inactive)
REMARK    1  A    between atoms: N_2  and  C1_3 
ROOT
ATOM      1  C1  UNL d   1      -0.222   1.003  -0.272  0.00  0.00     0.143 A 
ATOM      2  C2  UNL d   1      -1.053   0.265   0.578  0.00  0.00    -0.057 A 
ATOM      3  C3  UNL d   1      -0.636  -0.958   1.119  0.00  0.00     0.033 A 
ATOM      4  C4  UNL d   1       0.611  -1.480   0.795  0.00  0.00    -0.042 A 
ATOM      5  C5  UNL d   1       1.444  -0.776  -0.068  0.00  0.00     0.033 A 
ATOM      6  C6  UNL d   1       1.025   0.448  -0.599  0.00  0.00    -0.057 A 
ENDROOT
BRANCH   1   7
ATOM      7  N   UNL d   1      -0.616   2.176  -0.919  0.00  0.00    -0.732 N 
ATOM      8  C   UNL d   1      -1.280   2.121  -2.204  0.00  0.00     0.284 C 
ATOM      9  H3  UNL d   1      -1.009   2.861  -0.277  0.00  0.00     0.395 HD
ENDBRANCH   1   7
TORSDOF 1
ENDMDL
