MODEL 1
REMARK minimizedAffinity -4.47538757
REMARK minimizedRMSD -1
REMARK  1 active torsions:
REMARK  status: ('A' for Active; 'I' for Inactive)
REMARK    1  A    between atoms: N_2  and  C1_3 
ROOT
ATOM      1  C1  UNL d   1       0.079   1.102   0.043  0.00  0.00     0.143 A 
ATOM      2  C2  UNL d   1       1.087   0.170  -0.227  0.00  0.00    -0.057 A 
ATOM      3  C3  UNL d   1       1.057  -1.115   0.330  0.00  0.00     0.033 A 
ATOM      4  C4  UNL d   1       0.029  -1.481   1.193  0.00  0.00    -0.042 A 
ATOM      5  C5  UNL d   1      -0.970  -0.562   1.495  0.00  0.00     0.033 A 
ATOM      6  C6  UNL d   1      -0.938   0.716   0.930  0.00  0.00    -0.057 A 
ENDROOT
BRANCH   1   7
ATOM      7  N   UNL d   1       0.105   2.426  -0.402  0.00  0.00    -0.732 N 
ATOM      8  C   UNL d   1       0.855   3.431   0.320  0.00  0.00     0.284 C 
ATOM      9  H3  UNL d   1       0.186   2.494  -1.414  0.00  0.00     0.395 HD
ENDBRANCH   1   7
TORSDOF 1
ENDMDL
