MODEL 1
REMARK minimizedAffinity -3.15154505
REMARK minimizedRMSD -1
REMARK  1 active torsions:
REMARK  status: ('A' for Active; 'I' for Inactive)
REMARK    1  A    between atoms: N_2  and  C1_3 
ROOT
ATOM      1  C1  UNL d   1      -0.345  -0.077   0.399  0.00  0.00     0.143 A 
ATOM      2  C2  UNL d   1       0.993  -0.202   0.013  0.00  0.00    -0.057 A 
ATOM      3  C3  UNL d   1       1.733  -1.351   0.316  0.00  0.00     0.033 A 
ATOM      4  C4  UNL d   1       1.153  -2.388   1.040  0.00  0.00    -0.042 A 
ATOM      5  C5  UNL d   1      -0.169  -2.275   1.456  0.00  0.00     0.033 A 
ATOM      6  C6  UNL d   1      -0.904  -1.128   1.144  0.00  0.00    -0.057 A 
ENDROOT
BRANCH   1   7
ATOM      7  N   UNL d   1      -1.104   1.081   0.213  0.00  0.00    -0.732 N 
ATOM      8  C   UNL d   1      -1.996   1.204  -0.920  0.00  0.00     0.284 C 
ATOM      9  H3  UNL d   1      -1.489   1.437   1.085  0.00  0.00     0.395 HD
ENDBRANCH   1   7
TORSDOF 1
ENDMDL
