MODEL 1
REMARK minimizedAffinity -3.23821759
REMARK minimizedRMSD -1
REMARK  1 active torsions:
REMARK  status: ('A' for Active; 'I' for Inactive)
REMARK    1  A    between atoms: N_2  and  C1_3 
ROOT
ATOM      1  C1  UNL d   1      -0.616   0.624  -0.385  0.00  0.00     0.143 A 
ATOM      2  C2  UNL d   1      -1.306   0.035   0.680  0.00  0.00    -0.057 A 
ATOM      3  C3  UNL d   1      -0.761  -1.042   1.391  0.00  0.00     0.033 A 
ATOM      4  C4  UNL d   1       0.475  -1.568   1.029  0.00  0.00    -0.042 A 
ATOM      5  C5  UNL d   1       1.167  -1.014  -0.043  0.00  0.00     0.033 A 
ATOM      6  C6  UNL d   1       0.620   0.065  -0.744  0.00  0.00    -0.057 A 
ENDROOT
BRANCH   1   7
ATOM      7  N   UNL d   1      -1.148   1.632  -1.193  0.00  0.00    -0.732 N 
ATOM      8  C   UNL d   1      -2.180   1.333  -2.162  0.00  0.00     0.284 C 
ATOM      9  H3  UNL d   1      -1.295   2.501  -0.684  0.00  0.00     0.395 HD
ENDBRANCH   1   7
TORSDOF 1
ENDMDL
