MODEL 1
REMARK minimizedAffinity -2.89756775
REMARK minimizedRMSD -1
REMARK  1 active torsions:
REMARK  status: ('A' for Active; 'I' for Inactive)
REMARK    1  A    between atoms: N_2  and  C1_3 
ROOT
ATOM      1  C1  UNL d   1       2.209   2.941   0.128  0.00  0.00     0.143 A 
ATOM      2  C2  UNL d   1       0.876   3.339  -0.025  0.00  0.00    -0.057 A 
ATOM      3  C3  UNL d   1      -0.128   2.413  -0.331  0.00  0.00     0.033 A 
ATOM      4  C4  UNL d   1       0.189   1.071  -0.519  0.00  0.00    -0.042 A 
ATOM      5  C5  UNL d   1       1.510   0.657  -0.396  0.00  0.00     0.033 A 
ATOM      6  C6  UNL d   1       2.508   1.586  -0.084  0.00  0.00    -0.057 A 
ENDROOT
BRANCH   1   7
ATOM      7  N   UNL d   1       3.267   3.829   0.335  0.00  0.00    -0.732 N 
ATOM      8  C   UNL d   1       4.426   3.808  -0.531  0.00  0.00     0.284 C 
ATOM      9  H3  UNL d   1       2.948   4.763   0.580  0.00  0.00     0.395 HD
ENDBRANCH   1   7
TORSDOF 1
ENDMDL
