MODEL 1
REMARK minimizedAffinity -1.67357397
REMARK minimizedRMSD -1
REMARK  1 active torsions:
REMARK  status: ('A' for Active; 'I' for Inactive)
REMARK    1  A    between atoms: N_2  and  C1_3 
ROOT
ATOM      1  C1  UNL d   1       0.502  -1.919   0.472  0.00  0.00     0.143 A 
ATOM      2  C2  UNL d   1      -0.689  -1.677   1.166  0.00  0.00    -0.057 A 
ATOM      3  C3  UNL d   1      -1.335  -0.437   1.089  0.00  0.00     0.033 A 
ATOM      4  C4  UNL d   1      -0.784   0.596   0.337  0.00  0.00    -0.042 A 
ATOM      5  C5  UNL d   1       0.412   0.385  -0.341  0.00  0.00     0.033 A 
ATOM      6  C6  UNL d   1       1.049  -0.857  -0.265  0.00  0.00    -0.057 A 
ENDROOT
BRANCH   1   7
ATOM      7  N   UNL d   1       1.243  -3.098   0.588  0.00  0.00    -0.732 N 
ATOM      8  C   UNL d   1       2.188  -3.271   1.670  0.00  0.00     0.284 C 
ATOM      9  H3  UNL d   1       0.689  -3.926   0.382  0.00  0.00     0.395 HD
ENDBRANCH   1   7
TORSDOF 1
ENDMDL
