MODEL 1
REMARK minimizedAffinity -2.352072
REMARK minimizedRMSD -1
REMARK  1 active torsions:
REMARK  status: ('A' for Active; 'I' for Inactive)
REMARK    1  A    between atoms: N_2  and  C1_3 
ROOT
ATOM      1  C1  UNL d   1       0.885   2.094   0.349  0.00  0.00     0.143 A 
ATOM      2  C2  UNL d   1       1.709   0.972   0.215  0.00  0.00    -0.057 A 
ATOM      3  C3  UNL d   1       1.188  -0.325   0.302  0.00  0.00     0.033 A 
ATOM      4  C4  UNL d   1      -0.166  -0.522   0.553  0.00  0.00    -0.042 A 
ATOM      5  C5  UNL d   1      -0.999   0.579   0.714  0.00  0.00     0.033 A 
ATOM      6  C6  UNL d   1      -0.474   1.872   0.620  0.00  0.00    -0.057 A 
ENDROOT
BRANCH   1   7
ATOM      7  N   UNL d   1       1.359   3.408   0.371  0.00  0.00    -0.732 N 
ATOM      8  C   UNL d   1       2.768   3.681   0.556  0.00  0.00     0.284 C 
ATOM      9  H3  UNL d   1       0.911   3.995  -0.330  0.00  0.00     0.395 HD
ENDBRANCH   1   7
TORSDOF 1
ENDMDL
