MODEL 1
REMARK minimizedAffinity -2.53436756
REMARK minimizedRMSD -1
REMARK  1 active torsions:
REMARK  status: ('A' for Active; 'I' for Inactive)
REMARK    1  A    between atoms: N_2  and  C1_3 
ROOT
ATOM      1  C1  UNL d   1       1.566   1.537   0.382  0.00  0.00     0.143 A 
ATOM      2  C2  UNL d   1       2.936   1.637   0.118  0.00  0.00    -0.057 A 
ATOM      3  C3  UNL d   1       3.566   2.883   0.011  0.00  0.00     0.033 A 
ATOM      4  C4  UNL d   1       2.828   4.055   0.137  0.00  0.00    -0.042 A 
ATOM      5  C5  UNL d   1       1.460   3.980   0.374  0.00  0.00     0.033 A 
ATOM      6  C6  UNL d   1       0.838   2.733   0.487  0.00  0.00    -0.057 A 
ENDROOT
BRANCH   1   7
ATOM      7  N   UNL d   1       0.864   0.330   0.402  0.00  0.00    -0.732 N 
ATOM      8  C   UNL d   1       1.568  -0.934   0.356  0.00  0.00     0.284 C 
ATOM      9  H3  UNL d   1       0.081   0.346   1.053  0.00  0.00     0.395 HD
ENDBRANCH   1   7
TORSDOF 1
ENDMDL
