MODEL 1
REMARK minimizedAffinity -4.11166859
REMARK minimizedRMSD -1
REMARK  1 active torsions:
REMARK  status: ('A' for Active; 'I' for Inactive)
REMARK    1  A    between atoms: N_2  and  C1_3 
ROOT
ATOM      1  C1  UNL d   1       0.526   0.711   0.108  0.00  0.00     0.143 A 
ATOM      2  C2  UNL d   1       1.885   0.968  -0.099  0.00  0.00    -0.057 A 
ATOM      3  C3  UNL d   1       2.392   2.273  -0.061  0.00  0.00     0.033 A 
ATOM      4  C4  UNL d   1       1.539   3.350   0.157  0.00  0.00    -0.042 A 
ATOM      5  C5  UNL d   1       0.180   3.121   0.340  0.00  0.00     0.033 A 
ATOM      6  C6  UNL d   1      -0.318   1.815   0.308  0.00  0.00    -0.057 A 
ENDROOT
BRANCH   1   7
ATOM      7  N   UNL d   1      -0.054  -0.554  -0.015  0.00  0.00    -0.732 N 
ATOM      8  C   UNL d   1       0.570  -1.713   0.587  0.00  0.00     0.284 C 
ATOM      9  H3  UNL d   1      -1.067  -0.528   0.084  0.00  0.00     0.395 HD
ENDBRANCH   1   7
TORSDOF 1
ENDMDL
