MODEL 1
REMARK minimizedAffinity -1.19279325
REMARK minimizedRMSD -1
REMARK  1 active torsions:
REMARK  status: ('A' for Active; 'I' for Inactive)
REMARK    1  A    between atoms: N_2  and  C1_3 
ROOT
ATOM      1  C1  UNL d   1      -0.167  -0.492   0.271  0.00  0.00     0.143 A 
ATOM      2  C2  UNL d   1       1.192  -0.471  -0.059  0.00  0.00    -0.057 A 
ATOM      3  C3  UNL d   1       2.045  -1.519   0.310  0.00  0.00     0.033 A 
ATOM      4  C4  UNL d   1       1.557  -2.597   1.042  0.00  0.00    -0.042 A 
ATOM      5  C5  UNL d   1       0.215  -2.627   1.402  0.00  0.00     0.033 A 
ATOM      6  C6  UNL d   1      -0.633  -1.580   1.026  0.00  0.00    -0.057 A 
ENDROOT
BRANCH   1   7
ATOM      7  N   UNL d   1      -1.045   0.565   0.020  0.00  0.00    -0.732 N 
ATOM      8  C   UNL d   1      -0.637   1.681  -0.807  0.00  0.00     0.284 C 
ATOM      9  H3  UNL d   1      -1.996   0.248  -0.150  0.00  0.00     0.395 HD
ENDBRANCH   1   7
TORSDOF 1
ENDMDL
