MODEL 1
REMARK minimizedAffinity -3.70506835
REMARK minimizedRMSD -1
REMARK  1 active torsions:
REMARK  status: ('A' for Active; 'I' for Inactive)
REMARK    1  A    between atoms: N_2  and  C1_3 
ROOT
ATOM      1  C1  UNL d   1       1.650   0.972  -0.282  0.00  0.00     0.143 A 
ATOM      2  C2  UNL d   1       1.860  -0.385  -0.016  0.00  0.00    -0.057 A 
ATOM      3  C3  UNL d   1       0.786  -1.271   0.135  0.00  0.00     0.033 A 
ATOM      4  C4  UNL d   1      -0.523  -0.807   0.050  0.00  0.00    -0.042 A 
ATOM      5  C5  UNL d   1      -0.756   0.543  -0.189  0.00  0.00     0.033 A 
ATOM      6  C6  UNL d   1       0.321   1.421  -0.345  0.00  0.00    -0.057 A 
ENDROOT
BRANCH   1   7
ATOM      7  N   UNL d   1       2.674   1.920  -0.344  0.00  0.00    -0.732 N 
ATOM      8  C   UNL d   1       2.421   3.302   0.005  0.00  0.00     0.284 C 
ATOM      9  H3  UNL d   1       3.559   1.559   0.003  0.00  0.00     0.395 HD
ENDBRANCH   1   7
TORSDOF 1
ENDMDL
