MODEL 1
REMARK minimizedAffinity 5.38507652
REMARK minimizedRMSD -1
REMARK  1 active torsions:
REMARK  status: ('A' for Active; 'I' for Inactive)
REMARK    1  A    between atoms: C1_2  and  C2_3 
ROOT
ATOM      1  C2  UNL d   1       0.733  -0.233  -1.400  0.00  0.00    -0.073 A 
ATOM      2  C3  UNL d   1      -0.194  -1.078  -0.779  0.00  0.00    -0.002 A 
ATOM      3  C4  UNL d   1      -0.578  -0.852   0.543  0.00  0.00     0.004 A 
ATOM      4  C5  UNL d   1      -0.046   0.222   1.255  0.00  0.00    -0.004 A 
ATOM      5  C6  UNL d   1       0.873   1.085   0.648  0.00  0.00    -0.075 A 
ATOM      6  C7  UNL d   1       1.456   2.244   1.401  0.00  0.00     0.076 C 
ATOM      7  C8  UNL d   1       1.256   0.850  -0.679  0.00  0.00     0.001 A 
ENDROOT
BRANCH   1   8
ATOM      8  C1  UNL d   1       1.146  -0.469  -2.830  0.00  0.00     0.053 C 
ATOM      9  C   UNL d   1       2.115   0.593  -3.326  0.00  0.00     0.018 C 
ENDBRANCH   1   8
TORSDOF 1
ENDMDL
