MODEL 1
REMARK minimizedAffinity 11.7701864
REMARK minimizedRMSD -1
REMARK  1 active torsions:
REMARK  status: ('A' for Active; 'I' for Inactive)
REMARK    1  A    between atoms: C1_2  and  C2_3 
ROOT
ATOM      1  C2  UNL d   1       5.280   0.746   3.477  0.00  0.00    -0.073 A 
ATOM      2  C3  UNL d   1       5.645   1.579   4.540  0.00  0.00    -0.002 A 
ATOM      3  C4  UNL d   1       6.000   1.034   5.775  0.00  0.00     0.004 A 
ATOM      4  C5  UNL d   1       6.000  -0.349   5.957  0.00  0.00    -0.004 A 
ATOM      5  C6  UNL d   1       5.649  -1.199   4.903  0.00  0.00    -0.075 A 
ATOM      6  C7  UNL d   1       5.642  -2.689   5.084  0.00  0.00     0.076 C 
ATOM      7  C8  UNL d   1       5.292  -0.644   3.668  0.00  0.00     0.001 A 
ENDROOT
BRANCH   1   8
ATOM      8  C1  UNL d   1       4.903   1.330   2.141  0.00  0.00     0.053 C 
ATOM      9  C   UNL d   1       4.917   0.284   1.037  0.00  0.00     0.018 C 
ENDBRANCH   1   8
TORSDOF 1
ENDMDL
