MODEL 1
REMARK minimizedAffinity 4.01208639
REMARK minimizedRMSD -1
REMARK  1 active torsions:
REMARK  status: ('A' for Active; 'I' for Inactive)
REMARK    1  A    between atoms: C1_2  and  C2_3 
ROOT
ATOM      1  C2  UNL d   1       0.681   0.754   0.358  0.00  0.00    -0.073 A 
ATOM      2  C3  UNL d   1      -0.352  -0.031  -0.168  0.00  0.00    -0.002 A 
ATOM      3  C4  UNL d   1      -0.074  -1.025  -1.107  0.00  0.00     0.004 A 
ATOM      4  C5  UNL d   1       1.238  -1.250  -1.524  0.00  0.00    -0.004 A 
ATOM      5  C6  UNL d   1       2.285  -0.484  -1.002  0.00  0.00    -0.075 A 
ATOM      6  C7  UNL d   1       3.702  -0.712  -1.442  0.00  0.00     0.076 C 
ATOM      7  C8  UNL d   1       1.998   0.514  -0.061  0.00  0.00     0.001 A 
ENDROOT
BRANCH   1   8
ATOM      8  C1  UNL d   1       0.387   1.824   1.377  0.00  0.00     0.053 C 
ATOM      9  C   UNL d   1       1.453   2.908   1.388  0.00  0.00     0.018 C 
ENDBRANCH   1   8
TORSDOF 1
ENDMDL
