MODEL 1
REMARK minimizedAffinity 4.51359653
REMARK minimizedRMSD -1
REMARK  1 active torsions:
REMARK  status: ('A' for Active; 'I' for Inactive)
REMARK    1  A    between atoms: C1_2  and  C2_3 
ROOT
ATOM      1  C2  UNL d   1       5.682   5.277   1.423  0.00  0.00    -0.073 A 
ATOM      2  C3  UNL d   1       5.774   5.995   2.621  0.00  0.00    -0.002 A 
ATOM      3  C4  UNL d   1       5.926   5.323   3.835  0.00  0.00     0.004 A 
ATOM      4  C5  UNL d   1       5.996   3.931   3.863  0.00  0.00    -0.004 A 
ATOM      5  C6  UNL d   1       5.919   3.196   2.675  0.00  0.00    -0.075 A 
ATOM      6  C7  UNL d   1       5.990   1.698   2.689  0.00  0.00     0.076 C 
ATOM      7  C8  UNL d   1       5.763   3.877   1.460  0.00  0.00     0.001 A 
ENDROOT
BRANCH   1   8
ATOM      8  C1  UNL d   1       5.524   5.998   0.109  0.00  0.00     0.053 C 
ATOM      9  C   UNL d   1       4.089   5.960  -0.392  0.00  0.00     0.018 C 
ENDBRANCH   1   8
TORSDOF 1
ENDMDL
