MODEL 1
REMARK minimizedAffinity 9.07759857
REMARK minimizedRMSD -1
REMARK  1 active torsions:
REMARK  status: ('A' for Active; 'I' for Inactive)
REMARK    1  A    between atoms: C1_2  and  C2_3 
ROOT
ATOM      1  C2  UNL d   1       1.907   2.419   2.168  0.00  0.00    -0.073 A 
ATOM      2  C3  UNL d   1       1.756   1.552   3.256  0.00  0.00    -0.002 A 
ATOM      3  C4  UNL d   1       2.568   1.689   4.383  0.00  0.00     0.004 A 
ATOM      4  C5  UNL d   1       3.533   2.695   4.436  0.00  0.00    -0.004 A 
ATOM      5  C6  UNL d   1       3.690   3.578   3.363  0.00  0.00    -0.075 A 
ATOM      6  C7  UNL d   1       4.724   4.664   3.403  0.00  0.00     0.076 C 
ATOM      7  C8  UNL d   1       2.873   3.433   2.234  0.00  0.00     0.001 A 
ENDROOT
BRANCH   1   8
ATOM      8  C1  UNL d   1       1.028   2.280   0.951  0.00  0.00     0.053 C 
ATOM      9  C   UNL d   1      -0.449   2.261   1.314  0.00  0.00     0.018 C 
ENDBRANCH   1   8
TORSDOF 1
ENDMDL
