MODEL 1
REMARK minimizedAffinity 13.9137468
REMARK minimizedRMSD -1
REMARK  1 active torsions:
REMARK  status: ('A' for Active; 'I' for Inactive)
REMARK    1  A    between atoms: C1_2  and  C2_3 
ROOT
ATOM      1  C2  UNL d   1       4.603   2.328  -4.330  0.00  0.00    -0.073 A 
ATOM      2  C3  UNL d   1       3.893   2.720  -5.471  0.00  0.00    -0.002 A 
ATOM      3  C4  UNL d   1       2.598   2.250  -5.691  0.00  0.00     0.004 A 
ATOM      4  C5  UNL d   1       1.997   1.390  -4.772  0.00  0.00    -0.004 A 
ATOM      5  C6  UNL d   1       2.686   0.996  -3.620  0.00  0.00    -0.075 A 
ATOM      6  C7  UNL d   1       2.054   0.070  -2.622  0.00  0.00     0.076 C 
ATOM      7  C8  UNL d   1       3.987   1.470  -3.407  0.00  0.00     0.001 A 
ENDROOT
BRANCH   1   8
ATOM      8  C1  UNL d   1       6.000   2.837  -4.085  0.00  0.00     0.053 C 
ATOM      9  C   UNL d   1       6.000   4.240  -3.498  0.00  0.00     0.018 C 
ENDBRANCH   1   8
TORSDOF 1
ENDMDL
