MODEL 1
REMARK minimizedAffinity 5.84647942
REMARK minimizedRMSD -1
REMARK  1 active torsions:
REMARK  status: ('A' for Active; 'I' for Inactive)
REMARK    1  A    between atoms: C1_2  and  C2_3 
ROOT
ATOM      1  C2  UNL d   1       3.736   3.360  -0.966  0.00  0.00    -0.073 A 
ATOM      2  C3  UNL d   1       3.741   4.738  -0.717  0.00  0.00    -0.002 A 
ATOM      3  C4  UNL d   1       4.480   5.598  -1.531  0.00  0.00     0.004 A 
ATOM      4  C5  UNL d   1       5.215   5.092  -2.603  0.00  0.00    -0.004 A 
ATOM      5  C6  UNL d   1       5.213   3.720  -2.875  0.00  0.00    -0.075 A 
ATOM      6  C7  UNL d   1       5.999   3.159  -4.023  0.00  0.00     0.076 C 
ATOM      7  C8  UNL d   1       4.470   2.862  -2.052  0.00  0.00     0.001 A 
ENDROOT
BRANCH   1   8
ATOM      8  C1  UNL d   1       2.935   2.428  -0.094  0.00  0.00     0.053 C 
ATOM      9  C   UNL d   1       3.288   0.971  -0.342  0.00  0.00     0.018 C 
ENDBRANCH   1   8
TORSDOF 1
ENDMDL
