MODEL 1
REMARK minimizedAffinity 4.79579258
REMARK minimizedRMSD -1
REMARK  1 active torsions:
REMARK  status: ('A' for Active; 'I' for Inactive)
REMARK    1  A    between atoms: C1_2  and  C2_3 
ROOT
ATOM      1  C2  UNL d   1       5.868   4.070   3.265  0.00  0.00    -0.073 A 
ATOM      2  C3  UNL d   1       5.795   5.090   4.221  0.00  0.00    -0.002 A 
ATOM      3  C4  UNL d   1       5.780   4.780   5.581  0.00  0.00     0.004 A 
ATOM      4  C5  UNL d   1       5.845   3.452   6.000  0.00  0.00    -0.004 A 
ATOM      5  C6  UNL d   1       5.931   2.419   5.060  0.00  0.00    -0.075 A 
ATOM      6  C7  UNL d   1       5.999   0.985   5.494  0.00  0.00     0.076 C 
ATOM      7  C8  UNL d   1       5.942   2.738   3.695  0.00  0.00     0.001 A 
ENDROOT
BRANCH   1   8
ATOM      8  C1  UNL d   1       5.890   4.400   1.795  0.00  0.00     0.053 C 
ATOM      9  C   UNL d   1       5.999   5.896   1.547  0.00  0.00     0.018 C 
ENDBRANCH   1   8
TORSDOF 1
ENDMDL
