MODEL 1
REMARK minimizedAffinity 3.93083811
REMARK minimizedRMSD -1
REMARK  1 active torsions:
REMARK  status: ('A' for Active; 'I' for Inactive)
REMARK    1  A    between atoms: C1_2  and  C2_3 
ROOT
ATOM      1  C2  UNL d   1       1.706  -3.592   1.667  0.00  0.00    -0.073 A 
ATOM      2  C3  UNL d   1       1.536  -4.830   1.037  0.00  0.00    -0.002 A 
ATOM      3  C4  UNL d   1       2.002  -5.998   1.641  0.00  0.00     0.004 A 
ATOM      4  C5  UNL d   1       2.636  -5.942   2.882  0.00  0.00    -0.004 A 
ATOM      5  C6  UNL d   1       2.805  -4.716   3.533  0.00  0.00    -0.075 A 
ATOM      6  C7  UNL d   1       3.488  -4.638   4.867  0.00  0.00     0.076 C 
ATOM      7  C8  UNL d   1       2.337  -3.546   2.918  0.00  0.00     0.001 A 
ENDROOT
BRANCH   1   8
ATOM      8  C1  UNL d   1       1.199  -2.328   1.021  0.00  0.00     0.053 C 
ATOM      9  C   UNL d   1      -0.122  -2.548   0.299  0.00  0.00     0.018 C 
ENDBRANCH   1   8
TORSDOF 1
ENDMDL
