MODEL 1
REMARK minimizedAffinity -4.84908819
REMARK minimizedRMSD -1
REMARK  0 active torsions:
REMARK  status: ('A' for Active; 'I' for Inactive)
ROOT
ATOM      1  C1  BNZ d   1       0.934   0.367   3.290  0.00  0.00     0.000 A 
ATOM      2  C2  BNZ d   1       1.347   0.195   1.996  0.00  0.00     0.000 A 
ATOM      3  C3  BNZ d   1       0.445   0.177   0.970  0.00  0.00     0.000 A 
ATOM      4  C4  BNZ d   1      -0.871   0.290   1.242  0.00  0.00     0.000 A 
ATOM      5  C5  BNZ d   1      -1.304   0.454   2.543  0.00  0.00     0.000 A 
ATOM      6  C6  BNZ d   1      -0.390   0.512   3.569  0.00  0.00     0.000 A 
ENDROOT
TORSDOF 0
ENDMDL
