MODEL 1
REMARK minimizedAffinity -2.98008847
REMARK minimizedRMSD -1
REMARK  0 active torsions:
REMARK  status: ('A' for Active; 'I' for Inactive)
ROOT
ATOM      1  C1  BNZ d   1       0.929   0.089   0.022  0.00  0.00     0.000 A 
ATOM      2  C2  BNZ d   1       0.655   0.847   1.129  0.00  0.00     0.000 A 
ATOM      3  C3  BNZ d   1      -0.624   0.965   1.598  0.00  0.00     0.000 A 
ATOM      4  C4  BNZ d   1      -1.631   0.358   0.936  0.00  0.00     0.000 A 
ATOM      5  C5  BNZ d   1      -1.372  -0.402  -0.186  0.00  0.00     0.000 A 
ATOM      6  C6  BNZ d   1      -0.078  -0.550  -0.632  0.00  0.00     0.000 A 
ENDROOT
TORSDOF 0
ENDMDL
