MODEL 1
REMARK minimizedAffinity -4.9647541
REMARK minimizedRMSD -1
REMARK  0 active torsions:
REMARK  status: ('A' for Active; 'I' for Inactive)
ROOT
ATOM      1  C1  BNZ d   1       0.807   0.569   1.509  0.00  0.00     0.000 A 
ATOM      2  C2  BNZ d   1       0.689  -0.127   0.336  0.00  0.00     0.000 A 
ATOM      3  C3  BNZ d   1      -0.534  -0.316  -0.245  0.00  0.00     0.000 A 
ATOM      4  C4  BNZ d   1      -1.639   0.155   0.368  0.00  0.00     0.000 A 
ATOM      5  C5  BNZ d   1      -1.537   0.850   1.557  0.00  0.00     0.000 A 
ATOM      6  C6  BNZ d   1      -0.301   1.072   2.118  0.00  0.00     0.000 A 
ENDROOT
TORSDOF 0
ENDMDL
