MODEL 1
REMARK minimizedAffinity -2.66176176
REMARK minimizedRMSD -1
REMARK  0 active torsions:
REMARK  status: ('A' for Active; 'I' for Inactive)
ROOT
ATOM      1  C1  BNZ d   1      -1.283   0.015  -0.088  0.00  0.00     0.000 A 
ATOM      2  C2  BNZ d   1      -1.323   0.705   1.094  0.00  0.00     0.000 A 
ATOM      3  C3  BNZ d   1      -0.170   1.061   1.736  0.00  0.00     0.000 A 
ATOM      4  C4  BNZ d   1       1.019   0.692   1.218  0.00  0.00     0.000 A 
ATOM      5  C5  BNZ d   1       1.076  -0.012   0.032  0.00  0.00     0.000 A 
ATOM      6  C6  BNZ d   1      -0.085  -0.335  -0.632  0.00  0.00     0.000 A 
ENDROOT
TORSDOF 0
ENDMDL
