MODEL 1
REMARK minimizedAffinity -1.5449003
REMARK minimizedRMSD -1
REMARK  0 active torsions:
REMARK  status: ('A' for Active; 'I' for Inactive)
ROOT
ATOM      1  C   UNL d   1      -4.466   5.352   2.106  0.00  0.00     0.020 A 
ATOM      2  C1  UNL d   1      -5.706   4.714   2.115  0.00  0.00     0.020 A 
ATOM      3  C2  UNL d   1      -6.000   3.775   3.106  0.00  0.00     0.034 A 
ATOM      4  C3  UNL d   1      -5.053   3.471   4.091  0.00  0.00     0.017 A 
ATOM      5  C4  UNL d   1      -3.809   4.112   4.081  0.00  0.00     0.017 A 
ATOM      6  C5  UNL d   1      -3.520   5.051   3.086  0.00  0.00     0.034 A 
ATOM      7 Cl   UNL d   1      -2.590   3.789   5.263  0.00  0.00    -0.070 Cl
ATOM      8 Cl1  UNL d   1      -5.485   2.300   5.287  0.00  0.00    -0.070 Cl
ENDROOT
TORSDOF 0
ENDMDL
