MODEL 1
REMARK minimizedAffinity -1.94439459
REMARK minimizedRMSD -1
REMARK  0 active torsions:
REMARK  status: ('A' for Active; 'I' for Inactive)
ROOT
ATOM      1  C   UNL d   1      -4.529   4.057   2.179  0.00  0.00     0.020 A 
ATOM      2  C1  UNL d   1      -4.840   5.416   2.220  0.00  0.00     0.020 A 
ATOM      3  C2  UNL d   1      -5.292   5.993   3.408  0.00  0.00     0.034 A 
ATOM      4  C3  UNL d   1      -5.435   5.211   4.561  0.00  0.00     0.017 A 
ATOM      5  C4  UNL d   1      -5.123   3.848   4.518  0.00  0.00     0.017 A 
ATOM      6  C5  UNL d   1      -4.670   3.275   3.326  0.00  0.00     0.034 A 
ATOM      7 Cl   UNL d   1      -5.274   2.819   5.899  0.00  0.00    -0.070 Cl
ATOM      8 Cl1  UNL d   1      -6.000   5.991   5.996  0.00  0.00    -0.070 Cl
ENDROOT
TORSDOF 0
ENDMDL
