MODEL 1
REMARK minimizedAffinity 5.79086351
REMARK minimizedRMSD -1
REMARK  0 active torsions:
REMARK  status: ('A' for Active; 'I' for Inactive)
ROOT
ATOM      1  C   UNL d   1      -6.000   4.574   4.050  0.00  0.00     0.020 A 
ATOM      2  C1  UNL d   1      -5.947   5.717   3.253  0.00  0.00     0.020 A 
ATOM      3  C2  UNL d   1      -5.361   5.658   1.986  0.00  0.00     0.034 A 
ATOM      4  C3  UNL d   1      -4.826   4.454   1.514  0.00  0.00     0.017 A 
ATOM      5  C4  UNL d   1      -4.879   3.308   2.315  0.00  0.00     0.017 A 
ATOM      6  C5  UNL d   1      -5.467   3.372   3.582  0.00  0.00     0.034 A 
ATOM      7 Cl   UNL d   1      -4.240   1.787   1.801  0.00  0.00    -0.070 Cl
ATOM      8 Cl1  UNL d   1      -4.117   4.454  -0.062  0.00  0.00    -0.070 Cl
ENDROOT
TORSDOF 0
ENDMDL
