MODEL 1
REMARK minimizedAffinity -2.42474651
REMARK minimizedRMSD -1
REMARK  0 active torsions:
REMARK  status: ('A' for Active; 'I' for Inactive)
ROOT
ATOM      1  C   UNL d   1      -4.791   5.317   2.436  0.00  0.00     0.020 A 
ATOM      2  C1  UNL d   1      -5.608   4.263   2.029  0.00  0.00     0.020 A 
ATOM      3  C2  UNL d   1      -5.766   3.145   2.851  0.00  0.00     0.034 A 
ATOM      4  C3  UNL d   1      -5.107   3.079   4.084  0.00  0.00     0.017 A 
ATOM      5  C4  UNL d   1      -4.288   4.138   4.491  0.00  0.00     0.017 A 
ATOM      6  C5  UNL d   1      -4.133   5.255   3.665  0.00  0.00     0.034 A 
ATOM      7 Cl   UNL d   1      -3.442   4.128   5.999  0.00  0.00    -0.070 Cl
ATOM      8 Cl1  UNL d   1      -5.349   1.666   5.049  0.00  0.00    -0.070 Cl
ENDROOT
TORSDOF 0
ENDMDL
