MODEL 1
REMARK minimizedAffinity -0.770573914
REMARK minimizedRMSD -1
REMARK  0 active torsions:
REMARK  status: ('A' for Active; 'I' for Inactive)
ROOT
ATOM      1  C   UNL d   1      -5.658   3.133   6.000  0.00  0.00     0.020 A 
ATOM      2  C1  UNL d   1      -5.999   4.485   5.979  0.00  0.00     0.020 A 
ATOM      3  C2  UNL d   1      -6.000   5.186   4.772  0.00  0.00     0.034 A 
ATOM      4  C3  UNL d   1      -5.658   4.536   3.580  0.00  0.00     0.017 A 
ATOM      5  C4  UNL d   1      -5.316   3.180   3.602  0.00  0.00     0.017 A 
ATOM      6  C5  UNL d   1      -5.317   2.482   4.814  0.00  0.00     0.034 A 
ATOM      7 Cl   UNL d   1      -4.883   2.310   2.172  0.00  0.00    -0.070 Cl
ATOM      8 Cl1  UNL d   1      -5.681   5.466   2.123  0.00  0.00    -0.070 Cl
ENDROOT
TORSDOF 0
ENDMDL
