MODEL 1
REMARK minimizedAffinity -3.86906767
REMARK minimizedRMSD -1
REMARK  0 active torsions:
REMARK  status: ('A' for Active; 'I' for Inactive)
ROOT
ATOM      1  C   UNL d   1      -5.535   4.838   6.000  0.00  0.00     0.020 A 
ATOM      2  C1  UNL d   1      -5.689   6.000   5.244  0.00  0.00     0.020 A 
ATOM      3  C2  UNL d   1      -5.358   6.000   3.888  0.00  0.00     0.034 A 
ATOM      4  C3  UNL d   1      -4.871   4.836   3.282  0.00  0.00     0.017 A 
ATOM      5  C4  UNL d   1      -4.717   3.670   4.041  0.00  0.00     0.017 A 
ATOM      6  C5  UNL d   1      -5.050   3.675   5.399  0.00  0.00     0.034 A 
ATOM      7 Cl   UNL d   1      -4.122   2.195   3.364  0.00  0.00    -0.070 Cl
ATOM      8 Cl1  UNL d   1      -4.482   4.907   1.600  0.00  0.00    -0.070 Cl
ENDROOT
TORSDOF 0
ENDMDL
