MODEL 1
REMARK minimizedAffinity -2.59502864
REMARK minimizedRMSD -1
REMARK  0 active torsions:
REMARK  status: ('A' for Active; 'I' for Inactive)
ROOT
ATOM      1  C   UNL d   1      -4.186   5.224   0.991  0.00  0.00     0.020 A 
ATOM      2  C1  UNL d   1      -5.462   5.771   1.119  0.00  0.00     0.020 A 
ATOM      3  C2  UNL d   1      -6.000   6.000   2.387  0.00  0.00     0.034 A 
ATOM      4  C3  UNL d   1      -5.261   5.681   3.533  0.00  0.00     0.017 A 
ATOM      5  C4  UNL d   1      -3.981   5.132   3.403  0.00  0.00     0.017 A 
ATOM      6  C5  UNL d   1      -3.447   4.906   2.131  0.00  0.00     0.034 A 
ATOM      7 Cl   UNL d   1      -3.009   4.713   4.770  0.00  0.00    -0.070 Cl
ATOM      8 Cl1  UNL d   1      -5.989   5.991   5.069  0.00  0.00    -0.070 Cl
ENDROOT
TORSDOF 0
ENDMDL
