MODEL 1
REMARK minimizedAffinity -2.84034562
REMARK minimizedRMSD -1
REMARK  0 active torsions:
REMARK  status: ('A' for Active; 'I' for Inactive)
ROOT
ATOM      1  C   UNL d   1      -5.639   4.865   1.935  0.00  0.00     0.020 A 
ATOM      2  C1  UNL d   1      -4.693   5.862   2.173  0.00  0.00     0.020 A 
ATOM      3  C2  UNL d   1      -4.107   5.981   3.435  0.00  0.00     0.034 A 
ATOM      4  C3  UNL d   1      -4.467   5.103   4.464  0.00  0.00     0.017 A 
ATOM      5  C4  UNL d   1      -5.416   4.103   4.224  0.00  0.00     0.017 A 
ATOM      6  C5  UNL d   1      -6.000   3.988   2.958  0.00  0.00     0.034 A 
ATOM      7 Cl   UNL d   1      -5.911   2.982   5.444  0.00  0.00    -0.070 Cl
ATOM      8 Cl1  UNL d   1      -3.702   5.308   6.000  0.00  0.00    -0.070 Cl
ENDROOT
TORSDOF 0
ENDMDL
