MODEL 1
REMARK minimizedAffinity -2.33352971
REMARK minimizedRMSD -1
REMARK  0 active torsions:
REMARK  status: ('A' for Active; 'I' for Inactive)
ROOT
ATOM      1  C   UNL d   1      -5.090   5.450   2.130  0.00  0.00     0.020 A 
ATOM      2  C1  UNL d   1      -4.583   4.152   2.093  0.00  0.00     0.020 A 
ATOM      3  C2  UNL d   1      -4.500   3.402   3.268  0.00  0.00     0.034 A 
ATOM      4  C3  UNL d   1      -4.924   3.949   4.484  0.00  0.00     0.017 A 
ATOM      5  C4  UNL d   1      -5.433   5.252   4.520  0.00  0.00     0.017 A 
ATOM      6  C5  UNL d   1      -5.514   5.999   3.341  0.00  0.00     0.034 A 
ATOM      7 Cl   UNL d   1      -5.976   5.995   5.983  0.00  0.00    -0.070 Cl
ATOM      8 Cl1  UNL d   1      -4.792   2.964   5.898  0.00  0.00    -0.070 Cl
ENDROOT
TORSDOF 0
ENDMDL
