MODEL 1
REMARK minimizedAffinity -2.60171533
REMARK minimizedRMSD -1
REMARK  0 active torsions:
REMARK  status: ('A' for Active; 'I' for Inactive)
ROOT
ATOM      1  C   UNL d   1      -4.634   5.969   2.170  0.00  0.00     0.020 A 
ATOM      2  C1  UNL d   1      -5.593   5.010   1.846  0.00  0.00     0.020 A 
ATOM      3  C2  UNL d   1      -6.000   4.079   2.804  0.00  0.00     0.034 A 
ATOM      4  C3  UNL d   1      -5.448   4.105   4.090  0.00  0.00     0.017 A 
ATOM      5  C4  UNL d   1      -4.486   5.069   4.414  0.00  0.00     0.017 A 
ATOM      6  C5  UNL d   1      -4.082   5.999   3.451  0.00  0.00     0.034 A 
ATOM      7 Cl   UNL d   1      -3.760   5.164   5.980  0.00  0.00    -0.070 Cl
ATOM      8 Cl1  UNL d   1      -5.999   2.924   5.225  0.00  0.00    -0.070 Cl
ENDROOT
TORSDOF 0
ENDMDL
