MODEL 1
REMARK minimizedAffinity -2.29378557
REMARK minimizedRMSD -1
REMARK  0 active torsions:
REMARK  status: ('A' for Active; 'I' for Inactive)
ROOT
ATOM      1  C   UNL d   1      -5.993   4.255   5.983  0.00  0.00     0.020 A 
ATOM      2  C1  UNL d   1      -5.977   5.609   5.649  0.00  0.00     0.020 A 
ATOM      3  C2  UNL d   1      -5.738   6.000   4.330  0.00  0.00     0.034 A 
ATOM      4  C3  UNL d   1      -5.515   5.037   3.340  0.00  0.00     0.017 A 
ATOM      5  C4  UNL d   1      -5.532   3.678   3.675  0.00  0.00     0.017 A 
ATOM      6  C5  UNL d   1      -5.771   3.292   4.998  0.00  0.00     0.034 A 
ATOM      7 Cl   UNL d   1      -5.265   2.432   2.508  0.00  0.00    -0.070 Cl
ATOM      8 Cl1  UNL d   1      -5.226   5.592   1.729  0.00  0.00    -0.070 Cl
ENDROOT
TORSDOF 0
ENDMDL
