MODEL 1
REMARK minimizedAffinity -1.43262827
REMARK minimizedRMSD -1
REMARK  0 active torsions:
REMARK  status: ('A' for Active; 'I' for Inactive)
ROOT
ATOM      1  C   UNL d   1      -5.939   5.360   2.033  0.00  0.00     0.020 A 
ATOM      2  C1  UNL d   1      -5.801   4.054   1.564  0.00  0.00     0.020 A 
ATOM      3  C2  UNL d   1      -5.716   2.993   2.468  0.00  0.00     0.034 A 
ATOM      4  C3  UNL d   1      -5.768   3.236   3.845  0.00  0.00     0.017 A 
ATOM      5  C4  UNL d   1      -5.906   4.547   4.315  0.00  0.00     0.017 A 
ATOM      6  C5  UNL d   1      -5.992   5.606   3.405  0.00  0.00     0.034 A 
ATOM      7 Cl   UNL d   1      -5.978   4.925   6.000  0.00  0.00    -0.070 Cl
ATOM      8 Cl1  UNL d   1      -5.656   1.876   4.906  0.00  0.00    -0.070 Cl
ENDROOT
TORSDOF 0
ENDMDL
