MODEL 1
REMARK minimizedAffinity -2.09729958
REMARK minimizedRMSD -1
REMARK  0 active torsions:
REMARK  status: ('A' for Active; 'I' for Inactive)
ROOT
ATOM      1  C   UNL d   1      -4.640   5.081   1.471  0.00  0.00     0.020 A 
ATOM      2  C1  UNL d   1      -5.594   5.999   1.910  0.00  0.00     0.020 A 
ATOM      3  C2  UNL d   1      -5.999   5.998   3.246  0.00  0.00     0.034 A 
ATOM      4  C3  UNL d   1      -5.452   5.078   4.148  0.00  0.00     0.017 A 
ATOM      5  C4  UNL d   1      -4.495   4.157   3.706  0.00  0.00     0.017 A 
ATOM      6  C5  UNL d   1      -4.092   4.162   2.367  0.00  0.00     0.034 A 
ATOM      7 Cl   UNL d   1      -3.774   2.992   4.759  0.00  0.00    -0.070 Cl
ATOM      8 Cl1  UNL d   1      -6.000   5.134   5.785  0.00  0.00    -0.070 Cl
ENDROOT
TORSDOF 0
ENDMDL
