MODEL 1
REMARK minimizedAffinity -2.7621305
REMARK minimizedRMSD -1
REMARK  0 active torsions:
REMARK  status: ('A' for Active; 'I' for Inactive)
ROOT
ATOM      1  C   UNL d   1      -4.917   5.440   2.182  0.00  0.00     0.020 A 
ATOM      2  C1  UNL d   1      -4.500   4.110   2.150  0.00  0.00     0.020 A 
ATOM      3  C2  UNL d   1      -4.541   3.338   3.312  0.00  0.00     0.034 A 
ATOM      4  C3  UNL d   1      -5.001   3.894   4.511  0.00  0.00     0.017 A 
ATOM      5  C4  UNL d   1      -5.420   5.229   4.542  0.00  0.00     0.017 A 
ATOM      6  C5  UNL d   1      -5.376   5.998   3.375  0.00  0.00     0.034 A 
ATOM      7 Cl   UNL d   1      -5.999   5.986   5.984  0.00  0.00    -0.070 Cl
ATOM      8 Cl1  UNL d   1      -5.025   2.880   5.910  0.00  0.00    -0.070 Cl
ENDROOT
TORSDOF 0
ENDMDL
