MODEL 1
REMARK minimizedAffinity -2.72079825
REMARK minimizedRMSD -1
REMARK  0 active torsions:
REMARK  status: ('A' for Active; 'I' for Inactive)
ROOT
ATOM      1  C   UNL d   1      -4.619   5.655   2.397  0.00  0.00     0.020 A 
ATOM      2  C1  UNL d   1      -5.576   4.774   1.894  0.00  0.00     0.020 A 
ATOM      3  C2  UNL d   1      -5.988   3.681   2.658  0.00  0.00     0.034 A 
ATOM      4  C3  UNL d   1      -5.444   3.465   3.929  0.00  0.00     0.017 A 
ATOM      5  C4  UNL d   1      -4.483   4.349   4.433  0.00  0.00     0.017 A 
ATOM      6  C5  UNL d   1      -4.074   5.443   3.663  0.00  0.00     0.034 A 
ATOM      7 Cl   UNL d   1      -3.766   4.149   5.992  0.00  0.00    -0.070 Cl
ATOM      8 Cl1  UNL d   1      -6.000   2.092   4.819  0.00  0.00    -0.070 Cl
ENDROOT
TORSDOF 0
ENDMDL
