MODEL 1
REMARK minimizedAffinity 9.18121433
REMARK minimizedRMSD -1
REMARK  0 active torsions:
REMARK  status: ('A' for Active; 'I' for Inactive)
ROOT
ATOM      1  O1  BZF d   1       4.713  -4.984   4.170  0.00  0.00    -0.204 OA
ATOM      2  C2  BZF d   1       5.629  -5.283   5.160  0.00  0.00     0.174 A 
ATOM      3  C3  BZF d   1       5.783  -4.239   6.000  0.00  0.00    -0.012 A 
ATOM      4  C3A BZF d   1       4.840  -3.258   5.558  0.00  0.00    -0.107 A 
ATOM      5  C4  BZF d   1       4.506  -2.009   6.000  0.00  0.00     0.055 A 
ATOM      6  C5  BZF d   1       3.595  -1.283   5.301  0.00  0.00    -0.016 A 
ATOM      7  C6  BZF d   1       3.003  -1.770   4.154  0.00  0.00     0.022 A 
ATOM      8  C7  BZF d   1       3.298  -3.005   3.680  0.00  0.00     0.029 A 
ATOM      9  C7A BZF d   1       4.194  -3.754   4.402  0.00  0.00     0.058 A 
ENDROOT
TORSDOF 0
ENDMDL
