MODEL 1
REMARK minimizedAffinity 10.1948032
REMARK minimizedRMSD -1
REMARK  0 active torsions:
REMARK  status: ('A' for Active; 'I' for Inactive)
ROOT
ATOM      1  O1  BZF d   1       0.456   2.601  -0.429  0.00  0.00    -0.204 OA
ATOM      2  C2  BZF d   1       0.677   2.880   0.905  0.00  0.00     0.174 A 
ATOM      3  C3  BZF d   1       0.253   4.124   1.211  0.00  0.00    -0.012 A 
ATOM      4  C3A BZF d   1      -0.350   4.621   0.012  0.00  0.00    -0.107 A 
ATOM      5  C4  BZF d   1      -0.968   5.795  -0.312  0.00  0.00     0.055 A 
ATOM      6  C5  BZF d   1      -1.380   5.993  -1.591  0.00  0.00    -0.016 A 
ATOM      7  C6  BZF d   1      -1.187   5.043  -2.572  0.00  0.00     0.022 A 
ATOM      8  C7  BZF d   1      -0.584   3.861  -2.298  0.00  0.00     0.029 A 
ATOM      9  C7A BZF d   1      -0.195   3.644  -0.999  0.00  0.00     0.058 A 
ENDROOT
TORSDOF 0
ENDMDL
