MODEL 1
REMARK minimizedAffinity 20.4478512
REMARK minimizedRMSD -1
REMARK  0 active torsions:
REMARK  status: ('A' for Active; 'I' for Inactive)
ROOT
ATOM      1  O1  BZF d   1       0.644   2.873  -0.758  0.00  0.00    -0.204 OA
ATOM      2  C2  BZF d   1       0.414   2.855   0.604  0.00  0.00     0.174 A 
ATOM      3  C3  BZF d   1      -0.394   3.871   0.966  0.00  0.00    -0.012 A 
ATOM      4  C3A BZF d   1      -0.762   4.515  -0.258  0.00  0.00    -0.107 A 
ATOM      5  C4  BZF d   1      -1.562   5.581  -0.555  0.00  0.00     0.055 A 
ATOM      6  C5  BZF d   1      -1.652   6.000  -1.844  0.00  0.00    -0.016 A 
ATOM      7  C6  BZF d   1      -0.954   5.380  -2.860  0.00  0.00     0.022 A 
ATOM      8  C7  BZF d   1      -0.153   4.315  -2.615  0.00  0.00     0.029 A 
ATOM      9  C7A BZF d   1      -0.085   3.869  -1.318  0.00  0.00     0.058 A 
ENDROOT
TORSDOF 0
ENDMDL
