MODEL 1
REMARK minimizedAffinity 1.13546526
REMARK minimizedRMSD -1
REMARK  0 active torsions:
REMARK  status: ('A' for Active; 'I' for Inactive)
ROOT
ATOM      1  O1  BZF d   1       0.427   3.251  -1.493  0.00  0.00    -0.204 OA
ATOM      2  C2  BZF d   1       0.712   2.669  -0.273  0.00  0.00     0.174 A 
ATOM      3  C3  BZF d   1       0.029   3.277   0.719  0.00  0.00    -0.012 A 
ATOM      4  C3A BZF d   1      -0.801   4.243   0.067  0.00  0.00    -0.107 A 
ATOM      5  C4  BZF d   1      -1.720   5.147   0.517  0.00  0.00     0.055 A 
ATOM      6  C5  BZF d   1      -2.303   5.994  -0.372  0.00  0.00    -0.016 A 
ATOM      7  C6  BZF d   1      -1.987   5.968  -1.714  0.00  0.00     0.022 A 
ATOM      8  C7  BZF d   1      -1.085   5.086  -2.208  0.00  0.00     0.029 A 
ATOM      9  C7A BZF d   1      -0.519   4.206  -1.318  0.00  0.00     0.058 A 
ENDROOT
TORSDOF 0
ENDMDL
