MODEL 1
REMARK minimizedAffinity 14.0423927
REMARK minimizedRMSD -1
REMARK  0 active torsions:
REMARK  status: ('A' for Active; 'I' for Inactive)
ROOT
ATOM      1  O1  BZF d   1      -5.787   3.077  -4.113  0.00  0.00    -0.204 OA
ATOM      2  C2  BZF d   1      -5.938   1.811  -4.644  0.00  0.00     0.174 A 
ATOM      3  C3  BZF d   1      -5.992   0.885  -3.664  0.00  0.00    -0.012 A 
ATOM      4  C3A BZF d   1      -5.959   1.628  -2.442  0.00  0.00    -0.107 A 
ATOM      5  C4  BZF d   1      -6.000   1.271  -1.125  0.00  0.00     0.055 A 
ATOM      6  C5  BZF d   1      -5.875   2.235  -0.175  0.00  0.00    -0.016 A 
ATOM      7  C6  BZF d   1      -5.702   3.563  -0.506  0.00  0.00     0.022 A 
ATOM      8  C7  BZF d   1      -5.661   3.966  -1.799  0.00  0.00     0.029 A 
ATOM      9  C7A BZF d   1      -5.820   2.999  -2.761  0.00  0.00     0.058 A 
ENDROOT
TORSDOF 0
ENDMDL
