MODEL 1
REMARK minimizedAffinity 11.5193453
REMARK minimizedRMSD -1
REMARK  0 active torsions:
REMARK  status: ('A' for Active; 'I' for Inactive)
ROOT
ATOM      1  O1  BZF d   1       0.708  -1.405  -0.456  0.00  0.00    -0.204 OA
ATOM      2  C2  BZF d   1       1.797  -1.521   0.386  0.00  0.00     0.174 A 
ATOM      3  C3  BZF d   1       2.167  -2.811   0.515  0.00  0.00    -0.012 A 
ATOM      4  C3A BZF d   1       1.309  -3.539  -0.369  0.00  0.00    -0.107 A 
ATOM      5  C4  BZF d   1       1.200  -4.861  -0.694  0.00  0.00     0.055 A 
ATOM      6  C5  BZF d   1       0.209  -5.254  -1.538  0.00  0.00    -0.016 A 
ATOM      7  C6  BZF d   1      -0.691  -4.354  -2.069  0.00  0.00     0.022 A 
ATOM      8  C7  BZF d   1      -0.619  -3.032  -1.780  0.00  0.00     0.029 A 
ATOM      9  C7A BZF d   1       0.401  -2.627  -0.954  0.00  0.00     0.058 A 
ENDROOT
TORSDOF 0
ENDMDL
