MODEL 1
REMARK minimizedAffinity -1.58916116
REMARK minimizedRMSD -1
REMARK  0 active torsions:
REMARK  status: ('A' for Active; 'I' for Inactive)
ROOT
ATOM      1  O1  BZF d   1       1.772   3.970  -0.111  0.00  0.00    -0.204 OA
ATOM      2  C2  BZF d   1       0.546   4.056  -0.741  0.00  0.00     0.174 A 
ATOM      3  C3  BZF d   1      -0.450   3.711   0.101  0.00  0.00    -0.012 A 
ATOM      4  C3A BZF d   1       0.187   3.480   1.361  0.00  0.00    -0.107 A 
ATOM      5  C4  BZF d   1      -0.277   3.123   2.595  0.00  0.00     0.055 A 
ATOM      6  C5  BZF d   1       0.614   2.907   3.598  0.00  0.00    -0.016 A 
ATOM      7  C6  BZF d   1       1.974   3.033   3.401  0.00  0.00     0.022 A 
ATOM      8  C7  BZF d   1       2.481   3.390   2.196  0.00  0.00     0.029 A 
ATOM      9  C7A BZF d   1       1.581   3.641   1.189  0.00  0.00     0.058 A 
ENDROOT
TORSDOF 0
ENDMDL
