MODEL 1
REMARK minimizedAffinity -2.10265779
REMARK minimizedRMSD -1
REMARK  1 active torsions:
REMARK  status: ('A' for Active; 'I' for Inactive)
REMARK    1  A    between atoms: C1_2  and  C2_3 
ROOT
ATOM      1  C2  UNL d   1      -0.042   0.548  -0.320  0.00  0.00    -0.076 A 
ATOM      2  C3  UNL d   1       0.858   1.533  -0.761  0.00  0.00     0.004 A 
ATOM      3  C4  UNL d   1       2.096   1.184  -1.300  0.00  0.00    -0.003 A 
ATOM      4  C5  UNL d   1       2.452  -0.156  -1.407  0.00  0.00     0.000 A 
ATOM      5  C6  UNL d   1       1.564  -1.147  -0.991  0.00  0.00     0.000 A 
ATOM      6  C7  UNL d   1       0.306  -0.813  -0.460  0.00  0.00    -0.073 A 
ATOM      7  C8  UNL d   1      -0.610  -1.922  -0.021  0.00  0.00     0.078 C 
ENDROOT
BRANCH   1   8
ATOM      8  C1  UNL d   1      -1.359   0.987   0.281  0.00  0.00     0.053 C 
ATOM      9  C   UNL d   1      -1.192   1.607   1.660  0.00  0.00     0.018 C 
ENDBRANCH   1   8
TORSDOF 1
ENDMDL
