MODEL 1
REMARK minimizedAffinity -2.31383038
REMARK minimizedRMSD -1
REMARK  1 active torsions:
REMARK  status: ('A' for Active; 'I' for Inactive)
REMARK    1  A    between atoms: C1_2  and  C2_3 
ROOT
ATOM      1  C2  UNL d   1       1.550  -0.676  -0.344  0.00  0.00    -0.076 A 
ATOM      2  C3  UNL d   1       1.239   0.682  -0.535  0.00  0.00     0.004 A 
ATOM      3  C4  UNL d   1      -0.027   1.178  -0.228  0.00  0.00    -0.003 A 
ATOM      4  C5  UNL d   1      -1.003   0.325   0.275  0.00  0.00     0.000 A 
ATOM      5  C6  UNL d   1      -0.707  -1.021   0.487  0.00  0.00     0.000 A 
ATOM      6  C7  UNL d   1       0.570  -1.534   0.198  0.00  0.00    -0.073 A 
ATOM      7  C8  UNL d   1       0.832  -2.995   0.441  0.00  0.00     0.078 C 
ENDROOT
BRANCH   1   8
ATOM      8  C1  UNL d   1       2.931  -1.162  -0.720  0.00  0.00     0.053 C 
ATOM      9  C   UNL d   1       2.959  -1.840  -2.081  0.00  0.00     0.018 C 
ENDBRANCH   1   8
TORSDOF 1
ENDMDL
