MODEL 1
REMARK minimizedAffinity -3.58645487
REMARK minimizedRMSD -1
REMARK  1 active torsions:
REMARK  status: ('A' for Active; 'I' for Inactive)
REMARK    1  A    between atoms: C1_2  and  C2_3 
ROOT
ATOM      1  C2  UNL d   1      -0.094  -0.085  -0.212  0.00  0.00    -0.076 A 
ATOM      2  C3  UNL d   1       0.253  -1.419   0.066  0.00  0.00     0.004 A 
ATOM      3  C4  UNL d   1       1.491  -1.933  -0.316  0.00  0.00    -0.003 A 
ATOM      4  C5  UNL d   1       2.403  -1.122  -0.982  0.00  0.00     0.000 A 
ATOM      5  C6  UNL d   1       2.083   0.209  -1.251  0.00  0.00     0.000 A 
ATOM      6  C7  UNL d   1       0.845   0.747  -0.858  0.00  0.00    -0.073 A 
ATOM      7  C8  UNL d   1       0.550   2.187  -1.179  0.00  0.00     0.078 C 
ENDROOT
BRANCH   1   8
ATOM      8  C1  UNL d   1      -1.461   0.409   0.202  0.00  0.00     0.053 C 
ATOM      9  C   UNL d   1      -1.507   0.843   1.659  0.00  0.00     0.018 C 
ENDBRANCH   1   8
TORSDOF 1
ENDMDL
