MODEL 1
REMARK minimizedAffinity -3.84978795
REMARK minimizedRMSD -1
REMARK  1 active torsions:
REMARK  status: ('A' for Active; 'I' for Inactive)
REMARK    1  A    between atoms: C1_2  and  C2_3 
ROOT
ATOM      1  C2  UNL d   1       0.069  -0.146  -0.192  0.00  0.00    -0.076 A 
ATOM      2  C3  UNL d   1       1.007   0.880  -0.405  0.00  0.00     0.004 A 
ATOM      3  C4  UNL d   1       2.318   0.587  -0.775  0.00  0.00    -0.003 A 
ATOM      4  C5  UNL d   1       2.713  -0.736  -0.939  0.00  0.00     0.000 A 
ATOM      5  C6  UNL d   1       1.791  -1.765  -0.750  0.00  0.00     0.000 A 
ATOM      6  C7  UNL d   1       0.461  -1.487  -0.392  0.00  0.00    -0.073 A 
ATOM      7  C8  UNL d   1      -0.489  -2.636  -0.195  0.00  0.00     0.078 C 
ENDROOT
BRANCH   1   8
ATOM      8  C1  UNL d   1      -1.332   0.231   0.235  0.00  0.00     0.053 C 
ATOM      9  C   UNL d   1      -1.348   1.090   1.490  0.00  0.00     0.018 C 
ENDBRANCH   1   8
TORSDOF 1
ENDMDL
