MODEL 1
REMARK minimizedAffinity -2.0817759
REMARK minimizedRMSD -1
REMARK  1 active torsions:
REMARK  status: ('A' for Active; 'I' for Inactive)
REMARK    1  A    between atoms: C1_2  and  C2_3 
ROOT
ATOM      1  C2  UNL d   1       1.383  -0.046  -0.701  0.00  0.00    -0.076 A 
ATOM      2  C3  UNL d   1       1.254   1.269  -1.181  0.00  0.00     0.004 A 
ATOM      3  C4  UNL d   1       0.012   1.901  -1.215  0.00  0.00    -0.003 A 
ATOM      4  C5  UNL d   1      -1.121   1.229  -0.769  0.00  0.00     0.000 A 
ATOM      5  C6  UNL d   1      -1.008  -0.070  -0.273  0.00  0.00     0.000 A 
ATOM      6  C7  UNL d   1       0.239  -0.715  -0.216  0.00  0.00    -0.073 A 
ATOM      7  C8  UNL d   1       0.302  -2.118   0.323  0.00  0.00     0.078 C 
ENDROOT
BRANCH   1   8
ATOM      8  C1  UNL d   1       2.751  -0.690  -0.713  0.00  0.00     0.053 C 
ATOM      9  C   UNL d   1       3.282  -0.903  -2.122  0.00  0.00     0.018 C 
ENDBRANCH   1   8
TORSDOF 1
ENDMDL
