MODEL 1
REMARK minimizedAffinity -4.50802803
REMARK minimizedRMSD -1
REMARK  1 active torsions:
REMARK  status: ('A' for Active; 'I' for Inactive)
REMARK    1  A    between atoms: C1_2  and  C2_3 
ROOT
ATOM      1  C2  UNL d   1       0.263  -0.005  -0.028  0.00  0.00    -0.076 A 
ATOM      2  C3  UNL d   1       1.186   0.984  -0.410  0.00  0.00     0.004 A 
ATOM      3  C4  UNL d   1       2.456   0.641  -0.869  0.00  0.00    -0.003 A 
ATOM      4  C5  UNL d   1       2.825  -0.697  -0.954  0.00  0.00     0.000 A 
ATOM      5  C6  UNL d   1       1.916  -1.692  -0.596  0.00  0.00     0.000 A 
ATOM      6  C7  UNL d   1       0.625  -1.364  -0.147  0.00  0.00    -0.073 A 
ATOM      7  C8  UNL d   1      -0.312  -2.477   0.232  0.00  0.00     0.078 C 
ENDROOT
BRANCH   1   8
ATOM      8  C1  UNL d   1      -1.091   0.428   0.487  0.00  0.00     0.053 C 
ATOM      9  C   UNL d   1      -1.067   0.774   1.968  0.00  0.00     0.018 C 
ENDBRANCH   1   8
TORSDOF 1
ENDMDL
