MODEL 1
REMARK minimizedAffinity -1.82189107
REMARK minimizedRMSD -1
REMARK  1 active torsions:
REMARK  status: ('A' for Active; 'I' for Inactive)
REMARK    1  A    between atoms: C1_2  and  C2_3 
ROOT
ATOM      1  C2  UNL d   1       1.016  -0.655  -0.487  0.00  0.00    -0.076 A 
ATOM      2  C3  UNL d   1       0.739   0.714  -0.647  0.00  0.00     0.004 A 
ATOM      3  C4  UNL d   1      -0.442   1.269  -0.157  0.00  0.00    -0.003 A 
ATOM      4  C5  UNL d   1      -1.365   0.464   0.502  0.00  0.00     0.000 A 
ATOM      5  C6  UNL d   1      -1.098  -0.893   0.685  0.00  0.00     0.000 A 
ATOM      6  C7  UNL d   1       0.095  -1.464   0.212  0.00  0.00    -0.073 A 
ATOM      7  C8  UNL d   1       0.329  -2.934   0.432  0.00  0.00     0.078 C 
ENDROOT
BRANCH   1   8
ATOM      8  C1  UNL d   1       2.301  -1.205  -1.063  0.00  0.00     0.053 C 
ATOM      9  C   UNL d   1       3.513  -0.365  -0.692  0.00  0.00     0.018 C 
ENDBRANCH   1   8
TORSDOF 1
ENDMDL
