MODEL 1
REMARK minimizedAffinity -5.90947151
REMARK minimizedRMSD -1
REMARK  1 active torsions:
REMARK  status: ('A' for Active; 'I' for Inactive)
REMARK    1  A    between atoms: C1_2  and  C2_3 
ROOT
ATOM      1  C2  UNL d   1       1.060   0.637  -0.892  0.00  0.00    -0.076 A 
ATOM      2  C3  UNL d   1       0.388   1.513  -1.763  0.00  0.00     0.004 A 
ATOM      3  C4  UNL d   1      -0.968   1.790  -1.598  0.00  0.00    -0.003 A 
ATOM      4  C5  UNL d   1      -1.674   1.196  -0.558  0.00  0.00     0.000 A 
ATOM      5  C6  UNL d   1      -1.020   0.338   0.326  0.00  0.00     0.000 A 
ATOM      6  C7  UNL d   1       0.350   0.061   0.183  0.00  0.00    -0.073 A 
ATOM      7  C8  UNL d   1       1.003  -0.876   1.162  0.00  0.00     0.078 C 
ENDROOT
BRANCH   1   8
ATOM      8  C1  UNL d   1       2.525   0.354  -1.137  0.00  0.00     0.053 C 
ATOM      9  C   UNL d   1       2.742  -0.857  -2.031  0.00  0.00     0.018 C 
ENDBRANCH   1   8
TORSDOF 1
ENDMDL
