MODEL 1
REMARK minimizedAffinity -4.82385349
REMARK minimizedRMSD -1
REMARK  1 active torsions:
REMARK  status: ('A' for Active; 'I' for Inactive)
REMARK    1  A    between atoms: C1_2  and  C2_3 
ROOT
ATOM      1  C2  UNL d   1       0.223   0.067  -0.259  0.00  0.00    -0.076 A 
ATOM      2  C3  UNL d   1       0.371  -1.291   0.074  0.00  0.00     0.004 A 
ATOM      3  C4  UNL d   1       1.549  -1.977  -0.217  0.00  0.00    -0.003 A 
ATOM      4  C5  UNL d   1       2.598  -1.316  -0.846  0.00  0.00     0.000 A 
ATOM      5  C6  UNL d   1       2.476   0.035  -1.168  0.00  0.00     0.000 A 
ATOM      6  C7  UNL d   1       1.301   0.745  -0.867  0.00  0.00    -0.073 A 
ATOM      7  C8  UNL d   1       1.221   2.200  -1.242  0.00  0.00     0.078 C 
ENDROOT
BRANCH   1   8
ATOM      8  C1  UNL d   1      -1.087   0.751   0.058  0.00  0.00     0.053 C 
ATOM      9  C   UNL d   1      -1.440   0.681   1.535  0.00  0.00     0.018 C 
ENDBRANCH   1   8
TORSDOF 1
ENDMDL
