MODEL 1
REMARK minimizedAffinity -2.33817339
REMARK minimizedRMSD -1
REMARK  1 active torsions:
REMARK  status: ('A' for Active; 'I' for Inactive)
REMARK    1  A    between atoms: C1_2  and  C2_3 
ROOT
ATOM      1  C2  UNL d   1      -0.356  -0.065  -0.010  0.00  0.00    -0.076 A 
ATOM      2  C3  UNL d   1      -0.226  -1.363   0.514  0.00  0.00     0.004 A 
ATOM      3  C4  UNL d   1       0.738  -2.242   0.023  0.00  0.00    -0.003 A 
ATOM      4  C5  UNL d   1       1.588  -1.837  -1.001  0.00  0.00     0.000 A 
ATOM      5  C6  UNL d   1       1.485  -0.548  -1.521  0.00  0.00     0.000 A 
ATOM      6  C7  UNL d   1       0.529   0.357  -1.026  0.00  0.00    -0.073 A 
ATOM      7  C8  UNL d   1       0.458   1.733  -1.628  0.00  0.00     0.078 C 
ENDROOT
BRANCH   1   8
ATOM      8  C1  UNL d   1      -1.437   0.835   0.543  0.00  0.00     0.053 C 
ATOM      9  C   UNL d   1      -1.803   0.491   1.979  0.00  0.00     0.018 C 
ENDBRANCH   1   8
TORSDOF 1
ENDMDL
