MODEL 1
REMARK minimizedAffinity -3.258641
REMARK minimizedRMSD -1
REMARK  1 active torsions:
REMARK  status: ('A' for Active; 'I' for Inactive)
REMARK    1  A    between atoms: C1_2  and  C2_3 
ROOT
ATOM      1  C2  UNL d   1      -0.467  -0.185  -0.154  0.00  0.00    -0.073 A 
ATOM      2  C3  UNL d   1      -0.612  -1.034   0.949  0.00  0.00    -0.002 A 
ATOM      3  C4  UNL d   1       0.210  -2.152   1.092  0.00  0.00     0.004 A 
ATOM      4  C5  UNL d   1       1.190  -2.429   0.139  0.00  0.00    -0.004 A 
ATOM      5  C6  UNL d   1       1.359  -1.586  -0.965  0.00  0.00    -0.075 A 
ATOM      6  C7  UNL d   1       2.407  -1.872  -2.000  0.00  0.00     0.076 C 
ATOM      7  C8  UNL d   1       0.527  -0.467  -1.103  0.00  0.00     0.001 A 
ENDROOT
BRANCH   1   8
ATOM      8  C1  UNL d   1      -1.348   1.027  -0.310  0.00  0.00     0.053 C 
ATOM      9  C   UNL d   1      -2.610   0.926   0.533  0.00  0.00     0.018 C 
ENDBRANCH   1   8
TORSDOF 1
ENDMDL
