MODEL 1
REMARK minimizedAffinity -5.29732847
REMARK minimizedRMSD -1
REMARK  1 active torsions:
REMARK  status: ('A' for Active; 'I' for Inactive)
REMARK    1  A    between atoms: C1_2  and  C2_3 
ROOT
ATOM      1  C2  UNL d   1       1.453  -0.252   0.713  0.00  0.00    -0.073 A 
ATOM      2  C3  UNL d   1       1.943   1.027   0.426  0.00  0.00    -0.002 A 
ATOM      3  C4  UNL d   1       1.076   2.038   0.009  0.00  0.00     0.004 A 
ATOM      4  C5  UNL d   1      -0.290   1.782  -0.118  0.00  0.00    -0.004 A 
ATOM      5  C6  UNL d   1      -0.801   0.514   0.176  0.00  0.00    -0.075 A 
ATOM      6  C7  UNL d   1      -2.267   0.223   0.043  0.00  0.00     0.076 C 
ATOM      7  C8  UNL d   1       0.077  -0.496   0.592  0.00  0.00     0.001 A 
ENDROOT
BRANCH   1   8
ATOM      8  C1  UNL d   1       2.385  -1.344   1.170  0.00  0.00     0.053 C 
ATOM      9  C   UNL d   1       3.806  -1.125   0.674  0.00  0.00     0.018 C 
ENDBRANCH   1   8
TORSDOF 1
ENDMDL
