MODEL 1
REMARK minimizedAffinity -4.62185335
REMARK minimizedRMSD -1
REMARK  1 active torsions:
REMARK  status: ('A' for Active; 'I' for Inactive)
REMARK    1  A    between atoms: C1_2  and  C2_3 
ROOT
ATOM      1  C2  UNL d   1       1.136  -0.092   0.734  0.00  0.00    -0.073 A 
ATOM      2  C3  UNL d   1       2.156   0.591   1.407  0.00  0.00    -0.002 A 
ATOM      3  C4  UNL d   1       3.494   0.278   1.162  0.00  0.00     0.004 A 
ATOM      4  C5  UNL d   1       3.826  -0.714   0.240  0.00  0.00    -0.004 A 
ATOM      5  C6  UNL d   1       2.821  -1.399  -0.451  0.00  0.00    -0.075 A 
ATOM      6  C7  UNL d   1       3.161  -2.471  -1.445  0.00  0.00     0.076 C 
ATOM      7  C8  UNL d   1       1.480  -1.081  -0.198  0.00  0.00     0.001 A 
ENDROOT
BRANCH   1   8
ATOM      8  C1  UNL d   1      -0.310   0.247   0.990  0.00  0.00     0.053 C 
ATOM      9  C   UNL d   1      -1.001   0.773  -0.257  0.00  0.00     0.018 C 
ENDBRANCH   1   8
TORSDOF 1
ENDMDL
