MODEL 1
REMARK minimizedAffinity -4.79021502
REMARK minimizedRMSD -1
REMARK  1 active torsions:
REMARK  status: ('A' for Active; 'I' for Inactive)
REMARK    1  A    between atoms: C1_2  and  C2_3 
ROOT
ATOM      1  C2  UNL d   1      -0.155  -0.001   0.076  0.00  0.00    -0.073 A 
ATOM      2  C3  UNL d   1      -0.519  -0.934  -0.901  0.00  0.00    -0.002 A 
ATOM      3  C4  UNL d   1       0.424  -1.831  -1.405  0.00  0.00     0.004 A 
ATOM      4  C5  UNL d   1       1.736  -1.808  -0.933  0.00  0.00    -0.004 A 
ATOM      5  C6  UNL d   1       2.116  -0.890   0.051  0.00  0.00    -0.075 A 
ATOM      6  C7  UNL d   1       3.525  -0.851   0.568  0.00  0.00     0.076 C 
ATOM      7  C8  UNL d   1       1.164   0.009   0.551  0.00  0.00     0.001 A 
ENDROOT
BRANCH   1   8
ATOM      8  C1  UNL d   1      -1.172   0.965   0.629  0.00  0.00     0.053 C 
ATOM      9  C   UNL d   1      -2.555   0.342   0.727  0.00  0.00     0.018 C 
ENDBRANCH   1   8
TORSDOF 1
ENDMDL
