MODEL 1
REMARK minimizedAffinity 1.30676007
REMARK minimizedRMSD -1
REMARK  1 active torsions:
REMARK  status: ('A' for Active; 'I' for Inactive)
REMARK    1  A    between atoms: C1_2  and  C2_3 
ROOT
ATOM      1  C2  UNL d   1       3.632   0.791  -0.672  0.00  0.00    -0.073 A 
ATOM      2  C3  UNL d   1       2.501   1.446  -0.171  0.00  0.00    -0.002 A 
ATOM      3  C4  UNL d   1       1.317   0.740   0.050  0.00  0.00     0.004 A 
ATOM      4  C5  UNL d   1       1.255  -0.627  -0.219  0.00  0.00    -0.004 A 
ATOM      5  C6  UNL d   1       2.378  -1.302  -0.709  0.00  0.00    -0.075 A 
ATOM      6  C7  UNL d   1       2.326  -2.771  -1.006  0.00  0.00     0.076 C 
ATOM      7  C8  UNL d   1       3.562  -0.585  -0.931  0.00  0.00     0.001 A 
ENDROOT
BRANCH   1   8
ATOM      8  C1  UNL d   1       4.913   1.548  -0.906  0.00  0.00     0.053 C 
ATOM      9  C   UNL d   1       4.795   3.009  -0.502  0.00  0.00     0.018 C 
ENDBRANCH   1   8
TORSDOF 1
ENDMDL
