MODEL 1
REMARK minimizedAffinity -4.32025814
REMARK minimizedRMSD -1
REMARK  0 active torsions:
REMARK  status: ('A' for Active; 'I' for Inactive)
ROOT
ATOM      1  C   UNL d   1       0.612  -2.195  -0.594  0.00  0.00     0.020 A 
ATOM      2  C1  UNL d   1      -0.132  -2.828   0.401  0.00  0.00     0.020 A 
ATOM      3  C2  UNL d   1      -0.920  -2.072   1.271  0.00  0.00     0.034 A 
ATOM      4  C3  UNL d   1      -0.965  -0.679   1.149  0.00  0.00     0.017 A 
ATOM      5  C4  UNL d   1      -0.218  -0.044   0.150  0.00  0.00     0.017 A 
ATOM      6  C5  UNL d   1       0.568  -0.806  -0.719  0.00  0.00     0.034 A 
ATOM      7 Cl   UNL d   1      -0.224   1.671  -0.063  0.00  0.00    -0.070 Cl
ATOM      8 Cl1  UNL d   1      -1.961   0.193   2.260  0.00  0.00    -0.070 Cl
ENDROOT
TORSDOF 0
ENDMDL
