MODEL 1
REMARK minimizedAffinity -3.48768377
REMARK minimizedRMSD -1
REMARK  0 active torsions:
REMARK  status: ('A' for Active; 'I' for Inactive)
ROOT
ATOM      1  C   UNL d   1       0.880  -2.589  -0.386  0.00  0.00     0.020 A 
ATOM      2  C1  UNL d   1      -0.341  -3.065   0.090  0.00  0.00     0.020 A 
ATOM      3  C2  UNL d   1      -1.302  -2.171   0.566  0.00  0.00     0.034 A 
ATOM      4  C3  UNL d   1      -1.044  -0.796   0.568  0.00  0.00     0.017 A 
ATOM      5  C4  UNL d   1       0.181  -0.318   0.090  0.00  0.00     0.017 A 
ATOM      6  C5  UNL d   1       1.140  -1.218  -0.386  0.00  0.00     0.034 A 
ATOM      7 Cl   UNL d   1       0.572   1.366   0.060  0.00  0.00    -0.070 Cl
ATOM      8 Cl1  UNL d   1      -2.279   0.252   1.171  0.00  0.00    -0.070 Cl
ENDROOT
TORSDOF 0
ENDMDL
