MODEL 1
REMARK minimizedAffinity -3.15952444
REMARK minimizedRMSD -1
REMARK  0 active torsions:
REMARK  status: ('A' for Active; 'I' for Inactive)
ROOT
ATOM      1  C   UNL d   1       0.599   0.172  -1.451  0.00  0.00     0.020 A 
ATOM      2  C1  UNL d   1       0.269   1.329  -0.747  0.00  0.00     0.020 A 
ATOM      3  C2  UNL d   1      -0.304   1.234   0.523  0.00  0.00     0.034 A 
ATOM      4  C3  UNL d   1      -0.549  -0.021   1.093  0.00  0.00     0.017 A 
ATOM      5  C4  UNL d   1      -0.217  -1.182   0.385  0.00  0.00     0.017 A 
ATOM      6  C5  UNL d   1       0.357  -1.081  -0.886  0.00  0.00     0.034 A 
ATOM      7 Cl   UNL d   1      -0.488  -2.765   1.022  0.00  0.00    -0.070 Cl
ATOM      8 Cl1  UNL d   1      -1.260  -0.064   2.667  0.00  0.00    -0.070 Cl
ENDROOT
TORSDOF 0
ENDMDL
