MODEL 1
REMARK minimizedAffinity -2.1214838
REMARK minimizedRMSD -1
REMARK  0 active torsions:
REMARK  status: ('A' for Active; 'I' for Inactive)
ROOT
ATOM      1  C   UNL d   1       1.659   4.412   0.899  0.00  0.00     0.020 A 
ATOM      2  C1  UNL d   1       1.335   3.740   2.078  0.00  0.00     0.020 A 
ATOM      3  C2  UNL d   1       0.654   2.522   2.022  0.00  0.00     0.034 A 
ATOM      4  C3  UNL d   1       0.293   1.973   0.786  0.00  0.00     0.017 A 
ATOM      5  C4  UNL d   1       0.618   2.648  -0.396  0.00  0.00     0.017 A 
ATOM      6  C5  UNL d   1       1.301   3.867  -0.334  0.00  0.00     0.034 A 
ATOM      7 Cl   UNL d   1       0.207   2.033  -1.958  0.00  0.00    -0.070 Cl
ATOM      8 Cl1  UNL d   1      -0.548   0.463   0.793  0.00  0.00    -0.070 Cl
ENDROOT
TORSDOF 0
ENDMDL
