MODEL 1
REMARK minimizedAffinity -2.33567524
REMARK minimizedRMSD -1
REMARK  0 active torsions:
REMARK  status: ('A' for Active; 'I' for Inactive)
ROOT
ATOM      1  C   UNL d   1       0.937  -2.365  -0.600  0.00  0.00     0.020 A 
ATOM      2  C1  UNL d   1       0.130  -2.928   0.387  0.00  0.00     0.020 A 
ATOM      3  C2  UNL d   1      -0.762  -2.125   1.102  0.00  0.00     0.034 A 
ATOM      4  C3  UNL d   1      -0.847  -0.754   0.831  0.00  0.00     0.017 A 
ATOM      5  C4  UNL d   1      -0.036  -0.190  -0.160  0.00  0.00     0.017 A 
ATOM      6  C5  UNL d   1       0.855  -0.999  -0.873  0.00  0.00     0.034 A 
ATOM      7 Cl   UNL d   1      -0.085   1.493  -0.550  0.00  0.00    -0.070 Cl
ATOM      8 Cl1  UNL d   1      -1.971   0.178   1.754  0.00  0.00    -0.070 Cl
ENDROOT
TORSDOF 0
ENDMDL
