MODEL 1
REMARK minimizedAffinity -4.26330519
REMARK minimizedRMSD -1
REMARK  0 active torsions:
REMARK  status: ('A' for Active; 'I' for Inactive)
ROOT
ATOM      1  C   UNL d   1       0.488  -2.686  -0.116  0.00  0.00     0.020 A 
ATOM      2  C1  UNL d   1      -0.655  -3.186   0.508  0.00  0.00     0.020 A 
ATOM      3  C2  UNL d   1      -1.635  -2.309   0.977  0.00  0.00     0.034 A 
ATOM      4  C3  UNL d   1      -1.473  -0.927   0.825  0.00  0.00     0.017 A 
ATOM      5  C4  UNL d   1      -0.326  -0.426   0.199  0.00  0.00     0.017 A 
ATOM      6  C5  UNL d   1       0.652  -1.309  -0.270  0.00  0.00     0.034 A 
ATOM      7 Cl   UNL d   1      -0.057   1.266  -0.026  0.00  0.00    -0.070 Cl
ATOM      8 Cl1  UNL d   1      -2.725   0.099   1.429  0.00  0.00    -0.070 Cl
ENDROOT
TORSDOF 0
ENDMDL
