MODEL 1
REMARK minimizedAffinity -4.47794819
REMARK minimizedRMSD -1
REMARK  0 active torsions:
REMARK  status: ('A' for Active; 'I' for Inactive)
ROOT
ATOM      1  C   UNL d   1      -0.630  -2.333   1.232  0.00  0.00     0.020 A 
ATOM      2  C1  UNL d   1      -1.158  -1.089   1.578  0.00  0.00     0.020 A 
ATOM      3  C2  UNL d   1      -0.939   0.016   0.752  0.00  0.00     0.034 A 
ATOM      4  C3  UNL d   1      -0.191  -0.121  -0.423  0.00  0.00     0.017 A 
ATOM      5  C4  UNL d   1       0.338  -1.370  -0.769  0.00  0.00     0.017 A 
ATOM      6  C5  UNL d   1       0.116  -2.473   0.061  0.00  0.00     0.034 A 
ATOM      7 Cl   UNL d   1       1.271  -1.616  -2.203  0.00  0.00    -0.070 Cl
ATOM      8 Cl1  UNL d   1       0.040   1.288  -1.397  0.00  0.00    -0.070 Cl
ENDROOT
TORSDOF 0
ENDMDL
