MODEL 1
REMARK minimizedAffinity -2.70041323
REMARK minimizedRMSD -1
REMARK  0 active torsions:
REMARK  status: ('A' for Active; 'I' for Inactive)
ROOT
ATOM      1  C   UNL d   1       0.685  -2.298   0.050  0.00  0.00     0.020 A 
ATOM      2  C1  UNL d   1      -0.386  -2.737   0.828  0.00  0.00     0.020 A 
ATOM      3  C2  UNL d   1      -1.407  -1.849   1.174  0.00  0.00     0.034 A 
ATOM      4  C3  UNL d   1      -1.360  -0.519   0.742  0.00  0.00     0.017 A 
ATOM      5  C4  UNL d   1      -0.285  -0.079  -0.039  0.00  0.00     0.017 A 
ATOM      6  C5  UNL d   1       0.735  -0.972  -0.382  0.00  0.00     0.034 A 
ATOM      7 Cl   UNL d   1      -0.157   1.547  -0.609  0.00  0.00    -0.070 Cl
ATOM      8 Cl1  UNL d   1      -2.657   0.524   1.208  0.00  0.00    -0.070 Cl
ENDROOT
TORSDOF 0
ENDMDL
