MODEL 1
REMARK minimizedAffinity -5.12638187
REMARK minimizedRMSD -1
REMARK  0 active torsions:
REMARK  status: ('A' for Active; 'I' for Inactive)
ROOT
ATOM      1  C   UNL d   1       0.744  -2.589  -1.791  0.00  0.00     0.020 A 
ATOM      2  C1  UNL d   1       0.239  -3.204  -0.646  0.00  0.00     0.020 A 
ATOM      3  C2  UNL d   1      -0.275  -2.428   0.394  0.00  0.00     0.034 A 
ATOM      4  C3  UNL d   1      -0.286  -1.032   0.293  0.00  0.00     0.017 A 
ATOM      5  C4  UNL d   1       0.221  -0.415  -0.857  0.00  0.00     0.017 A 
ATOM      6  C5  UNL d   1       0.735  -1.197  -1.896  0.00  0.00     0.034 A 
ATOM      7 Cl   UNL d   1       0.241   1.302  -1.056  0.00  0.00    -0.070 Cl
ATOM      8 Cl1  UNL d   1      -0.938  -0.135   1.618  0.00  0.00    -0.070 Cl
ENDROOT
TORSDOF 0
ENDMDL
