MODEL 1
REMARK minimizedAffinity -4.8343792
REMARK minimizedRMSD -1
REMARK  0 active torsions:
REMARK  status: ('A' for Active; 'I' for Inactive)
ROOT
ATOM      1  C   UNL d   1      -0.711  -0.365   1.580  0.00  0.00     0.020 A 
ATOM      2  C1  UNL d   1      -0.467   0.561   0.566  0.00  0.00     0.020 A 
ATOM      3  C2  UNL d   1      -0.060   0.123  -0.696  0.00  0.00     0.034 A 
ATOM      4  C3  UNL d   1       0.105  -1.244  -0.947  0.00  0.00     0.017 A 
ATOM      5  C4  UNL d   1      -0.140  -2.172   0.071  0.00  0.00     0.017 A 
ATOM      6  C5  UNL d   1      -0.548  -1.729   1.333  0.00  0.00     0.034 A 
ATOM      7 Cl   UNL d   1       0.041  -3.875  -0.164  0.00  0.00    -0.070 Cl
ATOM      8 Cl1  UNL d   1       0.610  -1.714  -2.531  0.00  0.00    -0.070 Cl
ENDROOT
TORSDOF 0
ENDMDL
