MODEL 1
REMARK minimizedAffinity -4.18218088
REMARK minimizedRMSD -1
REMARK  2 active torsions:
REMARK  status: ('A' for Active; 'I' for Inactive)
REMARK    1  A    between atoms: C2'_3  and  C1'_4 
REMARK    2  A    between atoms: C1'_4  and  C1_5 
ROOT
ATOM      1  C1  I4B d   1       0.760  -1.659   1.352  0.00  0.00    -0.075 A 
ATOM      2  C2  I4B d   1       0.862  -2.553   2.389  0.00  0.00     0.003 A 
ATOM      3  C3  I4B d   1      -0.169  -2.643   3.356  0.00  0.00     0.002 A 
ATOM      4  C4  I4B d   1      -1.251  -1.791   3.277  0.00  0.00    -0.004 A 
ATOM      5  C5  I4B d   1      -1.364  -0.901   2.212  0.00  0.00     0.002 A 
ATOM      6  C6  I4B d   1      -0.358  -0.843   1.237  0.00  0.00     0.003 A 
ENDROOT
BRANCH   1   7
ATOM      7  C1' I4B d   1       1.882  -1.567   0.367  0.00  0.00     0.060 C 
BRANCH   7   8
ATOM      8  C2' I4B d   1       1.547  -0.467  -0.620  0.00  0.00    -0.013 C 
ATOM      9  C4' I4B d   1       1.606   0.889   0.034  0.00  0.00     0.013 C 
ATOM     10  C3' I4B d   1       2.515  -0.559  -1.762  0.00  0.00     0.013 C 
ENDBRANCH   7   8
ENDBRANCH   1   7
TORSDOF 2
ENDMDL
