MODEL 1
REMARK minimizedAffinity -5.38347769
REMARK minimizedRMSD -1
REMARK  2 active torsions:
REMARK  status: ('A' for Active; 'I' for Inactive)
REMARK    1  A    between atoms: C2'_3  and  C1'_4 
REMARK    2  A    between atoms: C1'_4  and  C1_5 
ROOT
ATOM      1  C1  I4B d   1       0.586   0.232   0.177  0.00  0.00    -0.075 A 
ATOM      2  C2  I4B d   1       1.958   0.265   0.175  0.00  0.00     0.003 A 
ATOM      3  C3  I4B d   1       2.698  -0.838   0.666  0.00  0.00     0.002 A 
ATOM      4  C4  I4B d   1       2.030  -1.924   1.193  0.00  0.00    -0.004 A 
ATOM      5  C5  I4B d   1       0.639  -1.965   1.174  0.00  0.00     0.002 A 
ATOM      6  C6  I4B d   1      -0.088  -0.886   0.651  0.00  0.00     0.003 A 
ENDROOT
BRANCH   1   7
ATOM      7  C1' I4B d   1      -0.165   1.428  -0.318  0.00  0.00     0.060 C 
BRANCH   7   8
ATOM      8  C2' I4B d   1      -0.018   1.479  -1.826  0.00  0.00    -0.013 C 
ATOM      9  C4' I4B d   1      -1.170   0.790  -2.509  0.00  0.00     0.013 C 
ATOM     10  C3' I4B d   1       0.070   2.919  -2.234  0.00  0.00     0.013 C 
ENDBRANCH   7   8
ENDBRANCH   1   7
TORSDOF 2
ENDMDL
