MODEL 1
REMARK minimizedAffinity -4.22028112
REMARK minimizedRMSD -1
REMARK  2 active torsions:
REMARK  status: ('A' for Active; 'I' for Inactive)
REMARK    1  A    between atoms: C2'_3  and  C1'_4 
REMARK    2  A    between atoms: C1'_4  and  C1_5 
ROOT
ATOM      1  C1  I4B d   1       0.155   0.596  -0.572  0.00  0.00    -0.075 A 
ATOM      2  C2  I4B d   1       0.601   1.820  -0.139  0.00  0.00     0.003 A 
ATOM      3  C3  I4B d   1       0.447   2.965  -0.957  0.00  0.00     0.002 A 
ATOM      4  C4  I4B d   1      -0.108   2.833  -2.214  0.00  0.00    -0.004 A 
ATOM      5  C5  I4B d   1      -0.579   1.595  -2.642  0.00  0.00     0.002 A 
ATOM      6  C6  I4B d   1      -0.458   0.472  -1.811  0.00  0.00     0.003 A 
ENDROOT
BRANCH   1   7
ATOM      7  C1' I4B d   1       0.363  -0.598   0.305  0.00  0.00     0.060 C 
BRANCH   7   8
ATOM      8  C2' I4B d   1       1.779  -1.094   0.089  0.00  0.00    -0.013 C 
ATOM      9  C4' I4B d   1       2.466  -1.368   1.400  0.00  0.00     0.013 C 
ATOM     10  C3' I4B d   1       1.711  -2.331  -0.756  0.00  0.00     0.013 C 
ENDBRANCH   7   8
ENDBRANCH   1   7
TORSDOF 2
ENDMDL
