MODEL 1
REMARK minimizedAffinity -4.36415529
REMARK minimizedRMSD -1
REMARK  2 active torsions:
REMARK  status: ('A' for Active; 'I' for Inactive)
REMARK    1  A    between atoms: C2'_3  and  C1'_4 
REMARK    2  A    between atoms: C1'_4  and  C1_5 
ROOT
ATOM      1  C1  I4B d   1      -0.170   0.670  -0.457  0.00  0.00    -0.075 A 
ATOM      2  C2  I4B d   1       1.190   0.824  -0.571  0.00  0.00     0.003 A 
ATOM      3  C3  I4B d   1       2.065  -0.158  -0.049  0.00  0.00     0.002 A 
ATOM      4  C4  I4B d   1       1.543  -1.247   0.619  0.00  0.00    -0.004 A 
ATOM      5  C5  I4B d   1       0.164  -1.414   0.714  0.00  0.00     0.002 A 
ATOM      6  C6  I4B d   1      -0.698  -0.455   0.161  0.00  0.00     0.003 A 
ENDROOT
BRANCH   1   7
ATOM      7  C1' I4B d   1      -1.064   1.743  -0.991  0.00  0.00     0.060 C 
BRANCH   7   8
ATOM      8  C2' I4B d   1      -1.565   1.300  -2.351  0.00  0.00    -0.013 C 
ATOM      9  C4' I4B d   1      -3.014   0.896  -2.293  0.00  0.00     0.013 C 
ATOM     10  C3' I4B d   1      -1.357   2.432  -3.312  0.00  0.00     0.013 C 
ENDBRANCH   7   8
ENDBRANCH   1   7
TORSDOF 2
ENDMDL
