MODEL 1
REMARK minimizedAffinity -3.62055254
REMARK minimizedRMSD -1
REMARK  2 active torsions:
REMARK  status: ('A' for Active; 'I' for Inactive)
REMARK    1  A    between atoms: C2'_3  and  C1'_4 
REMARK    2  A    between atoms: C1'_4  and  C1_5 
ROOT
ATOM      1  C1  I4B d   1       0.615  -0.987  -0.263  0.00  0.00    -0.075 A 
ATOM      2  C2  I4B d   1       0.102  -2.231   0.009  0.00  0.00     0.003 A 
ATOM      3  C3  I4B d   1       0.816  -3.132   0.834  0.00  0.00     0.002 A 
ATOM      4  C4  I4B d   1       2.055  -2.771   1.322  0.00  0.00    -0.004 A 
ATOM      5  C5  I4B d   1       2.564  -1.501   1.064  0.00  0.00     0.002 A 
ATOM      6  C6  I4B d   1       1.834  -0.599   0.277  0.00  0.00     0.003 A 
ENDROOT
BRANCH   1   7
ATOM      7  C1' I4B d   1      -0.151  -0.073  -1.166  0.00  0.00     0.060 C 
BRANCH   7   8
ATOM      8  C2' I4B d   1      -0.401   1.220  -0.417  0.00  0.00    -0.013 C 
ATOM      9  C4' I4B d   1      -0.663   2.359  -1.367  0.00  0.00     0.013 C 
ATOM     10  C3' I4B d   1      -1.565   1.004   0.504  0.00  0.00     0.013 C 
ENDBRANCH   7   8
ENDBRANCH   1   7
TORSDOF 2
ENDMDL
