MODEL 1
REMARK minimizedAffinity -2.97360492
REMARK minimizedRMSD -1
REMARK  2 active torsions:
REMARK  status: ('A' for Active; 'I' for Inactive)
REMARK    1  A    between atoms: C2'_3  and  C1'_4 
REMARK    2  A    between atoms: C1'_4  and  C1_5 
ROOT
ATOM      1  C1  I4B d   1       0.540  -0.541   0.439  0.00  0.00    -0.075 A 
ATOM      2  C2  I4B d   1       1.062   0.507  -0.278  0.00  0.00     0.003 A 
ATOM      3  C3  I4B d   1       2.463   0.697  -0.345  0.00  0.00     0.002 A 
ATOM      4  C4  I4B d   1       3.298  -0.148   0.356  0.00  0.00    -0.004 A 
ATOM      5  C5  I4B d   1       2.769  -1.224   1.064  0.00  0.00     0.002 A 
ATOM      6  C6  I4B d   1       1.382  -1.429   1.096  0.00  0.00     0.003 A 
ENDROOT
BRANCH   1   7
ATOM      7  C1' I4B d   1      -0.946  -0.692   0.516  0.00  0.00     0.060 C 
BRANCH   7   8
ATOM      8  C2' I4B d   1      -1.374  -0.378   1.935  0.00  0.00    -0.013 C 
ATOM      9  C4' I4B d   1      -1.985   0.996   2.028  0.00  0.00     0.013 C 
ATOM     10  C3' I4B d   1      -2.347  -1.433   2.370  0.00  0.00     0.013 C 
ENDBRANCH   7   8
ENDBRANCH   1   7
TORSDOF 2
ENDMDL
