MODEL 1
REMARK minimizedAffinity -4.89130592
REMARK minimizedRMSD -1
REMARK  2 active torsions:
REMARK  status: ('A' for Active; 'I' for Inactive)
REMARK    1  A    between atoms: C2'_3  and  C1'_4 
REMARK    2  A    between atoms: C1'_4  and  C1_5 
ROOT
ATOM      1  C1  I4B d   1      -0.250   0.625   0.083  0.00  0.00    -0.075 A 
ATOM      2  C2  I4B d   1      -0.681  -0.451   0.818  0.00  0.00     0.003 A 
ATOM      3  C3  I4B d   1       0.221  -1.487   1.163  0.00  0.00     0.002 A 
ATOM      4  C4  I4B d   1       1.524  -1.431   0.711  0.00  0.00    -0.004 A 
ATOM      5  C5  I4B d   1       1.965  -0.328  -0.014  0.00  0.00     0.002 A 
ATOM      6  C6  I4B d   1       1.076   0.712  -0.320  0.00  0.00     0.003 A 
ENDROOT
BRANCH   1   7
ATOM      7  C1' I4B d   1      -1.237   1.684  -0.290  0.00  0.00     0.060 C 
BRANCH   7   8
ATOM      8  C2' I4B d   1      -1.537   1.543  -1.769  0.00  0.00    -0.013 C 
ATOM      9  C4' I4B d   1      -2.880   0.900  -1.994  0.00  0.00     0.013 C 
ATOM     10  C3' I4B d   1      -1.479   2.908  -2.386  0.00  0.00     0.013 C 
ENDBRANCH   7   8
ENDBRANCH   1   7
TORSDOF 2
ENDMDL
