MODEL 1
REMARK minimizedAffinity -0.25887385
REMARK minimizedRMSD -1
REMARK  2 active torsions:
REMARK  status: ('A' for Active; 'I' for Inactive)
REMARK    1  A    between atoms: C2'_3  and  C1'_4 
REMARK    2  A    between atoms: C1'_4  and  C1_5 
ROOT
ATOM      1  C1  I4B d   1      -0.665   0.570  -0.141  0.00  0.00    -0.075 A 
ATOM      2  C2  I4B d   1      -1.310   0.193   1.011  0.00  0.00     0.003 A 
ATOM      3  C3  I4B d   1      -0.851  -0.922   1.753  0.00  0.00     0.002 A 
ATOM      4  C4  I4B d   1       0.218  -1.658   1.283  0.00  0.00    -0.004 A 
ATOM      5  C5  I4B d   1       0.884  -1.261   0.127  0.00  0.00     0.002 A 
ATOM      6  C6  I4B d   1       0.449  -0.133  -0.583  0.00  0.00     0.003 A 
ENDROOT
BRANCH   1   7
ATOM      7  C1' I4B d   1      -1.196   1.733  -0.917  0.00  0.00     0.060 C 
BRANCH   7   8
ATOM      8  C2' I4B d   1      -1.584   1.237  -2.295  0.00  0.00    -0.013 C 
ATOM      9  C4' I4B d   1      -3.016   0.772  -2.323  0.00  0.00     0.013 C 
ATOM     10  C3' I4B d   1      -1.357   2.353  -3.270  0.00  0.00     0.013 C 
ENDBRANCH   7   8
ENDBRANCH   1   7
TORSDOF 2
ENDMDL
