MODEL 1
REMARK minimizedAffinity -4.05846882
REMARK minimizedRMSD -1
REMARK  2 active torsions:
REMARK  status: ('A' for Active; 'I' for Inactive)
REMARK    1  A    between atoms: C2'_3  and  C1'_4 
REMARK    2  A    between atoms: C1'_4  and  C1_5 
ROOT
ATOM      1  C1  I4B d   1       0.323  -0.320   0.224  0.00  0.00    -0.075 A 
ATOM      2  C2  I4B d   1      -0.186  -1.427   0.856  0.00  0.00     0.003 A 
ATOM      3  C3  I4B d   1       0.626  -2.570   1.056  0.00  0.00     0.002 A 
ATOM      4  C4  I4B d   1       1.915  -2.582   0.565  0.00  0.00    -0.004 A 
ATOM      5  C5  I4B d   1       2.437  -1.451  -0.056  0.00  0.00     0.002 A 
ATOM      6  C6  I4B d   1       1.640  -0.308  -0.217  0.00  0.00     0.003 A 
ENDROOT
BRANCH   1   7
ATOM      7  C1' I4B d   1      -0.571   0.858   0.001  0.00  0.00     0.060 C 
BRANCH   7   8
ATOM      8  C2' I4B d   1      -0.911   0.914  -1.475  0.00  0.00    -0.013 C 
ATOM      9  C4' I4B d   1      -2.226   0.236  -1.758  0.00  0.00     0.013 C 
ATOM     10  C3' I4B d   1      -0.945   2.355  -1.888  0.00  0.00     0.013 C 
ENDBRANCH   7   8
ENDBRANCH   1   7
TORSDOF 2
ENDMDL
