MODEL 1
REMARK minimizedAffinity -4.30043554
REMARK minimizedRMSD -1
REMARK  2 active torsions:
REMARK  status: ('A' for Active; 'I' for Inactive)
REMARK    1  A    between atoms: C2'_3  and  C1'_4 
REMARK    2  A    between atoms: C1'_4  and  C1_5 
ROOT
ATOM      1  C1  I4B d   1       0.346  -1.236   0.562  0.00  0.00    -0.075 A 
ATOM      2  C2  I4B d   1       1.465  -2.001   0.774  0.00  0.00     0.003 A 
ATOM      3  C3  I4B d   1       1.574  -2.796   1.941  0.00  0.00     0.002 A 
ATOM      4  C4  I4B d   1       0.570  -2.757   2.886  0.00  0.00    -0.004 A 
ATOM      5  C5  I4B d   1      -0.575  -1.998   2.659  0.00  0.00     0.002 A 
ATOM      6  C6  I4B d   1      -0.693  -1.242   1.483  0.00  0.00     0.003 A 
ENDROOT
BRANCH   1   7
ATOM      7  C1' I4B d   1       0.278  -0.382  -0.665  0.00  0.00     0.060 C 
BRANCH   7   8
ATOM      8  C2' I4B d   1      -0.961   0.483  -0.564  0.00  0.00    -0.013 C 
ATOM      9  C4' I4B d   1      -0.672   1.767   0.169  0.00  0.00     0.013 C 
ATOM     10  C3' I4B d   1      -1.453   0.753  -1.955  0.00  0.00     0.013 C 
ENDBRANCH   7   8
ENDBRANCH   1   7
TORSDOF 2
ENDMDL
