MODEL 1
REMARK minimizedAffinity -5.23147821
REMARK minimizedRMSD -1
REMARK  2 active torsions:
REMARK  status: ('A' for Active; 'I' for Inactive)
REMARK    1  A    between atoms: C2'_3  and  C1'_4 
REMARK    2  A    between atoms: C1'_4  and  C1_5 
ROOT
ATOM      1  C1  I4B d   1       0.085   0.522  -0.313  0.00  0.00    -0.075 A 
ATOM      2  C2  I4B d   1       1.364   0.948  -0.571  0.00  0.00     0.003 A 
ATOM      3  C3  I4B d   1       2.462   0.080  -0.352  0.00  0.00     0.002 A 
ATOM      4  C4  I4B d   1       2.240  -1.178   0.170  0.00  0.00    -0.004 A 
ATOM      5  C5  I4B d   1       0.941  -1.616   0.409  0.00  0.00     0.002 A 
ATOM      6  C6  I4B d   1      -0.145  -0.765   0.155  0.00  0.00     0.003 A 
ENDROOT
BRANCH   1   7
ATOM      7  C1' I4B d   1      -1.048   1.476  -0.524  0.00  0.00     0.060 C 
BRANCH   7   8
ATOM      8  C2' I4B d   1      -1.298   1.581  -2.014  0.00  0.00    -0.013 C 
ATOM      9  C4' I4B d   1      -2.475   0.739  -2.431  0.00  0.00     0.013 C 
ATOM     10  C3' I4B d   1      -1.522   3.027  -2.345  0.00  0.00     0.013 C 
ENDBRANCH   7   8
ENDBRANCH   1   7
TORSDOF 2
ENDMDL
