MODEL 1
REMARK minimizedAffinity -6.29696608
REMARK minimizedRMSD -1
REMARK  2 active torsions:
REMARK  status: ('A' for Active; 'I' for Inactive)
REMARK    1  A    between atoms: C2'_3  and  C1'_4 
REMARK    2  A    between atoms: C1'_4  and  C1_5 
ROOT
ATOM      1  C1  I4B d   1       0.409  -1.058   0.467  0.00  0.00    -0.075 A 
ATOM      2  C2  I4B d   1       1.474  -1.924   0.461  0.00  0.00     0.003 A 
ATOM      3  C3  I4B d   1       1.547  -2.972   1.410  0.00  0.00     0.002 A 
ATOM      4  C4  I4B d   1       0.564  -3.086   2.373  0.00  0.00    -0.004 A 
ATOM      5  C5  I4B d   1      -0.526  -2.222   2.363  0.00  0.00     0.002 A 
ATOM      6  C6  I4B d   1      -0.611  -1.209   1.397  0.00  0.00     0.003 A 
ENDROOT
BRANCH   1   7
ATOM      7  C1' I4B d   1       0.381   0.057  -0.529  0.00  0.00     0.060 C 
BRANCH   7   8
ATOM      8  C2' I4B d   1      -1.022   0.628  -0.551  0.00  0.00    -0.013 C 
ATOM      9  C4' I4B d   1      -1.175   1.739   0.455  0.00  0.00     0.013 C 
ATOM     10  C3' I4B d   1      -1.302   1.114  -1.941  0.00  0.00     0.013 C 
ENDBRANCH   7   8
ENDBRANCH   1   7
TORSDOF 2
ENDMDL
