MODEL 1
REMARK minimizedAffinity -5.5059762
REMARK minimizedRMSD -1
REMARK  2 active torsions:
REMARK  status: ('A' for Active; 'I' for Inactive)
REMARK    1  A    between atoms: C2'_3  and  C1'_4 
REMARK    2  A    between atoms: C1'_4  and  C1_5 
ROOT
ATOM      1  C1  I4B d   1      -0.328   0.709  -0.624  0.00  0.00    -0.075 A 
ATOM      2  C2  I4B d   1       0.864   0.152  -1.014  0.00  0.00     0.003 A 
ATOM      3  C3  I4B d   1       1.427  -0.915  -0.273  0.00  0.00     0.002 A 
ATOM      4  C4  I4B d   1       0.795  -1.356   0.872  0.00  0.00    -0.004 A 
ATOM      5  C5  I4B d   1      -0.425  -0.805   1.252  0.00  0.00     0.002 A 
ATOM      6  C6  I4B d   1      -0.997   0.226   0.493  0.00  0.00     0.003 A 
ENDROOT
BRANCH   1   7
ATOM      7  C1' I4B d   1      -0.878   1.857  -1.411  0.00  0.00     0.060 C 
BRANCH   7   8
ATOM      8  C2' I4B d   1      -1.069   1.393  -2.841  0.00  0.00    -0.013 C 
ATOM      9  C4' I4B d   1      -2.514   1.079  -3.124  0.00  0.00     0.013 C 
ATOM     10  C3' I4B d   1      -0.562   2.474  -3.749  0.00  0.00     0.013 C 
ENDBRANCH   7   8
ENDBRANCH   1   7
TORSDOF 2
ENDMDL
