MODEL 1
REMARK minimizedAffinity -5.00794029
REMARK minimizedRMSD -1
REMARK  2 active torsions:
REMARK  status: ('A' for Active; 'I' for Inactive)
REMARK    1  A    between atoms: C2'_3  and  C1'_4 
REMARK    2  A    between atoms: C1'_4  and  C1_5 
ROOT
ATOM      1  C1  I4B d   1       0.561   0.184  -0.010  0.00  0.00    -0.075 A 
ATOM      2  C2  I4B d   1       1.814  -0.170  -0.445  0.00  0.00     0.003 A 
ATOM      3  C3  I4B d   1       2.365  -1.425  -0.089  0.00  0.00     0.002 A 
ATOM      4  C4  I4B d   1       1.654  -2.268   0.740  0.00  0.00    -0.004 A 
ATOM      5  C5  I4B d   1       0.374  -1.918   1.161  0.00  0.00     0.002 A 
ATOM      6  C6  I4B d   1      -0.181  -0.690   0.774  0.00  0.00     0.003 A 
ENDROOT
BRANCH   1   7
ATOM      7  C1' I4B d   1       0.023   1.530  -0.378  0.00  0.00     0.060 C 
BRANCH   7   8
ATOM      8  C2' I4B d   1      -0.217   1.544  -1.874  0.00  0.00    -0.013 C 
ATOM      9  C4' I4B d   1      -1.616   1.096  -2.206  0.00  0.00     0.013 C 
ATOM     10  C3' I4B d   1       0.038   2.936  -2.371  0.00  0.00     0.013 C 
ENDBRANCH   7   8
ENDBRANCH   1   7
TORSDOF 2
ENDMDL
