MODEL 1
REMARK minimizedAffinity -2.67934752
REMARK minimizedRMSD -1
REMARK  0 active torsions:
REMARK  status: ('A' for Active; 'I' for Inactive)
ROOT
ATOM      1  O1  BZF d   1       0.421   1.446   0.870  0.00  0.00    -0.204 OA
ATOM      2  C2  BZF d   1      -0.643   1.523  -0.008  0.00  0.00     0.174 A 
ATOM      3  C3  BZF d   1      -0.720   0.409  -0.764  0.00  0.00    -0.012 A 
ATOM      4  C3A BZF d   1       0.308  -0.454  -0.269  0.00  0.00    -0.107 A 
ATOM      5  C4  BZF d   1       0.720  -1.712  -0.604  0.00  0.00     0.055 A 
ATOM      6  C5  BZF d   1       1.801  -2.243   0.026  0.00  0.00    -0.016 A 
ATOM      7  C6  BZF d   1       2.496  -1.543   0.990  0.00  0.00     0.022 A 
ATOM      8  C7  BZF d   1       2.122  -0.294   1.360  0.00  0.00     0.029 A 
ATOM      9  C7A BZF d   1       1.010   0.232   0.749  0.00  0.00     0.058 A 
ENDROOT
TORSDOF 0
ENDMDL
