MODEL 1
REMARK minimizedAffinity -3.55098867
REMARK minimizedRMSD -1
REMARK  0 active torsions:
REMARK  status: ('A' for Active; 'I' for Inactive)
ROOT
ATOM      1  O1  BZF d   1       0.785  -0.311  -0.243  0.00  0.00    -0.204 OA
ATOM      2  C2  BZF d   1       1.254  -1.050   0.826  0.00  0.00     0.174 A 
ATOM      3  C3  BZF d   1       0.395  -0.989   1.863  0.00  0.00    -0.012 A 
ATOM      4  C3A BZF d   1      -0.723  -0.236   1.382  0.00  0.00    -0.107 A 
ATOM      5  C4  BZF d   1      -1.907   0.149   1.944  0.00  0.00     0.055 A 
ATOM      6  C5  BZF d   1      -2.750   0.941   1.230  0.00  0.00    -0.016 A 
ATOM      7  C6  BZF d   1      -2.439   1.369  -0.044  0.00  0.00     0.022 A 
ATOM      8  C7  BZF d   1      -1.279   1.008  -0.645  0.00  0.00     0.029 A 
ATOM      9  C7A BZF d   1      -0.440   0.181   0.061  0.00  0.00     0.058 A 
ENDROOT
TORSDOF 0
ENDMDL
