MODEL 1
REMARK minimizedAffinity -1.70655298
REMARK minimizedRMSD -1
REMARK  0 active torsions:
REMARK  status: ('A' for Active; 'I' for Inactive)
ROOT
ATOM      1  O1  BZF d   1       2.364  -2.273   0.807  0.00  0.00    -0.204 OA
ATOM      2  C2  BZF d   1       2.977  -1.282   1.548  0.00  0.00     0.174 A 
ATOM      3  C3  BZF d   1       2.363  -0.096   1.361  0.00  0.00    -0.012 A 
ATOM      4  C3A BZF d   1       1.243  -0.381   0.517  0.00  0.00    -0.107 A 
ATOM      5  C4  BZF d   1       0.244   0.388  -0.008  0.00  0.00     0.055 A 
ATOM      6  C5  BZF d   1      -0.654  -0.183  -0.853  0.00  0.00    -0.016 A 
ATOM      7  C6  BZF d   1      -0.579  -1.517  -1.198  0.00  0.00     0.022 A 
ATOM      8  C7  BZF d   1       0.391  -2.320  -0.699  0.00  0.00     0.029 A 
ATOM      9  C7A BZF d   1       1.280  -1.754   0.181  0.00  0.00     0.058 A 
ENDROOT
TORSDOF 0
ENDMDL
