MODEL 1
REMARK minimizedAffinity -5.45296049
REMARK minimizedRMSD -1
REMARK  0 active torsions:
REMARK  status: ('A' for Active; 'I' for Inactive)
ROOT
ATOM      1  O1  BZF d   1       0.744   1.777  -0.283  0.00  0.00    -0.204 OA
ATOM      2  C2  BZF d   1      -0.515   1.472  -0.762  0.00  0.00     0.174 A 
ATOM      3  C3  BZF d   1      -0.711   0.137  -0.776  0.00  0.00    -0.012 A 
ATOM      4  C3A BZF d   1       0.468  -0.422  -0.188  0.00  0.00    -0.107 A 
ATOM      5  C4  BZF d   1       0.863  -1.700   0.089  0.00  0.00     0.055 A 
ATOM      6  C5  BZF d   1       2.105  -1.911   0.599  0.00  0.00    -0.016 A 
ATOM      7  C6  BZF d   1       2.978  -0.871   0.838  0.00  0.00     0.022 A 
ATOM      8  C7  BZF d   1       2.629   0.414   0.584  0.00  0.00     0.029 A 
ATOM      9  C7A BZF d   1       1.363   0.634   0.100  0.00  0.00     0.058 A 
ENDROOT
TORSDOF 0
ENDMDL
