MODEL 1
REMARK minimizedAffinity -3.91494942
REMARK minimizedRMSD -1
REMARK  0 active torsions:
REMARK  status: ('A' for Active; 'I' for Inactive)
ROOT
ATOM      1  O1  BZF d   1      -3.050  -0.678   1.431  0.00  0.00    -0.204 OA
ATOM      2  C2  BZF d   1      -3.912   0.186   0.785  0.00  0.00     0.174 A 
ATOM      3  C3  BZF d   1      -3.320   0.732  -0.297  0.00  0.00    -0.012 A 
ATOM      4  C3A BZF d   1      -2.037   0.104  -0.381  0.00  0.00    -0.107 A 
ATOM      5  C4  BZF d   1      -0.993   0.216  -1.254  0.00  0.00     0.055 A 
ATOM      6  C5  BZF d   1       0.147  -0.485  -1.013  0.00  0.00    -0.016 A 
ATOM      7  C6  BZF d   1       0.278  -1.301   0.091  0.00  0.00     0.022 A 
ATOM      8  C7  BZF d   1      -0.733  -1.448   0.982  0.00  0.00     0.029 A 
ATOM      9  C7A BZF d   1      -1.898  -0.767   0.724  0.00  0.00     0.058 A 
ENDROOT
TORSDOF 0
ENDMDL
