MODEL 1
REMARK minimizedAffinity -5.37643623
REMARK minimizedRMSD -1
REMARK  0 active torsions:
REMARK  status: ('A' for Active; 'I' for Inactive)
ROOT
ATOM      1  O1  BZF d   1       2.498   1.646  -0.012  0.00  0.00    -0.204 OA
ATOM      2  C2  BZF d   1       3.845   1.348  -0.088  0.00  0.00     0.174 A 
ATOM      3  C3  BZF d   1       4.041   0.014  -0.071  0.00  0.00    -0.012 A 
ATOM      4  C3A BZF d   1       2.730  -0.559  -0.072  0.00  0.00    -0.107 A 
ATOM      5  C4  BZF d   1       2.267  -1.844  -0.075  0.00  0.00     0.055 A 
ATOM      6  C5  BZF d   1       0.928  -2.063  -0.000  0.00  0.00    -0.016 A 
ATOM      7  C6  BZF d   1       0.025  -1.024   0.083  0.00  0.00     0.022 A 
ATOM      8  C7  BZF d   1       0.436   0.268   0.083  0.00  0.00     0.029 A 
ATOM      9  C7A BZF d   1       1.787   0.494  -0.025  0.00  0.00     0.058 A 
ENDROOT
TORSDOF 0
ENDMDL
