MODEL 1
REMARK minimizedAffinity -3.55297732
REMARK minimizedRMSD -1
REMARK  0 active torsions:
REMARK  status: ('A' for Active; 'I' for Inactive)
ROOT
ATOM      1  O1  BZF d   1       0.441  -0.787  -0.107  0.00  0.00    -0.204 OA
ATOM      2  C2  BZF d   1       0.914  -2.071  -0.295  0.00  0.00     0.174 A 
ATOM      3  C3  BZF d   1       2.261  -2.083  -0.336  0.00  0.00    -0.012 A 
ATOM      4  C3A BZF d   1       2.658  -0.735  -0.072  0.00  0.00    -0.107 A 
ATOM      5  C4  BZF d   1       3.872  -0.117   0.035  0.00  0.00     0.055 A 
ATOM      6  C5  BZF d   1       3.913   1.228   0.228  0.00  0.00    -0.016 A 
ATOM      7  C6  BZF d   1       2.763   1.985   0.314  0.00  0.00     0.022 A 
ATOM      8  C7  BZF d   1       1.537   1.416   0.219  0.00  0.00     0.029 A 
ATOM      9  C7A BZF d   1       1.491   0.053   0.057  0.00  0.00     0.058 A 
ENDROOT
TORSDOF 0
ENDMDL
