MODEL 1
REMARK minimizedAffinity -1.17701769
REMARK minimizedRMSD -1
REMARK  0 active torsions:
REMARK  status: ('A' for Active; 'I' for Inactive)
ROOT
ATOM      1  O1  BZF d   1      -2.903   1.419   0.174  0.00  0.00    -0.204 OA
ATOM      2  C2  BZF d   1      -3.660   0.898   1.206  0.00  0.00     0.174 A 
ATOM      3  C3  BZF d   1      -2.959  -0.024   1.896  0.00  0.00    -0.012 A 
ATOM      4  C3A BZF d   1      -1.653  -0.017   1.312  0.00  0.00    -0.107 A 
ATOM      5  C4  BZF d   1      -0.503  -0.707   1.575  0.00  0.00     0.055 A 
ATOM      6  C5  BZF d   1       0.577  -0.519   0.773  0.00  0.00    -0.016 A 
ATOM      7  C6  BZF d   1       0.543   0.344  -0.302  0.00  0.00     0.022 A 
ATOM      8  C7  BZF d   1      -0.573   1.054  -0.599  0.00  0.00     0.029 A 
ATOM      9  C7A BZF d   1      -1.656   0.891   0.229  0.00  0.00     0.058 A 
ENDROOT
TORSDOF 0
ENDMDL
