MODEL 1
REMARK minimizedAffinity -3.25482845
REMARK minimizedRMSD -1
REMARK  0 active torsions:
REMARK  status: ('A' for Active; 'I' for Inactive)
ROOT
ATOM      1  O1  BZF d   1      -1.720  -0.292  -0.072  0.00  0.00    -0.204 OA
ATOM      2  C2  BZF d   1      -2.602   0.768   0.010  0.00  0.00     0.174 A 
ATOM      3  C3  BZF d   1      -1.950   1.912   0.299  0.00  0.00    -0.012 A 
ATOM      4  C3A BZF d   1      -0.563   1.561   0.313  0.00  0.00    -0.107 A 
ATOM      5  C4  BZF d   1       0.584   2.272   0.526  0.00  0.00     0.055 A 
ATOM      6  C5  BZF d   1       1.774   1.616   0.543  0.00  0.00    -0.016 A 
ATOM      7  C6  BZF d   1       1.854   0.252   0.358  0.00  0.00     0.022 A 
ATOM      8  C7  BZF d   1       0.744  -0.495   0.138  0.00  0.00     0.029 A 
ATOM      9  C7A BZF d   1      -0.457   0.169   0.087  0.00  0.00     0.058 A 
ENDROOT
TORSDOF 0
ENDMDL
