MODEL 1
REMARK minimizedAffinity 4.04811335
REMARK minimizedRMSD -1
REMARK  2 active torsions:
REMARK  status: ('A' for Active; 'I' for Inactive)
REMARK    1  A    between atoms: C1_2  and  C2_3 
REMARK    2  A    between atoms: C2_3  and  C3_4 
ROOT
ATOM      1  C3  UNL d   1       3.468  -0.797  -0.434  0.00  0.00    -0.075 A 
ATOM      2  C4  UNL d   1       3.031  -2.031  -0.934  0.00  0.00     0.002 A 
ATOM      3  C5  UNL d   1       2.204  -2.088  -2.057  0.00  0.00     0.002 A 
ATOM      4  C6  UNL d   1       1.797  -0.913  -2.686  0.00  0.00    -0.004 A 
ATOM      5  C7  UNL d   1       2.213   0.320  -2.187  0.00  0.00     0.002 A 
ATOM      6  C8  UNL d   1       3.043   0.379  -1.067  0.00  0.00     0.002 A 
ENDROOT
BRANCH   1   7
ATOM      7  C2  UNL d   1       4.387  -0.730   0.763  0.00  0.00     0.056 C 
BRANCH   7   8
ATOM      8  C1  UNL d   1       3.841   0.111   1.922  0.00  0.00     0.007 C 
ATOM      9  C   UNL d   1       3.476  -0.719   3.146  0.00  0.00     0.009 C 
ENDBRANCH   7   8
ENDBRANCH   1   7
TORSDOF 2
ENDMDL
