MODEL 1
REMARK minimizedAffinity 18.5061684
REMARK minimizedRMSD -1
REMARK  2 active torsions:
REMARK  status: ('A' for Active; 'I' for Inactive)
REMARK    1  A    between atoms: C1_2  and  C2_3 
REMARK    2  A    between atoms: C2_3  and  C3_4 
ROOT
ATOM      1  C3  UNL d   1      -3.782  -0.510   3.336  0.00  0.00    -0.075 A 
ATOM      2  C4  UNL d   1      -3.843  -1.182   4.565  0.00  0.00     0.002 A 
ATOM      3  C5  UNL d   1      -4.946  -1.025   5.404  0.00  0.00     0.002 A 
ATOM      4  C6  UNL d   1      -5.996  -0.189   5.030  0.00  0.00    -0.004 A 
ATOM      5  C7  UNL d   1      -5.939   0.496   3.818  0.00  0.00     0.002 A 
ATOM      6  C8  UNL d   1      -4.837   0.338   2.975  0.00  0.00     0.002 A 
ENDROOT
BRANCH   1   7
ATOM      7  C2  UNL d   1      -2.603  -0.698   2.410  0.00  0.00     0.056 C 
BRANCH   7   8
ATOM      8  C1  UNL d   1      -2.775  -1.844   1.407  0.00  0.00     0.007 C 
ATOM      9  C   UNL d   1      -2.278  -1.498   0.010  0.00  0.00     0.009 C 
ENDBRANCH   7   8
ENDBRANCH   1   7
TORSDOF 2
ENDMDL
