MODEL 1
REMARK minimizedAffinity 9.41721344
REMARK minimizedRMSD -1
REMARK  2 active torsions:
REMARK  status: ('A' for Active; 'I' for Inactive)
REMARK    1  A    between atoms: C1_2  and  C2_3 
REMARK    2  A    between atoms: C2_3  and  C3_4 
ROOT
ATOM      1  C3  UNL d   1       2.466   1.937  -4.345  0.00  0.00    -0.075 A 
ATOM      2  C4  UNL d   1       2.131   3.286  -4.156  0.00  0.00     0.002 A 
ATOM      3  C5  UNL d   1       1.189   3.654  -3.196  0.00  0.00     0.002 A 
ATOM      4  C6  UNL d   1       0.563   2.681  -2.420  0.00  0.00    -0.004 A 
ATOM      5  C7  UNL d   1       0.876   1.337  -2.610  0.00  0.00     0.002 A 
ATOM      6  C8  UNL d   1       1.821   0.965  -3.567  0.00  0.00     0.002 A 
ENDROOT
BRANCH   1   7
ATOM      7  C2  UNL d   1       3.506   1.533  -5.362  0.00  0.00     0.056 C 
BRANCH   7   8
ATOM      8  C1  UNL d   1       4.950   1.749  -4.897  0.00  0.00     0.007 C 
ATOM      9  C   UNL d   1       5.909   0.678  -5.400  0.00  0.00     0.009 C 
ENDBRANCH   7   8
ENDBRANCH   1   7
TORSDOF 2
ENDMDL
