MODEL 1
REMARK minimizedAffinity 6.63853312
REMARK minimizedRMSD -1
REMARK  2 active torsions:
REMARK  status: ('A' for Active; 'I' for Inactive)
REMARK    1  A    between atoms: C1_2  and  C2_3 
REMARK    2  A    between atoms: C2_3  and  C3_4 
ROOT
ATOM      1  C3  UNL d   1       1.600   2.418   0.063  0.00  0.00    -0.075 A 
ATOM      2  C4  UNL d   1       2.302   1.850   1.136  0.00  0.00     0.002 A 
ATOM      3  C5  UNL d   1       2.966   2.660   2.057  0.00  0.00     0.002 A 
ATOM      4  C6  UNL d   1       2.946   4.045   1.911  0.00  0.00    -0.004 A 
ATOM      5  C7  UNL d   1       2.267   4.620   0.840  0.00  0.00     0.002 A 
ATOM      6  C8  UNL d   1       1.598   3.812  -0.081  0.00  0.00     0.002 A 
ENDROOT
BRANCH   1   7
ATOM      7  C2  UNL d   1       0.855   1.548  -0.921  0.00  0.00     0.056 C 
BRANCH   7   8
ATOM      8  C1  UNL d   1       1.663   1.188  -2.172  0.00  0.00     0.007 C 
ATOM      9  C   UNL d   1       0.803   1.043  -3.421  0.00  0.00     0.009 C 
ENDBRANCH   7   8
ENDBRANCH   1   7
TORSDOF 2
ENDMDL
