MODEL 1
REMARK minimizedAffinity 0.903326333
REMARK minimizedRMSD -1
REMARK  2 active torsions:
REMARK  status: ('A' for Active; 'I' for Inactive)
REMARK    1  A    between atoms: C1_2  and  C2_3 
REMARK    2  A    between atoms: C2_3  and  C3_4 
ROOT
ATOM      1  C3  UNL d   1       2.306  -0.349  -1.531  0.00  0.00    -0.075 A 
ATOM      2  C4  UNL d   1       1.271  -1.190  -1.968  0.00  0.00     0.002 A 
ATOM      3  C5  UNL d   1       0.929  -2.329  -1.239  0.00  0.00     0.002 A 
ATOM      4  C6  UNL d   1       1.621  -2.648  -0.072  0.00  0.00    -0.004 A 
ATOM      5  C7  UNL d   1       2.661  -1.829   0.362  0.00  0.00     0.002 A 
ATOM      6  C8  UNL d   1       3.003  -0.686  -0.363  0.00  0.00     0.002 A 
ENDROOT
BRANCH   1   7
ATOM      7  C2  UNL d   1       2.661   0.901  -2.300  0.00  0.00     0.056 C 
BRANCH   7   8
ATOM      8  C1  UNL d   1       1.610   1.318  -3.334  0.00  0.00     0.007 C 
ATOM      9  C   UNL d   1       1.043   2.709  -3.086  0.00  0.00     0.009 C 
ENDBRANCH   7   8
ENDBRANCH   1   7
TORSDOF 2
ENDMDL
