MODEL 1
REMARK minimizedAffinity -0.0590069778
REMARK minimizedRMSD -1
REMARK  2 active torsions:
REMARK  status: ('A' for Active; 'I' for Inactive)
REMARK    1  A    between atoms: C1_2  and  C2_3 
REMARK    2  A    between atoms: C2_3  and  C3_4 
ROOT
ATOM      1  C3  UNL d   1       2.229  -0.890  -1.629  0.00  0.00    -0.075 A 
ATOM      2  C4  UNL d   1       0.926  -1.399  -1.714  0.00  0.00     0.002 A 
ATOM      3  C5  UNL d   1       0.519  -2.446  -0.886  0.00  0.00     0.002 A 
ATOM      4  C6  UNL d   1       1.411  -3.002   0.028  0.00  0.00    -0.004 A 
ATOM      5  C7  UNL d   1       2.714  -2.515   0.109  0.00  0.00     0.002 A 
ATOM      6  C8  UNL d   1       3.122  -1.465  -0.715  0.00  0.00     0.002 A 
ENDROOT
BRANCH   1   7
ATOM      7  C2  UNL d   1       2.667   0.262  -2.502  0.00  0.00     0.056 C 
BRANCH   7   8
ATOM      8  C1  UNL d   1       2.060   1.612  -2.103  0.00  0.00     0.007 C 
ATOM      9  C   UNL d   1       1.479   2.381  -3.283  0.00  0.00     0.009 C 
ENDBRANCH   7   8
ENDBRANCH   1   7
TORSDOF 2
ENDMDL
