MODEL 1
REMARK minimizedAffinity 3.07928538
REMARK minimizedRMSD -1
REMARK  2 active torsions:
REMARK  status: ('A' for Active; 'I' for Inactive)
REMARK    1  A    between atoms: C1_2  and  C2_3 
REMARK    2  A    between atoms: C2_3  and  C3_4 
ROOT
ATOM      1  C3  UNL d   1       3.837   3.823   0.359  0.00  0.00    -0.075 A 
ATOM      2  C4  UNL d   1       5.191   3.843   0.723  0.00  0.00     0.002 A 
ATOM      3  C5  UNL d   1       6.000   4.928   0.384  0.00  0.00     0.002 A 
ATOM      4  C6  UNL d   1       5.469   6.000  -0.330  0.00  0.00    -0.004 A 
ATOM      5  C7  UNL d   1       4.129   5.983  -0.712  0.00  0.00     0.002 A 
ATOM      6  C8  UNL d   1       3.317   4.900  -0.370  0.00  0.00     0.002 A 
ENDROOT
BRANCH   1   7
ATOM      7  C2  UNL d   1       2.950   2.665   0.748  0.00  0.00     0.056 C 
BRANCH   7   8
ATOM      8  C1  UNL d   1       1.866   3.025   1.770  0.00  0.00     0.007 C 
ATOM      9  C   UNL d   1       0.558   2.279   1.546  0.00  0.00     0.009 C 
ENDBRANCH   7   8
ENDBRANCH   1   7
TORSDOF 2
ENDMDL
