MODEL 1
REMARK minimizedAffinity 9.33221817
REMARK minimizedRMSD -1
REMARK  2 active torsions:
REMARK  status: ('A' for Active; 'I' for Inactive)
REMARK    1  A    between atoms: C1_2  and  C2_3 
REMARK    2  A    between atoms: C2_3  and  C3_4 
ROOT
ATOM      1  C3  UNL d   1       2.309   0.365  -1.877  0.00  0.00    -0.075 A 
ATOM      2  C4  UNL d   1       1.527  -0.602  -2.525  0.00  0.00     0.002 A 
ATOM      3  C5  UNL d   1       1.596  -1.942  -2.141  0.00  0.00     0.002 A 
ATOM      4  C6  UNL d   1       2.454  -2.332  -1.115  0.00  0.00    -0.004 A 
ATOM      5  C7  UNL d   1       3.248  -1.382  -0.476  0.00  0.00     0.002 A 
ATOM      6  C8  UNL d   1       3.177  -0.040  -0.855  0.00  0.00     0.002 A 
ENDROOT
BRANCH   1   7
ATOM      7  C2  UNL d   1       2.217   1.821  -2.268  0.00  0.00     0.056 C 
BRANCH   7   8
ATOM      8  C1  UNL d   1       0.808   2.412  -2.146  0.00  0.00     0.007 C 
ATOM      9  C   UNL d   1      -0.008   1.791  -1.020  0.00  0.00     0.009 C 
ENDBRANCH   7   8
ENDBRANCH   1   7
TORSDOF 2
ENDMDL
