MODEL 1
REMARK minimizedAffinity -0.114687622
REMARK minimizedRMSD -1
REMARK  2 active torsions:
REMARK  status: ('A' for Active; 'I' for Inactive)
REMARK    1  A    between atoms: C1_2  and  C2_3 
REMARK    2  A    between atoms: C2_3  and  C3_4 
ROOT
ATOM      1  C3  UNL d   1       1.061   1.477  -0.471  0.00  0.00    -0.075 A 
ATOM      2  C4  UNL d   1       1.650   1.820   0.755  0.00  0.00     0.002 A 
ATOM      3  C5  UNL d   1       0.893   2.424   1.759  0.00  0.00     0.002 A 
ATOM      4  C6  UNL d   1      -0.456   2.702   1.548  0.00  0.00    -0.004 A 
ATOM      5  C7  UNL d   1      -1.047   2.380   0.328  0.00  0.00     0.002 A 
ATOM      6  C8  UNL d   1      -0.293   1.772  -0.677  0.00  0.00     0.002 A 
ENDROOT
BRANCH   1   7
ATOM      7  C2  UNL d   1       1.867   0.796  -1.551  0.00  0.00     0.056 C 
BRANCH   7   8
ATOM      8  C1  UNL d   1       1.676  -0.724  -1.608  0.00  0.00     0.007 C 
ATOM      9  C   UNL d   1       2.944  -1.501  -1.283  0.00  0.00     0.009 C 
ENDBRANCH   7   8
ENDBRANCH   1   7
TORSDOF 2
ENDMDL
