MODEL 1
REMARK minimizedAffinity 10.7256269
REMARK minimizedRMSD -1
REMARK  2 active torsions:
REMARK  status: ('A' for Active; 'I' for Inactive)
REMARK    1  A    between atoms: C1_2  and  C2_3 
REMARK    2  A    between atoms: C2_3  and  C3_4 
ROOT
ATOM      1  C3  UNL d   1       1.074   1.336  -0.867  0.00  0.00    -0.075 A 
ATOM      2  C4  UNL d   1       1.647   1.672   0.368  0.00  0.00     0.002 A 
ATOM      3  C5  UNL d   1       0.872   2.252   1.374  0.00  0.00     0.002 A 
ATOM      4  C6  UNL d   1      -0.479   2.512   1.155  0.00  0.00    -0.004 A 
ATOM      5  C7  UNL d   1      -1.054   2.197  -0.074  0.00  0.00     0.002 A 
ATOM      6  C8  UNL d   1      -0.283   1.613  -1.081  0.00  0.00     0.002 A 
ENDROOT
BRANCH   1   7
ATOM      7  C2  UNL d   1       1.899   0.681  -1.949  0.00  0.00     0.056 C 
BRANCH   7   8
ATOM      8  C1  UNL d   1       2.131  -0.818  -1.735  0.00  0.00     0.007 C 
ATOM      9  C   UNL d   1       1.183  -1.693  -2.545  0.00  0.00     0.009 C 
ENDBRANCH   7   8
ENDBRANCH   1   7
TORSDOF 2
ENDMDL
