MODEL 1
REMARK minimizedAffinity 1.69876099
REMARK minimizedRMSD -1
REMARK  2 active torsions:
REMARK  status: ('A' for Active; 'I' for Inactive)
REMARK    1  A    between atoms: C1_2  and  C2_3 
REMARK    2  A    between atoms: C2_3  and  C3_4 
ROOT
ATOM      1  C3  UNL d   1       1.654   1.649  -0.523  0.00  0.00    -0.075 A 
ATOM      2  C4  UNL d   1       0.269   1.580  -0.314  0.00  0.00     0.002 A 
ATOM      3  C5  UNL d   1      -0.261   1.700   0.971  0.00  0.00     0.002 A 
ATOM      4  C6  UNL d   1       0.586   1.881   2.062  0.00  0.00    -0.004 A 
ATOM      5  C7  UNL d   1       1.965   1.935   1.868  0.00  0.00     0.002 A 
ATOM      6  C8  UNL d   1       2.497   1.819   0.583  0.00  0.00     0.002 A 
ENDROOT
BRANCH   1   7
ATOM      7  C2  UNL d   1       2.231   1.549  -1.915  0.00  0.00     0.056 C 
BRANCH   7   8
ATOM      8  C1  UNL d   1       2.943   0.223  -2.201  0.00  0.00     0.007 C 
ATOM      9  C   UNL d   1       2.090  -0.998  -1.885  0.00  0.00     0.009 C 
ENDBRANCH   7   8
ENDBRANCH   1   7
TORSDOF 2
ENDMDL
