MODEL 1
REMARK minimizedAffinity 7.05898428
REMARK minimizedRMSD -1
REMARK  0 active torsions:
REMARK  status: ('A' for Active; 'I' for Inactive)
ROOT
ATOM      1  C1  DEN d   1       2.908  -0.706  -1.498  0.00  0.00     0.130 A 
ATOM      2  C2  DEN d   1       2.606  -2.107  -1.218  0.00  0.00    -0.031 A 
ATOM      3  C3  DEN d   1       1.210  -2.188  -0.746  0.00  0.00     0.027 A 
ATOM      4  C4  DEN d   1      -0.507  -0.289  -0.427  0.00  0.00     0.027 A 
ATOM      5  C5  DEN d   1      -0.709   1.070  -0.524  0.00  0.00    -0.003 A 
ATOM      6  C6  DEN d   1       0.283   1.929  -0.916  0.00  0.00     0.001 A 
ATOM      7  C7  DEN d   1       1.510   1.433  -1.270  0.00  0.00     0.017 A 
ATOM      8  C8  DEN d   1       1.723   0.065  -1.168  0.00  0.00    -0.094 A 
ATOM      9  C9  DEN d   1       0.704  -0.789  -0.781  0.00  0.00    -0.072 A 
ENDROOT
TORSDOF 0
ENDMDL
