MODEL 1
REMARK minimizedAffinity 7.57118893
REMARK minimizedRMSD -1
REMARK  0 active torsions:
REMARK  status: ('A' for Active; 'I' for Inactive)
ROOT
ATOM      1  C1  DEN d   1       3.321  -0.887  -1.085  0.00  0.00     0.130 A 
ATOM      2  C2  DEN d   1       2.486  -2.020  -1.474  0.00  0.00    -0.031 A 
ATOM      3  C3  DEN d   1       1.150  -1.501  -1.832  0.00  0.00     0.027 A 
ATOM      4  C4  DEN d   1       0.300   0.934  -1.826  0.00  0.00     0.027 A 
ATOM      5  C5  DEN d   1       0.642   2.241  -1.560  0.00  0.00    -0.003 A 
ATOM      6  C6  DEN d   1       1.879   2.591  -1.089  0.00  0.00     0.001 A 
ATOM      7  C7  DEN d   1       2.836   1.627  -0.911  0.00  0.00     0.017 A 
ATOM      8  C8  DEN d   1       2.497   0.305  -1.171  0.00  0.00    -0.094 A 
ATOM      9  C9  DEN d   1       1.244  -0.027  -1.658  0.00  0.00    -0.072 A 
ENDROOT
TORSDOF 0
ENDMDL
