MODEL 1
REMARK minimizedAffinity 3.06938386
REMARK minimizedRMSD -1
REMARK  0 active torsions:
REMARK  status: ('A' for Active; 'I' for Inactive)
ROOT
ATOM      1  C1  DEN d   1       2.960  -0.943  -1.907  0.00  0.00     0.130 A 
ATOM      2  C2  DEN d   1       2.253  -2.036  -1.245  0.00  0.00    -0.031 A 
ATOM      3  C3  DEN d   1       0.911  -1.548  -0.868  0.00  0.00     0.027 A 
ATOM      4  C4  DEN d   1      -0.136   0.779  -1.247  0.00  0.00     0.027 A 
ATOM      5  C5  DEN d   1       0.085   2.039  -1.756  0.00  0.00    -0.003 A 
ATOM      6  C6  DEN d   1       1.281   2.401  -2.317  0.00  0.00     0.001 A 
ATOM      7  C7  DEN d   1       2.288   1.479  -2.422  0.00  0.00     0.017 A 
ATOM      8  C8  DEN d   1       2.076   0.208  -1.904  0.00  0.00    -0.094 A 
ATOM      9  C9  DEN d   1       0.855  -0.142  -1.352  0.00  0.00    -0.072 A 
ENDROOT
TORSDOF 0
ENDMDL
