MODEL 1
REMARK minimizedAffinity 8.17386913
REMARK minimizedRMSD -1
REMARK  0 active torsions:
REMARK  status: ('A' for Active; 'I' for Inactive)
ROOT
ATOM      1  C1  DEN d   1       3.070   1.473  -1.720  0.00  0.00     0.130 A 
ATOM      2  C2  DEN d   1       2.370   1.344  -2.995  0.00  0.00    -0.031 A 
ATOM      3  C3  DEN d   1       0.925   1.510  -2.740  0.00  0.00     0.027 A 
ATOM      4  C4  DEN d   1      -0.289   1.956  -0.509  0.00  0.00     0.027 A 
ATOM      5  C5  DEN d   1      -0.118   2.133   0.846  0.00  0.00    -0.003 A 
ATOM      6  C6  DEN d   1       1.114   2.069   1.441  0.00  0.00     0.001 A 
ATOM      7  C7  DEN d   1       2.229   1.867   0.672  0.00  0.00     0.017 A 
ATOM      8  C8  DEN d   1       2.064   1.680  -0.694  0.00  0.00    -0.094 A 
ATOM      9  C9  DEN d   1       0.811   1.761  -1.278  0.00  0.00    -0.072 A 
ENDROOT
TORSDOF 0
ENDMDL
