MODEL 1
REMARK minimizedAffinity 12.3020945
REMARK minimizedRMSD -1
REMARK  0 active torsions:
REMARK  status: ('A' for Active; 'I' for Inactive)
ROOT
ATOM      1  C1  DEN d   1       0.397   1.633  -2.138  0.00  0.00     0.130 A 
ATOM      2  C2  DEN d   1       1.710   1.203  -2.612  0.00  0.00    -0.031 A 
ATOM      3  C3  DEN d   1       2.640   1.228  -1.464  0.00  0.00     0.027 A 
ATOM      4  C4  DEN d   1       2.175   1.882   0.987  0.00  0.00     0.027 A 
ATOM      5  C5  DEN d   1       1.213   2.327   1.867  0.00  0.00    -0.003 A 
ATOM      6  C6  DEN d   1      -0.069   2.602   1.470  0.00  0.00     0.001 A 
ATOM      7  C7  DEN d   1      -0.436   2.391   0.167  0.00  0.00     0.017 A 
ATOM      8  C8  DEN d   1       0.530   1.950  -0.728  0.00  0.00    -0.094 A 
ATOM      9  C9  DEN d   1       1.818   1.666  -0.304  0.00  0.00    -0.072 A 
ENDROOT
TORSDOF 0
ENDMDL
