MODEL 1
REMARK minimizedAffinity 6.58919096
REMARK minimizedRMSD -1
REMARK  0 active torsions:
REMARK  status: ('A' for Active; 'I' for Inactive)
ROOT
ATOM      1  C1  DEN d   1       1.373   2.073  -1.060  0.00  0.00     0.130 A 
ATOM      2  C2  DEN d   1      -0.072   2.277  -1.002  0.00  0.00    -0.031 A 
ATOM      3  C3  DEN d   1      -0.719   0.951  -0.945  0.00  0.00     0.027 A 
ATOM      4  C4  DEN d   1       0.371  -1.387  -0.938  0.00  0.00     0.027 A 
ATOM      5  C5  DEN d   1       1.567  -2.068  -0.986  0.00  0.00    -0.003 A 
ATOM      6  C6  DEN d   1       2.770  -1.423  -1.096  0.00  0.00     0.001 A 
ATOM      7  C7  DEN d   1       2.807  -0.054  -1.115  0.00  0.00     0.017 A 
ATOM      8  C8  DEN d   1       1.605   0.640  -1.074  0.00  0.00    -0.094 A 
ATOM      9  C9  DEN d   1       0.399  -0.030  -0.951  0.00  0.00    -0.072 A 
ENDROOT
TORSDOF 0
ENDMDL
