MODEL 1
REMARK minimizedAffinity 4.28861809
REMARK minimizedRMSD -1
REMARK  0 active torsions:
REMARK  status: ('A' for Active; 'I' for Inactive)
ROOT
ATOM      1  C1  DEN d   1      -2.866   0.413  -1.126  0.00  0.00     0.130 A 
ATOM      2  C2  DEN d   1      -1.868   0.923  -0.190  0.00  0.00    -0.031 A 
ATOM      3  C3  DEN d   1      -2.343   0.646   1.181  0.00  0.00     0.027 A 
ATOM      4  C4  DEN d   1      -4.513  -0.523   1.940  0.00  0.00     0.027 A 
ATOM      5  C5  DEN d   1      -5.678  -1.119   1.507  0.00  0.00    -0.003 A 
ATOM      6  C6  DEN d   1      -6.000  -1.214   0.180  0.00  0.00     0.001 A 
ATOM      7  C7  DEN d   1      -5.126  -0.746  -0.766  0.00  0.00     0.017 A 
ATOM      8  C8  DEN d   1      -3.954  -0.138  -0.338  0.00  0.00    -0.094 A 
ATOM      9  C9  DEN d   1      -3.640  -0.062   1.008  0.00  0.00    -0.072 A 
ENDROOT
TORSDOF 0
ENDMDL
