MODEL 1
REMARK minimizedAffinity 8.20221519
REMARK minimizedRMSD -1
REMARK  0 active torsions:
REMARK  status: ('A' for Active; 'I' for Inactive)
ROOT
ATOM      1  C1  DEN d   1       3.045  -1.729  -1.626  0.00  0.00     0.130 A 
ATOM      2  C2  DEN d   1       2.147  -2.593  -0.865  0.00  0.00    -0.031 A 
ATOM      3  C3  DEN d   1       0.955  -1.802  -0.498  0.00  0.00     0.027 A 
ATOM      4  C4  DEN d   1       0.414   0.662  -1.037  0.00  0.00     0.027 A 
ATOM      5  C5  DEN d   1       0.879   1.805  -1.648  0.00  0.00    -0.003 A 
ATOM      6  C6  DEN d   1       2.102   1.860  -2.261  0.00  0.00     0.001 A 
ATOM      7  C7  DEN d   1       2.885   0.737  -2.315  0.00  0.00     0.017 A 
ATOM      8  C8  DEN d   1       2.427  -0.417  -1.694  0.00  0.00    -0.094 A 
ATOM      9  C9  DEN d   1       1.182  -0.456  -1.090  0.00  0.00    -0.072 A 
ENDROOT
TORSDOF 0
ENDMDL
