MODEL 1
REMARK minimizedAffinity 5.67676735
REMARK minimizedRMSD -1
REMARK  0 active torsions:
REMARK  status: ('A' for Active; 'I' for Inactive)
ROOT
ATOM      1  C1  DEN d   1      -0.166   1.316  -1.471  0.00  0.00     0.130 A 
ATOM      2  C2  DEN d   1       1.109   0.997  -2.107  0.00  0.00    -0.031 A 
ATOM      3  C3  DEN d   1       2.187   1.283  -1.139  0.00  0.00     0.027 A 
ATOM      4  C4  DEN d   1       2.005   2.179   1.273  0.00  0.00     0.027 A 
ATOM      5  C5  DEN d   1       1.132   2.607   2.248  0.00  0.00    -0.003 A 
ATOM      6  C6  DEN d   1      -0.221   2.668   2.042  0.00  0.00     0.001 A 
ATOM      7  C7  DEN d   1      -0.745   2.250   0.847  0.00  0.00     0.017 A 
ATOM      8  C8  DEN d   1       0.130   1.823  -0.144  0.00  0.00    -0.094 A 
ATOM      9  C9  DEN d   1       1.493   1.758   0.089  0.00  0.00    -0.072 A 
ENDROOT
TORSDOF 0
ENDMDL
