MODEL 1
REMARK minimizedAffinity 16.122097
REMARK minimizedRMSD -1
REMARK  0 active torsions:
REMARK  status: ('A' for Active; 'I' for Inactive)
ROOT
ATOM      1  C1  DEN d   1       2.892  -1.093  -2.255  0.00  0.00     0.130 A 
ATOM      2  C2  DEN d   1       2.370  -2.141  -1.382  0.00  0.00    -0.031 A 
ATOM      3  C3  DEN d   1       1.105  -1.657  -0.794  0.00  0.00     0.027 A 
ATOM      4  C4  DEN d   1      -0.093   0.599  -1.152  0.00  0.00     0.027 A 
ATOM      5  C5  DEN d   1      -0.027   1.815  -1.795  0.00  0.00    -0.003 A 
ATOM      6  C6  DEN d   1       1.025   2.158  -2.603  0.00  0.00     0.001 A 
ATOM      7  C7  DEN d   1       2.032   1.256  -2.825  0.00  0.00     0.017 A 
ATOM      8  C8  DEN d   1       1.976   0.031  -2.174  0.00  0.00    -0.094 A 
ATOM      9  C9  DEN d   1       0.899  -0.301  -1.371  0.00  0.00    -0.072 A 
ENDROOT
TORSDOF 0
ENDMDL
