MODEL 1
REMARK minimizedAffinity 3.60845876
REMARK minimizedRMSD -1
REMARK  0 active torsions:
REMARK  status: ('A' for Active; 'I' for Inactive)
ROOT
ATOM      1  C1  DEN d   1       3.009  -1.353  -0.449  0.00  0.00     0.130 A 
ATOM      2  C2  DEN d   1       2.264  -2.565  -0.780  0.00  0.00    -0.031 A 
ATOM      3  C3  DEN d   1       0.942  -2.161  -1.299  0.00  0.00     0.027 A 
ATOM      4  C4  DEN d   1      -0.017   0.211  -1.624  0.00  0.00     0.027 A 
ATOM      5  C5  DEN d   1       0.239   1.556  -1.474  0.00  0.00    -0.003 A 
ATOM      6  C6  DEN d   1       1.414   2.021  -0.944  0.00  0.00     0.001 A 
ATOM      7  C7  DEN d   1       2.395   1.134  -0.587  0.00  0.00     0.017 A 
ATOM      8  C8  DEN d   1       2.141  -0.224  -0.729  0.00  0.00    -0.094 A 
ATOM      9  C9  DEN d   1       0.952  -0.673  -1.278  0.00  0.00    -0.072 A 
ENDROOT
TORSDOF 0
ENDMDL
