MODEL 1
REMARK minimizedAffinity 10.211484
REMARK minimizedRMSD -1
REMARK  0 active torsions:
REMARK  status: ('A' for Active; 'I' for Inactive)
ROOT
ATOM      1  C   UNL d   1      -2.315   1.925  -5.426  0.00  0.00     0.020 A 
ATOM      2  C1  UNL d   1      -2.005   2.337  -4.130  0.00  0.00     0.020 A 
ATOM      3  C2  UNL d   1      -2.935   3.071  -3.391  0.00  0.00     0.034 A 
ATOM      4  C3  UNL d   1      -4.177   3.396  -3.946  0.00  0.00     0.017 A 
ATOM      5  C4  UNL d   1      -4.487   2.982  -5.247  0.00  0.00     0.017 A 
ATOM      6  C5  UNL d   1      -3.553   2.247  -5.983  0.00  0.00     0.034 A 
ATOM      7 Cl   UNL d   1      -6.000   3.345  -6.000  0.00  0.00    -0.070 Cl
ATOM      8 Cl1  UNL d   1      -5.278   4.307  -2.975  0.00  0.00    -0.070 Cl
ENDROOT
TORSDOF 0
ENDMDL
