MODEL 1
REMARK minimizedAffinity 3.51191163
REMARK minimizedRMSD -1
REMARK  0 active torsions:
REMARK  status: ('A' for Active; 'I' for Inactive)
ROOT
ATOM      1  C   UNL d   1      -5.979   1.861  -2.999  0.00  0.00     0.020 A 
ATOM      2  C1  UNL d   1      -6.000   0.763  -3.857  0.00  0.00     0.020 A 
ATOM      3  C2  UNL d   1      -4.854   0.418  -4.577  0.00  0.00     0.034 A 
ATOM      4  C3  UNL d   1      -3.682   1.171  -4.439  0.00  0.00     0.017 A 
ATOM      5  C4  UNL d   1      -3.662   2.273  -3.577  0.00  0.00     0.017 A 
ATOM      6  C5  UNL d   1      -4.812   2.615  -2.859  0.00  0.00     0.034 A 
ATOM      7 Cl   UNL d   1      -2.254   3.250  -3.355  0.00  0.00    -0.070 Cl
ATOM      8 Cl1  UNL d   1      -2.303   0.686  -5.360  0.00  0.00    -0.070 Cl
ENDROOT
TORSDOF 0
ENDMDL
