MODEL 1
REMARK minimizedAffinity 2.22392297
REMARK minimizedRMSD -1
REMARK  0 active torsions:
REMARK  status: ('A' for Active; 'I' for Inactive)
ROOT
ATOM      1  C   UNL d   1      -6.000   2.477  -3.742  0.00  0.00     0.020 A 
ATOM      2  C1  UNL d   1      -5.851   1.126  -4.053  0.00  0.00     0.020 A 
ATOM      3  C2  UNL d   1      -4.605   0.511  -3.914  0.00  0.00     0.034 A 
ATOM      4  C3  UNL d   1      -3.503   1.247  -3.463  0.00  0.00     0.017 A 
ATOM      5  C4  UNL d   1      -3.654   2.603  -3.151  0.00  0.00     0.017 A 
ATOM      6  C5  UNL d   1      -4.904   3.214  -3.292  0.00  0.00     0.034 A 
ATOM      7 Cl   UNL d   1      -2.341   3.577  -2.588  0.00  0.00    -0.070 Cl
ATOM      8 Cl1  UNL d   1      -1.992   0.422  -3.314  0.00  0.00    -0.070 Cl
ENDROOT
TORSDOF 0
ENDMDL
