MODEL 1
REMARK minimizedAffinity 6.67895174
REMARK minimizedRMSD -1
REMARK  0 active torsions:
REMARK  status: ('A' for Active; 'I' for Inactive)
ROOT
ATOM      1  C   UNL d   1       5.766   1.212  -0.203  0.00  0.00     0.020 A 
ATOM      2  C1  UNL d   1       5.105   2.437  -0.287  0.00  0.00     0.020 A 
ATOM      3  C2  UNL d   1       3.710   2.476  -0.321  0.00  0.00     0.034 A 
ATOM      4  C3  UNL d   1       2.971   1.289  -0.272  0.00  0.00     0.017 A 
ATOM      5  C4  UNL d   1       3.635   0.060  -0.187  0.00  0.00     0.017 A 
ATOM      6  C5  UNL d   1       5.032   0.026  -0.153  0.00  0.00     0.034 A 
ATOM      7 Cl   UNL d   1       2.791  -1.447  -0.122  0.00  0.00    -0.070 Cl
ATOM      8 Cl1  UNL d   1       1.248   1.413  -0.318  0.00  0.00    -0.070 Cl
ENDROOT
TORSDOF 0
ENDMDL
