MODEL 1
REMARK minimizedAffinity -1.10489833
REMARK minimizedRMSD -1
REMARK  0 active torsions:
REMARK  status: ('A' for Active; 'I' for Inactive)
ROOT
ATOM      1  C   UNL d   1      -3.890   0.361  -4.558  0.00  0.00     0.020 A 
ATOM      2  C1  UNL d   1      -5.190   0.630  -4.132  0.00  0.00     0.020 A 
ATOM      3  C2  UNL d   1      -5.439   1.719  -3.294  0.00  0.00     0.034 A 
ATOM      4  C3  UNL d   1      -4.386   2.543  -2.880  0.00  0.00     0.017 A 
ATOM      5  C4  UNL d   1      -3.081   2.272  -3.308  0.00  0.00     0.017 A 
ATOM      6  C5  UNL d   1      -2.838   1.180  -4.147  0.00  0.00     0.034 A 
ATOM      7 Cl   UNL d   1      -1.731   3.244  -2.839  0.00  0.00    -0.070 Cl
ATOM      8 Cl1  UNL d   1      -4.766   3.873  -1.844  0.00  0.00    -0.070 Cl
ENDROOT
TORSDOF 0
ENDMDL
