MODEL 1
REMARK minimizedAffinity 3.6387012
REMARK minimizedRMSD -1
REMARK  0 active torsions:
REMARK  status: ('A' for Active; 'I' for Inactive)
ROOT
ATOM      1  C   UNL d   1      -6.000   1.627   0.140  0.00  0.00     0.020 A 
ATOM      2  C1  UNL d   1      -5.402   0.371   0.039  0.00  0.00     0.020 A 
ATOM      3  C2  UNL d   1      -4.801  -0.022  -1.158  0.00  0.00     0.034 A 
ATOM      4  C3  UNL d   1      -4.797   0.841  -2.260  0.00  0.00     0.017 A 
ATOM      5  C4  UNL d   1      -5.397   2.101  -2.159  0.00  0.00     0.017 A 
ATOM      6  C5  UNL d   1      -5.997   2.490  -0.957  0.00  0.00     0.034 A 
ATOM      7 Cl   UNL d   1      -5.432   3.220  -3.475  0.00  0.00    -0.070 Cl
ATOM      8 Cl1  UNL d   1      -4.035   0.289  -3.710  0.00  0.00    -0.070 Cl
ENDROOT
TORSDOF 0
ENDMDL
