MODEL 1
REMARK minimizedAffinity 5.07636881
REMARK minimizedRMSD -1
REMARK  0 active torsions:
REMARK  status: ('A' for Active; 'I' for Inactive)
ROOT
ATOM      1  C   UNL d   1      -5.946   0.830  -0.778  0.00  0.00     0.020 A 
ATOM      2  C1  UNL d   1      -5.131  -0.252  -1.108  0.00  0.00     0.020 A 
ATOM      3  C2  UNL d   1      -4.370  -0.222  -2.279  0.00  0.00     0.034 A 
ATOM      4  C3  UNL d   1      -4.422   0.893  -3.123  0.00  0.00     0.017 A 
ATOM      5  C4  UNL d   1      -5.240   1.979  -2.791  0.00  0.00     0.017 A 
ATOM      6  C5  UNL d   1      -6.000   1.944  -1.617  0.00  0.00     0.034 A 
ATOM      7 Cl   UNL d   1      -5.357   3.390  -3.783  0.00  0.00    -0.070 Cl
ATOM      8 Cl1  UNL d   1      -3.455   0.863  -4.554  0.00  0.00    -0.070 Cl
ENDROOT
TORSDOF 0
ENDMDL
