MODEL 1
REMARK minimizedAffinity -1.78509748
REMARK minimizedRMSD -1
REMARK  0 active torsions:
REMARK  status: ('A' for Active; 'I' for Inactive)
ROOT
ATOM      1  C   UNL d   1       5.999  -4.307   5.531  0.00  0.00     0.077 C 
ATOM      2  C1  UNL d   1       5.324  -3.016   5.171  0.00  0.00    -0.074 A 
ATOM      3  C2  UNL d   1       4.095  -2.665   5.738  0.00  0.00    -0.005 A 
ATOM      4  C3  UNL d   1       3.485  -1.457   5.401  0.00  0.00     0.006 A 
ATOM      5  C4  UNL d   1       4.096  -0.590   4.494  0.00  0.00    -0.005 A 
ATOM      6  C5  UNL d   1       5.325  -0.924   3.917  0.00  0.00    -0.074 A 
ATOM      7  C6  UNL d   1       6.000   0.001   2.949  0.00  0.00     0.077 C 
ATOM      8  C7  UNL d   1       5.936  -2.136   4.267  0.00  0.00    -0.001 A 
ENDROOT
TORSDOF 0
ENDMDL
