MODEL 1
REMARK minimizedAffinity -3.43499708
REMARK minimizedRMSD -1
REMARK  0 active torsions:
REMARK  status: ('A' for Active; 'I' for Inactive)
ROOT
ATOM      1  C   UNL d   1      -3.826  -0.776   4.542  0.00  0.00     0.077 C 
ATOM      2  C1  UNL d   1      -3.072   0.168   3.653  0.00  0.00    -0.074 A 
ATOM      3  C2  UNL d   1      -3.052   1.542   3.917  0.00  0.00    -0.005 A 
ATOM      4  C3  UNL d   1      -2.339   2.407   3.087  0.00  0.00     0.006 A 
ATOM      5  C4  UNL d   1      -1.640   1.908   1.987  0.00  0.00    -0.005 A 
ATOM      6  C5  UNL d   1      -1.647   0.538   1.709  0.00  0.00    -0.074 A 
ATOM      7  C6  UNL d   1      -0.893  -0.016   0.536  0.00  0.00     0.077 C 
ATOM      8  C7  UNL d   1      -2.360  -0.326   2.551  0.00  0.00    -0.001 A 
ENDROOT
TORSDOF 0
ENDMDL
