MODEL 1
REMARK minimizedAffinity 4.49241686
REMARK minimizedRMSD -1
REMARK  0 active torsions:
REMARK  status: ('A' for Active; 'I' for Inactive)
ROOT
ATOM      1  C   UNL d   1       0.227   0.439  -0.597  0.00  0.00     0.077 C 
ATOM      2  C1  UNL d   1       0.560   0.291  -2.052  0.00  0.00    -0.074 A 
ATOM      3  C2  UNL d   1       0.881  -0.958  -2.592  0.00  0.00    -0.005 A 
ATOM      4  C3  UNL d   1       1.179  -1.082  -3.949  0.00  0.00     0.006 A 
ATOM      5  C4  UNL d   1       1.158   0.040  -4.778  0.00  0.00    -0.005 A 
ATOM      6  C5  UNL d   1       0.837   1.298  -4.256  0.00  0.00    -0.074 A 
ATOM      7  C6  UNL d   1       0.800   2.512  -5.135  0.00  0.00     0.077 C 
ATOM      8  C7  UNL d   1       0.532   1.412  -2.893  0.00  0.00    -0.001 A 
ENDROOT
TORSDOF 0
ENDMDL
