MODEL 1
REMARK minimizedAffinity -3.78637075
REMARK minimizedRMSD -1
REMARK  0 active torsions:
REMARK  status: ('A' for Active; 'I' for Inactive)
ROOT
ATOM      1  C   UNL d   1      -3.119   1.017   5.853  0.00  0.00     0.077 C 
ATOM      2  C1  UNL d   1      -3.308   2.317   5.129  0.00  0.00    -0.074 A 
ATOM      3  C2  UNL d   1      -3.386   2.358   3.733  0.00  0.00    -0.005 A 
ATOM      4  C3  UNL d   1      -3.572   3.573   3.074  0.00  0.00     0.006 A 
ATOM      5  C4  UNL d   1      -3.681   4.758   3.803  0.00  0.00    -0.005 A 
ATOM      6  C5  UNL d   1      -3.607   4.736   5.200  0.00  0.00    -0.074 A 
ATOM      7  C6  UNL d   1      -3.733   5.999   5.999  0.00  0.00     0.077 C 
ATOM      8  C7  UNL d   1      -3.427   3.510   5.855  0.00  0.00    -0.001 A 
ENDROOT
TORSDOF 0
ENDMDL
