MODEL 1
REMARK minimizedAffinity 11.9512739
REMARK minimizedRMSD -1
REMARK  0 active torsions:
REMARK  status: ('A' for Active; 'I' for Inactive)
ROOT
ATOM      1  C   UNL d   1      -0.645  -2.501   0.368  0.00  0.00     0.077 C 
ATOM      2  C1  UNL d   1      -1.163  -1.895   1.638  0.00  0.00    -0.074 A 
ATOM      3  C2  UNL d   1      -0.295  -1.289   2.552  0.00  0.00    -0.005 A 
ATOM      4  C3  UNL d   1      -0.793  -0.720   3.724  0.00  0.00     0.006 A 
ATOM      5  C4  UNL d   1      -2.162  -0.752   3.994  0.00  0.00    -0.005 A 
ATOM      6  C5  UNL d   1      -3.045  -1.352   3.091  0.00  0.00    -0.074 A 
ATOM      7  C6  UNL d   1      -4.520  -1.386   3.361  0.00  0.00     0.077 C 
ATOM      8  C7  UNL d   1      -2.538  -1.915   1.912  0.00  0.00    -0.001 A 
ENDROOT
TORSDOF 0
ENDMDL
