MODEL 1
REMARK minimizedAffinity 6.10354185
REMARK minimizedRMSD -1
REMARK  0 active torsions:
REMARK  status: ('A' for Active; 'I' for Inactive)
ROOT
ATOM      1  C   UNL d   1       3.747   2.482   1.761  0.00  0.00     0.077 C 
ATOM      2  C1  UNL d   1       4.362   1.487   2.699  0.00  0.00    -0.074 A 
ATOM      3  C2  UNL d   1       5.444   1.840   3.512  0.00  0.00    -0.005 A 
ATOM      4  C3  UNL d   1       6.000   0.906   4.387  0.00  0.00     0.006 A 
ATOM      5  C4  UNL d   1       5.480  -0.387   4.457  0.00  0.00    -0.005 A 
ATOM      6  C5  UNL d   1       4.398  -0.757   3.653  0.00  0.00    -0.074 A 
ATOM      7  C6  UNL d   1       3.821  -2.140   3.723  0.00  0.00     0.077 C 
ATOM      8  C7  UNL d   1       3.841   0.189   2.781  0.00  0.00    -0.001 A 
ENDROOT
TORSDOF 0
ENDMDL
