MODEL 1
REMARK minimizedAffinity 7.48510885
REMARK minimizedRMSD -1
REMARK  0 active torsions:
REMARK  status: ('A' for Active; 'I' for Inactive)
ROOT
ATOM      1  C   UNL d   1      -0.400  -1.801   0.474  0.00  0.00     0.077 C 
ATOM      2  C1  UNL d   1      -0.019  -1.035  -0.758  0.00  0.00    -0.074 A 
ATOM      3  C2  UNL d   1      -0.186   0.352  -0.822  0.00  0.00    -0.005 A 
ATOM      4  C3  UNL d   1       0.182   1.052  -1.971  0.00  0.00     0.006 A 
ATOM      5  C4  UNL d   1       0.718   0.374  -3.066  0.00  0.00    -0.005 A 
ATOM      6  C5  UNL d   1       0.893  -1.013  -3.020  0.00  0.00    -0.074 A 
ATOM      7  C6  UNL d   1       1.477  -1.756  -4.185  0.00  0.00     0.077 C 
ATOM      8  C7  UNL d   1       0.528  -1.709  -1.859  0.00  0.00    -0.001 A 
ENDROOT
TORSDOF 0
ENDMDL
