MODEL 1
REMARK minimizedAffinity 11.8592529
REMARK minimizedRMSD -1
REMARK  0 active torsions:
REMARK  status: ('A' for Active; 'I' for Inactive)
ROOT
ATOM      1  C   UNL d   1      -3.382  -1.808   3.894  0.00  0.00     0.077 C 
ATOM      2  C1  UNL d   1      -2.073  -1.801   3.162  0.00  0.00    -0.074 A 
ATOM      3  C2  UNL d   1      -0.881  -1.491   3.824  0.00  0.00    -0.005 A 
ATOM      4  C3  UNL d   1       0.330  -1.497   3.132  0.00  0.00     0.006 A 
ATOM      5  C4  UNL d   1       0.361  -1.812   1.773  0.00  0.00    -0.005 A 
ATOM      6  C5  UNL d   1      -0.820  -2.126   1.094  0.00  0.00    -0.074 A 
ATOM      7  C6  UNL d   1      -0.803  -2.477  -0.364  0.00  0.00     0.077 C 
ATOM      8  C7  UNL d   1      -2.032  -2.124   1.798  0.00  0.00    -0.001 A 
ENDROOT
TORSDOF 0
ENDMDL
