MODEL 1
REMARK minimizedAffinity 11.869276
REMARK minimizedRMSD -1
REMARK  0 active torsions:
REMARK  status: ('A' for Active; 'I' for Inactive)
ROOT
ATOM      1  C   UNL d   1       0.105   1.458  -1.454  0.00  0.00     0.077 C 
ATOM      2  C1  UNL d   1       0.730   0.344  -2.240  0.00  0.00    -0.074 A 
ATOM      3  C2  UNL d   1       1.790   0.591  -3.118  0.00  0.00    -0.005 A 
ATOM      4  C3  UNL d   1       2.368  -0.456  -3.836  0.00  0.00     0.006 A 
ATOM      5  C4  UNL d   1       1.891  -1.759  -3.684  0.00  0.00    -0.005 A 
ATOM      6  C5  UNL d   1       0.832  -2.025  -2.810  0.00  0.00    -0.074 A 
ATOM      7  C6  UNL d   1       0.314  -3.421  -2.628  0.00  0.00     0.077 C 
ATOM      8  C7  UNL d   1       0.262  -0.968  -2.087  0.00  0.00    -0.001 A 
ENDROOT
TORSDOF 0
ENDMDL
