MODEL 1
REMARK minimizedAffinity 6.96640015
REMARK minimizedRMSD -1
REMARK  0 active torsions:
REMARK  status: ('A' for Active; 'I' for Inactive)
ROOT
ATOM      1  C   UNL d   1       2.929   2.155   1.280  0.00  0.00     0.077 C 
ATOM      2  C1  UNL d   1       2.630   1.973  -0.179  0.00  0.00    -0.074 A 
ATOM      3  C2  UNL d   1       2.997   2.945  -1.114  0.00  0.00    -0.005 A 
ATOM      4  C3  UNL d   1       2.721   2.758  -2.469  0.00  0.00     0.006 A 
ATOM      5  C4  UNL d   1       2.076   1.598  -2.900  0.00  0.00    -0.005 A 
ATOM      6  C5  UNL d   1       1.701   0.615  -1.979  0.00  0.00    -0.074 A 
ATOM      7  C6  UNL d   1       1.016  -0.642  -2.427  0.00  0.00     0.077 C 
ATOM      8  C7  UNL d   1       1.989   0.807  -0.621  0.00  0.00    -0.001 A 
ENDROOT
TORSDOF 0
ENDMDL
