MODEL 1
REMARK minimizedAffinity 3.52555323
REMARK minimizedRMSD -1
REMARK  0 active torsions:
REMARK  status: ('A' for Active; 'I' for Inactive)
ROOT
ATOM      1  C   UNL d   1       2.642   4.850  -5.509  0.00  0.00     0.077 C 
ATOM      2  C1  UNL d   1       3.820   3.961  -5.241  0.00  0.00    -0.074 A 
ATOM      3  C2  UNL d   1       4.916   4.421  -4.504  0.00  0.00    -0.005 A 
ATOM      4  C3  UNL d   1       6.000   3.580  -4.255  0.00  0.00     0.006 A 
ATOM      5  C4  UNL d   1       5.999   2.271  -4.740  0.00  0.00    -0.005 A 
ATOM      6  C5  UNL d   1       4.912   1.793  -5.478  0.00  0.00    -0.074 A 
ATOM      7  C6  UNL d   1       4.891   0.386  -5.998  0.00  0.00     0.077 C 
ATOM      8  C7  UNL d   1       3.824   2.642  -5.718  0.00  0.00    -0.001 A 
ENDROOT
TORSDOF 0
ENDMDL
