MODEL 1
REMARK minimizedAffinity 4.49223328
REMARK minimizedRMSD -1
REMARK  0 active torsions:
REMARK  status: ('A' for Active; 'I' for Inactive)
ROOT
ATOM      1  C   UNL d   1      -5.972  -0.761   2.261  0.00  0.00     0.077 C 
ATOM      2  C1  UNL d   1      -4.820  -0.689   3.219  0.00  0.00    -0.074 A 
ATOM      3  C2  UNL d   1      -3.813  -1.660   3.206  0.00  0.00    -0.005 A 
ATOM      4  C3  UNL d   1      -2.743  -1.575   4.096  0.00  0.00     0.006 A 
ATOM      5  C4  UNL d   1      -2.668  -0.520   5.007  0.00  0.00    -0.005 A 
ATOM      6  C5  UNL d   1      -3.665   0.460   5.034  0.00  0.00    -0.074 A 
ATOM      7  C6  UNL d   1      -3.595   1.606   5.999  0.00  0.00     0.077 C 
ATOM      8  C7  UNL d   1      -4.734   0.372   4.131  0.00  0.00    -0.001 A 
ENDROOT
TORSDOF 0
ENDMDL
