MODEL 1
REMARK minimizedAffinity 9.06246662
REMARK minimizedRMSD -1
REMARK  0 active torsions:
REMARK  status: ('A' for Active; 'I' for Inactive)
ROOT
ATOM      1  C   UNL d   1       5.267   5.635  -2.846  0.00  0.00     0.077 C 
ATOM      2  C1  UNL d   1       4.995   4.585  -3.882  0.00  0.00    -0.074 A 
ATOM      3  C2  UNL d   1       5.998   3.698  -4.286  0.00  0.00    -0.005 A 
ATOM      4  C3  UNL d   1       5.728   2.720  -5.244  0.00  0.00     0.006 A 
ATOM      5  C4  UNL d   1       4.454   2.620  -5.806  0.00  0.00    -0.005 A 
ATOM      6  C5  UNL d   1       3.439   3.498  -5.413  0.00  0.00    -0.074 A 
ATOM      7  C6  UNL d   1       2.062   3.398  -6.000  0.00  0.00     0.077 C 
ATOM      8  C7  UNL d   1       3.717   4.473  -4.445  0.00  0.00    -0.001 A 
ENDROOT
TORSDOF 0
ENDMDL
