MODEL 1
REMARK minimizedAffinity 6.58003044
REMARK minimizedRMSD -1
REMARK  0 active torsions:
REMARK  status: ('A' for Active; 'I' for Inactive)
ROOT
ATOM      1  C   UNL d   1       6.000   1.997  -5.158  0.00  0.00     0.077 C 
ATOM      2  C1  UNL d   1       4.874   2.987  -5.100  0.00  0.00    -0.074 A 
ATOM      3  C2  UNL d   1       3.806   2.914  -6.000  0.00  0.00    -0.005 A 
ATOM      4  C3  UNL d   1       2.761   3.835  -5.927  0.00  0.00     0.006 A 
ATOM      5  C4  UNL d   1       2.773   4.836  -4.955  0.00  0.00    -0.005 A 
ATOM      6  C5  UNL d   1       3.832   4.924  -4.046  0.00  0.00    -0.074 A 
ATOM      7  C6  UNL d   1       3.856   5.987  -2.989  0.00  0.00     0.077 C 
ATOM      8  C7  UNL d   1       4.875   3.990  -4.121  0.00  0.00    -0.001 A 
ENDROOT
TORSDOF 0
ENDMDL
