MODEL 1
REMARK minimizedAffinity 4.09414482
REMARK minimizedRMSD -1
REMARK  0 active torsions:
REMARK  status: ('A' for Active; 'I' for Inactive)
ROOT
ATOM      1  C   UNL d   1       1.842   4.340  -6.000  0.00  0.00     0.077 C 
ATOM      2  C1  UNL d   1       3.198   4.039  -5.435  0.00  0.00    -0.074 A 
ATOM      3  C2  UNL d   1       3.724   4.799  -4.385  0.00  0.00    -0.005 A 
ATOM      4  C3  UNL d   1       4.983   4.501  -3.863  0.00  0.00     0.006 A 
ATOM      5  C4  UNL d   1       5.727   3.442  -4.385  0.00  0.00    -0.005 A 
ATOM      6  C5  UNL d   1       5.217   2.671  -5.434  0.00  0.00    -0.074 A 
ATOM      7  C6  UNL d   1       6.000   1.523  -6.000  0.00  0.00     0.077 C 
ATOM      8  C7  UNL d   1       3.948   2.972  -5.948  0.00  0.00    -0.001 A 
ENDROOT
TORSDOF 0
ENDMDL
