MODEL 1
REMARK minimizedAffinity 7.85001993
REMARK minimizedRMSD -1
REMARK  0 active torsions:
REMARK  status: ('A' for Active; 'I' for Inactive)
ROOT
ATOM      1  C   UNL d   1       6.000   1.906  -5.585  0.00  0.00     0.077 C 
ATOM      2  C1  UNL d   1       4.928   2.916  -5.300  0.00  0.00    -0.074 A 
ATOM      3  C2  UNL d   1       3.718   2.896  -6.000  0.00  0.00    -0.005 A 
ATOM      4  C3  UNL d   1       2.726   3.836  -5.717  0.00  0.00     0.006 A 
ATOM      5  C4  UNL d   1       2.935   4.803  -4.733  0.00  0.00    -0.005 A 
ATOM      6  C5  UNL d   1       4.139   4.838  -4.022  0.00  0.00    -0.074 A 
ATOM      7  C6  UNL d   1       4.376   5.864  -2.955  0.00  0.00     0.077 C 
ATOM      8  C7  UNL d   1       5.127   3.886  -4.307  0.00  0.00    -0.001 A 
ENDROOT
TORSDOF 0
ENDMDL
