MODEL 1
REMARK minimizedAffinity 11.9187078
REMARK minimizedRMSD -1
REMARK  0 active torsions:
REMARK  status: ('A' for Active; 'I' for Inactive)
ROOT
ATOM      1  C   UNL d   1       1.078  -2.906  -3.503  0.00  0.00     0.077 C 
ATOM      2  C1  UNL d   1       0.589  -1.976  -2.433  0.00  0.00    -0.074 A 
ATOM      3  C2  UNL d   1       0.814  -0.599  -2.520  0.00  0.00    -0.005 A 
ATOM      4  C3  UNL d   1       0.345   0.255  -1.522  0.00  0.00     0.006 A 
ATOM      5  C4  UNL d   1      -0.352  -0.259  -0.428  0.00  0.00    -0.005 A 
ATOM      6  C5  UNL d   1      -0.587  -1.634  -0.324  0.00  0.00    -0.074 A 
ATOM      7  C6  UNL d   1      -1.344  -2.202   0.840  0.00  0.00     0.077 C 
ATOM      8  C7  UNL d   1      -0.119  -2.485  -1.335  0.00  0.00    -0.001 A 
ENDROOT
TORSDOF 0
ENDMDL
