MODEL 1
REMARK minimizedAffinity -0.657284319
REMARK minimizedRMSD -1
REMARK  0 active torsions:
REMARK  status: ('A' for Active; 'I' for Inactive)
ROOT
ATOM      1  C   UNL d   1       3.337   1.891   1.356  0.00  0.00     0.077 C 
ATOM      2  C1  UNL d   1       2.287   1.512   0.355  0.00  0.00    -0.074 A 
ATOM      3  C2  UNL d   1       1.797   2.448  -0.562  0.00  0.00    -0.005 A 
ATOM      4  C3  UNL d   1       0.826   2.078  -1.493  0.00  0.00     0.006 A 
ATOM      5  C4  UNL d   1       0.337   0.771  -1.517  0.00  0.00    -0.005 A 
ATOM      6  C5  UNL d   1       0.816  -0.178  -0.608  0.00  0.00    -0.074 A 
ATOM      7  C6  UNL d   1       0.308  -1.589  -0.627  0.00  0.00     0.077 C 
ATOM      8  C7  UNL d   1       1.796   0.199   0.320  0.00  0.00    -0.001 A 
ENDROOT
TORSDOF 0
ENDMDL
