MODEL 1
REMARK minimizedAffinity 5.46921587
REMARK minimizedRMSD -1
REMARK  0 active torsions:
REMARK  status: ('A' for Active; 'I' for Inactive)
ROOT
ATOM      1  C4' PXY d   1      -4.894   3.700   5.970  0.00  0.00     0.077 C 
ATOM      2  C1' PXY d   1      -2.160  -0.606   3.250  0.00  0.00     0.077 C 
ATOM      3  C1  PXY d   1      -2.877   0.516   3.975  0.00  0.00    -0.082 A 
ATOM      4  C2  PXY d   1      -3.559   1.412   3.280  0.00  0.00     0.003 A 
ATOM      5  C3  PXY d   1      -4.187   2.452   3.916  0.00  0.00     0.003 A 
ATOM      6  C4  PXY d   1      -4.162   2.545   5.282  0.00  0.00    -0.082 A 
ATOM      7  C5  PXY d   1      -3.477   1.628   5.999  0.00  0.00     0.003 A 
ATOM      8  C6  PXY d   1      -2.812   0.604   5.331  0.00  0.00     0.003 A 
ENDROOT
TORSDOF 0
ENDMDL
