MODEL 1
REMARK minimizedAffinity 14.1773815
REMARK minimizedRMSD -1
REMARK  0 active torsions:
REMARK  status: ('A' for Active; 'I' for Inactive)
ROOT
ATOM      1  C4' PXY d   1       4.852  -6.000   0.510  0.00  0.00     0.077 C 
ATOM      2  C1' PXY d   1       2.213  -0.919  -0.289  0.00  0.00     0.077 C 
ATOM      3  C1  PXY d   1       2.916  -2.247  -0.084  0.00  0.00    -0.082 A 
ATOM      4  C2  PXY d   1       2.210  -3.365  -0.064  0.00  0.00     0.003 A 
ATOM      5  C3  PXY d   1       2.826  -4.571   0.152  0.00  0.00     0.003 A 
ATOM      6  C4  PXY d   1       4.185  -4.638   0.296  0.00  0.00    -0.082 A 
ATOM      7  C5  PXY d   1       4.915  -3.503   0.266  0.00  0.00     0.003 A 
ATOM      8  C6  PXY d   1       4.266  -2.284   0.087  0.00  0.00     0.003 A 
ENDROOT
TORSDOF 0
ENDMDL
