MODEL 1
REMARK minimizedAffinity 19.9501686
REMARK minimizedRMSD -1
REMARK  0 active torsions:
REMARK  status: ('A' for Active; 'I' for Inactive)
ROOT
ATOM      1  C4' PXY d   1      -5.200   4.527   5.999  0.00  0.00     0.077 C 
ATOM      2  C1' PXY d   1      -3.313  -0.034   2.989  0.00  0.00     0.077 C 
ATOM      3  C1  PXY d   1      -3.803   1.157   3.790  0.00  0.00    -0.082 A 
ATOM      4  C2  PXY d   1      -4.755   1.930   3.294  0.00  0.00     0.003 A 
ATOM      5  C3  PXY d   1      -5.189   3.029   3.990  0.00  0.00     0.003 A 
ATOM      6  C4  PXY d   1      -4.680   3.309   5.230  0.00  0.00    -0.082 A 
ATOM      7  C5  PXY d   1      -3.716   2.518   5.748  0.00  0.00     0.003 A 
ATOM      8  C6  PXY d   1      -3.261   1.431   5.007  0.00  0.00     0.003 A 
ENDROOT
TORSDOF 0
ENDMDL
