MODEL 1
REMARK minimizedAffinity 8.66535664
REMARK minimizedRMSD -1
REMARK  0 active torsions:
REMARK  status: ('A' for Active; 'I' for Inactive)
ROOT
ATOM      1  C4' PXY d   1      -5.954  -5.991  -5.993  0.00  0.00     0.077 C 
ATOM      2  C1' PXY d   1      -2.597  -1.285  -5.982  0.00  0.00     0.077 C 
ATOM      3  C1  PXY d   1      -3.487  -2.512  -5.980  0.00  0.00    -0.082 A 
ATOM      4  C2  PXY d   1      -2.940  -3.717  -5.969  0.00  0.00     0.003 A 
ATOM      5  C3  PXY d   1      -3.730  -4.837  -5.999  0.00  0.00     0.003 A 
ATOM      6  C4  PXY d   1      -5.094  -4.724  -5.986  0.00  0.00    -0.082 A 
ATOM      7  C5  PXY d   1      -5.660  -3.498  -5.986  0.00  0.00     0.003 A 
ATOM      8  C6  PXY d   1      -4.840  -2.373  -5.997  0.00  0.00     0.003 A 
ENDROOT
TORSDOF 0
ENDMDL
