MODEL 1
REMARK minimizedAffinity 16.7364044
REMARK minimizedRMSD -1
REMARK  0 active torsions:
REMARK  status: ('A' for Active; 'I' for Inactive)
ROOT
ATOM      1  C4' PXY d   1       1.788  -0.744  -2.746  0.00  0.00     0.077 C 
ATOM      2  C1' PXY d   1       4.637   2.585   1.024  0.00  0.00     0.077 C 
ATOM      3  C1  PXY d   1       3.894   1.702   0.042  0.00  0.00    -0.082 A 
ATOM      4  C2  PXY d   1       3.599   2.166  -1.162  0.00  0.00     0.003 A 
ATOM      5  C3  PXY d   1       2.899   1.391  -2.051  0.00  0.00     0.003 A 
ATOM      6  C4  PXY d   1       2.545   0.109  -1.725  0.00  0.00    -0.082 A 
ATOM      7  C5  PXY d   1       2.852  -0.375  -0.503  0.00  0.00     0.003 A 
ATOM      8  C6  PXY d   1       3.527   0.442   0.400  0.00  0.00     0.003 A 
ENDROOT
TORSDOF 0
ENDMDL
