MODEL 1
REMARK minimizedAffinity 9.59633923
REMARK minimizedRMSD -1
REMARK  0 active torsions:
REMARK  status: ('A' for Active; 'I' for Inactive)
ROOT
ATOM      1  C4' PXY d   1       1.972   4.153  -0.769  0.00  0.00     0.077 C 
ATOM      2  C1' PXY d   1       2.121  -1.624  -0.923  0.00  0.00     0.077 C 
ATOM      3  C1  PXY d   1       2.075  -0.110  -0.872  0.00  0.00    -0.082 A 
ATOM      4  C2  PXY d   1       2.243   0.588  -1.983  0.00  0.00     0.003 A 
ATOM      5  C3  PXY d   1       2.236   1.959  -1.950  0.00  0.00     0.003 A 
ATOM      6  C4  PXY d   1       2.002   2.622  -0.775  0.00  0.00    -0.082 A 
ATOM      7  C5  PXY d   1       1.818   1.917   0.362  0.00  0.00     0.003 A 
ATOM      8  C6  PXY d   1       1.870   0.527   0.313  0.00  0.00     0.003 A 
ENDROOT
TORSDOF 0
ENDMDL
