MODEL 1
REMARK minimizedAffinity 22.3564034
REMARK minimizedRMSD -1
REMARK  0 active torsions:
REMARK  status: ('A' for Active; 'I' for Inactive)
ROOT
ATOM      1  C4' PXY d   1       0.617  -2.408  -3.142  0.00  0.00     0.077 C 
ATOM      2  C1' PXY d   1       3.796   1.012   0.266  0.00  0.00     0.077 C 
ATOM      3  C1  PXY d   1       2.959   0.125  -0.635  0.00  0.00    -0.082 A 
ATOM      4  C2  PXY d   1       2.497  -1.025  -0.174  0.00  0.00     0.003 A 
ATOM      5  C3  PXY d   1       1.765  -1.854  -0.985  0.00  0.00     0.003 A 
ATOM      6  C4  PXY d   1       1.458  -1.476  -2.265  0.00  0.00    -0.082 A 
ATOM      7  C5  PXY d   1       1.917  -0.299  -2.739  0.00  0.00     0.003 A 
ATOM      8  C6  PXY d   1       2.693   0.509  -1.913  0.00  0.00     0.003 A 
ENDROOT
TORSDOF 0
ENDMDL
