MODEL 1
REMARK minimizedAffinity 7.74027538
REMARK minimizedRMSD -1
REMARK  0 active torsions:
REMARK  status: ('A' for Active; 'I' for Inactive)
ROOT
ATOM      1  C4' PXY d   1       2.157  -2.259  -0.735  0.00  0.00     0.077 C 
ATOM      2  C1' PXY d   1       5.779   2.220  -1.221  0.00  0.00     0.077 C 
ATOM      3  C1  PXY d   1       4.819   1.053  -1.097  0.00  0.00    -0.082 A 
ATOM      4  C2  PXY d   1       5.108   0.052  -0.281  0.00  0.00     0.003 A 
ATOM      5  C3  PXY d   1       4.267  -1.026  -0.182  0.00  0.00     0.003 A 
ATOM      6  C4  PXY d   1       3.092  -1.056  -0.884  0.00  0.00    -0.082 A 
ATOM      7  C5  PXY d   1       2.785  -0.034  -1.710  0.00  0.00     0.003 A 
ATOM      8  C6  PXY d   1       3.672   1.033  -1.829  0.00  0.00     0.003 A 
ENDROOT
TORSDOF 0
ENDMDL
