MODEL 1
REMARK minimizedAffinity 17.3682632
REMARK minimizedRMSD -1
REMARK  0 active torsions:
REMARK  status: ('A' for Active; 'I' for Inactive)
ROOT
ATOM      1  C4' PXY d   1       1.579   1.134   2.387  0.00  0.00     0.077 C 
ATOM      2  C1' PXY d   1       5.998   2.125  -1.205  0.00  0.00     0.077 C 
ATOM      3  C1  PXY d   1       4.844   1.874  -0.255  0.00  0.00    -0.082 A 
ATOM      4  C2  PXY d   1       4.179   0.732  -0.322  0.00  0.00     0.003 A 
ATOM      5  C3  PXY d   1       3.112   0.501   0.509  0.00  0.00     0.003 A 
ATOM      6  C4  PXY d   1       2.757   1.427   1.454  0.00  0.00    -0.082 A 
ATOM      7  C5  PXY d   1       3.438   2.589   1.535  0.00  0.00     0.003 A 
ATOM      8  C6  PXY d   1       4.491   2.821   0.656  0.00  0.00     0.003 A 
ENDROOT
TORSDOF 0
ENDMDL
