MODEL 1
REMARK minimizedAffinity 18.1786232
REMARK minimizedRMSD -1
REMARK  0 active torsions:
REMARK  status: ('A' for Active; 'I' for Inactive)
ROOT
ATOM      1  C4' PXY d   1       3.548   1.548   0.544  0.00  0.00     0.077 C 
ATOM      2  C1' PXY d   1       1.085  -1.360  -3.803  0.00  0.00     0.077 C 
ATOM      3  C1  PXY d   1       1.736  -0.589  -2.671  0.00  0.00    -0.082 A 
ATOM      4  C2  PXY d   1       1.974  -1.195  -1.519  0.00  0.00     0.003 A 
ATOM      5  C3  PXY d   1       2.533  -0.504  -0.475  0.00  0.00     0.003 A 
ATOM      6  C4  PXY d   1       2.901   0.806  -0.629  0.00  0.00    -0.082 A 
ATOM      7  C5  PXY d   1       2.671   1.428  -1.805  0.00  0.00     0.003 A 
ATOM      8  C6  PXY d   1       2.065   0.721  -2.839  0.00  0.00     0.003 A 
ENDROOT
TORSDOF 0
ENDMDL
