MODEL 1
REMARK minimizedAffinity 15.7660484
REMARK minimizedRMSD -1
REMARK  0 active torsions:
REMARK  status: ('A' for Active; 'I' for Inactive)
ROOT
ATOM      1  C4' PXY d   1       0.541   1.284   3.342  0.00  0.00     0.077 C 
ATOM      2  C1' PXY d   1       1.680   5.698  -0.213  0.00  0.00     0.077 C 
ATOM      3  C1  PXY d   1       1.391   4.534   0.714  0.00  0.00    -0.082 A 
ATOM      4  C2  PXY d   1       0.181   4.393   1.230  0.00  0.00     0.003 A 
ATOM      5  C3  PXY d   1      -0.089   3.364   2.095  0.00  0.00     0.003 A 
ATOM      6  C4  PXY d   1       0.875   2.439   2.394  0.00  0.00    -0.082 A 
ATOM      7  C5  PXY d   1       2.109   2.570   1.863  0.00  0.00     0.003 A 
ATOM      8  C6  PXY d   1       2.375   3.645   1.020  0.00  0.00     0.003 A 
ENDROOT
TORSDOF 0
ENDMDL
