MODEL 1
REMARK minimizedAffinity 9.34995365
REMARK minimizedRMSD -1
REMARK  0 active torsions:
REMARK  status: ('A' for Active; 'I' for Inactive)
ROOT
ATOM      1  C4' PXY d   1       1.014   1.125   1.766  0.00  0.00     0.077 C 
ATOM      2  C1' PXY d   1       5.997   2.625  -0.750  0.00  0.00     0.077 C 
ATOM      3  C1  PXY d   1       4.694   2.238  -0.079  0.00  0.00    -0.082 A 
ATOM      4  C2  PXY d   1       4.043   1.161  -0.488  0.00  0.00     0.003 A 
ATOM      5  C3  PXY d   1       2.846   0.815   0.086  0.00  0.00     0.003 A 
ATOM      6  C4  PXY d   1       2.338   1.548   1.125  0.00  0.00    -0.082 A 
ATOM      7  C5  PXY d   1       3.002   2.642   1.554  0.00  0.00     0.003 A 
ATOM      8  C6  PXY d   1       4.194   3.000   0.931  0.00  0.00     0.003 A 
ENDROOT
TORSDOF 0
ENDMDL
