MODEL 1
REMARK minimizedAffinity 6.03966761
REMARK minimizedRMSD -1
REMARK  0 active torsions:
REMARK  status: ('A' for Active; 'I' for Inactive)
ROOT
ATOM      1  C4' PXY d   1      -4.459   5.998  -5.989  0.00  0.00     0.077 C 
ATOM      2  C1' PXY d   1      -0.095   2.541  -4.432  0.00  0.00     0.077 C 
ATOM      3  C1  PXY d   1      -1.237   3.455  -4.830  0.00  0.00    -0.082 A 
ATOM      4  C2  PXY d   1      -2.209   2.991  -5.599  0.00  0.00     0.003 A 
ATOM      5  C3  PXY d   1      -3.233   3.813  -5.995  0.00  0.00     0.003 A 
ATOM      6  C4  PXY d   1      -3.291   5.108  -5.555  0.00  0.00    -0.082 A 
ATOM      7  C5  PXY d   1      -2.309   5.586  -4.761  0.00  0.00     0.003 A 
ATOM      8  C6  PXY d   1      -1.257   4.747  -4.405  0.00  0.00     0.003 A 
ENDROOT
TORSDOF 0
ENDMDL
