MODEL 1
REMARK minimizedAffinity 6.47537661
REMARK minimizedRMSD -1
REMARK  0 active torsions:
REMARK  status: ('A' for Active; 'I' for Inactive)
ROOT
ATOM      1  C4' PXY d   1       3.927  -5.035  -0.202  0.00  0.00     0.077 C 
ATOM      2  C1' PXY d   1       1.005  -0.502  -2.284  0.00  0.00     0.077 C 
ATOM      3  C1  PXY d   1       1.778  -1.683  -1.730  0.00  0.00    -0.082 A 
ATOM      4  C2  PXY d   1       1.915  -2.776  -2.462  0.00  0.00     0.003 A 
ATOM      5  C3  PXY d   1       2.583  -3.865  -1.964  0.00  0.00     0.003 A 
ATOM      6  C4  PXY d   1       3.163  -3.815  -0.725  0.00  0.00    -0.082 A 
ATOM      7  C5  PXY d   1       3.037  -2.699   0.024  0.00  0.00     0.003 A 
ATOM      8  C6  PXY d   1       2.319  -1.620  -0.483  0.00  0.00     0.003 A 
ENDROOT
TORSDOF 0
ENDMDL
