MODEL 1
REMARK minimizedAffinity 10.0090466
REMARK minimizedRMSD -1
REMARK  0 active torsions:
REMARK  status: ('A' for Active; 'I' for Inactive)
ROOT
ATOM      1  C4' PXY d   1       0.493   0.331  -2.753  0.00  0.00     0.077 C 
ATOM      2  C1' PXY d   1       3.131  -3.786   0.331  0.00  0.00     0.077 C 
ATOM      3  C1  PXY d   1       2.436  -2.700  -0.467  0.00  0.00    -0.082 A 
ATOM      4  C2  PXY d   1       1.995  -2.965  -1.686  0.00  0.00     0.003 A 
ATOM      5  C3  PXY d   1       1.393  -1.985  -2.434  0.00  0.00     0.003 A 
ATOM      6  C4  PXY d   1       1.192  -0.737  -1.908  0.00  0.00    -0.082 A 
ATOM      7  C5  PXY d   1       1.630  -0.462  -0.661  0.00  0.00     0.003 A 
ATOM      8  C6  PXY d   1       2.275  -1.458   0.066  0.00  0.00     0.003 A 
ENDROOT
TORSDOF 0
ENDMDL
