MODEL 1
REMARK minimizedAffinity -0.408949316
REMARK minimizedRMSD -1
REMARK  0 active torsions:
REMARK  status: ('A' for Active; 'I' for Inactive)
ROOT
ATOM      1  C4' PXY d   1      -1.338  -5.989  -4.961  0.00  0.00     0.077 C 
ATOM      2  C1' PXY d   1      -5.999  -2.719  -5.961  0.00  0.00     0.077 C 
ATOM      3  C1  PXY d   1      -4.784  -3.587  -5.698  0.00  0.00    -0.082 A 
ATOM      4  C2  PXY d   1      -3.693  -3.046  -5.182  0.00  0.00     0.003 A 
ATOM      5  C3  PXY d   1      -2.575  -3.810  -4.968  0.00  0.00     0.003 A 
ATOM      6  C4  PXY d   1      -2.591  -5.152  -5.234  0.00  0.00    -0.082 A 
ATOM      7  C5  PXY d   1      -3.705  -5.714  -5.751  0.00  0.00     0.003 A 
ATOM      8  C6  PXY d   1      -4.816  -4.914  -6.000  0.00  0.00     0.003 A 
ENDROOT
TORSDOF 0
ENDMDL
