MODEL 1
REMARK minimizedAffinity 9.69932938
REMARK minimizedRMSD -1
REMARK  0 active torsions:
REMARK  status: ('A' for Active; 'I' for Inactive)
ROOT
ATOM      1  C4' PXY d   1      -1.449  -1.616  -3.013  0.00  0.00     0.077 C 
ATOM      2  C1' PXY d   1      -3.745  -6.000  -6.000  0.00  0.00     0.077 C 
ATOM      3  C1  PXY d   1      -3.145  -4.857  -5.205  0.00  0.00    -0.082 A 
ATOM      4  C2  PXY d   1      -3.174  -3.630  -5.700  0.00  0.00     0.003 A 
ATOM      5  C3  PXY d   1      -2.608  -2.590  -5.009  0.00  0.00     0.003 A 
ATOM      6  C4  PXY d   1      -2.052  -2.799  -3.775  0.00  0.00    -0.082 A 
ATOM      7  C5  PXY d   1      -2.027  -4.046  -3.259  0.00  0.00     0.003 A 
ATOM      8  C6  PXY d   1      -2.571  -5.095  -3.995  0.00  0.00     0.003 A 
ENDROOT
TORSDOF 0
ENDMDL
