MODEL 1
REMARK minimizedAffinity 17.6132507
REMARK minimizedRMSD -1
REMARK  0 active torsions:
REMARK  status: ('A' for Active; 'I' for Inactive)
ROOT
ATOM      1  C4' PXY d   1      -1.386  -4.903  -3.043  0.00  0.00     0.077 C 
ATOM      2  C1' PXY d   1      -5.656  -2.363  -5.999  0.00  0.00     0.077 C 
ATOM      3  C1  PXY d   1      -4.540  -3.041  -5.228  0.00  0.00    -0.082 A 
ATOM      4  C2  PXY d   1      -4.054  -2.467  -4.140  0.00  0.00     0.003 A 
ATOM      5  C3  PXY d   1      -3.023  -3.050  -3.450  0.00  0.00     0.003 A 
ATOM      6  C4  PXY d   1      -2.520  -4.260  -3.847  0.00  0.00    -0.082 A 
ATOM      7  C5  PXY d   1      -3.017  -4.857  -4.950  0.00  0.00     0.003 A 
ATOM      8  C6  PXY d   1      -4.036  -4.229  -5.661  0.00  0.00     0.003 A 
ENDROOT
TORSDOF 0
ENDMDL
