MODEL 1
REMARK minimizedAffinity 11.029707
REMARK minimizedRMSD -1
REMARK  0 active torsions:
REMARK  status: ('A' for Active; 'I' for Inactive)
ROOT
ATOM      1  C4' PXY d   1      -3.385  -2.802   4.040  0.00  0.00     0.077 C 
ATOM      2  C1' PXY d   1      -4.627   2.824   4.511  0.00  0.00     0.077 C 
ATOM      3  C1  PXY d   1      -4.292   1.350   4.397  0.00  0.00    -0.082 A 
ATOM      4  C2  PXY d   1      -4.571   0.701   3.278  0.00  0.00     0.003 A 
ATOM      5  C3  PXY d   1      -4.304  -0.640   3.170  0.00  0.00     0.003 A 
ATOM      6  C4  PXY d   1      -3.697  -1.311   4.197  0.00  0.00    -0.082 A 
ATOM      7  C5  PXY d   1      -3.399  -0.653   5.337  0.00  0.00     0.003 A 
ATOM      8  C6  PXY d   1      -3.715   0.698   5.443  0.00  0.00     0.003 A 
ENDROOT
TORSDOF 0
ENDMDL
