MODEL 1
REMARK minimizedAffinity 0.0726969168
REMARK minimizedRMSD -1
REMARK  0 active torsions:
REMARK  status: ('A' for Active; 'I' for Inactive)
ROOT
ATOM      1  C4' PXY d   1      -6.000   5.252  -6.000  0.00  0.00     0.077 C 
ATOM      2  C1' PXY d   1      -0.572   3.320  -5.533  0.00  0.00     0.077 C 
ATOM      3  C1  PXY d   1      -1.992   3.839  -5.652  0.00  0.00    -0.082 A 
ATOM      4  C2  PXY d   1      -3.007   3.000  -5.525  0.00  0.00     0.003 A 
ATOM      5  C3  PXY d   1      -4.296   3.447  -5.662  0.00  0.00     0.003 A 
ATOM      6  C4  PXY d   1      -4.550   4.775  -5.878  0.00  0.00    -0.082 A 
ATOM      7  C5  PXY d   1      -3.520   5.638  -5.998  0.00  0.00     0.003 A 
ATOM      8  C6  PXY d   1      -2.217   5.158  -5.897  0.00  0.00     0.003 A 
ENDROOT
TORSDOF 0
ENDMDL
