MODEL 1
REMARK minimizedAffinity 8.66801071
REMARK minimizedRMSD -1
REMARK  0 active torsions:
REMARK  status: ('A' for Active; 'I' for Inactive)
ROOT
ATOM      1  O1  BZF d   1      -3.348  -0.143   4.784  0.00  0.00    -0.204 OA
ATOM      2  C2  BZF d   1      -3.738  -0.689   3.576  0.00  0.00     0.174 A 
ATOM      3  C3  BZF d   1      -4.664   0.087   2.977  0.00  0.00    -0.012 A 
ATOM      4  C3A BZF d   1      -4.798   1.233   3.822  0.00  0.00    -0.107 A 
ATOM      5  C4  BZF d   1      -5.556   2.367   3.753  0.00  0.00     0.055 A 
ATOM      6  C5  BZF d   1      -5.508   3.258   4.778  0.00  0.00    -0.016 A 
ATOM      7  C6  BZF d   1      -4.717   3.044   5.888  0.00  0.00     0.022 A 
ATOM      8  C7  BZF d   1      -3.944   1.937   6.000  0.00  0.00     0.029 A 
ATOM      9  C7A BZF d   1      -3.966   1.051   4.951  0.00  0.00     0.058 A 
ENDROOT
TORSDOF 0
ENDMDL
