MODEL 1
REMARK minimizedAffinity 9.01625919
REMARK minimizedRMSD -1
REMARK  0 active torsions:
REMARK  status: ('A' for Active; 'I' for Inactive)
ROOT
ATOM      1  O1  BZF d   1      -2.668   3.873  -3.787  0.00  0.00    -0.204 OA
ATOM      2  C2  BZF d   1      -3.082   4.498  -4.947  0.00  0.00     0.174 A 
ATOM      3  C3  BZF d   1      -2.996   3.659  -6.000  0.00  0.00    -0.012 A 
ATOM      4  C3A BZF d   1      -2.584   2.405  -5.449  0.00  0.00    -0.107 A 
ATOM      5  C4  BZF d   1      -2.340   1.176  -5.991  0.00  0.00     0.055 A 
ATOM      6  C5  BZF d   1      -1.881   0.179  -5.189  0.00  0.00    -0.016 A 
ATOM      7  C6  BZF d   1      -1.651   0.378  -3.844  0.00  0.00     0.022 A 
ATOM      8  C7  BZF d   1      -1.883   1.578  -3.259  0.00  0.00     0.029 A 
ATOM      9  C7A BZF d   1      -2.378   2.578  -4.060  0.00  0.00     0.058 A 
ENDROOT
TORSDOF 0
ENDMDL
