MODEL 1
REMARK minimizedAffinity 14.8692102
REMARK minimizedRMSD -1
REMARK  0 active torsions:
REMARK  status: ('A' for Active; 'I' for Inactive)
ROOT
ATOM      1  O1  BZF d   1      -5.792  -1.207   3.332  0.00  0.00    -0.204 OA
ATOM      2  C2  BZF d   1      -5.859  -2.171   2.344  0.00  0.00     0.174 A 
ATOM      3  C3  BZF d   1      -4.836  -2.036   1.475  0.00  0.00    -0.012 A 
ATOM      4  C3A BZF d   1      -4.032  -0.976   2.001  0.00  0.00    -0.107 A 
ATOM      5  C4  BZF d   1      -2.870  -0.387   1.592  0.00  0.00     0.055 A 
ATOM      6  C5  BZF d   1      -2.385   0.673   2.291  0.00  0.00    -0.016 A 
ATOM      7  C6  BZF d   1      -3.038   1.173   3.398  0.00  0.00     0.022 A 
ATOM      8  C7  BZF d   1      -4.192   0.619   3.845  0.00  0.00     0.029 A 
ATOM      9  C7A BZF d   1      -4.667  -0.473   3.161  0.00  0.00     0.058 A 
ENDROOT
TORSDOF 0
ENDMDL
