MODEL 1
REMARK minimizedAffinity 23.4372349
REMARK minimizedRMSD -1
REMARK  0 active torsions:
REMARK  status: ('A' for Active; 'I' for Inactive)
ROOT
ATOM      1  O1  BZF d   1       2.944   1.400  -1.715  0.00  0.00    -0.204 OA
ATOM      2  C2  BZF d   1       3.750   1.672  -0.627  0.00  0.00     0.174 A 
ATOM      3  C3  BZF d   1       3.693   0.669   0.273  0.00  0.00    -0.012 A 
ATOM      4  C3A BZF d   1       2.867  -0.332  -0.331  0.00  0.00    -0.107 A 
ATOM      5  C4  BZF d   1       2.450  -1.570   0.067  0.00  0.00     0.055 A 
ATOM      6  C5  BZF d   1       1.589  -2.262  -0.724  0.00  0.00    -0.016 A 
ATOM      7  C6  BZF d   1       1.121  -1.745  -1.915  0.00  0.00     0.022 A 
ATOM      8  C7  BZF d   1       1.511  -0.523  -2.353  0.00  0.00     0.029 A 
ATOM      9  C7A BZF d   1       2.407   0.165  -1.572  0.00  0.00     0.058 A 
ENDROOT
TORSDOF 0
ENDMDL
