MODEL 1
REMARK minimizedAffinity 7.65367079
REMARK minimizedRMSD -1
REMARK  0 active torsions:
REMARK  status: ('A' for Active; 'I' for Inactive)
ROOT
ATOM      1  O1  BZF d   1      -2.259   4.911  -5.995  0.00  0.00    -0.204 OA
ATOM      2  C2  BZF d   1      -3.640   4.877  -6.000  0.00  0.00     0.174 A 
ATOM      3  C3  BZF d   1      -4.092   3.720  -5.475  0.00  0.00    -0.012 A 
ATOM      4  C3A BZF d   1      -2.921   3.024  -5.035  0.00  0.00    -0.107 A 
ATOM      5  C4  BZF d   1      -2.720   1.824  -4.416  0.00  0.00     0.055 A 
ATOM      6  C5  BZF d   1      -1.448   1.402  -4.190  0.00  0.00    -0.016 A 
ATOM      7  C6  BZF d   1      -0.356   2.152  -4.574  0.00  0.00     0.022 A 
ATOM      8  C7  BZF d   1      -0.505   3.352  -5.187  0.00  0.00     0.029 A 
ATOM      9  C7A BZF d   1      -1.790   3.796  -5.387  0.00  0.00     0.058 A 
ENDROOT
TORSDOF 0
ENDMDL
