MODEL 1
REMARK minimizedAffinity 15.6070967
REMARK minimizedRMSD -1
REMARK  0 active torsions:
REMARK  status: ('A' for Active; 'I' for Inactive)
ROOT
ATOM      1  O1  BZF d   1      -5.012  -1.780   2.321  0.00  0.00    -0.204 OA
ATOM      2  C2  BZF d   1      -3.917  -1.587   3.142  0.00  0.00     0.174 A 
ATOM      3  C3  BZF d   1      -3.101  -2.660   3.111  0.00  0.00    -0.012 A 
ATOM      4  C3A BZF d   1      -3.677  -3.544   2.145  0.00  0.00    -0.107 A 
ATOM      5  C4  BZF d   1      -3.316  -4.768   1.660  0.00  0.00     0.055 A 
ATOM      6  C5  BZF d   1      -4.135  -5.396   0.776  0.00  0.00    -0.016 A 
ATOM      7  C6  BZF d   1      -5.323  -4.832   0.359  0.00  0.00     0.022 A 
ATOM      8  C7  BZF d   1      -5.721  -3.617   0.809  0.00  0.00     0.029 A 
ATOM      9  C7A BZF d   1      -4.879  -2.965   1.677  0.00  0.00     0.058 A 
ENDROOT
TORSDOF 0
ENDMDL
