MODEL 1
REMARK minimizedAffinity 12.8597107
REMARK minimizedRMSD -1
REMARK  0 active torsions:
REMARK  status: ('A' for Active; 'I' for Inactive)
ROOT
ATOM      1  O1  BZF d   1      -3.655   0.946   2.461  0.00  0.00    -0.204 OA
ATOM      2  C2  BZF d   1      -4.006  -0.043   1.561  0.00  0.00     0.174 A 
ATOM      3  C3  BZF d   1      -4.120  -1.235   2.181  0.00  0.00    -0.012 A 
ATOM      4  C3A BZF d   1      -3.911  -0.959   3.569  0.00  0.00    -0.107 A 
ATOM      5  C4  BZF d   1      -3.914  -1.737   4.692  0.00  0.00     0.055 A 
ATOM      6  C5  BZF d   1      -3.601  -1.171   5.888  0.00  0.00    -0.016 A 
ATOM      7  C6  BZF d   1      -3.276   0.165   5.996  0.00  0.00     0.022 A 
ATOM      8  C7  BZF d   1      -3.265   0.977   4.911  0.00  0.00     0.029 A 
ATOM      9  C7A BZF d   1      -3.612   0.416   3.707  0.00  0.00     0.058 A 
ENDROOT
TORSDOF 0
ENDMDL
