MODEL 1
REMARK minimizedAffinity 7.53910732
REMARK minimizedRMSD -1
REMARK  0 active torsions:
REMARK  status: ('A' for Active; 'I' for Inactive)
ROOT
ATOM      1  O1  BZF d   1      -4.671  -5.999  -5.999  0.00  0.00    -0.204 OA
ATOM      2  C2  BZF d   1      -5.972  -5.543  -5.907  0.00  0.00     0.174 A 
ATOM      3  C3  BZF d   1      -6.000  -4.204  -5.753  0.00  0.00    -0.012 A 
ATOM      4  C3A BZF d   1      -4.634  -3.786  -5.841  0.00  0.00    -0.107 A 
ATOM      5  C4  BZF d   1      -4.018  -2.569  -5.780  0.00  0.00     0.055 A 
ATOM      6  C5  BZF d   1      -2.661  -2.512  -5.827  0.00  0.00    -0.016 A 
ATOM      7  C6  BZF d   1      -1.890  -3.650  -5.930  0.00  0.00     0.022 A 
ATOM      8  C7  BZF d   1      -2.455  -4.880  -6.000  0.00  0.00     0.029 A 
ATOM      9  C7A BZF d   1      -3.828  -4.939  -5.985  0.00  0.00     0.058 A 
ENDROOT
TORSDOF 0
ENDMDL
