MODEL 1
REMARK minimizedAffinity 10.6783552
REMARK minimizedRMSD -1
REMARK  0 active torsions:
REMARK  status: ('A' for Active; 'I' for Inactive)
ROOT
ATOM      1  O1  BZF d   1       3.795  -2.455   0.297  0.00  0.00    -0.204 OA
ATOM      2  C2  BZF d   1       2.587  -3.006  -0.084  0.00  0.00     0.174 A 
ATOM      3  C3  BZF d   1       1.821  -2.091  -0.713  0.00  0.00    -0.012 A 
ATOM      4  C3A BZF d   1       2.636  -0.919  -0.807  0.00  0.00    -0.107 A 
ATOM      5  C4  BZF d   1       2.438   0.322  -1.344  0.00  0.00     0.055 A 
ATOM      6  C5  BZF d   1       3.408   1.263  -1.205  0.00  0.00    -0.016 A 
ATOM      7  C6  BZF d   1       4.584   1.001  -0.532  0.00  0.00     0.022 A 
ATOM      8  C7  BZF d   1       4.827  -0.215   0.012  0.00  0.00     0.029 A 
ATOM      9  C7A BZF d   1       3.863  -1.179  -0.155  0.00  0.00     0.058 A 
ENDROOT
TORSDOF 0
ENDMDL
