MODEL 1
REMARK minimizedAffinity 3.50180936
REMARK minimizedRMSD -1
REMARK  0 active torsions:
REMARK  status: ('A' for Active; 'I' for Inactive)
ROOT
ATOM      1  O1  BZF d   1       2.233  -4.590  -0.532  0.00  0.00    -0.204 OA
ATOM      2  C2  BZF d   1       2.948  -5.762  -0.384  0.00  0.00     0.174 A 
ATOM      3  C3  BZF d   1       3.708  -6.000  -1.472  0.00  0.00    -0.012 A 
ATOM      4  C3A BZF d   1       3.522  -4.860  -2.317  0.00  0.00    -0.107 A 
ATOM      5  C4  BZF d   1       4.026  -4.502  -3.535  0.00  0.00     0.055 A 
ATOM      6  C5  BZF d   1       3.587  -3.357  -4.121  0.00  0.00    -0.016 A 
ATOM      7  C6  BZF d   1       2.642  -2.551  -3.520  0.00  0.00     0.022 A 
ATOM      8  C7  BZF d   1       2.117  -2.862  -2.310  0.00  0.00     0.029 A 
ATOM      9  C7A BZF d   1       2.584  -4.001  -1.701  0.00  0.00     0.058 A 
ENDROOT
TORSDOF 0
ENDMDL
