MODEL 1
REMARK minimizedAffinity 5.39690971
REMARK minimizedRMSD -1
REMARK  0 active torsions:
REMARK  status: ('A' for Active; 'I' for Inactive)
ROOT
ATOM      1  O1  BZF d   1       0.701  -1.596  -2.533  0.00  0.00    -0.204 OA
ATOM      2  C2  BZF d   1       0.234  -2.889  -2.673  0.00  0.00     0.174 A 
ATOM      3  C3  BZF d   1       0.995  -3.751  -1.968  0.00  0.00    -0.012 A 
ATOM      4  C3A BZF d   1       1.945  -2.935  -1.276  0.00  0.00    -0.107 A 
ATOM      5  C4  BZF d   1       2.960  -3.210  -0.404  0.00  0.00     0.055 A 
ATOM      6  C5  BZF d   1       3.748  -2.194   0.033  0.00  0.00    -0.016 A 
ATOM      7  C6  BZF d   1       3.554  -0.893  -0.383  0.00  0.00     0.022 A 
ATOM      8  C7  BZF d   1       2.557  -0.571  -1.243  0.00  0.00     0.029 A 
ATOM      9  C7A BZF d   1       1.738  -1.591  -1.662  0.00  0.00     0.058 A 
ENDROOT
TORSDOF 0
ENDMDL
