MODEL 1
REMARK minimizedAffinity 7.99922085
REMARK minimizedRMSD -1
REMARK  0 active torsions:
REMARK  status: ('A' for Active; 'I' for Inactive)
ROOT
ATOM      1  O1  BZF d   1       4.346  -0.239   0.438  0.00  0.00    -0.204 OA
ATOM      2  C2  BZF d   1       4.339   1.098   0.091  0.00  0.00     0.174 A 
ATOM      3  C3  BZF d   1       3.476   1.325  -0.921  0.00  0.00    -0.012 A 
ATOM      4  C3A BZF d   1       2.840   0.066  -1.162  0.00  0.00    -0.107 A 
ATOM      5  C4  BZF d   1       1.875  -0.346  -2.036  0.00  0.00     0.055 A 
ATOM      6  C5  BZF d   1       1.529  -1.660  -2.067  0.00  0.00    -0.016 A 
ATOM      7  C6  BZF d   1       2.130  -2.588  -1.242  0.00  0.00     0.022 A 
ATOM      8  C7  BZF d   1       3.088  -2.226  -0.355  0.00  0.00     0.029 A 
ATOM      9  C7A BZF d   1       3.417  -0.894  -0.299  0.00  0.00     0.058 A 
ENDROOT
TORSDOF 0
ENDMDL
