MODEL 1
REMARK minimizedAffinity 9.52944851
REMARK minimizedRMSD -1
REMARK  0 active torsions:
REMARK  status: ('A' for Active; 'I' for Inactive)
ROOT
ATOM      1  O1  BZF d   1       1.606  -4.277  -2.266  0.00  0.00    -0.204 OA
ATOM      2  C2  BZF d   1       1.090  -4.142  -3.540  0.00  0.00     0.174 A 
ATOM      3  C3  BZF d   1       1.050  -2.844  -3.905  0.00  0.00    -0.012 A 
ATOM      4  C3A BZF d   1       1.658  -2.130  -2.824  0.00  0.00    -0.107 A 
ATOM      5  C4  BZF d   1       1.925  -0.809  -2.604  0.00  0.00     0.055 A 
ATOM      6  C5  BZF d   1       2.461  -0.434  -1.413  0.00  0.00    -0.016 A 
ATOM      7  C6  BZF d   1       2.739  -1.350  -0.420  0.00  0.00     0.022 A 
ATOM      8  C7  BZF d   1       2.497  -2.672  -0.595  0.00  0.00     0.029 A 
ATOM      9  C7A BZF d   1       1.985  -3.059  -1.809  0.00  0.00     0.058 A 
ENDROOT
TORSDOF 0
ENDMDL
