MODEL 1
REMARK minimizedAffinity 13.2698822
REMARK minimizedRMSD -1
REMARK  0 active torsions:
REMARK  status: ('A' for Active; 'I' for Inactive)
ROOT
ATOM      1  O1  BZF d   1       2.617  -1.346   0.018  0.00  0.00    -0.204 OA
ATOM      2  C2  BZF d   1       2.871  -2.620   0.490  0.00  0.00     0.174 A 
ATOM      3  C3  BZF d   1       2.592  -3.544  -0.452  0.00  0.00    -0.012 A 
ATOM      4  C3A BZF d   1       2.223  -2.796  -1.615  0.00  0.00    -0.107 A 
ATOM      5  C4  BZF d   1       1.852  -3.150  -2.881  0.00  0.00     0.055 A 
ATOM      6  C5  BZF d   1       1.485  -2.179  -3.758  0.00  0.00    -0.016 A 
ATOM      7  C6  BZF d   1       1.473  -0.846  -3.402  0.00  0.00     0.022 A 
ATOM      8  C7  BZF d   1       1.838  -0.445  -2.159  0.00  0.00     0.029 A 
ATOM      9  C7A BZF d   1       2.240  -1.422  -1.281  0.00  0.00     0.058 A 
ENDROOT
TORSDOF 0
ENDMDL
