MODEL 1
REMARK minimizedAffinity 7.44762659
REMARK minimizedRMSD -1
REMARK  0 active torsions:
REMARK  status: ('A' for Active; 'I' for Inactive)
ROOT
ATOM      1  O1  BZF d   1       1.547  -0.342  -2.691  0.00  0.00    -0.204 OA
ATOM      2  C2  BZF d   1       1.984   0.482  -1.672  0.00  0.00     0.174 A 
ATOM      3  C3  BZF d   1       2.341  -0.242  -0.592  0.00  0.00    -0.012 A 
ATOM      4  C3A BZF d   1       2.201  -1.609  -0.991  0.00  0.00    -0.107 A 
ATOM      5  C4  BZF d   1       2.421  -2.799  -0.359  0.00  0.00     0.055 A 
ATOM      6  C5  BZF d   1       2.116  -3.956  -1.003  0.00  0.00    -0.016 A 
ATOM      7  C6  BZF d   1       1.584  -3.959  -2.276  0.00  0.00     0.022 A 
ATOM      8  C7  BZF d   1       1.352  -2.804  -2.946  0.00  0.00     0.029 A 
ATOM      9  C7A BZF d   1       1.691  -1.634  -2.310  0.00  0.00     0.058 A 
ENDROOT
TORSDOF 0
ENDMDL
