MODEL 1
REMARK minimizedAffinity 11.7542791
REMARK minimizedRMSD -1
REMARK  0 active torsions:
REMARK  status: ('A' for Active; 'I' for Inactive)
ROOT
ATOM      1  O1  BZF d   1      -3.014   1.366   1.182  0.00  0.00    -0.204 OA
ATOM      2  C2  BZF d   1      -2.313   2.504   0.834  0.00  0.00     0.174 A 
ATOM      3  C3  BZF d   1      -1.550   2.929   1.862  0.00  0.00    -0.012 A 
ATOM      4  C3A BZF d   1      -1.718   1.945   2.887  0.00  0.00    -0.107 A 
ATOM      5  C4  BZF d   1      -1.204   1.801   4.144  0.00  0.00     0.055 A 
ATOM      6  C5  BZF d   1      -1.627   0.766   4.916  0.00  0.00    -0.016 A 
ATOM      7  C6  BZF d   1      -2.566  -0.139   4.466  0.00  0.00     0.022 A 
ATOM      8  C7  BZF d   1      -3.101  -0.041   3.225  0.00  0.00     0.029 A 
ATOM      9  C7A BZF d   1      -2.650   0.985   2.430  0.00  0.00     0.058 A 
ENDROOT
TORSDOF 0
ENDMDL
