MODEL 1
REMARK minimizedAffinity -5.88512564
REMARK minimizedRMSD -1
REMARK  1 active torsions:
REMARK  status: ('A' for Active; 'I' for Inactive)
REMARK    1  A    between atoms: C1_2  and  C2_3 
ROOT
ATOM      1  C2  UNL d   1       0.999   0.198  -1.079  0.00  0.00    -0.077 A 
ATOM      2  C3  UNL d   1       1.211   1.198  -2.039  0.00  0.00     0.002 A 
ATOM      3  C4  UNL d   1       1.430   2.520  -1.646  0.00  0.00     0.002 A 
ATOM      4  C5  UNL d   1       1.443   2.853  -0.293  0.00  0.00    -0.004 A 
ATOM      5  C6  UNL d   1       1.232   1.866   0.669  0.00  0.00     0.002 A 
ATOM      6  C7  UNL d   1       1.011   0.545   0.278  0.00  0.00     0.002 A 
ENDROOT
BRANCH   1   7
ATOM      7  C1  UNL d   1       0.812  -1.236  -1.499  0.00  0.00     0.055 C 
ATOM      8  C   UNL d   1       1.231  -2.196  -0.395  0.00  0.00     0.019 C 
ENDBRANCH   1   7
TORSDOF 1
ENDMDL
