MODEL 1
REMARK minimizedAffinity -1.94768655
REMARK minimizedRMSD -1
REMARK  1 active torsions:
REMARK  status: ('A' for Active; 'I' for Inactive)
REMARK    1  A    between atoms: C1_2  and  C2_3 
ROOT
ATOM      1  C2  UNL d   1       1.066   1.668  -0.130  0.00  0.00    -0.077 A 
ATOM      2  C3  UNL d   1       1.271   0.356   0.320  0.00  0.00     0.002 A 
ATOM      3  C4  UNL d   1       1.973  -0.560  -0.466  0.00  0.00     0.002 A 
ATOM      4  C5  UNL d   1       2.479  -0.172  -1.705  0.00  0.00    -0.004 A 
ATOM      5  C6  UNL d   1       2.279   1.130  -2.163  0.00  0.00     0.002 A 
ATOM      6  C7  UNL d   1       1.576   2.045  -1.379  0.00  0.00     0.002 A 
ENDROOT
BRANCH   1   7
ATOM      7  C1  UNL d   1       0.352   2.670   0.738  0.00  0.00     0.055 C 
ATOM      8  C   UNL d   1       0.997   4.045   0.642  0.00  0.00     0.019 C 
ENDBRANCH   1   7
TORSDOF 1
ENDMDL
