MODEL 1
REMARK minimizedAffinity -1.54314196
REMARK minimizedRMSD -1
REMARK  1 active torsions:
REMARK  status: ('A' for Active; 'I' for Inactive)
REMARK    1  A    between atoms: C1_2  and  C2_3 
ROOT
ATOM      1  C2  UNL d   1       1.815   3.031  -1.020  0.00  0.00    -0.077 A 
ATOM      2  C3  UNL d   1       1.429   2.907   0.322  0.00  0.00     0.002 A 
ATOM      3  C4  UNL d   1       0.939   1.693   0.806  0.00  0.00     0.002 A 
ATOM      4  C5  UNL d   1       0.834   0.593  -0.043  0.00  0.00    -0.004 A 
ATOM      5  C6  UNL d   1       1.213   0.707  -1.380  0.00  0.00     0.002 A 
ATOM      6  C7  UNL d   1       1.702   1.921  -1.866  0.00  0.00     0.002 A 
ENDROOT
BRANCH   1   7
ATOM      7  C1  UNL d   1       2.390   4.326  -1.532  0.00  0.00     0.055 C 
ATOM      8  C   UNL d   1       2.648   5.305  -0.396  0.00  0.00     0.019 C 
ENDBRANCH   1   7
TORSDOF 1
ENDMDL
