MODEL 1
REMARK minimizedAffinity -5.22128916
REMARK minimizedRMSD -1
REMARK  1 active torsions:
REMARK  status: ('A' for Active; 'I' for Inactive)
REMARK    1  A    between atoms: C1_2  and  C2_3 
ROOT
ATOM      1  C2  UNL d   1       1.199   2.570  -1.194  0.00  0.00    -0.077 A 
ATOM      2  C3  UNL d   1       0.797   2.409   0.139  0.00  0.00     0.002 A 
ATOM      3  C4  UNL d   1       0.719   1.135   0.704  0.00  0.00     0.002 A 
ATOM      4  C5  UNL d   1       1.043   0.013  -0.055  0.00  0.00    -0.004 A 
ATOM      5  C6  UNL d   1       1.441   0.162  -1.383  0.00  0.00     0.002 A 
ATOM      6  C7  UNL d   1       1.520   1.435  -1.950  0.00  0.00     0.002 A 
ENDROOT
BRANCH   1   7
ATOM      7  C1  UNL d   1       1.332   3.947  -1.791  0.00  0.00     0.055 C 
ATOM      8  C   UNL d   1       1.654   4.983  -0.724  0.00  0.00     0.019 C 
ENDBRANCH   1   7
TORSDOF 1
ENDMDL
