MODEL 1
REMARK minimizedAffinity 0.130402192
REMARK minimizedRMSD -1
REMARK  1 active torsions:
REMARK  status: ('A' for Active; 'I' for Inactive)
REMARK    1  A    between atoms: C1_2  and  C2_3 
ROOT
ATOM      1  C2  UNL d   1       1.435   1.705  -1.693  0.00  0.00    -0.077 A 
ATOM      2  C3  UNL d   1       1.608   1.805  -0.305  0.00  0.00     0.002 A 
ATOM      3  C4  UNL d   1       1.476   0.676   0.506  0.00  0.00     0.002 A 
ATOM      4  C5  UNL d   1       1.174  -0.560  -0.062  0.00  0.00    -0.004 A 
ATOM      5  C6  UNL d   1       0.998  -0.669  -1.441  0.00  0.00     0.002 A 
ATOM      6  C7  UNL d   1       1.128   0.459  -2.253  0.00  0.00     0.002 A 
ENDROOT
BRANCH   1   7
ATOM      7  C1  UNL d   1       1.626   2.912  -2.575  0.00  0.00     0.055 C 
ATOM      8  C   UNL d   1       2.370   4.020  -1.844  0.00  0.00     0.019 C 
ENDBRANCH   1   7
TORSDOF 1
ENDMDL
