MODEL 1
REMARK minimizedAffinity -2.40155864
REMARK minimizedRMSD -1
REMARK  1 active torsions:
REMARK  status: ('A' for Active; 'I' for Inactive)
REMARK    1  A    between atoms: C1_2  and  C2_3 
ROOT
ATOM      1  C2  UNL d   1       1.417   2.499  -1.576  0.00  0.00    -0.077 A 
ATOM      2  C3  UNL d   1       1.128   1.305  -2.253  0.00  0.00     0.002 A 
ATOM      3  C4  UNL d   1       0.928   0.121  -1.542  0.00  0.00     0.002 A 
ATOM      4  C5  UNL d   1       1.011   0.119  -0.151  0.00  0.00    -0.004 A 
ATOM      5  C6  UNL d   1       1.300   1.300   0.531  0.00  0.00     0.002 A 
ATOM      6  C7  UNL d   1       1.501   2.485  -0.178  0.00  0.00     0.002 A 
ENDROOT
BRANCH   1   7
ATOM      7  C1  UNL d   1       1.585   3.787  -2.339  0.00  0.00     0.055 C 
ATOM      8  C   UNL d   1       1.997   4.926  -1.417  0.00  0.00     0.019 C 
ENDBRANCH   1   7
TORSDOF 1
ENDMDL
