MODEL 1
REMARK minimizedAffinity -3.21657681
REMARK minimizedRMSD -1
REMARK  1 active torsions:
REMARK  status: ('A' for Active; 'I' for Inactive)
REMARK    1  A    between atoms: C1_2  and  C2_3 
ROOT
ATOM      1  C2  UNL d   1       1.248   0.654  -0.425  0.00  0.00    -0.077 A 
ATOM      2  C3  UNL d   1       1.449   1.212  -1.696  0.00  0.00     0.002 A 
ATOM      3  C4  UNL d   1       1.498   2.597  -1.859  0.00  0.00     0.002 A 
ATOM      4  C5  UNL d   1       1.352   3.436  -0.756  0.00  0.00    -0.004 A 
ATOM      5  C6  UNL d   1       1.149   2.891   0.511  0.00  0.00     0.002 A 
ATOM      6  C7  UNL d   1       1.098   1.506   0.676  0.00  0.00     0.002 A 
ENDROOT
BRANCH   1   7
ATOM      7  C1  UNL d   1       1.244  -0.841  -0.240  0.00  0.00     0.055 C 
ATOM      8  C   UNL d   1       1.015  -1.562  -1.561  0.00  0.00     0.019 C 
ENDBRANCH   1   7
TORSDOF 1
ENDMDL
