MODEL 1
REMARK minimizedAffinity -2.25342369
REMARK minimizedRMSD -1
REMARK  1 active torsions:
REMARK  status: ('A' for Active; 'I' for Inactive)
REMARK    1  A    between atoms: C1_2  and  C2_3 
ROOT
ATOM      1  C2  UNL d   1       1.076   1.187  -1.147  0.00  0.00    -0.077 A 
ATOM      2  C3  UNL d   1       0.977   1.609   0.186  0.00  0.00     0.002 A 
ATOM      3  C4  UNL d   1       1.155   2.954   0.515  0.00  0.00     0.002 A 
ATOM      4  C5  UNL d   1       1.427   3.888  -0.483  0.00  0.00    -0.004 A 
ATOM      5  C6  UNL d   1       1.528   3.477  -1.811  0.00  0.00     0.002 A 
ATOM      6  C7  UNL d   1       1.353   2.133  -2.142  0.00  0.00     0.002 A 
ENDROOT
BRANCH   1   7
ATOM      7  C1  UNL d   1       0.836  -0.256  -1.511  0.00  0.00     0.055 C 
ATOM      8  C   UNL d   1       1.234  -1.186  -0.374  0.00  0.00     0.019 C 
ENDBRANCH   1   7
TORSDOF 1
ENDMDL
