MODEL 1
REMARK minimizedAffinity 0.76091212
REMARK minimizedRMSD -1
REMARK  1 active torsions:
REMARK  status: ('A' for Active; 'I' for Inactive)
REMARK    1  A    between atoms: C1_2  and  C2_3 
ROOT
ATOM      1  C2  UNL d   1      -1.636  -4.102  -1.331  0.00  0.00    -0.077 A 
ATOM      2  C3  UNL d   1      -1.018  -4.902  -2.302  0.00  0.00     0.002 A 
ATOM      3  C4  UNL d   1      -1.296  -4.710  -3.657  0.00  0.00     0.002 A 
ATOM      4  C5  UNL d   1      -2.188  -3.715  -4.053  0.00  0.00    -0.004 A 
ATOM      5  C6  UNL d   1      -2.809  -2.916  -3.094  0.00  0.00     0.002 A 
ATOM      6  C7  UNL d   1      -2.534  -3.107  -1.740  0.00  0.00     0.002 A 
ENDROOT
BRANCH   1   7
ATOM      7  C1  UNL d   1      -1.300  -4.276   0.127  0.00  0.00     0.055 C 
ATOM      8  C   UNL d   1       0.142  -3.884   0.414  0.00  0.00     0.019 C 
ENDBRANCH   1   7
TORSDOF 1
ENDMDL
