MODEL 1
REMARK minimizedAffinity 0.825811684
REMARK minimizedRMSD -1
REMARK  1 active torsions:
REMARK  status: ('A' for Active; 'I' for Inactive)
REMARK    1  A    between atoms: C1_2  and  C2_3 
ROOT
ATOM      1  C2  UNL d   1      -2.864   2.746   3.892  0.00  0.00    -0.077 A 
ATOM      2  C3  UNL d   1      -2.425   3.723   2.988  0.00  0.00     0.002 A 
ATOM      3  C4  UNL d   1      -2.851   3.697   1.658  0.00  0.00     0.002 A 
ATOM      4  C5  UNL d   1      -3.721   2.700   1.223  0.00  0.00    -0.004 A 
ATOM      5  C6  UNL d   1      -4.162   1.722   2.114  0.00  0.00     0.002 A 
ATOM      6  C7  UNL d   1      -3.736   1.746   3.443  0.00  0.00     0.002 A 
ENDROOT
BRANCH   1   7
ATOM      7  C1  UNL d   1      -2.446   2.800   5.338  0.00  0.00     0.055 C 
ATOM      8  C   UNL d   1      -2.173   1.408   5.889  0.00  0.00     0.019 C 
ENDBRANCH   1   7
TORSDOF 1
ENDMDL
