MODEL 1
REMARK minimizedAffinity 1.09547484
REMARK minimizedRMSD -1
REMARK  1 active torsions:
REMARK  status: ('A' for Active; 'I' for Inactive)
REMARK    1  A    between atoms: C1_2  and  C2_3 
ROOT
ATOM      1  C2  UNL d   1       1.436   2.212  -1.281  0.00  0.00    -0.077 A 
ATOM      2  C3  UNL d   1       1.646   3.137  -2.314  0.00  0.00     0.002 A 
ATOM      3  C4  UNL d   1       1.612   4.508  -2.052  0.00  0.00     0.002 A 
ATOM      4  C5  UNL d   1       1.374   4.966  -0.758  0.00  0.00    -0.004 A 
ATOM      5  C6  UNL d   1       1.162   4.055   0.275  0.00  0.00     0.002 A 
ATOM      6  C7  UNL d   1       1.194   2.684   0.015  0.00  0.00     0.002 A 
ENDROOT
BRANCH   1   7
ATOM      7  C1  UNL d   1       1.520   0.733  -1.552  0.00  0.00     0.055 C 
ATOM      8  C   UNL d   1       2.203  -0.001  -0.407  0.00  0.00     0.019 C 
ENDBRANCH   1   7
TORSDOF 1
ENDMDL
