MODEL 1
REMARK minimizedAffinity -5.27523375
REMARK minimizedRMSD -1
REMARK  1 active torsions:
REMARK  status: ('A' for Active; 'I' for Inactive)
REMARK    1  A    between atoms: C1_2  and  C2_3 
ROOT
ATOM      1  C2  UNL d   1       1.496   3.577  -0.977  0.00  0.00    -0.077 A 
ATOM      2  C3  UNL d   1       1.427   2.431  -1.782  0.00  0.00     0.002 A 
ATOM      3  C4  UNL d   1       1.097   1.194  -1.223  0.00  0.00     0.002 A 
ATOM      4  C5  UNL d   1       0.829   1.093   0.140  0.00  0.00    -0.004 A 
ATOM      5  C6  UNL d   1       0.897   2.227   0.949  0.00  0.00     0.002 A 
ATOM      6  C7  UNL d   1       1.228   3.463   0.393  0.00  0.00     0.002 A 
ENDROOT
BRANCH   1   7
ATOM      7  C1  UNL d   1       1.804   4.920  -1.586  0.00  0.00     0.055 C 
ATOM      8  C   UNL d   1       1.916   5.999  -0.519  0.00  0.00     0.019 C 
ENDBRANCH   1   7
TORSDOF 1
ENDMDL
