MODEL 1
REMARK minimizedAffinity -1.47739935
REMARK minimizedRMSD -1
REMARK  0 active torsions:
REMARK  status: ('A' for Active; 'I' for Inactive)
ROOT
ATOM      1  N1  IND d   1       1.304  -0.930   1.785  0.00  0.00    -0.196 N 
ATOM      2  C2  IND d   1       2.296  -0.034   2.072  0.00  0.00     0.054 A 
ATOM      3  C3  IND d   1       2.161   1.077   1.314  0.00  0.00    -0.031 A 
ATOM      4  C4  IND d   1       0.327   1.682  -0.389  0.00  0.00     0.051 A 
ATOM      5  C5  IND d   1      -0.772   1.167  -1.016  0.00  0.00    -0.031 A 
ATOM      6  C6  IND d   1      -1.247  -0.097  -0.735  0.00  0.00     0.015 A 
ATOM      7  C7  IND d   1      -0.644  -0.893   0.198  0.00  0.00    -0.016 A 
ATOM      8  C8  IND d   1       0.477  -0.377   0.832  0.00  0.00    -0.047 A 
ATOM      9  C9  IND d   1       0.988   0.889   0.519  0.00  0.00    -0.096 A 
ATOM     10  HN1 IND d   1       1.211  -1.707   2.140  0.00  0.00     0.298 HD
ENDROOT
TORSDOF 0
ENDMDL
