MODEL 1
REMARK minimizedAffinity 0.14815338
REMARK minimizedRMSD -1
REMARK  0 active torsions:
REMARK  status: ('A' for Active; 'I' for Inactive)
ROOT
ATOM      1  N1  IND d   1       2.181  -0.769   1.380  0.00  0.00    -0.196 N 
ATOM      2  C2  IND d   1       2.971   0.299   1.700  0.00  0.00     0.054 A 
ATOM      3  C3  IND d   1       2.366   1.455   1.345  0.00  0.00    -0.031 A 
ATOM      4  C4  IND d   1       0.036   1.833   0.319  0.00  0.00     0.051 A 
ATOM      5  C5  IND d   1      -1.041   1.160  -0.186  0.00  0.00    -0.031 A 
ATOM      6  C6  IND d   1      -1.102  -0.219  -0.191  0.00  0.00     0.015 A 
ATOM      7  C7  IND d   1      -0.088  -0.978   0.320  0.00  0.00    -0.016 A 
ATOM      8  C8  IND d   1       1.010  -0.298   0.826  0.00  0.00    -0.047 A 
ATOM      9  C9  IND d   1       1.096   1.100   0.796  0.00  0.00    -0.096 A 
ATOM     10  HN1 IND d   1       2.381  -1.596   1.504  0.00  0.00     0.298 HD
ENDROOT
TORSDOF 0
ENDMDL
