MODEL 1
REMARK minimizedAffinity -4.5996294
REMARK minimizedRMSD -1
REMARK  0 active torsions:
REMARK  status: ('A' for Active; 'I' for Inactive)
ROOT
ATOM      1  N1  IND d   1       0.810   0.550  -2.003  0.00  0.00    -0.196 N 
ATOM      2  C2  IND d   1       0.918   0.725  -0.651  0.00  0.00     0.054 A 
ATOM      3  C3  IND d   1      -0.297   0.631  -0.066  0.00  0.00    -0.031 A 
ATOM      4  C4  IND d   1      -2.583   0.093  -1.120  0.00  0.00     0.051 A 
ATOM      5  C5  IND d   1      -3.192  -0.110  -2.327  0.00  0.00    -0.031 A 
ATOM      6  C6  IND d   1      -2.483  -0.106  -3.511  0.00  0.00     0.015 A 
ATOM      7  C7  IND d   1      -1.131   0.090  -3.531  0.00  0.00    -0.016 A 
ATOM      8  C8  IND d   1      -0.511   0.304  -2.308  0.00  0.00    -0.047 A 
ATOM      9  C9  IND d   1      -1.231   0.344  -1.108  0.00  0.00    -0.096 A 
ATOM     10  HN1 IND d   1       1.458   0.587  -2.567  0.00  0.00     0.298 HD
ENDROOT
TORSDOF 0
ENDMDL
