MODEL 1
REMARK minimizedAffinity 1.07118607
REMARK minimizedRMSD -1
REMARK  0 active torsions:
REMARK  status: ('A' for Active; 'I' for Inactive)
ROOT
ATOM      1  N1  IND d   1       0.064  -0.716  -0.082  0.00  0.00    -0.196 N 
ATOM      2  C2  IND d   1       0.307   0.512   0.468  0.00  0.00     0.054 A 
ATOM      3  C3  IND d   1      -0.480   1.449  -0.107  0.00  0.00    -0.031 A 
ATOM      4  C4  IND d   1      -2.310   1.173  -1.896  0.00  0.00     0.051 A 
ATOM      5  C5  IND d   1      -2.871   0.247  -2.729  0.00  0.00    -0.031 A 
ATOM      6  C6  IND d   1      -2.477  -1.076  -2.720  0.00  0.00     0.015 A 
ATOM      7  C7  IND d   1      -1.510  -1.525  -1.866  0.00  0.00    -0.016 A 
ATOM      8  C8  IND d   1      -0.933  -0.585  -1.023  0.00  0.00    -0.047 A 
ATOM      9  C9  IND d   1      -1.299   0.767  -1.058  0.00  0.00    -0.096 A 
ATOM     10  HN1 IND d   1       0.466  -1.447   0.126  0.00  0.00     0.298 HD
ENDROOT
TORSDOF 0
ENDMDL
