MODEL 1
REMARK minimizedAffinity -0.598939955
REMARK minimizedRMSD -1
REMARK  0 active torsions:
REMARK  status: ('A' for Active; 'I' for Inactive)
ROOT
ATOM      1  N1  IND d   1      -1.422   0.652  -0.120  0.00  0.00    -0.196 N 
ATOM      2  C2  IND d   1      -1.839  -0.511  -0.705  0.00  0.00     0.054 A 
ATOM      3  C3  IND d   1      -0.800  -1.366  -0.846  0.00  0.00    -0.031 A 
ATOM      4  C4  IND d   1       1.647  -1.102  -0.093  0.00  0.00     0.051 A 
ATOM      5  C5  IND d   1       2.515  -0.198   0.454  0.00  0.00    -0.031 A 
ATOM      6  C6  IND d   1       2.105   1.059   0.848  0.00  0.00     0.015 A 
ATOM      7  C7  IND d   1       0.805   1.457   0.720  0.00  0.00    -0.016 A 
ATOM      8  C8  IND d   1      -0.077   0.545   0.158  0.00  0.00    -0.047 A 
ATOM      9  C9  IND d   1       0.341  -0.717  -0.283  0.00  0.00    -0.096 A 
ATOM     10  HN1 IND d   1      -1.917   1.335   0.047  0.00  0.00     0.298 HD
ENDROOT
TORSDOF 0
ENDMDL
