MODEL 1
REMARK minimizedAffinity -1.78677106
REMARK minimizedRMSD -1
REMARK  0 active torsions:
REMARK  status: ('A' for Active; 'I' for Inactive)
ROOT
ATOM      1  N1  IND d   1      -1.398   0.683  -0.269  0.00  0.00    -0.196 N 
ATOM      2  C2  IND d   1      -0.620   1.786  -0.486  0.00  0.00     0.054 A 
ATOM      3  C3  IND d   1       0.678   1.503  -0.233  0.00  0.00    -0.031 A 
ATOM      4  C4  IND d   1       1.762  -0.730   0.448  0.00  0.00     0.051 A 
ATOM      5  C5  IND d   1       1.454  -2.014   0.802  0.00  0.00    -0.031 A 
ATOM      6  C6  IND d   1       0.153  -2.474   0.815  0.00  0.00     0.015 A 
ATOM      7  C7  IND d   1      -0.892  -1.667   0.461  0.00  0.00    -0.016 A 
ATOM      8  C8  IND d   1      -0.583  -0.361   0.108  0.00  0.00    -0.047 A 
ATOM      9  C9  IND d   1       0.731   0.123   0.134  0.00  0.00    -0.096 A 
ATOM     10  HN1 IND d   1      -2.253   0.648  -0.354  0.00  0.00     0.298 HD
ENDROOT
TORSDOF 0
ENDMDL
