MODEL 1
REMARK minimizedAffinity -3.63941526
REMARK minimizedRMSD -1
REMARK  0 active torsions:
REMARK  status: ('A' for Active; 'I' for Inactive)
ROOT
ATOM      1  N1  IND d   1      -0.865  -0.613   0.412  0.00  0.00    -0.196 N 
ATOM      2  C2  IND d   1      -0.834   0.519  -0.353  0.00  0.00     0.054 A 
ATOM      3  C3  IND d   1       0.329   1.183  -0.164  0.00  0.00    -0.031 A 
ATOM      4  C4  IND d   1       2.364   0.539   1.275  0.00  0.00     0.051 A 
ATOM      5  C5  IND d   1       2.791  -0.389   2.183  0.00  0.00    -0.031 A 
ATOM      6  C6  IND d   1       2.006  -1.462   2.553  0.00  0.00     0.015 A 
ATOM      7  C7  IND d   1       0.764  -1.655   2.017  0.00  0.00    -0.016 A 
ATOM      8  C8  IND d   1       0.324  -0.710   1.100  0.00  0.00    -0.047 A 
ATOM      9  C9  IND d   1       1.099   0.404   0.753  0.00  0.00    -0.096 A 
ATOM     10  HN1 IND d   1      -1.518  -1.171   0.456  0.00  0.00     0.298 HD
ENDROOT
TORSDOF 0
ENDMDL
