MODEL 1
REMARK minimizedAffinity -4.12496758
REMARK minimizedRMSD -1
REMARK  0 active torsions:
REMARK  status: ('A' for Active; 'I' for Inactive)
ROOT
ATOM      1  N1  IND d   1      -1.530  -0.348   0.661  0.00  0.00    -0.196 N 
ATOM      2  C2  IND d   1      -2.167   0.347  -0.329  0.00  0.00     0.054 A 
ATOM      3  C3  IND d   1      -1.282   1.101  -1.019  0.00  0.00    -0.031 A 
ATOM      4  C4  IND d   1       1.274   1.271  -0.758  0.00  0.00     0.051 A 
ATOM      5  C5  IND d   1       2.306   0.852   0.033  0.00  0.00    -0.031 A 
ATOM      6  C6  IND d   1       2.109  -0.007   1.094  0.00  0.00     0.015 A 
ATOM      7  C7  IND d   1       0.868  -0.491   1.398  0.00  0.00    -0.016 A 
ATOM      8  C8  IND d   1      -0.184  -0.063   0.601  0.00  0.00    -0.047 A 
ATOM      9  C9  IND d   1       0.004   0.843  -0.451  0.00  0.00    -0.096 A 
ATOM     10  HN1 IND d   1      -1.907  -0.874   1.227  0.00  0.00     0.298 HD
ENDROOT
TORSDOF 0
ENDMDL
