MODEL 1
REMARK minimizedAffinity -1.97611177
REMARK minimizedRMSD -1
REMARK  0 active torsions:
REMARK  status: ('A' for Active; 'I' for Inactive)
ROOT
ATOM      1  C   UNL d   1       0.766  -5.705  -0.398  0.00  0.00     0.172 C 
ATOM      2  N   UNL d   1       0.569  -4.412  -1.011  0.00  0.00    -0.070 N 
ATOM      3  C1  UNL d   1      -0.446  -4.082  -1.869  0.00  0.00    -0.004 A 
ATOM      4  C2  UNL d   1      -0.282  -2.762  -2.229  0.00  0.00    -0.047 A 
ATOM      5  C3  UNL d   1       0.871  -2.282  -1.563  0.00  0.00    -0.047 A 
ATOM      6  C4  UNL d   1       1.378  -3.324  -0.816  0.00  0.00    -0.004 A 
ENDROOT
TORSDOF 0
ENDMDL
