MODEL 1
REMARK minimizedAffinity -2.36574912
REMARK minimizedRMSD -1
REMARK  0 active torsions:
REMARK  status: ('A' for Active; 'I' for Inactive)
ROOT
ATOM      1  C   UNL d   1       1.005  -0.367  -0.752  0.00  0.00     0.172 C 
ATOM      2  N   UNL d   1       0.720  -1.548  -1.532  0.00  0.00    -0.070 N 
ATOM      3  C1  UNL d   1       0.123  -1.567  -2.764  0.00  0.00    -0.004 A 
ATOM      4  C2  UNL d   1       0.032  -2.881  -3.169  0.00  0.00    -0.047 A 
ATOM      5  C3  UNL d   1       0.593  -3.680  -2.145  0.00  0.00    -0.047 A 
ATOM      6  C4  UNL d   1       1.011  -2.829  -1.143  0.00  0.00    -0.004 A 
ENDROOT
TORSDOF 0
ENDMDL
