MODEL 1
REMARK minimizedAffinity -1.27031946
REMARK minimizedRMSD -1
REMARK  0 active torsions:
REMARK  status: ('A' for Active; 'I' for Inactive)
ROOT
ATOM      1  C   UNL d   1      -0.551   0.211   0.327  0.00  0.00     0.172 C 
ATOM      2  N   UNL d   1      -0.656   1.645   0.455  0.00  0.00    -0.070 N 
ATOM      3  C1  UNL d   1      -1.268   2.312   1.482  0.00  0.00    -0.004 A 
ATOM      4  C2  UNL d   1      -1.154   3.663   1.236  0.00  0.00    -0.047 A 
ATOM      5  C3  UNL d   1      -0.449   3.813   0.018  0.00  0.00    -0.047 A 
ATOM      6  C4  UNL d   1      -0.154   2.548  -0.444  0.00  0.00    -0.004 A 
ENDROOT
TORSDOF 0
ENDMDL
