MODEL 1
REMARK minimizedAffinity -2.32433295
REMARK minimizedRMSD -1
REMARK  0 active torsions:
REMARK  status: ('A' for Active; 'I' for Inactive)
ROOT
ATOM      1  C   UNL d   1      -1.210   1.523   1.913  0.00  0.00     0.172 C 
ATOM      2  N   UNL d   1      -0.345   0.981   0.892  0.00  0.00    -0.070 N 
ATOM      3  C1  UNL d   1       0.249   1.697  -0.113  0.00  0.00    -0.004 A 
ATOM      4  C2  UNL d   1       0.991   0.821  -0.874  0.00  0.00    -0.047 A 
ATOM      5  C3  UNL d   1       0.838  -0.467  -0.307  0.00  0.00    -0.047 A 
ATOM      6  C4  UNL d   1       0.005  -0.338   0.784  0.00  0.00    -0.004 A 
ENDROOT
TORSDOF 0
ENDMDL
