MODEL 1
REMARK minimizedAffinity -1.47964764
REMARK minimizedRMSD -1
REMARK  0 active torsions:
REMARK  status: ('A' for Active; 'I' for Inactive)
ROOT
ATOM      1  C   UNL d   1       0.185   0.002  -0.734  0.00  0.00     0.172 C 
ATOM      2  N   UNL d   1       0.341  -1.332  -1.265  0.00  0.00    -0.070 N 
ATOM      3  C1  UNL d   1       0.039  -1.724  -2.542  0.00  0.00    -0.004 A 
ATOM      4  C2  UNL d   1       0.329  -3.067  -2.651  0.00  0.00    -0.047 A 
ATOM      5  C3  UNL d   1       0.821  -3.497  -1.396  0.00  0.00    -0.047 A 
ATOM      6  C4  UNL d   1       0.818  -2.403  -0.556  0.00  0.00    -0.004 A 
ENDROOT
TORSDOF 0
ENDMDL
