MODEL 1
REMARK minimizedAffinity -2.84292006
REMARK minimizedRMSD -1
REMARK  0 active torsions:
REMARK  status: ('A' for Active; 'I' for Inactive)
ROOT
ATOM      1  C   UNL d   1       0.810  -0.059  -0.050  0.00  0.00     0.172 C 
ATOM      2  N   UNL d   1       0.732  -1.219  -0.906  0.00  0.00    -0.070 N 
ATOM      3  C1  UNL d   1       1.495  -2.351  -0.787  0.00  0.00    -0.004 A 
ATOM      4  C2  UNL d   1       1.118  -3.220  -1.788  0.00  0.00    -0.047 A 
ATOM      5  C3  UNL d   1       0.095  -2.589  -2.535  0.00  0.00    -0.047 A 
ATOM      6  C4  UNL d   1      -0.124  -1.352  -1.967  0.00  0.00    -0.004 A 
ENDROOT
TORSDOF 0
ENDMDL
