MODEL 1
REMARK minimizedAffinity -1.84122324
REMARK minimizedRMSD -1
REMARK  0 active torsions:
REMARK  status: ('A' for Active; 'I' for Inactive)
ROOT
ATOM      1  C   UNL d   1       0.126  -0.517   1.193  0.00  0.00     0.172 C 
ATOM      2  N   UNL d   1       0.724  -1.046  -0.011  0.00  0.00    -0.070 N 
ATOM      3  C1  UNL d   1       0.287  -2.143  -0.704  0.00  0.00    -0.004 A 
ATOM      4  C2  UNL d   1       1.121  -2.318  -1.787  0.00  0.00    -0.047 A 
ATOM      5  C3  UNL d   1       2.094  -1.291  -1.742  0.00  0.00    -0.047 A 
ATOM      6  C4  UNL d   1       1.825  -0.518  -0.632  0.00  0.00    -0.004 A 
ENDROOT
TORSDOF 0
ENDMDL
