MODEL 1
REMARK minimizedAffinity -2.63875651
REMARK minimizedRMSD -1
REMARK  0 active torsions:
REMARK  status: ('A' for Active; 'I' for Inactive)
ROOT
ATOM      1  C   UNL d   1       0.587  -0.970  -0.610  0.00  0.00     0.172 C 
ATOM      2  N   UNL d   1      -0.116  -0.160   0.357  0.00  0.00    -0.070 N 
ATOM      3  C1  UNL d   1      -0.782  -0.629   1.458  0.00  0.00    -0.004 A 
ATOM      4  C2  UNL d   1      -1.316   0.454   2.122  0.00  0.00    -0.047 A 
ATOM      5  C3  UNL d   1      -0.959   1.614   1.395  0.00  0.00    -0.047 A 
ATOM      6  C4  UNL d   1      -0.217   1.205   0.307  0.00  0.00    -0.004 A 
ENDROOT
TORSDOF 0
ENDMDL
