MODEL 1
REMARK minimizedAffinity -2.03534245
REMARK minimizedRMSD -1
REMARK  0 active torsions:
REMARK  status: ('A' for Active; 'I' for Inactive)
ROOT
ATOM      1  C   UNL d   1       0.651  -0.334  -1.100  0.00  0.00     0.172 C 
ATOM      2  N   UNL d   1       0.668  -1.682  -1.620  0.00  0.00    -0.070 N 
ATOM      3  C1  UNL d   1       0.113  -2.089  -2.803  0.00  0.00    -0.004 A 
ATOM      4  C2  UNL d   1       0.344  -3.441  -2.935  0.00  0.00    -0.047 A 
ATOM      5  C3  UNL d   1       1.062  -3.862  -1.790  0.00  0.00    -0.047 A 
ATOM      6  C4  UNL d   1       1.249  -2.753  -0.993  0.00  0.00    -0.004 A 
ENDROOT
TORSDOF 0
ENDMDL
