MODEL 1
REMARK minimizedAffinity -1.66887963
REMARK minimizedRMSD -1
REMARK  0 active torsions:
REMARK  status: ('A' for Active; 'I' for Inactive)
ROOT
ATOM      1  C   UNL d   1       1.000  -1.153  -0.744  0.00  0.00     0.172 C 
ATOM      2  N   UNL d   1       0.472  -2.114  -1.684  0.00  0.00    -0.070 N 
ATOM      3  C1  UNL d   1       0.259  -3.443  -1.433  0.00  0.00    -0.004 A 
ATOM      4  C2  UNL d   1      -0.251  -4.013  -2.579  0.00  0.00    -0.047 A 
ATOM      5  C3  UNL d   1      -0.346  -2.992  -3.554  0.00  0.00    -0.047 A 
ATOM      6  C4  UNL d   1       0.108  -1.827  -2.973  0.00  0.00    -0.004 A 
ENDROOT
TORSDOF 0
ENDMDL
