MODEL 1
REMARK minimizedAffinity -2.24622464
REMARK minimizedRMSD -1
REMARK  0 active torsions:
REMARK  status: ('A' for Active; 'I' for Inactive)
ROOT
ATOM      1  C   UNL d   1       0.381  -0.123  -0.154  0.00  0.00     0.172 C 
ATOM      2  N   UNL d   1       0.565  -1.243  -1.047  0.00  0.00    -0.070 N 
ATOM      3  C1  UNL d   1       1.404  -2.304  -0.835  0.00  0.00    -0.004 A 
ATOM      4  C2  UNL d   1       1.291  -3.154  -1.914  0.00  0.00    -0.047 A 
ATOM      5  C3  UNL d   1       0.352  -2.583  -2.806  0.00  0.00    -0.047 A 
ATOM      6  C4  UNL d   1      -0.081  -1.401  -2.245  0.00  0.00    -0.004 A 
ENDROOT
TORSDOF 0
ENDMDL
