MODEL 1
REMARK minimizedAffinity -2.37036133
REMARK minimizedRMSD -1
REMARK  0 active torsions:
REMARK  status: ('A' for Active; 'I' for Inactive)
ROOT
ATOM      1  C   UNL d   1      -1.274   2.606   0.981  0.00  0.00     0.172 C 
ATOM      2  N   UNL d   1      -0.721   1.283   0.811  0.00  0.00    -0.070 N 
ATOM      3  C1  UNL d   1      -0.604   0.335   1.793  0.00  0.00    -0.004 A 
ATOM      4  C2  UNL d   1      -0.031  -0.786   1.231  0.00  0.00    -0.047 A 
ATOM      5  C3  UNL d   1       0.205  -0.501  -0.135  0.00  0.00    -0.047 A 
ATOM      6  C4  UNL d   1      -0.231   0.786  -0.368  0.00  0.00    -0.004 A 
ENDROOT
TORSDOF 0
ENDMDL
