MODEL 1
REMARK minimizedAffinity -2.52889848
REMARK minimizedRMSD -1
REMARK  0 active torsions:
REMARK  status: ('A' for Active; 'I' for Inactive)
ROOT
ATOM      1  C   UNL d   1       0.217  -1.073  -0.845  0.00  0.00     0.172 C 
ATOM      2  N   UNL d   1      -0.169  -0.118   0.168  0.00  0.00    -0.070 N 
ATOM      3  C1  UNL d   1       0.049   1.233   0.115  0.00  0.00    -0.004 A 
ATOM      4  C2  UNL d   1      -0.465   1.788   1.267  0.00  0.00    -0.047 A 
ATOM      5  C3  UNL d   1      -1.009   0.735   2.039  0.00  0.00    -0.047 A 
ATOM      6  C4  UNL d   1      -0.812  -0.434   1.335  0.00  0.00    -0.004 A 
ENDROOT
TORSDOF 0
ENDMDL
