MODEL 1
REMARK minimizedAffinity -0.123258494
REMARK minimizedRMSD -1
REMARK  0 active torsions:
REMARK  status: ('A' for Active; 'I' for Inactive)
ROOT
ATOM      1  C   UNL d   1       0.340  -1.000  -0.315  0.00  0.00     0.172 C 
ATOM      2  N   UNL d   1      -0.219  -0.258   0.791  0.00  0.00    -0.070 N 
ATOM      3  C1  UNL d   1       0.385   0.787   1.438  0.00  0.00    -0.004 A 
ATOM      4  C2  UNL d   1      -0.469   1.221   2.429  0.00  0.00    -0.047 A 
ATOM      5  C3  UNL d   1      -1.626   0.408   2.376  0.00  0.00    -0.047 A 
ATOM      6  C4  UNL d   1      -1.444  -0.499   1.353  0.00  0.00    -0.004 A 
ENDROOT
TORSDOF 0
ENDMDL
