MODEL 1
REMARK minimizedAffinity -3.28210711
REMARK minimizedRMSD -1
REMARK  0 active torsions:
REMARK  status: ('A' for Active; 'I' for Inactive)
ROOT
ATOM      1  C1  DEN d   1      -2.708  -0.921   0.878  0.00  0.00     0.130 A 
ATOM      2  C2  DEN d   1      -3.327  -1.433  -0.342  0.00  0.00    -0.031 A 
ATOM      3  C3  DEN d   1      -2.373  -1.242  -1.452  0.00  0.00     0.027 A 
ATOM      4  C4  DEN d   1      -0.008  -0.213  -1.401  0.00  0.00     0.027 A 
ATOM      5  C5  DEN d   1       0.944   0.373  -0.597  0.00  0.00    -0.003 A 
ATOM      6  C6  DEN d   1       0.734   0.598   0.738  0.00  0.00     0.001 A 
ATOM      7  C7  DEN d   1      -0.439   0.193   1.318  0.00  0.00     0.017 A 
ATOM      8  C8  DEN d   1      -1.407  -0.392   0.512  0.00  0.00    -0.094 A 
ATOM      9  C9  DEN d   1      -1.171  -0.621  -0.833  0.00  0.00    -0.072 A 
ENDROOT
TORSDOF 0
ENDMDL
