MODEL 1
REMARK minimizedAffinity -2.76292014
REMARK minimizedRMSD -1
REMARK  0 active torsions:
REMARK  status: ('A' for Active; 'I' for Inactive)
ROOT
ATOM      1  C1  DEN d   1       0.961  -0.526   0.312  0.00  0.00     0.130 A 
ATOM      2  C2  DEN d   1       0.536  -1.323   1.459  0.00  0.00    -0.031 A 
ATOM      3  C3  DEN d   1      -0.774  -1.924   1.137  0.00  0.00     0.027 A 
ATOM      4  C4  DEN d   1      -2.175  -1.703  -1.017  0.00  0.00     0.027 A 
ATOM      5  C5  DEN d   1      -2.231  -1.123  -2.265  0.00  0.00    -0.003 A 
ATOM      6  C6  DEN d   1      -1.252  -0.282  -2.724  0.00  0.00     0.001 A 
ATOM      7  C7  DEN d   1      -0.151  -0.034  -1.947  0.00  0.00     0.017 A 
ATOM      8  C8  DEN d   1      -0.091  -0.610  -0.685  0.00  0.00    -0.094 A 
ATOM      9  C9  DEN d   1      -1.085  -1.467  -0.244  0.00  0.00    -0.072 A 
ENDROOT
TORSDOF 0
ENDMDL
