MODEL 1
REMARK minimizedAffinity -5.69747877
REMARK minimizedRMSD -1
REMARK  0 active torsions:
REMARK  status: ('A' for Active; 'I' for Inactive)
ROOT
ATOM      1  C1  DEN d   1      -2.025  -0.248  -0.335  0.00  0.00     0.130 A 
ATOM      2  C2  DEN d   1      -2.174  -0.827   0.998  0.00  0.00    -0.031 A 
ATOM      3  C3  DEN d   1      -2.406  -2.277   0.843  0.00  0.00     0.027 A 
ATOM      4  C4  DEN d   1      -2.543  -3.676  -1.320  0.00  0.00     0.027 A 
ATOM      5  C5  DEN d   1      -2.490  -3.624  -2.695  0.00  0.00    -0.003 A 
ATOM      6  C6  DEN d   1      -2.314  -2.449  -3.376  0.00  0.00     0.001 A 
ATOM      7  C7  DEN d   1      -2.139  -1.281  -2.680  0.00  0.00     0.017 A 
ATOM      8  C8  DEN d   1      -2.198  -1.324  -1.294  0.00  0.00    -0.094 A 
ATOM      9  C9  DEN d   1      -2.365  -2.524  -0.624  0.00  0.00    -0.072 A 
ENDROOT
TORSDOF 0
ENDMDL
