MODEL 1
REMARK minimizedAffinity -3.32643032
REMARK minimizedRMSD -1
REMARK  0 active torsions:
REMARK  status: ('A' for Active; 'I' for Inactive)
ROOT
ATOM      1  C1  DEN d   1       0.158  -0.432  -1.003  0.00  0.00     0.130 A 
ATOM      2  C2  DEN d   1      -0.649   0.272  -1.995  0.00  0.00    -0.031 A 
ATOM      3  C3  DEN d   1      -2.070  -0.019  -1.718  0.00  0.00     0.027 A 
ATOM      4  C4  DEN d   1      -3.093  -1.479   0.146  0.00  0.00     0.027 A 
ATOM      5  C5  DEN d   1      -2.806  -2.289   1.222  0.00  0.00    -0.003 A 
ATOM      6  C6  DEN d   1      -1.521  -2.562   1.608  0.00  0.00     0.001 A 
ATOM      7  C7  DEN d   1      -0.474  -1.984   0.940  0.00  0.00     0.017 A 
ATOM      8  C8  DEN d   1      -0.755  -1.172  -0.150  0.00  0.00    -0.094 A 
ATOM      9  C9  DEN d   1      -2.062  -0.898  -0.518  0.00  0.00    -0.072 A 
ENDROOT
TORSDOF 0
ENDMDL
