MODEL 1
REMARK minimizedAffinity -5.30370903
REMARK minimizedRMSD -1
REMARK  0 active torsions:
REMARK  status: ('A' for Active; 'I' for Inactive)
ROOT
ATOM      1  C1  DEN d   1      -3.074  -2.319   0.152  0.00  0.00     0.130 A 
ATOM      2  C2  DEN d   1      -2.267  -2.915   1.213  0.00  0.00    -0.031 A 
ATOM      3  C3  DEN d   1      -0.982  -2.190   1.271  0.00  0.00     0.027 A 
ATOM      4  C4  DEN d   1      -0.170  -0.209  -0.168  0.00  0.00     0.027 A 
ATOM      5  C5  DEN d   1      -0.502   0.636  -1.204  0.00  0.00    -0.003 A 
ATOM      6  C6  DEN d   1      -1.690   0.534  -1.877  0.00  0.00     0.001 A 
ATOM      7  C7  DEN d   1      -2.610  -0.405  -1.493  0.00  0.00     0.017 A 
ATOM      8  C8  DEN d   1      -2.280  -1.266  -0.454  0.00  0.00    -0.094 A 
ATOM      9  C9  DEN d   1      -1.078  -1.139   0.222  0.00  0.00    -0.072 A 
ENDROOT
TORSDOF 0
ENDMDL
