MODEL 1
REMARK minimizedAffinity -2.70121264
REMARK minimizedRMSD -1
REMARK  0 active torsions:
REMARK  status: ('A' for Active; 'I' for Inactive)
ROOT
ATOM      1  C1  DEN d   1       0.582   0.373  -0.143  0.00  0.00     0.130 A 
ATOM      2  C2  DEN d   1       0.578   0.875   1.228  0.00  0.00    -0.031 A 
ATOM      3  C3  DEN d   1      -0.773   0.669   1.786  0.00  0.00     0.027 A 
ATOM      4  C4  DEN d   1      -2.848  -0.379   0.669  0.00  0.00     0.027 A 
ATOM      5  C5  DEN d   1      -3.335  -0.941  -0.491  0.00  0.00    -0.003 A 
ATOM      6  C6  DEN d   1      -2.567  -1.073  -1.617  0.00  0.00     0.001 A 
ATOM      7  C7  DEN d   1      -1.256  -0.677  -1.595  0.00  0.00     0.017 A 
ATOM      8  C8  DEN d   1      -0.759  -0.103  -0.432  0.00  0.00    -0.094 A 
ATOM      9  C9  DEN d   1      -1.548   0.010   0.701  0.00  0.00    -0.072 A 
ENDROOT
TORSDOF 0
ENDMDL
