MODEL 1
REMARK minimizedAffinity -0.598069847
REMARK minimizedRMSD -1
REMARK  0 active torsions:
REMARK  status: ('A' for Active; 'I' for Inactive)
ROOT
ATOM      1  C1  DEN d   1       0.539  -1.577   1.151  0.00  0.00     0.130 A 
ATOM      2  C2  DEN d   1      -0.350  -2.385   1.980  0.00  0.00    -0.031 A 
ATOM      3  C3  DEN d   1      -1.559  -1.586   2.267  0.00  0.00     0.027 A 
ATOM      4  C4  DEN d   1      -2.137   0.810   1.508  0.00  0.00     0.027 A 
ATOM      5  C5  DEN d   1      -1.688   1.902   0.800  0.00  0.00    -0.003 A 
ATOM      6  C6  DEN d   1      -0.460   1.924   0.193  0.00  0.00     0.001 A 
ATOM      7  C7  DEN d   1       0.342   0.815   0.244  0.00  0.00     0.017 A 
ATOM      8  C8  DEN d   1      -0.101  -0.287   0.962  0.00  0.00    -0.094 A 
ATOM      9  C9  DEN d   1      -1.350  -0.295   1.559  0.00  0.00    -0.072 A 
ENDROOT
TORSDOF 0
ENDMDL
