MODEL 1
REMARK minimizedAffinity -4.26779461
REMARK minimizedRMSD -1
REMARK  0 active torsions:
REMARK  status: ('A' for Active; 'I' for Inactive)
ROOT
ATOM      1  C1  DEN d   1      -1.999  -0.775   0.832  0.00  0.00     0.130 A 
ATOM      2  C2  DEN d   1      -2.494   0.281  -0.047  0.00  0.00    -0.031 A 
ATOM      3  C3  DEN d   1      -1.327   0.956  -0.651  0.00  0.00     0.027 A 
ATOM      4  C4  DEN d   1       1.183   0.467  -0.317  0.00  0.00     0.027 A 
ATOM      5  C5  DEN d   1       2.094  -0.329   0.343  0.00  0.00    -0.003 A 
ATOM      6  C6  DEN d   1       1.708  -1.298   1.231  0.00  0.00     0.001 A 
ATOM      7  C7  DEN d   1       0.375  -1.528   1.449  0.00  0.00     0.017 A 
ATOM      8  C8  DEN d   1      -0.549  -0.725   0.792  0.00  0.00    -0.094 A 
ATOM      9  C9  DEN d   1      -0.139   0.242  -0.110  0.00  0.00    -0.072 A 
ENDROOT
TORSDOF 0
ENDMDL
