MODEL 1
REMARK minimizedAffinity -5.44711113
REMARK minimizedRMSD -1
REMARK  0 active torsions:
REMARK  status: ('A' for Active; 'I' for Inactive)
ROOT
ATOM      1  C1  DEN d   1       1.163  -0.004  -0.272  0.00  0.00     0.130 A 
ATOM      2  C2  DEN d   1       1.303   0.288   1.152  0.00  0.00    -0.031 A 
ATOM      3  C3  DEN d   1      -0.045   0.278   1.754  0.00  0.00     0.027 A 
ATOM      4  C4  DEN d   1      -2.323  -0.164   0.628  0.00  0.00     0.027 A 
ATOM      5  C5  DEN d   1      -2.948  -0.446  -0.567  0.00  0.00    -0.003 A 
ATOM      6  C6  DEN d   1      -2.257  -0.566  -1.743  0.00  0.00     0.001 A 
ATOM      7  C7  DEN d   1      -0.892  -0.448  -1.743  0.00  0.00     0.017 A 
ATOM      8  C8  DEN d   1      -0.255  -0.156  -0.544  0.00  0.00    -0.094 A 
ATOM      9  C9  DEN d   1      -0.970  -0.051   0.637  0.00  0.00    -0.072 A 
ENDROOT
TORSDOF 0
ENDMDL
