MODEL 1
REMARK minimizedAffinity -1.59080637
REMARK minimizedRMSD -1
REMARK  0 active torsions:
REMARK  status: ('A' for Active; 'I' for Inactive)
ROOT
ATOM      1  C1  DEN d   1       0.198  -0.214  -2.566  0.00  0.00     0.130 A 
ATOM      2  C2  DEN d   1       0.336   0.446  -1.270  0.00  0.00    -0.031 A 
ATOM      3  C3  DEN d   1      -0.706  -0.090  -0.372  0.00  0.00     0.027 A 
ATOM      4  C4  DEN d   1      -2.507  -1.871  -0.857  0.00  0.00     0.027 A 
ATOM      5  C5  DEN d   1      -3.027  -2.710  -1.818  0.00  0.00    -0.003 A 
ATOM      6  C6  DEN d   1      -2.534  -2.750  -3.095  0.00  0.00     0.001 A 
ATOM      7  C7  DEN d   1      -1.460  -1.969  -3.433  0.00  0.00     0.017 A 
ATOM      8  C8  DEN d   1      -0.936  -1.116  -2.471  0.00  0.00    -0.094 A 
ATOM      9  C9  DEN d   1      -1.441  -1.099  -1.182  0.00  0.00    -0.072 A 
ENDROOT
TORSDOF 0
ENDMDL
