MODEL 1
REMARK minimizedAffinity -5.08092022
REMARK minimizedRMSD -1
REMARK  0 active torsions:
REMARK  status: ('A' for Active; 'I' for Inactive)
ROOT
ATOM      1  C   UNL d   1      -1.047   2.197   0.623  0.00  0.00     0.078 C 
ATOM      2  C1  UNL d   1      -1.353   2.966  -0.628  0.00  0.00    -0.077 A 
ATOM      3  C2  UNL d   1      -0.427   3.036  -1.676  0.00  0.00    -0.001 A 
ATOM      4  C3  UNL d   1      -0.721   3.763  -2.830  0.00  0.00     0.003 A 
ATOM      5  C4  UNL d   1      -1.941   4.427  -2.948  0.00  0.00    -0.005 A 
ATOM      6  C5  UNL d   1      -2.868   4.364  -1.909  0.00  0.00     0.003 A 
ATOM      7  C6  UNL d   1      -2.575   3.637  -0.754  0.00  0.00    -0.001 A 
ENDROOT
TORSDOF 0
ENDMDL
