MODEL 1
REMARK minimizedAffinity -5.31561708
REMARK minimizedRMSD -1
REMARK  0 active torsions:
REMARK  status: ('A' for Active; 'I' for Inactive)
ROOT
ATOM      1  C   UNL d   1      -4.501   2.014  -2.250  0.00  0.00     0.078 C 
ATOM      2  C1  UNL d   1      -3.018   2.218  -2.330  0.00  0.00    -0.077 A 
ATOM      3  C2  UNL d   1      -2.130   1.273  -1.802  0.00  0.00    -0.001 A 
ATOM      4  C3  UNL d   1      -0.752   1.480  -1.875  0.00  0.00     0.003 A 
ATOM      5  C4  UNL d   1      -0.249   2.634  -2.474  0.00  0.00    -0.005 A 
ATOM      6  C5  UNL d   1      -1.124   3.581  -3.000  0.00  0.00     0.003 A 
ATOM      7  C6  UNL d   1      -2.503   3.375  -2.928  0.00  0.00    -0.001 A 
ENDROOT
TORSDOF 0
ENDMDL
