MODEL 1
REMARK minimizedAffinity -1.73281896
REMARK minimizedRMSD -1
REMARK  0 active torsions:
REMARK  status: ('A' for Active; 'I' for Inactive)
ROOT
ATOM      1  C   UNL d   1      -0.166  -0.386  -0.915  0.00  0.00     0.078 C 
ATOM      2  C1  UNL d   1      -0.406   0.816  -1.780  0.00  0.00    -0.077 A 
ATOM      3  C2  UNL d   1       0.661   1.589  -2.253  0.00  0.00    -0.001 A 
ATOM      4  C3  UNL d   1       0.422   2.710  -3.049  0.00  0.00     0.003 A 
ATOM      5  C4  UNL d   1      -0.884   3.069  -3.377  0.00  0.00    -0.005 A 
ATOM      6  C5  UNL d   1      -1.952   2.307  -2.909  0.00  0.00     0.003 A 
ATOM      7  C6  UNL d   1      -1.715   1.186  -2.113  0.00  0.00    -0.001 A 
ENDROOT
TORSDOF 0
ENDMDL
