MODEL 1
REMARK minimizedAffinity -0.878183603
REMARK minimizedRMSD -1
REMARK  0 active torsions:
REMARK  status: ('A' for Active; 'I' for Inactive)
ROOT
ATOM      1  C   UNL d   1       0.329  -1.323   2.652  0.00  0.00     0.078 C 
ATOM      2  C1  UNL d   1       0.047  -0.710   1.312  0.00  0.00    -0.077 A 
ATOM      3  C2  UNL d   1      -1.225  -0.214   0.999  0.00  0.00    -0.001 A 
ATOM      4  C3  UNL d   1      -1.475   0.344  -0.255  0.00  0.00     0.003 A 
ATOM      5  C4  UNL d   1      -0.459   0.411  -1.207  0.00  0.00    -0.005 A 
ATOM      6  C5  UNL d   1       0.808  -0.082  -0.905  0.00  0.00     0.003 A 
ATOM      7  C6  UNL d   1       1.061  -0.641   0.349  0.00  0.00    -0.001 A 
ENDROOT
TORSDOF 0
ENDMDL
