MODEL 1
REMARK minimizedAffinity -3.5078125
REMARK minimizedRMSD -1
REMARK  0 active torsions:
REMARK  status: ('A' for Active; 'I' for Inactive)
ROOT
ATOM      1  C   UNL d   1      -0.682   3.772  -3.515  0.00  0.00     0.078 C 
ATOM      2  C1  UNL d   1      -2.040   3.282  -3.109  0.00  0.00    -0.077 A 
ATOM      3  C2  UNL d   1      -2.250   1.941  -2.765  0.00  0.00    -0.001 A 
ATOM      4  C3  UNL d   1      -3.521   1.497  -2.398  0.00  0.00     0.003 A 
ATOM      5  C4  UNL d   1      -4.593   2.387  -2.373  0.00  0.00    -0.005 A 
ATOM      6  C5  UNL d   1      -4.394   3.723  -2.715  0.00  0.00     0.003 A 
ATOM      7  C6  UNL d   1      -3.124   4.169  -3.082  0.00  0.00    -0.001 A 
ENDROOT
TORSDOF 0
ENDMDL
