MODEL 1
REMARK minimizedAffinity -4.50494385
REMARK minimizedRMSD -1
REMARK  0 active torsions:
REMARK  status: ('A' for Active; 'I' for Inactive)
ROOT
ATOM      1  C   UNL d   1       1.644  -0.595   2.499  0.00  0.00     0.078 C 
ATOM      2  C1  UNL d   1       1.075  -0.689   1.114  0.00  0.00    -0.077 A 
ATOM      3  C2  UNL d   1      -0.295  -0.509   0.884  0.00  0.00    -0.001 A 
ATOM      4  C3  UNL d   1      -0.812  -0.608  -0.409  0.00  0.00     0.003 A 
ATOM      5  C4  UNL d   1       0.033  -0.889  -1.481  0.00  0.00    -0.005 A 
ATOM      6  C5  UNL d   1       1.397  -1.072  -1.261  0.00  0.00     0.003 A 
ATOM      7  C6  UNL d   1       1.916  -0.973   0.031  0.00  0.00    -0.001 A 
ENDROOT
TORSDOF 0
ENDMDL
