MODEL 1
REMARK minimizedAffinity 4.71605492
REMARK minimizedRMSD -1
REMARK  0 active torsions:
REMARK  status: ('A' for Active; 'I' for Inactive)
ROOT
ATOM      1  O1  BZF d   1      -0.208  -1.093   1.697  0.00  0.00    -0.204 OA
ATOM      2  C2  BZF d   1       0.994  -1.483   2.255  0.00  0.00     0.174 A 
ATOM      3  C3  BZF d   1       1.587  -2.431   1.501  0.00  0.00    -0.012 A 
ATOM      4  C3A BZF d   1       0.744  -2.581   0.354  0.00  0.00    -0.107 A 
ATOM      5  C4  BZF d   1       0.809  -3.363  -0.763  0.00  0.00     0.055 A 
ATOM      6  C5  BZF d   1      -0.212  -3.323  -1.658  0.00  0.00    -0.016 A 
ATOM      7  C6  BZF d   1      -1.316  -2.518  -1.465  0.00  0.00     0.022 A 
ATOM      8  C7  BZF d   1      -1.423  -1.721  -0.374  0.00  0.00     0.029 A 
ATOM      9  C7A BZF d   1      -0.377  -1.734   0.516  0.00  0.00     0.058 A 
ENDROOT
TORSDOF 0
ENDMDL
