MODEL 1
REMARK minimizedAffinity 1.91123283
REMARK minimizedRMSD -1
REMARK  0 active torsions:
REMARK  status: ('A' for Active; 'I' for Inactive)
ROOT
ATOM      1  O1  BZF d   1       2.778   1.195   1.900  0.00  0.00    -0.204 OA
ATOM      2  C2  BZF d   1       2.486   1.690   0.644  0.00  0.00     0.174 A 
ATOM      3  C3  BZF d   1       1.656   0.857  -0.017  0.00  0.00    -0.012 A 
ATOM      4  C3A BZF d   1       1.341  -0.180   0.917  0.00  0.00    -0.107 A 
ATOM      5  C4  BZF d   1       0.549  -1.291   0.854  0.00  0.00     0.055 A 
ATOM      6  C5  BZF d   1       0.516  -2.139   1.916  0.00  0.00    -0.016 A 
ATOM      7  C6  BZF d   1       1.264  -1.909   3.053  0.00  0.00     0.022 A 
ATOM      8  C7  BZF d   1       2.059  -0.817   3.163  0.00  0.00     0.029 A 
ATOM      9  C7A BZF d   1       2.070   0.058   2.105  0.00  0.00     0.058 A 
ENDROOT
TORSDOF 0
ENDMDL
