MODEL 1
REMARK minimizedAffinity 0.587113857
REMARK minimizedRMSD -1
REMARK  0 active torsions:
REMARK  status: ('A' for Active; 'I' for Inactive)
ROOT
ATOM      1  O1  BZF d   1       0.761  -2.299   2.997  0.00  0.00    -0.204 OA
ATOM      2  C2  BZF d   1       1.397  -2.375   4.220  0.00  0.00     0.174 A 
ATOM      3  C3  BZF d   1       2.263  -1.352   4.374  0.00  0.00    -0.012 A 
ATOM      4  C3A BZF d   1       2.092  -0.537   3.209  0.00  0.00    -0.107 A 
ATOM      5  C4  BZF d   1       2.662   0.631   2.789  0.00  0.00     0.055 A 
ATOM      6  C5  BZF d   1       2.329   1.126   1.568  0.00  0.00    -0.016 A 
ATOM      7  C6  BZF d   1       1.435   0.478   0.741  0.00  0.00     0.022 A 
ATOM      8  C7  BZF d   1       0.841  -0.681   1.116  0.00  0.00     0.029 A 
ATOM      9  C7A BZF d   1       1.150  -1.167   2.363  0.00  0.00     0.058 A 
ENDROOT
TORSDOF 0
ENDMDL
