MODEL 1
REMARK minimizedAffinity 2.60247231
REMARK minimizedRMSD -1
REMARK  0 active torsions:
REMARK  status: ('A' for Active; 'I' for Inactive)
ROOT
ATOM      1  O1  BZF d   1       1.652   0.266   2.035  0.00  0.00    -0.204 OA
ATOM      2  C2  BZF d   1       2.347   1.160   2.827  0.00  0.00     0.174 A 
ATOM      3  C3  BZF d   1       2.592   0.632   4.043  0.00  0.00    -0.012 A 
ATOM      4  C3A BZF d   1       2.096  -0.708   3.978  0.00  0.00    -0.107 A 
ATOM      5  C4  BZF d   1       2.064  -1.742   4.870  0.00  0.00     0.055 A 
ATOM      6  C5  BZF d   1       1.442  -2.898   4.519  0.00  0.00    -0.016 A 
ATOM      7  C6  BZF d   1       0.837  -3.053   3.289  0.00  0.00     0.022 A 
ATOM      8  C7  BZF d   1       0.847  -2.058   2.369  0.00  0.00     0.029 A 
ATOM      9  C7A BZF d   1       1.504  -0.900   2.708  0.00  0.00     0.058 A 
ENDROOT
TORSDOF 0
ENDMDL
