MODEL 1
REMARK minimizedAffinity 3.06171584
REMARK minimizedRMSD -1
REMARK  0 active torsions:
REMARK  status: ('A' for Active; 'I' for Inactive)
ROOT
ATOM      1  O1  BZF d   1      -1.436  -1.091   0.062  0.00  0.00    -0.204 OA
ATOM      2  C2  BZF d   1      -0.605  -0.448   0.959  0.00  0.00     0.174 A 
ATOM      3  C3  BZF d   1       0.529  -1.153   1.150  0.00  0.00    -0.012 A 
ATOM      4  C3A BZF d   1       0.440  -2.262   0.251  0.00  0.00    -0.107 A 
ATOM      5  C4  BZF d   1       1.269  -3.309  -0.034  0.00  0.00     0.055 A 
ATOM      6  C5  BZF d   1       0.853  -4.261  -0.911  0.00  0.00    -0.016 A 
ATOM      7  C6  BZF d   1      -0.385  -4.200  -1.516  0.00  0.00     0.022 A 
ATOM      8  C7  BZF d   1      -1.240  -3.178  -1.268  0.00  0.00     0.029 A 
ATOM      9  C7A BZF d   1      -0.810  -2.197  -0.408  0.00  0.00     0.058 A 
ENDROOT
TORSDOF 0
ENDMDL
