MODEL 1
REMARK minimizedAffinity 5.17809916
REMARK minimizedRMSD -1
REMARK  0 active torsions:
REMARK  status: ('A' for Active; 'I' for Inactive)
ROOT
ATOM      1  O1  BZF d   1       2.514   1.426   0.449  0.00  0.00    -0.204 OA
ATOM      2  C2  BZF d   1       2.256   0.263   1.148  0.00  0.00     0.174 A 
ATOM      3  C3  BZF d   1       0.976   0.236   1.575  0.00  0.00    -0.012 A 
ATOM      4  C3A BZF d   1       0.374   1.416   1.035  0.00  0.00    -0.107 A 
ATOM      5  C4  BZF d   1      -0.885   1.939   1.095  0.00  0.00     0.055 A 
ATOM      6  C5  BZF d   1      -1.128   3.146   0.520  0.00  0.00    -0.016 A 
ATOM      7  C6  BZF d   1      -0.134   3.859  -0.119  0.00  0.00     0.022 A 
ATOM      8  C7  BZF d   1       1.130   3.378  -0.209  0.00  0.00     0.029 A 
ATOM      9  C7A BZF d   1       1.370   2.144   0.343  0.00  0.00     0.058 A 
ENDROOT
TORSDOF 0
ENDMDL
