MODEL 1
REMARK minimizedAffinity 0.769944489
REMARK minimizedRMSD -1
REMARK  0 active torsions:
REMARK  status: ('A' for Active; 'I' for Inactive)
ROOT
ATOM      1  C   UNL d   1       0.191   3.776  -3.056  0.00  0.00     0.077 C 
ATOM      2  C1  UNL d   1      -0.757   2.789  -2.443  0.00  0.00    -0.074 A 
ATOM      3  C2  UNL d   1      -1.638   2.048  -3.238  0.00  0.00    -0.005 A 
ATOM      4  C3  UNL d   1      -2.507   1.127  -2.655  0.00  0.00     0.006 A 
ATOM      5  C4  UNL d   1      -2.506   0.938  -1.272  0.00  0.00    -0.005 A 
ATOM      6  C5  UNL d   1      -1.632   1.669  -0.461  0.00  0.00    -0.074 A 
ATOM      7  C6  UNL d   1      -1.610   1.470   1.025  0.00  0.00     0.077 C 
ATOM      8  C7  UNL d   1      -0.756   2.587  -1.056  0.00  0.00    -0.001 A 
ENDROOT
TORSDOF 0
ENDMDL
