MODEL 1
REMARK minimizedAffinity 0.895734549
REMARK minimizedRMSD -1
REMARK  0 active torsions:
REMARK  status: ('A' for Active; 'I' for Inactive)
ROOT
ATOM      1  C   UNL d   1       3.468  -1.286  -0.165  0.00  0.00     0.077 C 
ATOM      2  C1  UNL d   1       2.009  -1.502   0.109  0.00  0.00    -0.074 A 
ATOM      3  C2  UNL d   1       1.321  -2.574  -0.467  0.00  0.00    -0.005 A 
ATOM      4  C3  UNL d   1      -0.034  -2.768  -0.195  0.00  0.00     0.006 A 
ATOM      5  C4  UNL d   1      -0.712  -1.893   0.655  0.00  0.00    -0.005 A 
ATOM      6  C5  UNL d   1      -0.040  -0.816   1.241  0.00  0.00    -0.074 A 
ATOM      7  C6  UNL d   1      -0.751   0.128   2.164  0.00  0.00     0.077 C 
ATOM      8  C7  UNL d   1       1.323  -0.632   0.968  0.00  0.00    -0.001 A 
ENDROOT
TORSDOF 0
ENDMDL
