MODEL 1
REMARK minimizedAffinity 2.16885805
REMARK minimizedRMSD -1
REMARK  0 active torsions:
REMARK  status: ('A' for Active; 'I' for Inactive)
ROOT
ATOM      1  C   UNL d   1       0.663  -3.598  -0.400  0.00  0.00     0.077 C 
ATOM      2  C1  UNL d   1       0.457  -2.376   0.444  0.00  0.00    -0.074 A 
ATOM      3  C2  UNL d   1      -0.498  -1.415   0.097  0.00  0.00    -0.005 A 
ATOM      4  C3  UNL d   1      -0.685  -0.288   0.896  0.00  0.00     0.006 A 
ATOM      5  C4  UNL d   1       0.080  -0.110   2.050  0.00  0.00    -0.005 A 
ATOM      6  C5  UNL d   1       1.039  -1.060   2.414  0.00  0.00    -0.074 A 
ATOM      7  C6  UNL d   1       1.863  -0.890   3.655  0.00  0.00     0.077 C 
ATOM      8  C7  UNL d   1       1.216  -2.194   1.608  0.00  0.00    -0.001 A 
ENDROOT
TORSDOF 0
ENDMDL
