MODEL 1
REMARK minimizedAffinity -0.633819699
REMARK minimizedRMSD -1
REMARK  0 active torsions:
REMARK  status: ('A' for Active; 'I' for Inactive)
ROOT
ATOM      1  C   UNL d   1       0.112  -4.273  -1.308  0.00  0.00     0.077 C 
ATOM      2  C1  UNL d   1       0.519  -3.167  -0.379  0.00  0.00    -0.074 A 
ATOM      3  C2  UNL d   1      -0.430  -2.499   0.402  0.00  0.00    -0.005 A 
ATOM      4  C3  UNL d   1      -0.035  -1.479   1.268  0.00  0.00     0.006 A 
ATOM      5  C4  UNL d   1       1.309  -1.117   1.361  0.00  0.00    -0.005 A 
ATOM      6  C5  UNL d   1       2.272  -1.774   0.588  0.00  0.00    -0.074 A 
ATOM      7  C6  UNL d   1       3.722  -1.404   0.683  0.00  0.00     0.077 C 
ATOM      8  C7  UNL d   1       1.868  -2.803  -0.274  0.00  0.00    -0.001 A 
ENDROOT
TORSDOF 0
ENDMDL
