MODEL 1
REMARK minimizedAffinity -4.6390276
REMARK minimizedRMSD -1
REMARK  0 active torsions:
REMARK  status: ('A' for Active; 'I' for Inactive)
ROOT
ATOM      1  C   UNL d   1      -5.247  -1.918   6.000  0.00  0.00     0.077 C 
ATOM      2  C1  UNL d   1      -5.181  -3.224   5.265  0.00  0.00    -0.074 A 
ATOM      3  C2  UNL d   1      -5.141  -4.437   5.959  0.00  0.00    -0.005 A 
ATOM      4  C3  UNL d   1      -5.089  -5.644   5.263  0.00  0.00     0.006 A 
ATOM      5  C4  UNL d   1      -5.077  -5.650   3.867  0.00  0.00    -0.005 A 
ATOM      6  C5  UNL d   1      -5.117  -4.447   3.156  0.00  0.00    -0.074 A 
ATOM      7  C6  UNL d   1      -5.115  -4.436   1.657  0.00  0.00     0.077 C 
ATOM      8  C7  UNL d   1      -5.176  -3.238   3.864  0.00  0.00    -0.001 A 
ENDROOT
TORSDOF 0
ENDMDL
