MODEL 1
REMARK minimizedAffinity -1.74488056
REMARK minimizedRMSD -1
REMARK  0 active torsions:
REMARK  status: ('A' for Active; 'I' for Inactive)
ROOT
ATOM      1  C   UNL d   1      -1.420  -0.284   1.777  0.00  0.00     0.077 C 
ATOM      2  C1  UNL d   1      -0.445  -1.181   1.074  0.00  0.00    -0.074 A 
ATOM      3  C2  UNL d   1      -0.860  -2.392   0.511  0.00  0.00    -0.005 A 
ATOM      4  C3  UNL d   1       0.056  -3.212  -0.148  0.00  0.00     0.006 A 
ATOM      5  C4  UNL d   1       1.394  -2.829  -0.251  0.00  0.00    -0.005 A 
ATOM      6  C5  UNL d   1       1.827  -1.620   0.305  0.00  0.00    -0.074 A 
ATOM      7  C6  UNL d   1       3.259  -1.189   0.195  0.00  0.00     0.077 C 
ATOM      8  C7  UNL d   1       0.899  -0.799   0.960  0.00  0.00    -0.001 A 
ENDROOT
TORSDOF 0
ENDMDL
