MODEL 1
REMARK minimizedAffinity 0.36461103
REMARK minimizedRMSD -1
REMARK  0 active torsions:
REMARK  status: ('A' for Active; 'I' for Inactive)
ROOT
ATOM      1  C   UNL d   1       0.717  -3.529  -0.795  0.00  0.00     0.077 C 
ATOM      2  C1  UNL d   1       0.398  -2.331   0.049  0.00  0.00    -0.074 A 
ATOM      3  C2  UNL d   1      -0.888  -1.782   0.062  0.00  0.00    -0.005 A 
ATOM      4  C3  UNL d   1      -1.172  -0.673   0.859  0.00  0.00     0.006 A 
ATOM      5  C4  UNL d   1      -0.174  -0.104   1.651  0.00  0.00    -0.005 A 
ATOM      6  C5  UNL d   1       1.117  -0.640   1.653  0.00  0.00    -0.074 A 
ATOM      7  C6  UNL d   1       2.199  -0.045   2.505  0.00  0.00     0.077 C 
ATOM      8  C7  UNL d   1       1.393  -1.758   0.854  0.00  0.00    -0.001 A 
ENDROOT
TORSDOF 0
ENDMDL
