MODEL 1
REMARK minimizedAffinity 5.42077208
REMARK minimizedRMSD -1
REMARK  0 active torsions:
REMARK  status: ('A' for Active; 'I' for Inactive)
ROOT
ATOM      1  C   UNL d   1      -0.732  -1.198  -0.364  0.00  0.00     0.077 C 
ATOM      2  C1  UNL d   1       0.419  -0.855   0.534  0.00  0.00    -0.074 A 
ATOM      3  C2  UNL d   1       1.661  -0.490   0.004  0.00  0.00    -0.005 A 
ATOM      4  C3  UNL d   1       2.720  -0.164   0.852  0.00  0.00     0.006 A 
ATOM      5  C4  UNL d   1       2.548  -0.200   2.236  0.00  0.00    -0.005 A 
ATOM      6  C5  UNL d   1       1.313  -0.562   2.784  0.00  0.00    -0.074 A 
ATOM      7  C6  UNL d   1       1.109  -0.597   4.270  0.00  0.00     0.077 C 
ATOM      8  C7  UNL d   1       0.253  -0.881   1.926  0.00  0.00    -0.001 A 
ENDROOT
TORSDOF 0
ENDMDL
