MODEL 1
REMARK minimizedAffinity 2.53507853
REMARK minimizedRMSD -1
REMARK  0 active torsions:
REMARK  status: ('A' for Active; 'I' for Inactive)
ROOT
ATOM      1  C   UNL d   1       0.376  -3.311  -0.459  0.00  0.00     0.077 C 
ATOM      2  C1  UNL d   1       0.269  -2.022   0.299  0.00  0.00    -0.074 A 
ATOM      3  C2  UNL d   1      -0.980  -1.473   0.610  0.00  0.00    -0.005 A 
ATOM      4  C3  UNL d   1      -1.065  -0.278   1.324  0.00  0.00     0.006 A 
ATOM      5  C4  UNL d   1       0.096   0.379   1.735  0.00  0.00    -0.005 A 
ATOM      6  C5  UNL d   1       1.353  -0.155   1.434  0.00  0.00    -0.074 A 
ATOM      7  C6  UNL d   1       2.610   0.533   1.876  0.00  0.00     0.077 C 
ATOM      8  C7  UNL d   1       1.430  -1.360   0.722  0.00  0.00    -0.001 A 
ENDROOT
TORSDOF 0
ENDMDL
