MODEL 1
REMARK minimizedAffinity 2.4597559
REMARK minimizedRMSD -1
REMARK  0 active torsions:
REMARK  status: ('A' for Active; 'I' for Inactive)
ROOT
ATOM      1  C   UNL d   1      -1.513  -0.549   1.135  0.00  0.00     0.077 C 
ATOM      2  C1  UNL d   1      -0.035  -0.591   0.887  0.00  0.00    -0.074 A 
ATOM      3  C2  UNL d   1       0.498  -1.359  -0.153  0.00  0.00    -0.005 A 
ATOM      4  C3  UNL d   1       1.874  -1.381  -0.378  0.00  0.00     0.006 A 
ATOM      5  C4  UNL d   1       2.731  -0.636   0.434  0.00  0.00    -0.005 A 
ATOM      6  C5  UNL d   1       2.216   0.139   1.478  0.00  0.00    -0.074 A 
ATOM      7  C6  UNL d   1       3.121   0.954   2.354  0.00  0.00     0.077 C 
ATOM      8  C7  UNL d   1       0.831   0.161   1.693  0.00  0.00    -0.001 A 
ENDROOT
TORSDOF 0
ENDMDL
