MODEL 1
REMARK minimizedAffinity -3.33991504
REMARK minimizedRMSD -1
REMARK  0 active torsions:
REMARK  status: ('A' for Active; 'I' for Inactive)
ROOT
ATOM      1  C   UNL d   1      -1.707  -1.909   0.793  0.00  0.00     0.077 C 
ATOM      2  C1  UNL d   1      -0.238  -1.758   0.529  0.00  0.00    -0.074 A 
ATOM      3  C2  UNL d   1       0.389  -0.513   0.642  0.00  0.00    -0.005 A 
ATOM      4  C3  UNL d   1       1.757  -0.390   0.403  0.00  0.00     0.006 A 
ATOM      5  C4  UNL d   1       2.512  -1.509   0.047  0.00  0.00    -0.005 A 
ATOM      6  C5  UNL d   1       1.902  -2.762  -0.071  0.00  0.00    -0.074 A 
ATOM      7  C6  UNL d   1       2.700  -3.977  -0.442  0.00  0.00     0.077 C 
ATOM      8  C7  UNL d   1       0.528  -2.879   0.179  0.00  0.00    -0.001 A 
ENDROOT
TORSDOF 0
ENDMDL
