MODEL 1
REMARK minimizedAffinity -1.02887642
REMARK minimizedRMSD -1
REMARK  0 active torsions:
REMARK  status: ('A' for Active; 'I' for Inactive)
ROOT
ATOM      1  C   UNL d   1       1.166  -3.960   0.073  0.00  0.00     0.077 C 
ATOM      2  C1  UNL d   1       0.812  -2.524   0.327  0.00  0.00    -0.074 A 
ATOM      3  C2  UNL d   1       1.805  -1.575   0.591  0.00  0.00    -0.005 A 
ATOM      4  C3  UNL d   1       1.461  -0.242   0.817  0.00  0.00     0.006 A 
ATOM      5  C4  UNL d   1       0.124   0.154   0.780  0.00  0.00    -0.005 A 
ATOM      6  C5  UNL d   1      -0.882  -0.780   0.516  0.00  0.00    -0.074 A 
ATOM      7  C6  UNL d   1      -2.324  -0.369   0.463  0.00  0.00     0.077 C 
ATOM      8  C7  UNL d   1      -0.528  -2.117   0.284  0.00  0.00    -0.001 A 
ENDROOT
TORSDOF 0
ENDMDL
