MODEL 1
REMARK minimizedAffinity -1.99303389
REMARK minimizedRMSD -1
REMARK  0 active torsions:
REMARK  status: ('A' for Active; 'I' for Inactive)
ROOT
ATOM      1  C   UNL d   1       2.993  -1.308   0.051  0.00  0.00     0.077 C 
ATOM      2  C1  UNL d   1       1.526  -1.490   0.307  0.00  0.00    -0.074 A 
ATOM      3  C2  UNL d   1       0.886  -2.693  -0.005  0.00  0.00    -0.005 A 
ATOM      4  C3  UNL d   1      -0.476  -2.852   0.248  0.00  0.00     0.006 A 
ATOM      5  C4  UNL d   1      -1.211  -1.810   0.815  0.00  0.00    -0.005 A 
ATOM      6  C5  UNL d   1      -0.588  -0.599   1.135  0.00  0.00    -0.074 A 
ATOM      7  C6  UNL d   1      -1.361   0.527   1.754  0.00  0.00     0.077 C 
ATOM      8  C7  UNL d   1       0.783  -0.451   0.884  0.00  0.00    -0.001 A 
ENDROOT
TORSDOF 0
ENDMDL
