MODEL 1
REMARK minimizedAffinity 8.92968845
REMARK minimizedRMSD -1
REMARK  0 active torsions:
REMARK  status: ('A' for Active; 'I' for Inactive)
ROOT
ATOM      1  C   UNL d   1       1.948   0.184   2.509  0.00  0.00     0.077 C 
ATOM      2  C1  UNL d   1       1.242  -0.658   1.487  0.00  0.00    -0.074 A 
ATOM      3  C2  UNL d   1       1.905  -1.703   0.835  0.00  0.00    -0.005 A 
ATOM      4  C3  UNL d   1       1.233  -2.483  -0.106  0.00  0.00     0.006 A 
ATOM      5  C4  UNL d   1      -0.106  -2.226  -0.404  0.00  0.00    -0.005 A 
ATOM      6  C5  UNL d   1      -0.785  -1.186   0.239  0.00  0.00    -0.074 A 
ATOM      7  C6  UNL d   1      -2.227  -0.903  -0.063  0.00  0.00     0.077 C 
ATOM      8  C7  UNL d   1      -0.105  -0.411   1.188  0.00  0.00    -0.001 A 
ENDROOT
TORSDOF 0
ENDMDL
