MODEL 1
REMARK minimizedAffinity 1.35844064
REMARK minimizedRMSD -1
REMARK  0 active torsions:
REMARK  status: ('A' for Active; 'I' for Inactive)
ROOT
ATOM      1  C   UNL d   1       1.534  -1.522  -1.321  0.00  0.00     0.077 C 
ATOM      2  C1  UNL d   1       0.872  -1.313   0.009  0.00  0.00    -0.074 A 
ATOM      3  C2  UNL d   1      -0.478  -0.957   0.091  0.00  0.00    -0.005 A 
ATOM      4  C3  UNL d   1      -1.082  -0.775   1.335  0.00  0.00     0.006 A 
ATOM      5  C4  UNL d   1      -0.344  -0.946   2.507  0.00  0.00    -0.005 A 
ATOM      6  C5  UNL d   1       1.007  -1.302   2.444  0.00  0.00    -0.074 A 
ATOM      7  C6  UNL d   1       1.812  -1.500   3.694  0.00  0.00     0.077 C 
ATOM      8  C7  UNL d   1       1.605  -1.490   1.190  0.00  0.00    -0.001 A 
ENDROOT
TORSDOF 0
ENDMDL
