MODEL 1
REMARK minimizedAffinity -2.34374404
REMARK minimizedRMSD -1
REMARK  0 active torsions:
REMARK  status: ('A' for Active; 'I' for Inactive)
ROOT
ATOM      1  C   UNL d   1      -1.923  -1.591   1.451  0.00  0.00     0.077 C 
ATOM      2  C1  UNL d   1      -0.517  -1.477   0.939  0.00  0.00    -0.074 A 
ATOM      3  C2  UNL d   1       0.190  -0.275   1.045  0.00  0.00    -0.005 A 
ATOM      4  C3  UNL d   1       1.500  -0.186   0.573  0.00  0.00     0.006 A 
ATOM      5  C4  UNL d   1       2.114  -1.296  -0.007  0.00  0.00    -0.005 A 
ATOM      6  C5  UNL d   1       1.423  -2.506  -0.121  0.00  0.00    -0.074 A 
ATOM      7  C6  UNL d   1       2.072  -3.712  -0.733  0.00  0.00     0.077 C 
ATOM      8  C7  UNL d   1       0.109  -2.590   0.362  0.00  0.00    -0.001 A 
ENDROOT
TORSDOF 0
ENDMDL
