MODEL 1
REMARK minimizedAffinity -3.20823097
REMARK minimizedRMSD -1
REMARK  0 active torsions:
REMARK  status: ('A' for Active; 'I' for Inactive)
ROOT
ATOM      1  C   UNL d   1       4.222  -1.653  -0.472  0.00  0.00     0.077 C 
ATOM      2  C1  UNL d   1       2.773  -1.955  -0.231  0.00  0.00    -0.074 A 
ATOM      3  C2  UNL d   1       2.256  -3.233  -0.468  0.00  0.00    -0.005 A 
ATOM      4  C3  UNL d   1       0.908  -3.501  -0.229  0.00  0.00     0.006 A 
ATOM      5  C4  UNL d   1       0.065  -2.497   0.248  0.00  0.00    -0.005 A 
ATOM      6  C5  UNL d   1       0.564  -1.213   0.492  0.00  0.00    -0.074 A 
ATOM      7  C6  UNL d   1      -0.326  -0.125   1.014  0.00  0.00     0.077 C 
ATOM      8  C7  UNL d   1       1.921  -0.953   0.256  0.00  0.00    -0.001 A 
ENDROOT
TORSDOF 0
ENDMDL
