MODEL 1
REMARK minimizedAffinity 2.4708817
REMARK minimizedRMSD -1
REMARK  0 active torsions:
REMARK  status: ('A' for Active; 'I' for Inactive)
ROOT
ATOM      1  C   UNL d   1      -0.922   0.137   1.843  0.00  0.00     0.077 C 
ATOM      2  C1  UNL d   1       0.046  -0.613   0.977  0.00  0.00    -0.074 A 
ATOM      3  C2  UNL d   1       1.276  -0.052   0.621  0.00  0.00    -0.005 A 
ATOM      4  C3  UNL d   1       2.170  -0.766  -0.177  0.00  0.00     0.006 A 
ATOM      5  C4  UNL d   1       1.843  -2.046  -0.626  0.00  0.00    -0.005 A 
ATOM      6  C5  UNL d   1       0.618  -2.623  -0.280  0.00  0.00    -0.074 A 
ATOM      7  C6  UNL d   1       0.255  -4.002  -0.746  0.00  0.00     0.077 C 
ATOM      8  C7  UNL d   1      -0.272  -1.903   0.528  0.00  0.00    -0.001 A 
ENDROOT
TORSDOF 0
ENDMDL
