MODEL 1
REMARK minimizedAffinity 1.28004837
REMARK minimizedRMSD -1
REMARK  0 active torsions:
REMARK  status: ('A' for Active; 'I' for Inactive)
ROOT
ATOM      1  C   UNL d   1      -1.498  -0.916   1.509  0.00  0.00     0.077 C 
ATOM      2  C1  UNL d   1      -0.115  -1.212   1.009  0.00  0.00    -0.074 A 
ATOM      3  C2  UNL d   1       0.865  -0.215   0.974  0.00  0.00    -0.005 A 
ATOM      4  C3  UNL d   1       2.150  -0.507   0.516  0.00  0.00     0.006 A 
ATOM      5  C4  UNL d   1       2.467  -1.797   0.088  0.00  0.00    -0.005 A 
ATOM      6  C5  UNL d   1       1.500  -2.807   0.116  0.00  0.00    -0.074 A 
ATOM      7  C6  UNL d   1       1.826  -4.201  -0.331  0.00  0.00     0.077 C 
ATOM      8  C7  UNL d   1       0.213  -2.507   0.585  0.00  0.00    -0.001 A 
ENDROOT
TORSDOF 0
ENDMDL
