MODEL 1
REMARK minimizedAffinity 7.41823053
REMARK minimizedRMSD -1
REMARK  0 active torsions:
REMARK  status: ('A' for Active; 'I' for Inactive)
ROOT
ATOM      1  C   UNL d   1       1.868  -3.434   1.914  0.00  0.00     0.077 C 
ATOM      2  C1  UNL d   1       0.836  -2.567   2.572  0.00  0.00    -0.074 A 
ATOM      3  C2  UNL d   1       1.154  -1.797   3.695  0.00  0.00    -0.005 A 
ATOM      4  C3  UNL d   1       0.186  -0.988   4.290  0.00  0.00     0.006 A 
ATOM      5  C4  UNL d   1      -1.107  -0.941   3.770  0.00  0.00    -0.005 A 
ATOM      6  C5  UNL d   1      -1.444  -1.704   2.647  0.00  0.00    -0.074 A 
ATOM      7  C6  UNL d   1      -2.827  -1.658   2.069  0.00  0.00     0.077 C 
ATOM      8  C7  UNL d   1      -0.464  -2.509   2.050  0.00  0.00    -0.001 A 
ENDROOT
TORSDOF 0
ENDMDL
