MODEL 1
REMARK minimizedAffinity 10.9829178
REMARK minimizedRMSD -1
REMARK  0 active torsions:
REMARK  status: ('A' for Active; 'I' for Inactive)
ROOT
ATOM      1  C   UNL d   1       5.632   0.138  -3.350  0.00  0.00     0.077 C 
ATOM      2  C1  UNL d   1       4.293   0.483  -2.770  0.00  0.00    -0.074 A 
ATOM      3  C2  UNL d   1       3.157   0.564  -3.581  0.00  0.00    -0.005 A 
ATOM      4  C3  UNL d   1       1.916   0.877  -3.026  0.00  0.00     0.006 A 
ATOM      5  C4  UNL d   1       1.799   1.111  -1.656  0.00  0.00    -0.005 A 
ATOM      6  C5  UNL d   1       2.924   1.034  -0.828  0.00  0.00    -0.074 A 
ATOM      7  C6  UNL d   1       2.813   1.273   0.649  0.00  0.00     0.077 C 
ATOM      8  C7  UNL d   1       4.165   0.712  -1.392  0.00  0.00    -0.001 A 
ENDROOT
TORSDOF 0
ENDMDL
