MODEL 1
REMARK minimizedAffinity 6.60264826
REMARK minimizedRMSD -1
REMARK  0 active torsions:
REMARK  status: ('A' for Active; 'I' for Inactive)
ROOT
ATOM      1  C   UNL d   1      -1.661  -1.460  -1.496  0.00  0.00     0.077 C 
ATOM      2  C1  UNL d   1      -0.386  -1.019  -0.842  0.00  0.00    -0.074 A 
ATOM      3  C2  UNL d   1       0.242   0.172  -1.222  0.00  0.00    -0.005 A 
ATOM      4  C3  UNL d   1       1.423   0.575  -0.599  0.00  0.00     0.006 A 
ATOM      5  C4  UNL d   1       1.987  -0.208   0.409  0.00  0.00    -0.005 A 
ATOM      6  C5  UNL d   1       1.374  -1.401   0.803  0.00  0.00    -0.074 A 
ATOM      7  C6  UNL d   1       1.962  -2.249   1.891  0.00  0.00     0.077 C 
ATOM      8  C7  UNL d   1       0.184  -1.795   0.176  0.00  0.00    -0.001 A 
ENDROOT
TORSDOF 0
ENDMDL
