MODEL 1
REMARK minimizedAffinity 14.3121471
REMARK minimizedRMSD -1
REMARK  0 active torsions:
REMARK  status: ('A' for Active; 'I' for Inactive)
ROOT
ATOM      1  C   UNL d   1      -4.067  -0.640  -5.438  0.00  0.00     0.077 C 
ATOM      2  C1  UNL d   1      -4.311  -1.405  -4.171  0.00  0.00    -0.074 A 
ATOM      3  C2  UNL d   1      -5.019  -2.610  -4.185  0.00  0.00    -0.005 A 
ATOM      4  C3  UNL d   1      -5.230  -3.315  -3.000  0.00  0.00     0.006 A 
ATOM      5  C4  UNL d   1      -4.736  -2.823  -1.792  0.00  0.00    -0.005 A 
ATOM      6  C5  UNL d   1      -4.025  -1.619  -1.759  0.00  0.00    -0.074 A 
ATOM      7  C6  UNL d   1      -3.478  -1.081  -0.470  0.00  0.00     0.077 C 
ATOM      8  C7  UNL d   1      -3.811  -0.920  -2.955  0.00  0.00    -0.001 A 
ENDROOT
TORSDOF 0
ENDMDL
