MODEL 1
REMARK minimizedAffinity 12.0484238
REMARK minimizedRMSD -1
REMARK  0 active torsions:
REMARK  status: ('A' for Active; 'I' for Inactive)
ROOT
ATOM      1  C   UNL d   1      -2.234  -0.408  -1.557  0.00  0.00     0.077 C 
ATOM      2  C1  UNL d   1      -0.836  -0.238  -1.043  0.00  0.00    -0.074 A 
ATOM      3  C2  UNL d   1      -0.040   0.832  -1.465  0.00  0.00    -0.005 A 
ATOM      4  C3  UNL d   1       1.255   0.983  -0.971  0.00  0.00     0.006 A 
ATOM      5  C4  UNL d   1       1.768   0.067  -0.051  0.00  0.00    -0.005 A 
ATOM      6  C5  UNL d   1       0.987  -1.009   0.383  0.00  0.00    -0.074 A 
ATOM      7  C6  UNL d   1       1.519  -1.997   1.378  0.00  0.00     0.077 C 
ATOM      8  C7  UNL d   1      -0.316  -1.150  -0.113  0.00  0.00    -0.001 A 
ENDROOT
TORSDOF 0
ENDMDL
