MODEL 1
REMARK minimizedAffinity 11.1992292
REMARK minimizedRMSD -1
REMARK  0 active torsions:
REMARK  status: ('A' for Active; 'I' for Inactive)
ROOT
ATOM      1  C   UNL d   1      -1.014  -1.079  -1.885  0.00  0.00     0.077 C 
ATOM      2  C1  UNL d   1       0.166  -0.894  -0.978  0.00  0.00    -0.074 A 
ATOM      3  C2  UNL d   1       1.043   0.182  -1.152  0.00  0.00    -0.005 A 
ATOM      4  C3  UNL d   1       2.131   0.347  -0.295  0.00  0.00     0.006 A 
ATOM      5  C4  UNL d   1       2.353  -0.560   0.742  0.00  0.00    -0.005 A 
ATOM      6  C5  UNL d   1       1.487  -1.641   0.931  0.00  0.00    -0.074 A 
ATOM      7  C6  UNL d   1       1.706  -2.620   2.046  0.00  0.00     0.077 C 
ATOM      8  C7  UNL d   1       0.392  -1.796   0.070  0.00  0.00    -0.001 A 
ENDROOT
TORSDOF 0
ENDMDL
