MODEL 1
REMARK minimizedAffinity 14.9918489
REMARK minimizedRMSD -1
REMARK  0 active torsions:
REMARK  status: ('A' for Active; 'I' for Inactive)
ROOT
ATOM      1  C   UNL d   1       1.121  -2.521   1.462  0.00  0.00     0.077 C 
ATOM      2  C1  UNL d   1       1.447  -1.185   0.864  0.00  0.00    -0.074 A 
ATOM      3  C2  UNL d   1       2.241  -0.263   1.553  0.00  0.00    -0.005 A 
ATOM      4  C3  UNL d   1       2.543   0.972   0.979  0.00  0.00     0.006 A 
ATOM      5  C4  UNL d   1       2.056   1.297  -0.287  0.00  0.00    -0.005 A 
ATOM      6  C5  UNL d   1       1.261   0.387  -0.992  0.00  0.00    -0.074 A 
ATOM      7  C6  UNL d   1       0.737   0.717  -2.358  0.00  0.00     0.077 C 
ATOM      8  C7  UNL d   1       0.967  -0.854  -0.412  0.00  0.00    -0.001 A 
ENDROOT
TORSDOF 0
ENDMDL
