MODEL 1
REMARK minimizedAffinity 13.5674925
REMARK minimizedRMSD -1
REMARK  0 active torsions:
REMARK  status: ('A' for Active; 'I' for Inactive)
ROOT
ATOM      1  C   UNL d   1      -6.000   0.831  -3.760  0.00  0.00     0.077 C 
ATOM      2  C1  UNL d   1      -5.161  -0.368  -3.430  0.00  0.00    -0.074 A 
ATOM      3  C2  UNL d   1      -5.272  -1.549  -4.171  0.00  0.00    -0.005 A 
ATOM      4  C3  UNL d   1      -4.479  -2.653  -3.858  0.00  0.00     0.006 A 
ATOM      5  C4  UNL d   1      -3.569  -2.587  -2.802  0.00  0.00    -0.005 A 
ATOM      6  C5  UNL d   1      -3.443  -1.415  -2.051  0.00  0.00    -0.074 A 
ATOM      7  C6  UNL d   1      -2.462  -1.324  -0.920  0.00  0.00     0.077 C 
ATOM      8  C7  UNL d   1      -4.239  -0.307  -2.376  0.00  0.00    -0.001 A 
ENDROOT
TORSDOF 0
ENDMDL
