MODEL 1
REMARK minimizedAffinity 5.08192682
REMARK minimizedRMSD -1
REMARK  0 active torsions:
REMARK  status: ('A' for Active; 'I' for Inactive)
ROOT
ATOM      1  C   UNL d   1       2.150   3.062   2.843  0.00  0.00     0.077 C 
ATOM      2  C1  UNL d   1       2.167   4.090   3.936  0.00  0.00    -0.074 A 
ATOM      3  C2  UNL d   1       0.976   4.591   4.470  0.00  0.00    -0.005 A 
ATOM      4  C3  UNL d   1       1.008   5.539   5.493  0.00  0.00     0.006 A 
ATOM      5  C4  UNL d   1       2.229   5.995   5.990  0.00  0.00    -0.005 A 
ATOM      6  C5  UNL d   1       3.431   5.504   5.469  0.00  0.00    -0.074 A 
ATOM      7  C6  UNL d   1       4.752   5.976   5.999  0.00  0.00     0.077 C 
ATOM      8  C7  UNL d   1       3.390   4.547   4.447  0.00  0.00    -0.001 A 
ENDROOT
TORSDOF 0
ENDMDL
