MODEL 1
REMARK minimizedAffinity 3.77161169
REMARK minimizedRMSD -1
REMARK  1 active torsions:
REMARK  status: ('A' for Active; 'I' for Inactive)
REMARK    1  A    between atoms: C3_4  and  O_7 
ROOT
ATOM      1  C   UNL d   1      -6.000  -0.951  -1.501  0.00  0.00    -0.033 A 
ATOM      2  C1  UNL d   1      -5.087   0.047  -1.846  0.00  0.00     0.039 A 
ATOM      3  C2  UNL d   1      -4.174   0.518  -0.900  0.00  0.00    -0.080 A 
ATOM      4  C3  UNL d   1      -4.184  -0.018   0.385  0.00  0.00     0.150 A 
ATOM      5  C4  UNL d   1      -5.088  -1.016   0.734  0.00  0.00    -0.007 A 
ATOM      6  C5  UNL d   1      -5.999  -1.484  -0.212  0.00  0.00     0.039 A 
ENDROOT
BRANCH   4   7
ATOM      7  O   UNL d   1      -3.316   0.413   1.344  0.00  0.00    -0.526 OA
ATOM      8  H5  UNL d   1      -2.771   1.124   0.968  0.00  0.00     0.418 HD
ENDBRANCH   4   7
TORSDOF 1
ENDMDL
