MODEL 1
REMARK minimizedAffinity 9.14932919
REMARK minimizedRMSD -1
REMARK  1 active torsions:
REMARK  status: ('A' for Active; 'I' for Inactive)
REMARK    1  A    between atoms: C3_4  and  O_7 
ROOT
ATOM      1  C   UNL d   1      -4.499   0.867   0.397  0.00  0.00    -0.033 A 
ATOM      2  C1  UNL d   1      -3.982  -0.418   0.573  0.00  0.00     0.039 A 
ATOM      3  C2  UNL d   1      -4.476  -1.480  -0.187  0.00  0.00    -0.080 A 
ATOM      4  C3  UNL d   1      -5.483  -1.244  -1.118  0.00  0.00     0.150 A 
ATOM      5  C4  UNL d   1      -6.000   0.034  -1.301  0.00  0.00    -0.007 A 
ATOM      6  C5  UNL d   1      -5.506   1.094  -0.541  0.00  0.00     0.039 A 
ENDROOT
BRANCH   4   7
ATOM      7  O   UNL d   1      -6.000  -2.250  -1.880  0.00  0.00    -0.526 OA
ATOM      8  H5  UNL d   1      -5.567  -3.082  -1.624  0.00  0.00     0.418 HD
ENDBRANCH   4   7
TORSDOF 1
ENDMDL
