MODEL 1
REMARK minimizedAffinity 3.91807222
REMARK minimizedRMSD -1
REMARK  1 active torsions:
REMARK  status: ('A' for Active; 'I' for Inactive)
REMARK    1  A    between atoms: C3_4  and  O_7 
ROOT
ATOM      1  C   UNL d   1      -4.453  -0.489  -1.095  0.00  0.00    -0.033 A 
ATOM      2  C1  UNL d   1      -3.689  -0.037  -2.173  0.00  0.00     0.039 A 
ATOM      3  C2  UNL d   1      -2.295  -0.044  -2.095  0.00  0.00    -0.080 A 
ATOM      4  C3  UNL d   1      -1.678  -0.506  -0.936  0.00  0.00     0.150 A 
ATOM      5  C4  UNL d   1      -2.432  -0.961   0.140  0.00  0.00    -0.007 A 
ATOM      6  C5  UNL d   1      -3.824  -0.952   0.061  0.00  0.00     0.039 A 
ENDROOT
BRANCH   4   7
ATOM      7  O   UNL d   1      -0.320  -0.528  -0.811  0.00  0.00    -0.526 OA
ATOM      8  H5  UNL d   1       0.069  -0.158  -1.621  0.00  0.00     0.418 HD
ENDBRANCH   4   7
TORSDOF 1
ENDMDL
