MODEL 1
REMARK minimizedAffinity 3.03464031
REMARK minimizedRMSD -1
REMARK  1 active torsions:
REMARK  status: ('A' for Active; 'I' for Inactive)
REMARK    1  A    between atoms: C3_4  and  O_7 
ROOT
ATOM      1  C   UNL d   1       2.802  -0.508   1.030  0.00  0.00    -0.033 A 
ATOM      2  C1  UNL d   1       2.250  -1.634   1.644  0.00  0.00     0.039 A 
ATOM      3  C2  UNL d   1       1.379  -2.462   0.933  0.00  0.00    -0.080 A 
ATOM      4  C3  UNL d   1       1.071  -2.155  -0.389  0.00  0.00     0.150 A 
ATOM      5  C4  UNL d   1       1.620  -1.037  -1.008  0.00  0.00    -0.007 A 
ATOM      6  C5  UNL d   1       2.488  -0.210  -0.296  0.00  0.00     0.039 A 
ENDROOT
BRANCH   4   7
ATOM      7  O   UNL d   1       0.222  -2.931  -1.121  0.00  0.00    -0.526 OA
ATOM      8  H5  UNL d   1      -0.102  -3.651  -0.555  0.00  0.00     0.418 HD
ENDBRANCH   4   7
TORSDOF 1
ENDMDL
