MODEL 1
REMARK minimizedAffinity 1.37445021
REMARK minimizedRMSD -1
REMARK  1 active torsions:
REMARK  status: ('A' for Active; 'I' for Inactive)
REMARK    1  A    between atoms: C3_4  and  O_7 
ROOT
ATOM      1  C   UNL d   1      -1.113  -4.977   5.998  0.00  0.00    -0.033 A 
ATOM      2  C1  UNL d   1      -1.810  -3.767   5.999  0.00  0.00     0.039 A 
ATOM      3  C2  UNL d   1      -1.112  -2.558   5.998  0.00  0.00    -0.080 A 
ATOM      4  C3  UNL d   1       0.280  -2.572   5.995  0.00  0.00     0.150 A 
ATOM      5  C4  UNL d   1       0.981  -3.773   5.990  0.00  0.00    -0.007 A 
ATOM      6  C5  UNL d   1       0.282  -4.980   5.992  0.00  0.00     0.039 A 
ENDROOT
BRANCH   4   7
ATOM      7  O   UNL d   1       1.004  -1.417   5.999  0.00  0.00    -0.526 OA
ATOM      8  H5  UNL d   1       0.387  -0.667   6.032  0.00  0.00     0.418 HD
ENDBRANCH   4   7
TORSDOF 1
ENDMDL
