MODEL 1
REMARK minimizedAffinity 0.0814413056
REMARK minimizedRMSD -1
REMARK  1 active torsions:
REMARK  status: ('A' for Active; 'I' for Inactive)
REMARK    1  A    between atoms: C3_4  and  O_7 
ROOT
ATOM      1  C   UNL d   1       1.215   0.528   0.717  0.00  0.00    -0.033 A 
ATOM      2  C1  UNL d   1       2.042  -0.395   0.073  0.00  0.00     0.039 A 
ATOM      3  C2  UNL d   1       1.486  -1.391  -0.732  0.00  0.00    -0.080 A 
ATOM      4  C3  UNL d   1       0.103  -1.452  -0.885  0.00  0.00     0.150 A 
ATOM      5  C4  UNL d   1      -0.726  -0.534  -0.250  0.00  0.00    -0.007 A 
ATOM      6  C5  UNL d   1      -0.168   0.459   0.554  0.00  0.00     0.039 A 
ENDROOT
BRANCH   4   7
ATOM      7  O   UNL d   1      -0.486  -2.409  -1.657  0.00  0.00    -0.526 OA
ATOM      8  H5  UNL d   1       0.208  -2.991  -2.010  0.00  0.00     0.418 HD
ENDBRANCH   4   7
TORSDOF 1
ENDMDL
