MODEL 1
REMARK minimizedAffinity -0.764383614
REMARK minimizedRMSD -1
REMARK  1 active torsions:
REMARK  status: ('A' for Active; 'I' for Inactive)
REMARK    1  A    between atoms: C3_4  and  O_7 
ROOT
ATOM      1  C   UNL d   1      -4.183   2.347   2.024  0.00  0.00    -0.033 A 
ATOM      2  C1  UNL d   1      -5.492   1.923   2.259  0.00  0.00     0.039 A 
ATOM      3  C2  UNL d   1      -6.000   0.812   1.583  0.00  0.00    -0.080 A 
ATOM      4  C3  UNL d   1      -5.189   0.134   0.676  0.00  0.00     0.150 A 
ATOM      5  C4  UNL d   1      -3.883   0.549   0.440  0.00  0.00    -0.007 A 
ATOM      6  C5  UNL d   1      -3.378   1.659   1.115  0.00  0.00     0.039 A 
ENDROOT
BRANCH   4   7
ATOM      7  O   UNL d   1      -5.642  -0.952  -0.011  0.00  0.00    -0.526 OA
ATOM      8  H5  UNL d   1      -6.570  -1.105   0.232  0.00  0.00     0.418 HD
ENDBRANCH   4   7
TORSDOF 1
ENDMDL
