MODEL 1
REMARK minimizedAffinity 5.11139965
REMARK minimizedRMSD -1
REMARK  1 active torsions:
REMARK  status: ('A' for Active; 'I' for Inactive)
REMARK    1  A    between atoms: C1_2  and  C2_3 
ROOT
ATOM      1  C2  UNL d   1      -5.125   1.625   0.505  0.00  0.00    -0.073 A 
ATOM      2  C3  UNL d   1      -3.984   2.347   0.871  0.00  0.00    -0.002 A 
ATOM      3  C4  UNL d   1      -3.335   2.075   2.076  0.00  0.00     0.004 A 
ATOM      4  C5  UNL d   1      -3.815   1.076   2.923  0.00  0.00    -0.004 A 
ATOM      5  C6  UNL d   1      -4.947   0.336   2.568  0.00  0.00    -0.075 A 
ATOM      6  C7  UNL d   1      -5.478  -0.741   3.469  0.00  0.00     0.076 C 
ATOM      7  C8  UNL d   1      -5.595   0.616   1.358  0.00  0.00     0.001 A 
ENDROOT
BRANCH   1   8
ATOM      8  C1  UNL d   1      -5.826   1.910  -0.799  0.00  0.00     0.053 C 
ATOM      9  C   UNL d   1      -5.209   3.092  -1.530  0.00  0.00     0.018 C 
ENDBRANCH   1   8
TORSDOF 1
ENDMDL
