MODEL 1
REMARK minimizedAffinity 7.77980995
REMARK minimizedRMSD -1
REMARK  1 active torsions:
REMARK  status: ('A' for Active; 'I' for Inactive)
REMARK    1  A    between atoms: C1_2  and  C2_3 
ROOT
ATOM      1  C2  UNL d   1      -5.353   1.715  -0.176  0.00  0.00    -0.073 A 
ATOM      2  C3  UNL d   1      -5.998   0.801   0.666  0.00  0.00    -0.002 A 
ATOM      3  C4  UNL d   1      -5.398   0.395   1.858  0.00  0.00     0.004 A 
ATOM      4  C5  UNL d   1      -4.151   0.902   2.224  0.00  0.00    -0.004 A 
ATOM      5  C6  UNL d   1      -3.495   1.825   1.403  0.00  0.00    -0.075 A 
ATOM      6  C7  UNL d   1      -2.153   2.378   1.781  0.00  0.00     0.076 C 
ATOM      7  C8  UNL d   1      -4.104   2.226   0.206  0.00  0.00     0.001 A 
ENDROOT
BRANCH   1   8
ATOM      8  C1  UNL d   1      -6.000   2.161  -1.461  0.00  0.00     0.053 C 
ATOM      9  C   UNL d   1      -5.256   3.323  -2.100  0.00  0.00     0.018 C 
ENDBRANCH   1   8
TORSDOF 1
ENDMDL
