MODEL 1
REMARK minimizedAffinity -2.90689516
REMARK minimizedRMSD -1
REMARK  1 active torsions:
REMARK  status: ('A' for Active; 'I' for Inactive)
REMARK    1  A    between atoms: C1_2  and  C2_3 
ROOT
ATOM      1  C2  UNL d   1      -5.981   3.444  -2.572  0.00  0.00    -0.073 A 
ATOM      2  C3  UNL d   1      -5.980   4.456  -3.538  0.00  0.00    -0.002 A 
ATOM      3  C4  UNL d   1      -5.978   4.134  -4.896  0.00  0.00     0.004 A 
ATOM      4  C5  UNL d   1      -5.983   2.799  -5.301  0.00  0.00    -0.004 A 
ATOM      5  C6  UNL d   1      -5.996   1.774  -4.350  0.00  0.00    -0.075 A 
ATOM      6  C7  UNL d   1      -6.000   0.333  -4.769  0.00  0.00     0.076 C 
ATOM      7  C8  UNL d   1      -5.996   2.105  -2.988  0.00  0.00     0.001 A 
ENDROOT
BRANCH   1   8
ATOM      8  C1  UNL d   1      -5.991   3.787  -1.104  0.00  0.00     0.053 C 
ATOM      9  C   UNL d   1      -5.896   2.548  -0.229  0.00  0.00     0.018 C 
ENDBRANCH   1   8
TORSDOF 1
ENDMDL
