MODEL 1
REMARK minimizedAffinity -0.660498679
REMARK minimizedRMSD -1
REMARK  1 active torsions:
REMARK  status: ('A' for Active; 'I' for Inactive)
REMARK    1  A    between atoms: C1_2  and  C2_3 
ROOT
ATOM      1  C2  UNL d   1       2.428  -4.641  -0.471  0.00  0.00    -0.073 A 
ATOM      2  C3  UNL d   1       3.447  -5.463  -0.964  0.00  0.00    -0.002 A 
ATOM      3  C4  UNL d   1       4.749  -4.975  -1.087  0.00  0.00     0.004 A 
ATOM      4  C5  UNL d   1       5.046  -3.665  -0.711  0.00  0.00    -0.004 A 
ATOM      5  C6  UNL d   1       4.044  -2.832  -0.205  0.00  0.00    -0.075 A 
ATOM      6  C7  UNL d   1       4.346  -1.420   0.201  0.00  0.00     0.076 C 
ATOM      7  C8  UNL d   1       2.738  -3.328  -0.088  0.00  0.00     0.001 A 
ENDROOT
BRANCH   1   8
ATOM      8  C1  UNL d   1       1.022  -5.165  -0.331  0.00  0.00     0.053 C 
ATOM      9  C   UNL d   1       0.040  -4.402  -1.205  0.00  0.00     0.018 C 
ENDBRANCH   1   8
TORSDOF 1
ENDMDL
