MODEL 1
REMARK minimizedAffinity 1.67356157
REMARK minimizedRMSD -1
REMARK  1 active torsions:
REMARK  status: ('A' for Active; 'I' for Inactive)
REMARK    1  A    between atoms: C1_2  and  C2_3 
ROOT
ATOM      1  C2  UNL d   1      -5.966   3.615  -4.104  0.00  0.00    -0.073 A 
ATOM      2  C3  UNL d   1      -5.982   2.284  -3.671  0.00  0.00    -0.002 A 
ATOM      3  C4  UNL d   1      -5.995   1.987  -2.308  0.00  0.00     0.004 A 
ATOM      4  C5  UNL d   1      -6.000   3.014  -1.365  0.00  0.00    -0.004 A 
ATOM      5  C6  UNL d   1      -5.997   4.351  -1.778  0.00  0.00    -0.075 A 
ATOM      6  C7  UNL d   1      -6.000   5.468  -0.776  0.00  0.00     0.076 C 
ATOM      7  C8  UNL d   1      -5.981   4.642  -3.149  0.00  0.00     0.001 A 
ENDROOT
BRANCH   1   8
ATOM      8  C1  UNL d   1      -5.959   3.942  -5.575  0.00  0.00     0.053 C 
ATOM      9  C   UNL d   1      -4.671   4.629  -6.000  0.00  0.00     0.018 C 
ENDBRANCH   1   8
TORSDOF 1
ENDMDL
