MODEL 1
REMARK minimizedAffinity 6.15237808
REMARK minimizedRMSD -1
REMARK  1 active torsions:
REMARK  status: ('A' for Active; 'I' for Inactive)
REMARK    1  A    between atoms: C1_2  and  C2_3 
ROOT
ATOM      1  C2  UNL d   1       2.568   0.402  -1.789  0.00  0.00    -0.077 A 
ATOM      2  C3  UNL d   1       3.305  -0.791  -1.801  0.00  0.00     0.002 A 
ATOM      3  C4  UNL d   1       3.309  -1.630  -0.685  0.00  0.00     0.002 A 
ATOM      4  C5  UNL d   1       2.574  -1.289   0.448  0.00  0.00    -0.004 A 
ATOM      5  C6  UNL d   1       1.840  -0.104   0.471  0.00  0.00     0.002 A 
ATOM      6  C7  UNL d   1       1.836   0.737  -0.643  0.00  0.00     0.002 A 
ENDROOT
BRANCH   1   7
ATOM      7  C1  UNL d   1       2.524   1.284  -3.009  0.00  0.00     0.055 C 
ATOM      8  C   UNL d   1       1.238   1.076  -3.796  0.00  0.00     0.019 C 
ENDBRANCH   1   7
TORSDOF 1
ENDMDL
