MODEL 1
REMARK minimizedAffinity -4.55367708
REMARK minimizedRMSD -1
REMARK  1 active torsions:
REMARK  status: ('A' for Active; 'I' for Inactive)
REMARK    1  A    between atoms: C1_2  and  C2_3 
ROOT
ATOM      1  C2  UNL d   1      -0.362   2.261   0.999  0.00  0.00    -0.077 A 
ATOM      2  C3  UNL d   1      -0.402   1.020   0.348  0.00  0.00     0.002 A 
ATOM      3  C4  UNL d   1      -1.621   0.373   0.135  0.00  0.00     0.002 A 
ATOM      4  C5  UNL d   1      -2.808   0.960   0.567  0.00  0.00    -0.004 A 
ATOM      5  C6  UNL d   1      -2.779   2.193   1.218  0.00  0.00     0.002 A 
ATOM      6  C7  UNL d   1      -1.561   2.841   1.432  0.00  0.00     0.002 A 
ENDROOT
BRANCH   1   7
ATOM      7  C1  UNL d   1       0.946   2.983   1.186  0.00  0.00     0.055 C 
ATOM      8  C   UNL d   1       2.052   2.026   1.605  0.00  0.00     0.019 C 
ENDBRANCH   1   7
TORSDOF 1
ENDMDL
