MODEL 1
REMARK minimizedAffinity 2.58720517
REMARK minimizedRMSD -1
REMARK  1 active torsions:
REMARK  status: ('A' for Active; 'I' for Inactive)
REMARK    1  A    between atoms: C1_2  and  C2_3 
ROOT
ATOM      1  C2  UNL d   1       1.398   0.991  -3.795  0.00  0.00    -0.077 A 
ATOM      2  C3  UNL d   1       2.779   1.220  -3.873  0.00  0.00     0.002 A 
ATOM      3  C4  UNL d   1       3.323   1.887  -4.972  0.00  0.00     0.002 A 
ATOM      4  C5  UNL d   1       2.494   2.334  -5.999  0.00  0.00    -0.004 A 
ATOM      5  C6  UNL d   1       1.120   2.109  -5.931  0.00  0.00     0.002 A 
ATOM      6  C7  UNL d   1       0.574   1.442  -4.834  0.00  0.00     0.002 A 
ENDROOT
BRANCH   1   7
ATOM      7  C1  UNL d   1       0.803   0.315  -2.587  0.00  0.00     0.055 C 
ATOM      8  C   UNL d   1       0.453   1.326  -1.504  0.00  0.00     0.019 C 
ENDBRANCH   1   7
TORSDOF 1
ENDMDL
