MODEL 1
REMARK minimizedAffinity 13.3130722
REMARK minimizedRMSD -1
REMARK  1 active torsions:
REMARK  status: ('A' for Active; 'I' for Inactive)
REMARK    1  A    between atoms: C1_2  and  C2_3 
ROOT
ATOM      1  C2  UNL d   1      -1.852   2.399  -5.942  0.00  0.00    -0.077 A 
ATOM      2  C3  UNL d   1      -3.086   1.734  -5.972  0.00  0.00     0.002 A 
ATOM      3  C4  UNL d   1      -4.279   2.461  -5.997  0.00  0.00     0.002 A 
ATOM      4  C5  UNL d   1      -4.248   3.853  -5.996  0.00  0.00    -0.004 A 
ATOM      5  C6  UNL d   1      -3.026   4.523  -5.963  0.00  0.00     0.002 A 
ATOM      6  C7  UNL d   1      -1.833   3.799  -5.937  0.00  0.00     0.002 A 
ENDROOT
BRANCH   1   7
ATOM      7  C1  UNL d   1      -0.564   1.618  -5.965  0.00  0.00     0.055 C 
ATOM      8  C   UNL d   1      -0.164   1.169  -4.567  0.00  0.00     0.019 C 
ENDBRANCH   1   7
TORSDOF 1
ENDMDL
