MODEL 1
REMARK minimizedAffinity 5.20733356
REMARK minimizedRMSD -1
REMARK  1 active torsions:
REMARK  status: ('A' for Active; 'I' for Inactive)
REMARK    1  A    between atoms: C1_2  and  C2_3 
ROOT
ATOM      1  C2  UNL d   1      -3.295   4.084  -5.931  0.00  0.00    -0.077 A 
ATOM      2  C3  UNL d   1      -4.304   5.056  -5.963  0.00  0.00     0.002 A 
ATOM      3  C4  UNL d   1      -5.648   4.678  -5.998  0.00  0.00     0.002 A 
ATOM      4  C5  UNL d   1      -5.995   3.329  -5.997  0.00  0.00    -0.004 A 
ATOM      5  C6  UNL d   1      -4.998   2.354  -5.967  0.00  0.00     0.002 A 
ATOM      6  C7  UNL d   1      -3.654   2.730  -5.933  0.00  0.00     0.002 A 
ENDROOT
BRANCH   1   7
ATOM      7  C1  UNL d   1      -1.847   4.489  -5.843  0.00  0.00     0.055 C 
ATOM      8  C   UNL d   1      -1.685   5.996  -5.981  0.00  0.00     0.019 C 
ENDBRANCH   1   7
TORSDOF 1
ENDMDL
