MODEL 1
REMARK minimizedAffinity 7.13910055
REMARK minimizedRMSD -1
REMARK  1 active torsions:
REMARK  status: ('A' for Active; 'I' for Inactive)
REMARK    1  A    between atoms: C1_2  and  C2_3 
ROOT
ATOM      1  C2  UNL d   1       0.197   1.265   1.431  0.00  0.00    -0.077 A 
ATOM      2  C3  UNL d   1       0.890   0.271   0.726  0.00  0.00     0.002 A 
ATOM      3  C4  UNL d   1       2.286   0.261   0.707  0.00  0.00     0.002 A 
ATOM      4  C5  UNL d   1       3.001   1.240   1.394  0.00  0.00    -0.004 A 
ATOM      5  C6  UNL d   1       2.321   2.234   2.097  0.00  0.00     0.002 A 
ATOM      6  C7  UNL d   1       0.926   2.246   2.116  0.00  0.00     0.002 A 
ENDROOT
BRANCH   1   7
ATOM      7  C1  UNL d   1      -1.308   1.249   1.494  0.00  0.00     0.055 C 
ATOM      8  C   UNL d   1      -1.898   2.544   0.956  0.00  0.00     0.019 C 
ENDBRANCH   1   7
TORSDOF 1
ENDMDL
