MODEL 1
REMARK minimizedAffinity 4.80256128
REMARK minimizedRMSD -1
REMARK  1 active torsions:
REMARK  status: ('A' for Active; 'I' for Inactive)
REMARK    1  A    between atoms: C1_2  and  C2_3 
ROOT
ATOM      1  C2  UNL d   1       0.047   0.352   0.242  0.00  0.00    -0.077 A 
ATOM      2  C3  UNL d   1      -1.078  -0.362  -0.195  0.00  0.00     0.002 A 
ATOM      3  C4  UNL d   1      -2.355   0.189  -0.075  0.00  0.00     0.002 A 
ATOM      4  C5  UNL d   1      -2.519   1.457   0.477  0.00  0.00    -0.004 A 
ATOM      5  C6  UNL d   1      -1.407   2.175   0.917  0.00  0.00     0.002 A 
ATOM      6  C7  UNL d   1      -0.130   1.625   0.799  0.00  0.00     0.002 A 
ENDROOT
BRANCH   1   7
ATOM      7  C1  UNL d   1       1.429  -0.221   0.068  0.00  0.00     0.055 C 
ATOM      8  C   UNL d   1       2.494   0.744   0.568  0.00  0.00     0.019 C 
ENDBRANCH   1   7
TORSDOF 1
ENDMDL
