MODEL 1
REMARK minimizedAffinity -5.05133438
REMARK minimizedRMSD -1
REMARK  1 active torsions:
REMARK  status: ('A' for Active; 'I' for Inactive)
REMARK    1  A    between atoms: C1_2  and  C2_3 
ROOT
ATOM      1  C2  UNL d   1      -1.100   0.775  -0.289  0.00  0.00    -0.077 A 
ATOM      2  C3  UNL d   1      -2.034   0.119  -1.104  0.00  0.00     0.002 A 
ATOM      3  C4  UNL d   1      -1.894  -1.241  -1.384  0.00  0.00     0.002 A 
ATOM      4  C5  UNL d   1      -0.824  -1.958  -0.852  0.00  0.00    -0.004 A 
ATOM      5  C6  UNL d   1       0.111  -1.314  -0.042  0.00  0.00     0.002 A 
ATOM      6  C7  UNL d   1      -0.027   0.046   0.238  0.00  0.00     0.002 A 
ENDROOT
BRANCH   1   7
ATOM      7  C1  UNL d   1      -1.277   2.231   0.055  0.00  0.00     0.055 C 
ATOM      8  C   UNL d   1      -0.202   2.705   1.023  0.00  0.00     0.019 C 
ENDBRANCH   1   7
TORSDOF 1
ENDMDL
