MODEL 1
REMARK minimizedAffinity -1.11499524
REMARK minimizedRMSD -1
REMARK  1 active torsions:
REMARK  status: ('A' for Active; 'I' for Inactive)
REMARK    1  A    between atoms: C1_2  and  C2_3 
ROOT
ATOM      1  C2  UNL d   1       1.622   1.159   0.443  0.00  0.00    -0.077 A 
ATOM      2  C3  UNL d   1       2.180   1.500  -0.797  0.00  0.00     0.002 A 
ATOM      3  C4  UNL d   1       2.430   2.836  -1.116  0.00  0.00     0.002 A 
ATOM      4  C5  UNL d   1       2.130   3.840  -0.198  0.00  0.00    -0.004 A 
ATOM      5  C6  UNL d   1       1.573   3.512   1.037  0.00  0.00     0.002 A 
ATOM      6  C7  UNL d   1       1.321   2.177   1.357  0.00  0.00     0.002 A 
ENDROOT
BRANCH   1   7
ATOM      7  C1  UNL d   1       1.397  -0.285   0.808  0.00  0.00     0.055 C 
ATOM      8  C   UNL d   1       2.424  -1.191   0.144  0.00  0.00     0.019 C 
ENDBRANCH   1   7
TORSDOF 1
ENDMDL
