MODEL 1
REMARK minimizedAffinity -3.7591629
REMARK minimizedRMSD -1
REMARK  0 active torsions:
REMARK  status: ('A' for Active; 'I' for Inactive)
ROOT
ATOM      1  C   UNL d   1      -1.775   1.844   1.583  0.00  0.00     0.020 A 
ATOM      2  C1  UNL d   1      -1.802   1.894   0.190  0.00  0.00     0.020 A 
ATOM      3  C2  UNL d   1      -1.024   1.005  -0.556  0.00  0.00     0.034 A 
ATOM      4  C3  UNL d   1      -0.217   0.063   0.091  0.00  0.00     0.017 A 
ATOM      5  C4  UNL d   1      -0.191   0.014   1.490  0.00  0.00     0.017 A 
ATOM      6  C5  UNL d   1      -0.971   0.906   2.232  0.00  0.00     0.034 A 
ATOM      7 Cl   UNL d   1       0.781  -1.121   2.359  0.00  0.00    -0.070 Cl
ATOM      8 Cl1  UNL d   1       0.718  -1.005  -0.893  0.00  0.00    -0.070 Cl
ENDROOT
TORSDOF 0
ENDMDL
