MODEL 1
REMARK minimizedAffinity -3.52101278
REMARK minimizedRMSD -1
REMARK  0 active torsions:
REMARK  status: ('A' for Active; 'I' for Inactive)
ROOT
ATOM      1  C   UNL d   1      -1.349   0.076   0.205  0.00  0.00     0.020 A 
ATOM      2  C1  UNL d   1      -0.068   0.620   0.113  0.00  0.00     0.020 A 
ATOM      3  C2  UNL d   1       0.968  -0.128  -0.449  0.00  0.00     0.034 A 
ATOM      4  C3  UNL d   1       0.726  -1.423  -0.922  0.00  0.00     0.017 A 
ATOM      5  C4  UNL d   1      -0.560  -1.967  -0.829  0.00  0.00     0.017 A 
ATOM      6  C5  UNL d   1      -1.594  -1.214  -0.265  0.00  0.00     0.034 A 
ATOM      7 Cl   UNL d   1      -0.935  -3.558  -1.390  0.00  0.00    -0.070 Cl
ATOM      8 Cl1  UNL d   1       2.055  -2.290  -1.606  0.00  0.00    -0.070 Cl
ENDROOT
TORSDOF 0
ENDMDL
