MODEL 1
REMARK minimizedAffinity 0.378904969
REMARK minimizedRMSD -1
REMARK  0 active torsions:
REMARK  status: ('A' for Active; 'I' for Inactive)
ROOT
ATOM      1  C   UNL d   1      -1.045  -0.035   1.900  0.00  0.00     0.020 A 
ATOM      2  C1  UNL d   1      -2.023  -0.866   1.353  0.00  0.00     0.020 A 
ATOM      3  C2  UNL d   1      -1.774  -1.544   0.158  0.00  0.00     0.034 A 
ATOM      4  C3  UNL d   1      -0.545  -1.392  -0.495  0.00  0.00     0.017 A 
ATOM      5  C4  UNL d   1       0.435  -0.557   0.054  0.00  0.00     0.017 A 
ATOM      6  C5  UNL d   1       0.181   0.119   1.251  0.00  0.00     0.034 A 
ATOM      7 Cl   UNL d   1       1.975  -0.320  -0.693  0.00  0.00    -0.070 Cl
ATOM      8 Cl1  UNL d   1      -0.306  -2.260  -1.970  0.00  0.00    -0.070 Cl
ENDROOT
TORSDOF 0
ENDMDL
