MODEL 1
REMARK minimizedAffinity -3.72538614
REMARK minimizedRMSD -1
REMARK  0 active torsions:
REMARK  status: ('A' for Active; 'I' for Inactive)
ROOT
ATOM      1  C   UNL d   1       0.857  -0.614   0.395  0.00  0.00     0.020 A 
ATOM      2  C1  UNL d   1       0.193  -0.669   1.620  0.00  0.00     0.020 A 
ATOM      3  C2  UNL d   1      -0.874   0.196   1.876  0.00  0.00     0.034 A 
ATOM      4  C3  UNL d   1      -1.280   1.119   0.905  0.00  0.00     0.017 A 
ATOM      5  C4  UNL d   1      -0.613   1.173  -0.324  0.00  0.00     0.017 A 
ATOM      6  C5  UNL d   1       0.455   0.305  -0.575  0.00  0.00     0.034 A 
ATOM      7 Cl   UNL d   1      -1.056   2.285  -1.571  0.00  0.00    -0.070 Cl
ATOM      8 Cl1  UNL d   1      -2.606   2.157   1.289  0.00  0.00    -0.070 Cl
ENDROOT
TORSDOF 0
ENDMDL
