MODEL 1
REMARK minimizedAffinity -2.22560692
REMARK minimizedRMSD -1
REMARK  0 active torsions:
REMARK  status: ('A' for Active; 'I' for Inactive)
ROOT
ATOM      1  C   UNL d   1      -0.108  -2.793  -2.128  0.00  0.00     0.020 A 
ATOM      2  C1  UNL d   1       1.250  -3.092  -2.229  0.00  0.00     0.020 A 
ATOM      3  C2  UNL d   1       2.195  -2.263  -1.620  0.00  0.00     0.034 A 
ATOM      4  C3  UNL d   1       1.783  -1.131  -0.908  0.00  0.00     0.017 A 
ATOM      5  C4  UNL d   1       0.419  -0.832  -0.806  0.00  0.00     0.017 A 
ATOM      6  C5  UNL d   1      -0.522  -1.665  -1.418  0.00  0.00     0.034 A 
ATOM      7 Cl   UNL d   1      -0.166   0.547   0.056  0.00  0.00    -0.070 Cl
ATOM      8 Cl1  UNL d   1       3.005  -0.151  -0.180  0.00  0.00    -0.070 Cl
ENDROOT
TORSDOF 0
ENDMDL
