MODEL 1
REMARK minimizedAffinity -2.81402588
REMARK minimizedRMSD -1
REMARK  0 active torsions:
REMARK  status: ('A' for Active; 'I' for Inactive)
ROOT
ATOM      1  C   UNL d   1       0.837   1.465  -1.050  0.00  0.00     0.020 A 
ATOM      2  C1  UNL d   1       1.177   0.114  -1.006  0.00  0.00     0.020 A 
ATOM      3  C2  UNL d   1       0.750  -0.680   0.061  0.00  0.00     0.034 A 
ATOM      4  C3  UNL d   1      -0.021  -0.123   1.088  0.00  0.00     0.017 A 
ATOM      5  C4  UNL d   1      -0.362   1.234   1.043  0.00  0.00     0.017 A 
ATOM      6  C5  UNL d   1       0.069   2.024  -0.027  0.00  0.00     0.034 A 
ATOM      7 Cl   UNL d   1      -1.310   1.993   2.273  0.00  0.00    -0.070 Cl
ATOM      8 Cl1  UNL d   1      -0.515  -1.163   2.376  0.00  0.00    -0.070 Cl
ENDROOT
TORSDOF 0
ENDMDL
