MODEL 1
REMARK minimizedAffinity -4.60658598
REMARK minimizedRMSD -1
REMARK  0 active torsions:
REMARK  status: ('A' for Active; 'I' for Inactive)
ROOT
ATOM      1  C   UNL d   1      -1.413   0.981   1.949  0.00  0.00     0.020 A 
ATOM      2  C1  UNL d   1      -0.851  -0.295   1.909  0.00  0.00     0.020 A 
ATOM      3  C2  UNL d   1       0.060  -0.625   0.904  0.00  0.00     0.034 A 
ATOM      4  C3  UNL d   1       0.412   0.321  -0.066  0.00  0.00     0.017 A 
ATOM      5  C4  UNL d   1      -0.153   1.601  -0.025  0.00  0.00     0.017 A 
ATOM      6  C5  UNL d   1      -1.064   1.926   0.984  0.00  0.00     0.034 A 
ATOM      7 Cl   UNL d   1       0.233   2.822  -1.186  0.00  0.00    -0.070 Cl
ATOM      8 Cl1  UNL d   1       1.545  -0.156  -1.280  0.00  0.00    -0.070 Cl
ENDROOT
TORSDOF 0
ENDMDL
