MODEL 1
REMARK minimizedAffinity -4.887815
REMARK minimizedRMSD -1
REMARK  0 active torsions:
REMARK  status: ('A' for Active; 'I' for Inactive)
ROOT
ATOM      1  C   UNL d   1      -0.978   2.655  -0.019  0.00  0.00     0.020 A 
ATOM      2  C1  UNL d   1      -1.409   2.567   1.304  0.00  0.00     0.020 A 
ATOM      3  C2  UNL d   1      -1.078   1.449   2.073  0.00  0.00     0.034 A 
ATOM      4  C3  UNL d   1      -0.313   0.416   1.520  0.00  0.00     0.017 A 
ATOM      5  C4  UNL d   1       0.119   0.505   0.191  0.00  0.00     0.017 A 
ATOM      6  C5  UNL d   1      -0.216   1.627  -0.574  0.00  0.00     0.034 A 
ATOM      7 Cl   UNL d   1       1.066  -0.730  -0.561  0.00  0.00    -0.070 Cl
ATOM      8 Cl1  UNL d   1       0.060  -0.937   2.529  0.00  0.00    -0.070 Cl
ENDROOT
TORSDOF 0
ENDMDL
