MODEL 1
REMARK minimizedAffinity -5.30555534
REMARK minimizedRMSD -1
REMARK  0 active torsions:
REMARK  status: ('A' for Active; 'I' for Inactive)
ROOT
ATOM      1  C   UNL d   1      -1.792   2.793   1.133  0.00  0.00     0.020 A 
ATOM      2  C1  UNL d   1      -1.050   3.156   0.010  0.00  0.00     0.020 A 
ATOM      3  C2  UNL d   1      -0.206   2.226  -0.600  0.00  0.00     0.034 A 
ATOM      4  C3  UNL d   1      -0.103   0.927  -0.088  0.00  0.00     0.017 A 
ATOM      5  C4  UNL d   1      -0.849   0.563   1.039  0.00  0.00     0.017 A 
ATOM      6  C5  UNL d   1      -1.692   1.499   1.646  0.00  0.00     0.034 A 
ATOM      7 Cl   UNL d   1      -0.774  -1.020   1.728  0.00  0.00    -0.070 Cl
ATOM      8 Cl1  UNL d   1       0.959  -0.172  -0.894  0.00  0.00    -0.070 Cl
ENDROOT
TORSDOF 0
ENDMDL
