MODEL 1
REMARK minimizedAffinity -3.06373787
REMARK minimizedRMSD -1
REMARK  0 active torsions:
REMARK  status: ('A' for Active; 'I' for Inactive)
ROOT
ATOM      1  C   UNL d   1      -1.973   2.292   1.539  0.00  0.00     0.020 A 
ATOM      2  C1  UNL d   1      -1.362   2.534   0.309  0.00  0.00     0.020 A 
ATOM      3  C2  UNL d   1      -0.560   1.553  -0.277  0.00  0.00     0.034 A 
ATOM      4  C3  UNL d   1      -0.365   0.326   0.366  0.00  0.00     0.017 A 
ATOM      5  C4  UNL d   1      -0.978   0.084   1.601  0.00  0.00     0.017 A 
ATOM      6  C5  UNL d   1      -1.781   1.069   2.184  0.00  0.00     0.034 A 
ATOM      7 Cl   UNL d   1      -0.785  -1.406   2.455  0.00  0.00    -0.070 Cl
ATOM      8 Cl1  UNL d   1       0.640  -0.841  -0.417  0.00  0.00    -0.070 Cl
ENDROOT
TORSDOF 0
ENDMDL
