MODEL 1
REMARK minimizedAffinity -5.84257364
REMARK minimizedRMSD -1
REMARK  0 active torsions:
REMARK  status: ('A' for Active; 'I' for Inactive)
ROOT
ATOM      1  C   UNL d   1      -1.857   0.846   1.927  0.00  0.00     0.020 A 
ATOM      2  C1  UNL d   1      -2.140   2.197   1.731  0.00  0.00     0.020 A 
ATOM      3  C2  UNL d   1      -1.416   2.933   0.790  0.00  0.00     0.034 A 
ATOM      4  C3  UNL d   1      -0.406   2.318   0.041  0.00  0.00     0.017 A 
ATOM      5  C4  UNL d   1      -0.123   0.961   0.239  0.00  0.00     0.017 A 
ATOM      6  C5  UNL d   1      -0.851   0.230   1.183  0.00  0.00     0.034 A 
ATOM      7 Cl   UNL d   1       1.108   0.133  -0.647  0.00  0.00    -0.070 Cl
ATOM      8 Cl1  UNL d   1       0.448   3.288  -1.105  0.00  0.00    -0.070 Cl
ENDROOT
TORSDOF 0
ENDMDL
