MODEL 1
REMARK minimizedAffinity -5.76308632
REMARK minimizedRMSD -1
REMARK  0 active torsions:
REMARK  status: ('A' for Active; 'I' for Inactive)
ROOT
ATOM      1  C   UNL d   1      -0.381   0.391   1.786  0.00  0.00     0.020 A 
ATOM      2  C1  UNL d   1      -1.066   1.558   2.120  0.00  0.00     0.020 A 
ATOM      3  C2  UNL d   1      -1.133   2.614   1.208  0.00  0.00     0.034 A 
ATOM      4  C3  UNL d   1      -0.514   2.503  -0.043  0.00  0.00     0.017 A 
ATOM      5  C4  UNL d   1       0.173   1.331  -0.377  0.00  0.00     0.017 A 
ATOM      6  C5  UNL d   1       0.237   0.277   0.540  0.00  0.00     0.034 A 
ATOM      7 Cl   UNL d   1       0.961   1.121  -1.901  0.00  0.00    -0.070 Cl
ATOM      8 Cl1  UNL d   1      -0.638   3.847  -1.121  0.00  0.00    -0.070 Cl
ENDROOT
TORSDOF 0
ENDMDL
