MODEL 1
REMARK minimizedAffinity -2.19580412
REMARK minimizedRMSD -1
REMARK  0 active torsions:
REMARK  status: ('A' for Active; 'I' for Inactive)
ROOT
ATOM      1  C   UNL d   1      -1.618   1.322   2.010  0.00  0.00     0.020 A 
ATOM      2  C1  UNL d   1      -1.917   1.020   0.682  0.00  0.00     0.020 A 
ATOM      3  C2  UNL d   1      -1.019   0.274  -0.083  0.00  0.00     0.034 A 
ATOM      4  C3  UNL d   1       0.183  -0.173   0.478  0.00  0.00     0.017 A 
ATOM      5  C4  UNL d   1       0.482   0.130   1.811  0.00  0.00     0.017 A 
ATOM      6  C5  UNL d   1      -0.421   0.878   2.574  0.00  0.00     0.034 A 
ATOM      7 Cl   UNL d   1       1.945  -0.386   2.574  0.00  0.00    -0.070 Cl
ATOM      8 Cl1  UNL d   1       1.247  -1.092  -0.527  0.00  0.00    -0.070 Cl
ENDROOT
TORSDOF 0
ENDMDL
