MODEL 1
REMARK minimizedAffinity -5.42718601
REMARK minimizedRMSD -1
REMARK  0 active torsions:
REMARK  status: ('A' for Active; 'I' for Inactive)
ROOT
ATOM      1  C   UNL d   1      -2.000   1.468   1.750  0.00  0.00     0.020 A 
ATOM      2  C1  UNL d   1      -2.068   2.822   1.426  0.00  0.00     0.020 A 
ATOM      3  C2  UNL d   1      -1.260   3.338   0.410  0.00  0.00     0.034 A 
ATOM      4  C3  UNL d   1      -0.381   2.499  -0.285  0.00  0.00     0.017 A 
ATOM      5  C4  UNL d   1      -0.314   1.140   0.041  0.00  0.00     0.017 A 
ATOM      6  C5  UNL d   1      -1.125   0.628   1.059  0.00  0.00     0.034 A 
ATOM      7 Cl   UNL d   1       0.746   0.042  -0.772  0.00  0.00    -0.070 Cl
ATOM      8 Cl1  UNL d   1       0.587   3.204  -1.530  0.00  0.00    -0.070 Cl
ENDROOT
TORSDOF 0
ENDMDL
