MODEL 1
REMARK minimizedAffinity -3.7806983
REMARK minimizedRMSD -1
REMARK  0 active torsions:
REMARK  status: ('A' for Active; 'I' for Inactive)
ROOT
ATOM      1  C   UNL d   1      -1.201   2.731   1.109  0.00  0.00     0.020 A 
ATOM      2  C1  UNL d   1      -0.537   2.830  -0.113  0.00  0.00     0.020 A 
ATOM      3  C2  UNL d   1       0.003   1.688  -0.709  0.00  0.00     0.034 A 
ATOM      4  C3  UNL d   1      -0.120   0.443  -0.083  0.00  0.00     0.017 A 
ATOM      5  C4  UNL d   1      -0.787   0.344   1.144  0.00  0.00     0.017 A 
ATOM      6  C5  UNL d   1      -1.326   1.491   1.736  0.00  0.00     0.034 A 
ATOM      7 Cl   UNL d   1      -0.978  -1.158   1.977  0.00  0.00    -0.070 Cl
ATOM      8 Cl1  UNL d   1       0.572  -0.927  -0.876  0.00  0.00    -0.070 Cl
ENDROOT
TORSDOF 0
ENDMDL
