MODEL 1
REMARK minimizedAffinity -4.53555107
REMARK minimizedRMSD -1
REMARK  0 active torsions:
REMARK  status: ('A' for Active; 'I' for Inactive)
ROOT
ATOM      1  C   UNL d   1      -1.127   2.203   0.214  0.00  0.00     0.020 A 
ATOM      2  C1  UNL d   1      -1.584   2.002   1.516  0.00  0.00     0.020 A 
ATOM      3  C2  UNL d   1      -1.321   0.796   2.170  0.00  0.00     0.034 A 
ATOM      4  C3  UNL d   1      -0.599  -0.213   1.522  0.00  0.00     0.017 A 
ATOM      5  C4  UNL d   1      -0.141  -0.010   0.215  0.00  0.00     0.017 A 
ATOM      6  C5  UNL d   1      -0.407   1.199  -0.434  0.00  0.00     0.034 A 
ATOM      7 Cl   UNL d   1       0.756  -1.208  -0.649  0.00  0.00    -0.070 Cl
ATOM      8 Cl1  UNL d   1      -0.311  -1.678   2.391  0.00  0.00    -0.070 Cl
ENDROOT
TORSDOF 0
ENDMDL
