MODEL 1
REMARK minimizedAffinity -5.37678194
REMARK minimizedRMSD -1
REMARK  0 active torsions:
REMARK  status: ('A' for Active; 'I' for Inactive)
ROOT
ATOM      1  C   UNL d   1      -2.318   2.543   1.732  0.00  0.00     0.020 A 
ATOM      2  C1  UNL d   1      -2.109   1.198   2.034  0.00  0.00     0.020 A 
ATOM      3  C2  UNL d   1      -1.152   0.465   1.328  0.00  0.00     0.034 A 
ATOM      4  C3  UNL d   1      -0.401   1.077   0.318  0.00  0.00     0.017 A 
ATOM      5  C4  UNL d   1      -0.612   2.427   0.016  0.00  0.00     0.017 A 
ATOM      6  C5  UNL d   1      -1.571   3.156   0.725  0.00  0.00     0.034 A 
ATOM      7 Cl   UNL d   1       0.275   3.251  -1.218  0.00  0.00    -0.070 Cl
ATOM      8 Cl1  UNL d   1       0.765   0.110  -0.514  0.00  0.00    -0.070 Cl
ENDROOT
TORSDOF 0
ENDMDL
