MODEL 1
REMARK minimizedAffinity -2.46143222
REMARK minimizedRMSD -1
REMARK  0 active torsions:
REMARK  status: ('A' for Active; 'I' for Inactive)
ROOT
ATOM      1  C   UNL d   1      -2.402   1.914   0.492  0.00  0.00     0.020 A 
ATOM      2  C1  UNL d   1      -1.913   2.077   1.788  0.00  0.00     0.020 A 
ATOM      3  C2  UNL d   1      -0.856   1.285   2.240  0.00  0.00     0.034 A 
ATOM      4  C3  UNL d   1      -0.284   0.326   1.397  0.00  0.00     0.017 A 
ATOM      5  C4  UNL d   1      -0.775   0.162   0.097  0.00  0.00     0.017 A 
ATOM      6  C5  UNL d   1      -1.834   0.958  -0.352  0.00  0.00     0.034 A 
ATOM      7 Cl   UNL d   1      -0.121  -1.001  -1.002  0.00  0.00    -0.070 Cl
ATOM      8 Cl1  UNL d   1       1.020  -0.619   2.023  0.00  0.00    -0.070 Cl
ENDROOT
TORSDOF 0
ENDMDL
