MODEL 1
REMARK minimizedAffinity -3.89529133
REMARK minimizedRMSD -1
REMARK  0 active torsions:
REMARK  status: ('A' for Active; 'I' for Inactive)
ROOT
ATOM      1  C   UNL d   1       0.296  -0.126  -0.701  0.00  0.00     0.172 C 
ATOM      2  N   UNL d   1      -0.499   0.906  -0.077  0.00  0.00    -0.070 N 
ATOM      3  C1  UNL d   1      -1.344   0.729   0.986  0.00  0.00    -0.004 A 
ATOM      4  C2  UNL d   1      -1.913   1.949   1.281  0.00  0.00    -0.047 A 
ATOM      5  C3  UNL d   1      -1.392   2.892   0.363  0.00  0.00    -0.047 A 
ATOM      6  C4  UNL d   1      -0.519   2.219  -0.466  0.00  0.00    -0.004 A 
ENDROOT
TORSDOF 0
ENDMDL
