MODEL 1
REMARK minimizedAffinity -2.0528903
REMARK minimizedRMSD -1
REMARK  0 active torsions:
REMARK  status: ('A' for Active; 'I' for Inactive)
ROOT
ATOM      1  C   UNL d   1       0.775  -0.732  -0.364  0.00  0.00     0.172 C 
ATOM      2  N   UNL d   1      -0.068  -0.081   0.611  0.00  0.00    -0.070 N 
ATOM      3  C1  UNL d   1      -0.724  -0.702   1.641  0.00  0.00    -0.004 A 
ATOM      4  C2  UNL d   1      -1.417   0.260   2.342  0.00  0.00    -0.047 A 
ATOM      5  C3  UNL d   1      -1.170   1.503   1.712  0.00  0.00    -0.047 A 
ATOM      6  C4  UNL d   1      -0.332   1.263   0.643  0.00  0.00    -0.004 A 
ENDROOT
TORSDOF 0
ENDMDL
