MODEL 1
REMARK minimizedAffinity -3.25172305
REMARK minimizedRMSD -1
REMARK  0 active torsions:
REMARK  status: ('A' for Active; 'I' for Inactive)
ROOT
ATOM      1  C   UNL d   1       0.617  -0.727  -0.647  0.00  0.00     0.172 C 
ATOM      2  N   UNL d   1      -0.155   0.147   0.205  0.00  0.00    -0.070 N 
ATOM      3  C1  UNL d   1      -0.933   1.191  -0.218  0.00  0.00    -0.004 A 
ATOM      4  C2  UNL d   1      -1.501   1.772   0.895  0.00  0.00    -0.047 A 
ATOM      5  C3  UNL d   1      -1.049   1.052   2.026  0.00  0.00    -0.047 A 
ATOM      6  C4  UNL d   1      -0.217   0.051   1.570  0.00  0.00    -0.004 A 
ENDROOT
TORSDOF 0
ENDMDL
