MODEL 1
REMARK minimizedAffinity -3.65297794
REMARK minimizedRMSD -1
REMARK  0 active torsions:
REMARK  status: ('A' for Active; 'I' for Inactive)
ROOT
ATOM      1  C   UNL d   1      -0.051  -0.683   1.916  0.00  0.00     0.172 C 
ATOM      2  N   UNL d   1      -0.525   0.514   1.263  0.00  0.00    -0.070 N 
ATOM      3  C1  UNL d   1      -0.179   0.927   0.004  0.00  0.00    -0.004 A 
ATOM      4  C2  UNL d   1      -0.841   2.109  -0.249  0.00  0.00    -0.047 A 
ATOM      5  C3  UNL d   1      -1.611   2.418   0.898  0.00  0.00    -0.047 A 
ATOM      6  C4  UNL d   1      -1.396   1.414   1.818  0.00  0.00    -0.004 A 
ENDROOT
TORSDOF 0
ENDMDL
