MODEL 1
REMARK minimizedAffinity -3.41136122
REMARK minimizedRMSD -1
REMARK  0 active torsions:
REMARK  status: ('A' for Active; 'I' for Inactive)
ROOT
ATOM      1  C   UNL d   1       0.793  -0.725  -0.421  0.00  0.00     0.172 C 
ATOM      2  N   UNL d   1       0.041   0.158   0.440  0.00  0.00    -0.070 N 
ATOM      3  C1  UNL d   1       0.029   1.526   0.366  0.00  0.00    -0.004 A 
ATOM      4  C2  UNL d   1      -0.806   1.995   1.356  0.00  0.00    -0.047 A 
ATOM      5  C3  UNL d   1      -1.314   0.870   2.050  0.00  0.00    -0.047 A 
ATOM      6  C4  UNL d   1      -0.772  -0.253   1.462  0.00  0.00    -0.004 A 
ENDROOT
TORSDOF 0
ENDMDL
