MODEL 1
REMARK minimizedAffinity -4.04593945
REMARK minimizedRMSD -1
REMARK  0 active torsions:
REMARK  status: ('A' for Active; 'I' for Inactive)
ROOT
ATOM      1  C   UNL d   1       0.374   0.234  -0.720  0.00  0.00     0.172 C 
ATOM      2  N   UNL d   1      -0.400   1.158   0.075  0.00  0.00    -0.070 N 
ATOM      3  C1  UNL d   1      -0.840   0.938   1.353  0.00  0.00    -0.004 A 
ATOM      4  C2  UNL d   1      -1.539   2.054   1.757  0.00  0.00    -0.047 A 
ATOM      5  C3  UNL d   1      -1.519   2.978   0.685  0.00  0.00    -0.047 A 
ATOM      6  C4  UNL d   1      -0.808   2.397  -0.344  0.00  0.00    -0.004 A 
ENDROOT
TORSDOF 0
ENDMDL
