MODEL 1
REMARK minimizedAffinity -3.72555351
REMARK minimizedRMSD -1
REMARK  0 active torsions:
REMARK  status: ('A' for Active; 'I' for Inactive)
ROOT
ATOM      1  C   UNL d   1      -0.629  -0.098   0.413  0.00  0.00     0.172 C 
ATOM      2  N   UNL d   1      -1.134   1.242   0.599  0.00  0.00    -0.070 N 
ATOM      3  C1  UNL d   1      -1.566   1.774   1.784  0.00  0.00    -0.004 A 
ATOM      4  C2  UNL d   1      -1.966   3.071   1.543  0.00  0.00    -0.047 A 
ATOM      5  C3  UNL d   1      -1.768   3.326   0.166  0.00  0.00    -0.047 A 
ATOM      6  C4  UNL d   1      -1.252   2.177  -0.395  0.00  0.00    -0.004 A 
ENDROOT
TORSDOF 0
ENDMDL
