MODEL 1
REMARK minimizedAffinity -3.78926611
REMARK minimizedRMSD -1
REMARK  0 active torsions:
REMARK  status: ('A' for Active; 'I' for Inactive)
ROOT
ATOM      1  C   UNL d   1      -0.373  -0.236   1.060  0.00  0.00     0.172 C 
ATOM      2  N   UNL d   1      -0.901   1.104   0.957  0.00  0.00    -0.070 N 
ATOM      3  C1  UNL d   1      -0.946   1.859  -0.184  0.00  0.00    -0.004 A 
ATOM      4  C2  UNL d   1      -1.519   3.071   0.134  0.00  0.00    -0.047 A 
ATOM      5  C3  UNL d   1      -1.829   3.044   1.514  0.00  0.00    -0.047 A 
ATOM      6  C4  UNL d   1      -1.436   1.815   1.999  0.00  0.00    -0.004 A 
ENDROOT
TORSDOF 0
ENDMDL
