MODEL 1
REMARK minimizedAffinity -3.55971193
REMARK minimizedRMSD -1
REMARK  0 active torsions:
REMARK  status: ('A' for Active; 'I' for Inactive)
ROOT
ATOM      1  C   UNL d   1       0.545  -0.526  -0.313  0.00  0.00     0.172 C 
ATOM      2  N   UNL d   1      -0.175   0.408   0.521  0.00  0.00    -0.070 N 
ATOM      3  C1  UNL d   1      -0.314   0.321   1.880  0.00  0.00    -0.004 A 
ATOM      4  C2  UNL d   1      -1.066   1.399   2.297  0.00  0.00    -0.047 A 
ATOM      5  C3  UNL d   1      -1.390   2.159   1.148  0.00  0.00    -0.047 A 
ATOM      6  C4  UNL d   1      -0.826   1.523   0.062  0.00  0.00    -0.004 A 
ENDROOT
TORSDOF 0
ENDMDL
