MODEL 1
REMARK minimizedAffinity -3.95550179
REMARK minimizedRMSD -1
REMARK  0 active torsions:
REMARK  status: ('A' for Active; 'I' for Inactive)
ROOT
ATOM      1  C   UNL d   1       0.365  -0.130  -0.147  0.00  0.00     0.172 C 
ATOM      2  N   UNL d   1      -0.487   0.994   0.164  0.00  0.00    -0.070 N 
ATOM      3  C1  UNL d   1      -1.397   1.047   1.186  0.00  0.00    -0.004 A 
ATOM      4  C2  UNL d   1      -2.004   2.283   1.147  0.00  0.00    -0.047 A 
ATOM      5  C3  UNL d   1      -1.441   2.997   0.063  0.00  0.00    -0.047 A 
ATOM      6  C4  UNL d   1      -0.504   2.176  -0.528  0.00  0.00    -0.004 A 
ENDROOT
TORSDOF 0
ENDMDL
