MODEL 1
REMARK minimizedAffinity -3.98865867
REMARK minimizedRMSD -1
REMARK  0 active torsions:
REMARK  status: ('A' for Active; 'I' for Inactive)
ROOT
ATOM      1  C   UNL d   1       0.209  -0.111  -0.159  0.00  0.00     0.172 C 
ATOM      2  N   UNL d   1      -0.655   0.996   0.180  0.00  0.00    -0.070 N 
ATOM      3  C1  UNL d   1      -1.703   0.951   1.060  0.00  0.00    -0.004 A 
ATOM      4  C2  UNL d   1      -2.271   2.206   1.105  0.00  0.00    -0.047 A 
ATOM      5  C3  UNL d   1      -1.539   3.034   0.221  0.00  0.00    -0.047 A 
ATOM      6  C4  UNL d   1      -0.545   2.259  -0.339  0.00  0.00    -0.004 A 
ENDROOT
TORSDOF 0
ENDMDL
