MODEL 1
REMARK minimizedAffinity -3.99980068
REMARK minimizedRMSD -1
REMARK  0 active torsions:
REMARK  status: ('A' for Active; 'I' for Inactive)
ROOT
ATOM      1  C   UNL d   1       0.258  -0.015  -0.597  0.00  0.00     0.172 C 
ATOM      2  N   UNL d   1      -0.171   1.188   0.076  0.00  0.00    -0.070 N 
ATOM      3  C1  UNL d   1       0.096   2.469  -0.331  0.00  0.00    -0.004 A 
ATOM      4  C2  UNL d   1      -0.486   3.329   0.575  0.00  0.00    -0.047 A 
ATOM      5  C3  UNL d   1      -1.123   2.539   1.561  0.00  0.00    -0.047 A 
ATOM      6  C4  UNL d   1      -0.913   1.218   1.227  0.00  0.00    -0.004 A 
ENDROOT
TORSDOF 0
ENDMDL
