MODEL 1
REMARK minimizedAffinity -2.90544391
REMARK minimizedRMSD -1
REMARK  0 active torsions:
REMARK  status: ('A' for Active; 'I' for Inactive)
ROOT
ATOM      1  C   UNL d   1       0.743  -0.876  -0.936  0.00  0.00     0.172 C 
ATOM      2  N   UNL d   1      -0.142  -0.063  -0.136  0.00  0.00    -0.070 N 
ATOM      3  C1  UNL d   1      -0.715   1.117  -0.529  0.00  0.00    -0.004 A 
ATOM      4  C2  UNL d   1      -1.488   1.579   0.515  0.00  0.00    -0.047 A 
ATOM      5  C3  UNL d   1      -1.375   0.644   1.571  0.00  0.00    -0.047 A 
ATOM      6  C4  UNL d   1      -0.536  -0.362   1.141  0.00  0.00    -0.004 A 
ENDROOT
TORSDOF 0
ENDMDL
