MODEL 1
REMARK minimizedAffinity -3.52156544
REMARK minimizedRMSD -1
REMARK  0 active torsions:
REMARK  status: ('A' for Active; 'I' for Inactive)
ROOT
ATOM      1  C   UNL d   1      -0.289  -0.799   1.484  0.00  0.00     0.172 C 
ATOM      2  N   UNL d   1      -0.817   0.503   1.151  0.00  0.00    -0.070 N 
ATOM      3  C1  UNL d   1      -0.768   1.092  -0.084  0.00  0.00    -0.004 A 
ATOM      4  C2  UNL d   1      -1.377   2.325   0.011  0.00  0.00    -0.047 A 
ATOM      5  C3  UNL d   1      -1.806   2.482   1.350  0.00  0.00    -0.047 A 
ATOM      6  C4  UNL d   1      -1.446   1.340   2.034  0.00  0.00    -0.004 A 
ENDROOT
TORSDOF 0
ENDMDL
