MODEL 1
REMARK minimizedAffinity -3.41796446
REMARK minimizedRMSD -1
REMARK  0 active torsions:
REMARK  status: ('A' for Active; 'I' for Inactive)
ROOT
ATOM      1  C   UNL d   1       0.374  -0.972  -0.269  0.00  0.00     0.172 C 
ATOM      2  N   UNL d   1      -0.517  -0.106   0.466  0.00  0.00    -0.070 N 
ATOM      3  C1  UNL d   1      -1.005   1.096   0.026  0.00  0.00    -0.004 A 
ATOM      4  C2  UNL d   1      -1.817   1.609   1.014  0.00  0.00    -0.047 A 
ATOM      5  C3  UNL d   1      -1.817   0.684   2.085  0.00  0.00    -0.047 A 
ATOM      6  C4  UNL d   1      -1.004  -0.368   1.719  0.00  0.00    -0.004 A 
ENDROOT
TORSDOF 0
ENDMDL
