MODEL 1
REMARK minimizedAffinity -3.30992746
REMARK minimizedRMSD -1
REMARK  0 active torsions:
REMARK  status: ('A' for Active; 'I' for Inactive)
ROOT
ATOM      1  C   UNL d   1      -1.490   2.865   1.106  0.00  0.00     0.172 C 
ATOM      2  N   UNL d   1      -0.817   1.591   1.011  0.00  0.00    -0.070 N 
ATOM      3  C1  UNL d   1      -0.099   1.146  -0.067  0.00  0.00    -0.004 A 
ATOM      4  C2  UNL d   1       0.382  -0.109   0.236  0.00  0.00    -0.047 A 
ATOM      5  C3  UNL d   1      -0.062  -0.430   1.541  0.00  0.00    -0.047 A 
ATOM      6  C4  UNL d   1      -0.802   0.641   1.997  0.00  0.00    -0.004 A 
ENDROOT
TORSDOF 0
ENDMDL
