MODEL 1
REMARK minimizedAffinity -4.8144927
REMARK minimizedRMSD -1
REMARK  2 active torsions:
REMARK  status: ('A' for Active; 'I' for Inactive)
REMARK    1  A    between atoms: C2'_3  and  C1'_4 
REMARK    2  A    between atoms: C1'_4  and  C1_5 
ROOT
ATOM      1  C1  I4B d   1       0.216  -0.888  -0.172  0.00  0.00    -0.075 A 
ATOM      2  C2  I4B d   1      -0.342   0.232  -0.735  0.00  0.00     0.003 A 
ATOM      3  C3  I4B d   1      -1.063   1.150   0.067  0.00  0.00     0.002 A 
ATOM      4  C4  I4B d   1      -1.243   0.884   1.409  0.00  0.00    -0.004 A 
ATOM      5  C5  I4B d   1      -0.656  -0.240   1.983  0.00  0.00     0.002 A 
ATOM      6  C6  I4B d   1       0.088  -1.126   1.191  0.00  0.00     0.003 A 
ENDROOT
BRANCH   1   7
ATOM      7  C1' I4B d   1       0.942  -1.853  -1.054  0.00  0.00     0.060 C 
BRANCH   7   8
ATOM      8  C2' I4B d   1      -0.024  -2.331  -2.118  0.00  0.00    -0.013 C 
ATOM      9  C4' I4B d   1       0.364  -1.814  -3.479  0.00  0.00     0.013 C 
ATOM     10  C3' I4B d   1      -0.037  -3.830  -2.093  0.00  0.00     0.013 C 
ENDBRANCH   7   8
ENDBRANCH   1   7
TORSDOF 2
ENDMDL
