MODEL 1
REMARK minimizedAffinity -4.48176813
REMARK minimizedRMSD -1
REMARK  2 active torsions:
REMARK  status: ('A' for Active; 'I' for Inactive)
REMARK    1  A    between atoms: C2'_3  and  C1'_4 
REMARK    2  A    between atoms: C1'_4  and  C1_5 
ROOT
ATOM      1  C1  I4B d   1       0.199  -0.671   0.144  0.00  0.00    -0.075 A 
ATOM      2  C2  I4B d   1      -0.164   0.578  -0.292  0.00  0.00     0.003 A 
ATOM      3  C3  I4B d   1      -0.874   1.454   0.565  0.00  0.00     0.002 A 
ATOM      4  C4  I4B d   1      -1.242   1.023   1.823  0.00  0.00    -0.004 A 
ATOM      5  C5  I4B d   1      -0.853  -0.236   2.272  0.00  0.00     0.002 A 
ATOM      6  C6  I4B d   1      -0.117  -1.084   1.432  0.00  0.00     0.003 A 
ENDROOT
BRANCH   1   7
ATOM      7  C1' I4B d   1       0.920  -1.582  -0.799  0.00  0.00     0.060 C 
BRANCH   7   8
ATOM      8  C2' I4B d   1      -0.103  -2.503  -1.432  0.00  0.00    -0.013 C 
ATOM      9  C4' I4B d   1      -0.320  -2.162  -2.882  0.00  0.00     0.013 C 
ATOM     10  C3' I4B d   1       0.382  -3.913  -1.274  0.00  0.00     0.013 C 
ENDBRANCH   7   8
ENDBRANCH   1   7
TORSDOF 2
ENDMDL
