MODEL 1
REMARK minimizedAffinity -5.21186447
REMARK minimizedRMSD -1
REMARK  2 active torsions:
REMARK  status: ('A' for Active; 'I' for Inactive)
REMARK    1  A    between atoms: C2'_3  and  C1'_4 
REMARK    2  A    between atoms: C1'_4  and  C1_5 
ROOT
ATOM      1  C1  I4B d   1       0.092   0.129  -0.118  0.00  0.00    -0.075 A 
ATOM      2  C2  I4B d   1       0.076  -0.329   1.176  0.00  0.00     0.003 A 
ATOM      3  C3  I4B d   1      -0.784   0.265   2.131  0.00  0.00     0.002 A 
ATOM      4  C4  I4B d   1      -1.568   1.339   1.765  0.00  0.00    -0.004 A 
ATOM      5  C5  I4B d   1      -1.567   1.787   0.447  0.00  0.00     0.002 A 
ATOM      6  C6  I4B d   1      -0.741   1.170  -0.504  0.00  0.00     0.003 A 
ENDROOT
BRANCH   1   7
ATOM      7  C1' I4B d   1       1.036  -0.500  -1.093  0.00  0.00     0.060 C 
BRANCH   7   8
ATOM      8  C2' I4B d   1       0.583  -1.927  -1.327  0.00  0.00    -0.013 C 
ATOM      9  C4' I4B d   1       0.177  -2.142  -2.761  0.00  0.00     0.013 C 
ATOM     10  C3' I4B d   1       1.710  -2.839  -0.941  0.00  0.00     0.013 C 
ENDBRANCH   7   8
ENDBRANCH   1   7
TORSDOF 2
ENDMDL
