MODEL 1
REMARK minimizedAffinity -2.45242023
REMARK minimizedRMSD -1
REMARK  2 active torsions:
REMARK  status: ('A' for Active; 'I' for Inactive)
REMARK    1  A    between atoms: C2'_3  and  C1'_4 
REMARK    2  A    between atoms: C1'_4  and  C1_5 
ROOT
ATOM      1  C1  I4B d   1       0.547  -0.592  -0.584  0.00  0.00    -0.075 A 
ATOM      2  C2  I4B d   1       0.593   0.697  -1.053  0.00  0.00     0.003 A 
ATOM      3  C3  I4B d   1      -0.087   1.730  -0.365  0.00  0.00     0.002 A 
ATOM      4  C4  I4B d   1      -0.838   1.424   0.752  0.00  0.00    -0.004 A 
ATOM      5  C5  I4B d   1      -0.864   0.121   1.239  0.00  0.00     0.002 A 
ATOM      6  C6  I4B d   1      -0.157  -0.892   0.575  0.00  0.00     0.003 A 
ENDROOT
BRANCH   1   7
ATOM      7  C1' I4B d   1       1.251  -1.665  -1.354  0.00  0.00     0.060 C 
BRANCH   7   8
ATOM      8  C2' I4B d   1       0.198  -2.562  -1.973  0.00  0.00    -0.013 C 
ATOM      9  C4' I4B d   1      -0.173  -2.092  -3.355  0.00  0.00     0.013 C 
ATOM     10  C3' I4B d   1       0.740  -3.959  -2.003  0.00  0.00     0.013 C 
ENDBRANCH   7   8
ENDBRANCH   1   7
TORSDOF 2
ENDMDL
