MODEL 1
REMARK minimizedAffinity -2.43563461
REMARK minimizedRMSD -1
REMARK  2 active torsions:
REMARK  status: ('A' for Active; 'I' for Inactive)
REMARK    1  A    between atoms: C2'_3  and  C1'_4 
REMARK    2  A    between atoms: C1'_4  and  C1_5 
ROOT
ATOM      1  C1  I4B d   1       0.135  -0.909  -0.136  0.00  0.00    -0.075 A 
ATOM      2  C2  I4B d   1      -0.438  -1.132   1.091  0.00  0.00     0.003 A 
ATOM      3  C3  I4B d   1      -1.072  -0.073   1.785  0.00  0.00     0.002 A 
ATOM      4  C4  I4B d   1      -1.066   1.196   1.242  0.00  0.00    -0.004 A 
ATOM      5  C5  I4B d   1      -0.504   1.415  -0.013  0.00  0.00     0.002 A 
ATOM      6  C6  I4B d   1       0.089   0.354  -0.712  0.00  0.00     0.003 A 
ENDROOT
BRANCH   1   7
ATOM      7  C1' I4B d   1       0.825  -2.042  -0.826  0.00  0.00     0.060 C 
BRANCH   7   8
ATOM      8  C2' I4B d   1      -0.238  -2.955  -1.402  0.00  0.00    -0.013 C 
ATOM      9  C4' I4B d   1      -0.514  -2.628  -2.846  0.00  0.00     0.013 C 
ATOM     10  C3' I4B d   1       0.234  -4.370  -1.248  0.00  0.00     0.013 C 
ENDBRANCH   7   8
ENDBRANCH   1   7
TORSDOF 2
ENDMDL
