MODEL 1
REMARK minimizedAffinity -5.98693562
REMARK minimizedRMSD -1
REMARK  2 active torsions:
REMARK  status: ('A' for Active; 'I' for Inactive)
REMARK    1  A    between atoms: C2'_3  and  C1'_4 
REMARK    2  A    between atoms: C1'_4  and  C1_5 
ROOT
ATOM      1  C1  I4B d   1       0.105   0.017  -0.121  0.00  0.00    -0.075 A 
ATOM      2  C2  I4B d   1       0.134  -0.188   1.236  0.00  0.00     0.003 A 
ATOM      3  C3  I4B d   1      -0.920   0.290   2.052  0.00  0.00     0.002 A 
ATOM      4  C4  I4B d   1      -1.952   1.006   1.479  0.00  0.00    -0.004 A 
ATOM      5  C5  I4B d   1      -1.991   1.193   0.101  0.00  0.00     0.002 A 
ATOM      6  C6  I4B d   1      -0.963   0.685  -0.706  0.00  0.00     0.003 A 
ENDROOT
BRANCH   1   7
ATOM      7  C1' I4B d   1       1.251  -0.471  -0.948  0.00  0.00     0.060 C 
BRANCH   7   8
ATOM      8  C2' I4B d   1       1.024  -1.940  -1.240  0.00  0.00    -0.013 C 
ATOM      9  C4' I4B d   1       0.673  -2.161  -2.688  0.00  0.00     0.013 C 
ATOM     10  C3' I4B d   1       2.270  -2.685  -0.865  0.00  0.00     0.013 C 
ENDBRANCH   7   8
ENDBRANCH   1   7
TORSDOF 2
ENDMDL
