MODEL 1
REMARK minimizedAffinity -2.481282
REMARK minimizedRMSD -1
REMARK  2 active torsions:
REMARK  status: ('A' for Active; 'I' for Inactive)
REMARK    1  A    between atoms: C2'_3  and  C1'_4 
REMARK    2  A    between atoms: C1'_4  and  C1_5 
ROOT
ATOM      1  C1  I4B d   1       0.133  -0.206   0.152  0.00  0.00    -0.075 A 
ATOM      2  C2  I4B d   1       0.045  -0.560   1.476  0.00  0.00     0.003 A 
ATOM      3  C3  I4B d   1      -0.856   0.114   2.335  0.00  0.00     0.002 A 
ATOM      4  C4  I4B d   1      -1.609   1.161   1.845  0.00  0.00    -0.004 A 
ATOM      5  C5  I4B d   1      -1.535   1.504   0.498  0.00  0.00     0.002 A 
ATOM      6  C6  I4B d   1      -0.668   0.808  -0.357  0.00  0.00     0.003 A 
ENDROOT
BRANCH   1   7
ATOM      7  C1' I4B d   1       1.119  -0.916  -0.720  0.00  0.00     0.060 C 
BRANCH   7   8
ATOM      8  C2' I4B d   1       0.490  -2.219  -1.171  0.00  0.00    -0.013 C 
ATOM      9  C4' I4B d   1      -0.043  -2.110  -2.575  0.00  0.00     0.013 C 
ATOM     10  C3' I4B d   1       1.529  -3.295  -1.068  0.00  0.00     0.013 C 
ENDBRANCH   7   8
ENDBRANCH   1   7
TORSDOF 2
ENDMDL
