MODEL 1
REMARK minimizedAffinity -4.32708693
REMARK minimizedRMSD -1
REMARK  2 active torsions:
REMARK  status: ('A' for Active; 'I' for Inactive)
REMARK    1  A    between atoms: C2'_3  and  C1'_4 
REMARK    2  A    between atoms: C1'_4  and  C1_5 
ROOT
ATOM      1  C1  I4B d   1       0.136  -0.067  -0.209  0.00  0.00    -0.075 A 
ATOM      2  C2  I4B d   1      -0.528   1.064  -0.612  0.00  0.00     0.003 A 
ATOM      3  C3  I4B d   1      -1.436   1.707   0.264  0.00  0.00     0.002 A 
ATOM      4  C4  I4B d   1      -1.686   1.160   1.506  0.00  0.00    -0.004 A 
ATOM      5  C5  I4B d   1      -0.994   0.026   1.921  0.00  0.00     0.002 A 
ATOM      6  C6  I4B d   1      -0.068  -0.585   1.064  0.00  0.00     0.003 A 
ENDROOT
BRANCH   1   7
ATOM      7  C1' I4B d   1       1.064  -0.740  -1.171  0.00  0.00     0.060 C 
BRANCH   7   8
ATOM      8  C2' I4B d   1       0.470  -2.087  -1.527  0.00  0.00    -0.013 C 
ATOM      9  C4' I4B d   1      -0.083  -2.086  -2.928  0.00  0.00     0.013 C 
ATOM     10  C3' I4B d   1       1.543  -3.123  -1.369  0.00  0.00     0.013 C 
ENDBRANCH   7   8
ENDBRANCH   1   7
TORSDOF 2
ENDMDL
