MODEL 1
REMARK minimizedAffinity -2.82439709
REMARK minimizedRMSD -1
REMARK  2 active torsions:
REMARK  status: ('A' for Active; 'I' for Inactive)
REMARK    1  A    between atoms: C2'_3  and  C1'_4 
REMARK    2  A    between atoms: C1'_4  and  C1_5 
ROOT
ATOM      1  C1  I4B d   1       0.270   0.101  -0.194  0.00  0.00    -0.075 A 
ATOM      2  C2  I4B d   1       0.413  -0.214   1.135  0.00  0.00     0.003 A 
ATOM      3  C3  I4B d   1      -0.360   0.456   2.114  0.00  0.00     0.002 A 
ATOM      4  C4  I4B d   1      -1.220   1.464   1.728  0.00  0.00    -0.004 A 
ATOM      5  C5  I4B d   1      -1.381   1.767   0.379  0.00  0.00     0.002 A 
ATOM      6  C6  I4B d   1      -0.641   1.073  -0.589  0.00  0.00     0.003 A 
ENDROOT
BRANCH   1   7
ATOM      7  C1' I4B d   1       1.125  -0.603  -1.198  0.00  0.00     0.060 C 
BRANCH   7   8
ATOM      8  C2' I4B d   1       0.562  -1.996  -1.395  0.00  0.00    -0.013 C 
ATOM      9  C4' I4B d   1       0.053  -2.185  -2.799  0.00  0.00     0.013 C 
ATOM     10  C3' I4B d   1       1.645  -2.983  -1.075  0.00  0.00     0.013 C 
ENDBRANCH   7   8
ENDBRANCH   1   7
TORSDOF 2
ENDMDL
