MODEL 1
REMARK minimizedAffinity 4.3207345
REMARK minimizedRMSD -1
REMARK  0 active torsions:
REMARK  status: ('A' for Active; 'I' for Inactive)
ROOT
ATOM      1  C   UNL d   1       0.854   0.972   1.164  0.00  0.00     0.023 A 
ATOM      2  C1  UNL d   1      -0.368   0.300   1.211  0.00  0.00     0.003 A 
ATOM      3  C2  UNL d   1      -1.204   0.289   0.092  0.00  0.00     0.048 A 
ATOM      4  C3  UNL d   1      -0.811   0.951  -1.071  0.00  0.00     0.023 A 
ATOM      5  C4  UNL d   1       0.411   1.624  -1.123  0.00  0.00     0.048 A 
ATOM      6  C5  UNL d   1       1.243   1.633  -0.001  0.00  0.00     0.003 A 
ATOM      7  I   UNL d   1      -2.053   0.936  -2.737  0.00  0.00    -0.146 I 
ENDROOT
TORSDOF 0
ENDMDL
