MODEL 1
REMARK minimizedAffinity 7.1072998
REMARK minimizedRMSD -1
REMARK  0 active torsions:
REMARK  status: ('A' for Active; 'I' for Inactive)
ROOT
ATOM      1  C   UNL d   1      -1.166  -2.912  -2.632  0.00  0.00     0.023 A 
ATOM      2  C1  UNL d   1      -1.732  -1.836  -3.317  0.00  0.00     0.003 A 
ATOM      3  C2  UNL d   1      -3.119  -1.681  -3.351  0.00  0.00     0.048 A 
ATOM      4  C3  UNL d   1      -3.935  -2.604  -2.698  0.00  0.00     0.023 A 
ATOM      5  C4  UNL d   1      -3.373  -3.681  -2.010  0.00  0.00     0.048 A 
ATOM      6  C5  UNL d   1      -1.986  -3.833  -1.980  0.00  0.00     0.003 A 
ATOM      7  I   UNL d   1      -6.000  -2.374  -2.747  0.00  0.00    -0.146 I 
ENDROOT
TORSDOF 0
ENDMDL
