MODEL 1
REMARK minimizedAffinity 12.183053
REMARK minimizedRMSD -1
REMARK  0 active torsions:
REMARK  status: ('A' for Active; 'I' for Inactive)
ROOT
ATOM      1  C   UNL d   1       0.408   1.501  -0.388  0.00  0.00     0.023 A 
ATOM      2  C1  UNL d   1      -0.858   1.664   0.175  0.00  0.00     0.003 A 
ATOM      3  C2  UNL d   1      -1.249   2.912   0.665  0.00  0.00     0.048 A 
ATOM      4  C3  UNL d   1      -0.371   3.992   0.587  0.00  0.00     0.023 A 
ATOM      5  C4  UNL d   1       0.896   3.833   0.024  0.00  0.00     0.048 A 
ATOM      6  C5  UNL d   1       1.284   2.583  -0.463  0.00  0.00     0.003 A 
ATOM      7  I   UNL d   1      -0.951   5.850   1.315  0.00  0.00    -0.146 I 
ENDROOT
TORSDOF 0
ENDMDL
