MODEL 1
REMARK minimizedAffinity 9.46139717
REMARK minimizedRMSD -1
REMARK  0 active torsions:
REMARK  status: ('A' for Active; 'I' for Inactive)
ROOT
ATOM      1  C   UNL d   1       1.799   1.160   0.798  0.00  0.00     0.023 A 
ATOM      2  C1  UNL d   1       1.518   2.321   0.077  0.00  0.00     0.003 A 
ATOM      3  C2  UNL d   1       0.364   2.396  -0.705  0.00  0.00     0.048 A 
ATOM      4  C3  UNL d   1      -0.505   1.307  -0.762  0.00  0.00     0.023 A 
ATOM      5  C4  UNL d   1      -0.228   0.144  -0.042  0.00  0.00     0.048 A 
ATOM      6  C5  UNL d   1       0.927   0.073   0.738  0.00  0.00     0.003 A 
ATOM      7  I   UNL d   1      -2.224   1.417  -1.926  0.00  0.00    -0.146 I 
ENDROOT
TORSDOF 0
ENDMDL
