MODEL 1
REMARK minimizedAffinity 8.9244442
REMARK minimizedRMSD -1
REMARK  0 active torsions:
REMARK  status: ('A' for Active; 'I' for Inactive)
ROOT
ATOM      1  C   UNL d   1       3.015   1.557   4.064  0.00  0.00     0.023 A 
ATOM      2  C1  UNL d   1       2.569   0.377   3.467  0.00  0.00     0.003 A 
ATOM      3  C2  UNL d   1       2.072   0.398   2.162  0.00  0.00     0.048 A 
ATOM      4  C3  UNL d   1       2.024   1.601   1.460  0.00  0.00     0.023 A 
ATOM      5  C4  UNL d   1       2.470   2.784   2.052  0.00  0.00     0.048 A 
ATOM      6  C5  UNL d   1       2.965   2.758   3.357  0.00  0.00     0.003 A 
ATOM      7  I   UNL d   1       1.285   1.635  -0.483  0.00  0.00    -0.146 I 
ENDROOT
TORSDOF 0
ENDMDL
