MODEL 1
REMARK minimizedAffinity 1.40443838
REMARK minimizedRMSD -1
REMARK  0 active torsions:
REMARK  status: ('A' for Active; 'I' for Inactive)
ROOT
ATOM      1  C   UNL d   1      -1.257  -2.484  -0.777  0.00  0.00     0.023 A 
ATOM      2  C1  UNL d   1      -0.678  -2.207   0.462  0.00  0.00     0.003 A 
ATOM      3  C2  UNL d   1      -0.292  -0.903   0.778  0.00  0.00     0.048 A 
ATOM      4  C3  UNL d   1      -0.488   0.120  -0.149  0.00  0.00     0.023 A 
ATOM      5  C4  UNL d   1      -1.068  -0.152  -1.390  0.00  0.00     0.048 A 
ATOM      6  C5  UNL d   1      -1.452  -1.458  -1.701  0.00  0.00     0.003 A 
ATOM      7  I   UNL d   1       0.086   2.062   0.318  0.00  0.00    -0.146 I 
ENDROOT
TORSDOF 0
ENDMDL
