MODEL 1
REMARK minimizedAffinity 0.412512749
REMARK minimizedRMSD -1
REMARK  0 active torsions:
REMARK  status: ('A' for Active; 'I' for Inactive)
ROOT
ATOM      1  C   UNL d   1       2.805   1.860   2.126  0.00  0.00     0.023 A 
ATOM      2  C1  UNL d   1       2.697   1.262   0.870  0.00  0.00     0.003 A 
ATOM      3  C2  UNL d   1       2.385  -0.095   0.767  0.00  0.00     0.048 A 
ATOM      4  C3  UNL d   1       2.180  -0.848   1.923  0.00  0.00     0.023 A 
ATOM      5  C4  UNL d   1       2.287  -0.253   3.181  0.00  0.00     0.048 A 
ATOM      6  C5  UNL d   1       2.600   1.104   3.280  0.00  0.00     0.003 A 
ATOM      7  I   UNL d   1       1.715  -2.868   1.771  0.00  0.00    -0.146 I 
ENDROOT
TORSDOF 0
ENDMDL
