MODEL 1
REMARK minimizedAffinity 5.43469429
REMARK minimizedRMSD -1
REMARK  0 active torsions:
REMARK  status: ('A' for Active; 'I' for Inactive)
ROOT
ATOM      1  C   UNL d   1       0.779   2.888   0.002  0.00  0.00     0.023 A 
ATOM      2  C1  UNL d   1       1.873   2.079   0.309  0.00  0.00     0.003 A 
ATOM      3  C2  UNL d   1       1.687   0.719   0.565  0.00  0.00     0.048 A 
ATOM      4  C3  UNL d   1       0.404   0.174   0.511  0.00  0.00     0.023 A 
ATOM      5  C4  UNL d   1      -0.693   0.980   0.203  0.00  0.00     0.048 A 
ATOM      6  C5  UNL d   1      -0.502   2.340  -0.052  0.00  0.00     0.003 A 
ATOM      7  I   UNL d   1       0.124  -1.850   0.892  0.00  0.00    -0.146 I 
ENDROOT
TORSDOF 0
ENDMDL
