MODEL 1
REMARK minimizedAffinity -3.89924932
REMARK minimizedRMSD -1
REMARK  0 active torsions:
REMARK  status: ('A' for Active; 'I' for Inactive)
ROOT
ATOM      1  C2' OXE d   1      -1.647   1.983   1.505  0.00  0.00     0.078 C 
ATOM      2  C1' OXE d   1       0.081   0.151   2.746  0.00  0.00     0.078 C 
ATOM      3  C1  OXE d   1       0.182   0.311   1.250  0.00  0.00    -0.078 A 
ATOM      4  C2  OXE d   1      -0.699   1.175   0.645  0.00  0.00    -0.078 A 
ATOM      5  C3  OXE d   1      -0.613   1.400  -0.726  0.00  0.00     0.003 A 
ATOM      6  C4  OXE d   1       0.260   0.641  -1.515  0.00  0.00    -0.002 A 
ATOM      7  C5  OXE d   1       1.138  -0.274  -0.924  0.00  0.00    -0.002 A 
ATOM      8  C6  OXE d   1       1.141  -0.419   0.459  0.00  0.00     0.003 A 
ENDROOT
TORSDOF 0
ENDMDL
