MODEL 1
REMARK minimizedAffinity -0.772769034
REMARK minimizedRMSD -1
REMARK  0 active torsions:
REMARK  status: ('A' for Active; 'I' for Inactive)
ROOT
ATOM      1  C2' OXE d   1       0.970  -0.368   2.305  0.00  0.00     0.078 C 
ATOM      2  C1' OXE d   1      -0.300   2.095   1.854  0.00  0.00     0.078 C 
ATOM      3  C1  OXE d   1      -0.018   1.220   0.659  0.00  0.00    -0.078 A 
ATOM      4  C2  OXE d   1       0.646   0.038   0.883  0.00  0.00    -0.078 A 
ATOM      5  C3  OXE d   1       0.882  -0.832  -0.178  0.00  0.00     0.003 A 
ATOM      6  C4  OXE d   1       0.589  -0.445  -1.491  0.00  0.00    -0.002 A 
ATOM      7  C5  OXE d   1      -0.052   0.773  -1.746  0.00  0.00    -0.002 A 
ATOM      8  C6  OXE d   1      -0.400   1.596  -0.680  0.00  0.00     0.003 A 
ENDROOT
TORSDOF 0
ENDMDL
