MODEL 1
REMARK minimizedAffinity -0.443808615
REMARK minimizedRMSD -1
REMARK  0 active torsions:
REMARK  status: ('A' for Active; 'I' for Inactive)
ROOT
ATOM      1  C2' OXE d   1      -1.514   0.381  -1.012  0.00  0.00     0.078 C 
ATOM      2  C1' OXE d   1       0.804  -0.571   0.254  0.00  0.00     0.078 C 
ATOM      3  C1  OXE d   1      -0.026   0.455   0.985  0.00  0.00    -0.078 A 
ATOM      4  C2  OXE d   1      -1.133   0.949   0.338  0.00  0.00    -0.078 A 
ATOM      5  C3  OXE d   1      -1.964   1.856   0.990  0.00  0.00     0.003 A 
ATOM      6  C4  OXE d   1      -1.599   2.384   2.234  0.00  0.00    -0.002 A 
ATOM      7  C5  OXE d   1      -0.454   1.924   2.893  0.00  0.00    -0.002 A 
ATOM      8  C6  OXE d   1       0.319   0.930   2.302  0.00  0.00     0.003 A 
ENDROOT
TORSDOF 0
ENDMDL
