MODEL 1
REMARK minimizedAffinity -3.69535017
REMARK minimizedRMSD -1
REMARK  0 active torsions:
REMARK  status: ('A' for Active; 'I' for Inactive)
ROOT
ATOM      1  C2' OXE d   1      -1.540   2.485  -1.175  0.00  0.00     0.078 C 
ATOM      2  C1' OXE d   1      -1.242   2.462   1.617  0.00  0.00     0.078 C 
ATOM      3  C1  OXE d   1      -0.744   1.265   0.846  0.00  0.00    -0.078 A 
ATOM      4  C2  OXE d   1      -0.937   1.264  -0.514  0.00  0.00    -0.078 A 
ATOM      5  C3  OXE d   1      -0.448   0.209  -1.279  0.00  0.00     0.003 A 
ATOM      6  C4  OXE d   1       0.100  -0.922  -0.660  0.00  0.00    -0.002 A 
ATOM      7  C5  OXE d   1       0.269  -0.958   0.728  0.00  0.00    -0.002 A 
ATOM      8  C6  OXE d   1      -0.108   0.142   1.490  0.00  0.00     0.003 A 
ENDROOT
TORSDOF 0
ENDMDL
