MODEL 1
REMARK minimizedAffinity -4.40706778
REMARK minimizedRMSD -1
REMARK  0 active torsions:
REMARK  status: ('A' for Active; 'I' for Inactive)
ROOT
ATOM      1  C2' OXE d   1      -1.123   1.793   1.467  0.00  0.00     0.078 C 
ATOM      2  C1' OXE d   1       0.575  -0.404   1.883  0.00  0.00     0.078 C 
ATOM      3  C1  OXE d   1       0.387   0.082   0.468  0.00  0.00    -0.078 A 
ATOM      4  C2  OXE d   1      -0.482   1.127   0.268  0.00  0.00    -0.078 A 
ATOM      5  C3  OXE d   1      -0.650   1.650  -1.011  0.00  0.00     0.003 A 
ATOM      6  C4  OXE d   1      -0.061   1.023  -2.116  0.00  0.00    -0.002 A 
ATOM      7  C5  OXE d   1       0.796  -0.069  -1.939  0.00  0.00    -0.002 A 
ATOM      8  C6  OXE d   1       1.064  -0.524  -0.653  0.00  0.00     0.003 A 
ENDROOT
TORSDOF 0
ENDMDL
