MODEL 1
REMARK minimizedAffinity -3.26808715
REMARK minimizedRMSD -1
REMARK  0 active torsions:
REMARK  status: ('A' for Active; 'I' for Inactive)
ROOT
ATOM      1  C2' OXE d   1      -1.673   2.604   1.613  0.00  0.00     0.078 C 
ATOM      2  C1' OXE d   1      -1.501   1.995  -1.121  0.00  0.00     0.078 C 
ATOM      3  C1  OXE d   1      -0.769   1.099  -0.154  0.00  0.00    -0.078 A 
ATOM      4  C2  OXE d   1      -0.821   1.431   1.178  0.00  0.00    -0.078 A 
ATOM      5  C3  OXE d   1      -0.209   0.608   2.119  0.00  0.00     0.003 A 
ATOM      6  C4  OXE d   1       0.586  -0.469   1.707  0.00  0.00    -0.002 A 
ATOM      7  C5  OXE d   1       0.684  -0.802   0.352  0.00  0.00    -0.002 A 
ATOM      8  C6  OXE d   1      -0.020  -0.055  -0.586  0.00  0.00     0.003 A 
ENDROOT
TORSDOF 0
ENDMDL
