MODEL 1
REMARK minimizedAffinity 27.6446819
REMARK minimizedRMSD -1
REMARK  0 active torsions:
REMARK  status: ('A' for Active; 'I' for Inactive)
ROOT
ATOM      1  C   UNL d   1      -2.293  -0.335   1.298  0.00  0.00     0.124 A 
ATOM      2  C1  UNL d   1      -3.185  -1.373   1.069  0.00  0.00     0.062 A 
ATOM      3  C2  UNL d   1      -4.244  -1.593   1.945  0.00  0.00     0.162 A 
ATOM      4  C3  UNL d   1      -4.417  -0.771   3.058  0.00  0.00    -0.034 A 
ATOM      5  C4  UNL d   1      -3.516   0.270   3.283  0.00  0.00     0.162 A 
ATOM      6  C5  UNL d   1      -2.459   0.486   2.405  0.00  0.00     0.062 A 
ATOM      7  F   UNL d   1      -1.598   1.489   2.628  0.00  0.00    -0.097 F 
ATOM      8  F1  UNL d   1      -3.653   1.079   4.344  0.00  0.00    -0.096 F 
ATOM      9  I   UNL d   1      -6.000  -1.096   4.371  0.00  0.00    -0.060 I 
ATOM     10  F2  UNL d   1      -5.090  -2.604   1.698  0.00  0.00    -0.096 F 
ATOM     11  F3  UNL d   1      -3.026  -2.168   0.000  0.00  0.00    -0.097 F 
ATOM     12  F4  UNL d   1      -1.274  -0.127   0.454  0.00  0.00    -0.092 F 
ENDROOT
TORSDOF 0
ENDMDL
