MODEL 1
REMARK minimizedAffinity 16.0551815
REMARK minimizedRMSD -1
REMARK  0 active torsions:
REMARK  status: ('A' for Active; 'I' for Inactive)
ROOT
ATOM      1  C   UNL d   1      -1.977  -0.491   0.806  0.00  0.00     0.124 A 
ATOM      2  C1  UNL d   1      -2.054   0.364   1.897  0.00  0.00     0.062 A 
ATOM      3  C2  UNL d   1      -3.073   0.213   2.833  0.00  0.00     0.162 A 
ATOM      4  C3  UNL d   1      -4.023  -0.797   2.683  0.00  0.00    -0.034 A 
ATOM      5  C4  UNL d   1      -3.939  -1.652   1.583  0.00  0.00     0.162 A 
ATOM      6  C5  UNL d   1      -2.919  -1.498   0.650  0.00  0.00     0.062 A 
ATOM      7  F   UNL d   1      -2.846  -2.325  -0.403  0.00  0.00    -0.097 F 
ATOM      8  F1  UNL d   1      -4.836  -2.634   1.409  0.00  0.00    -0.096 F 
ATOM      9  I   UNL d   1      -5.547  -1.025   4.081  0.00  0.00    -0.060 I 
ATOM     10  F2  UNL d   1      -3.123   1.054   3.877  0.00  0.00    -0.096 F 
ATOM     11  F3  UNL d   1      -1.145   1.338   2.049  0.00  0.00    -0.097 F 
ATOM     12  F4  UNL d   1      -0.996  -0.344  -0.094  0.00  0.00    -0.092 F 
ENDROOT
TORSDOF 0
ENDMDL
