MODEL 1
REMARK minimizedAffinity 17.9499969
REMARK minimizedRMSD -1
REMARK  0 active torsions:
REMARK  status: ('A' for Active; 'I' for Inactive)
ROOT
ATOM      1  C   UNL d   1      -3.441   5.717   1.133  0.00  0.00     0.124 A 
ATOM      2  C1  UNL d   1      -4.666   5.803   1.780  0.00  0.00     0.062 A 
ATOM      3  C2  UNL d   1      -4.720   5.883   3.169  0.00  0.00     0.162 A 
ATOM      4  C3  UNL d   1      -3.545   5.880   3.920  0.00  0.00    -0.034 A 
ATOM      5  C4  UNL d   1      -2.317   5.792   3.263  0.00  0.00     0.162 A 
ATOM      6  C5  UNL d   1      -2.268   5.712   1.875  0.00  0.00     0.062 A 
ATOM      7  F   UNL d   1      -1.084   5.629   1.251  0.00  0.00    -0.097 F 
ATOM      8  F1  UNL d   1      -1.168   5.786   3.954  0.00  0.00    -0.096 F 
ATOM      9  I   UNL d   1      -3.622   6.000   5.997  0.00  0.00    -0.060 I 
ATOM     10  F2  UNL d   1      -5.918   5.965   3.767  0.00  0.00    -0.096 F 
ATOM     11  F3  UNL d   1      -5.801   5.807   1.066  0.00  0.00    -0.097 F 
ATOM     12  F4  UNL d   1      -3.392   5.639  -0.203  0.00  0.00    -0.092 F 
ENDROOT
TORSDOF 0
ENDMDL
