MODEL 1
REMARK minimizedAffinity 16.3423004
REMARK minimizedRMSD -1
REMARK  0 active torsions:
REMARK  status: ('A' for Active; 'I' for Inactive)
ROOT
ATOM      1  C   UNL d   1      -2.375   5.894   4.123  0.00  0.00     0.124 A 
ATOM      2  C1  UNL d   1      -2.079   5.933   2.767  0.00  0.00     0.062 A 
ATOM      3  C2  UNL d   1      -3.105   5.944   1.827  0.00  0.00     0.162 A 
ATOM      4  C3  UNL d   1      -4.437   5.916   2.238  0.00  0.00    -0.034 A 
ATOM      5  C4  UNL d   1      -4.727   5.875   3.603  0.00  0.00     0.162 A 
ATOM      6  C5  UNL d   1      -3.699   5.865   4.539  0.00  0.00     0.062 A 
ATOM      7  F   UNL d   1      -3.987   5.827   5.848  0.00  0.00    -0.097 F 
ATOM      8  F1  UNL d   1      -5.998   5.848   4.033  0.00  0.00    -0.096 F 
ATOM      9  I   UNL d   1      -5.974   5.931   0.834  0.00  0.00    -0.060 I 
ATOM     10  F2  UNL d   1      -2.789   5.982   0.524  0.00  0.00    -0.096 F 
ATOM     11  F3  UNL d   1      -0.801   5.960   2.363  0.00  0.00    -0.097 F 
ATOM     12  F4  UNL d   1      -1.386   5.883   5.026  0.00  0.00    -0.092 F 
ENDROOT
TORSDOF 0
ENDMDL
