MODEL 1
REMARK minimizedAffinity 26.9974384
REMARK minimizedRMSD -1
REMARK  0 active torsions:
REMARK  status: ('A' for Active; 'I' for Inactive)
ROOT
ATOM      1  C   UNL d   1      -4.822   5.111   3.958  0.00  0.00     0.124 A 
ATOM      2  C1  UNL d   1      -4.792   5.038   2.572  0.00  0.00     0.062 A 
ATOM      3  C2  UNL d   1      -3.609   5.290   1.883  0.00  0.00     0.162 A 
ATOM      4  C3  UNL d   1      -2.445   5.616   2.580  0.00  0.00    -0.034 A 
ATOM      5  C4  UNL d   1      -2.484   5.689   3.973  0.00  0.00     0.162 A 
ATOM      6  C5  UNL d   1      -3.668   5.436   4.657  0.00  0.00     0.062 A 
ATOM      7  F   UNL d   1      -3.696   5.507   5.996  0.00  0.00    -0.097 F 
ATOM      8  F1  UNL d   1      -1.383   6.000   4.674  0.00  0.00    -0.096 F 
ATOM      9  I   UNL d   1      -0.674   5.993   1.554  0.00  0.00    -0.060 I 
ATOM     10  F2  UNL d   1      -3.609   5.212   0.544  0.00  0.00    -0.096 F 
ATOM     11  F3  UNL d   1      -5.906   4.725   1.894  0.00  0.00    -0.097 F 
ATOM     12  F4  UNL d   1      -5.962   4.869   4.618  0.00  0.00    -0.092 F 
ENDROOT
TORSDOF 0
ENDMDL
