MODEL 1
REMARK minimizedAffinity 18.169405
REMARK minimizedRMSD -1
REMARK  0 active torsions:
REMARK  status: ('A' for Active; 'I' for Inactive)
ROOT
ATOM      1  C   UNL d   1      -1.992  -1.012   0.348  0.00  0.00     0.124 A 
ATOM      2  C1  UNL d   1      -1.643  -0.170   1.395  0.00  0.00     0.062 A 
ATOM      3  C2  UNL d   1      -2.440  -0.103   2.534  0.00  0.00     0.162 A 
ATOM      4  C3  UNL d   1      -3.594  -0.881   2.633  0.00  0.00    -0.034 A 
ATOM      5  C4  UNL d   1      -3.938  -1.724   1.575  0.00  0.00     0.162 A 
ATOM      6  C5  UNL d   1      -3.139  -1.788   0.438  0.00  0.00     0.062 A 
ATOM      7  F   UNL d   1      -3.477  -2.601  -0.572  0.00  0.00    -0.097 F 
ATOM      8  F1  UNL d   1      -5.041  -2.486   1.637  0.00  0.00    -0.096 F 
ATOM      9  I   UNL d   1      -4.788  -0.783   4.334  0.00  0.00    -0.060 I 
ATOM     10  F2  UNL d   1      -2.079   0.719   3.531  0.00  0.00    -0.096 F 
ATOM     11  F3  UNL d   1      -0.536   0.581   1.309  0.00  0.00    -0.097 F 
ATOM     12  F4  UNL d   1      -1.223  -1.074  -0.748  0.00  0.00    -0.092 F 
ENDROOT
TORSDOF 0
ENDMDL
