MODEL 1
REMARK minimizedAffinity 10.7479019
REMARK minimizedRMSD -1
REMARK  0 active torsions:
REMARK  status: ('A' for Active; 'I' for Inactive)
ROOT
ATOM      1  C   UNL d   1      -2.630   5.909   1.575  0.00  0.00     0.124 A 
ATOM      2  C1  UNL d   1      -1.884   5.929   2.745  0.00  0.00     0.062 A 
ATOM      3  C2  UNL d   1      -2.522   5.952   3.982  0.00  0.00     0.162 A 
ATOM      4  C3  UNL d   1      -3.915   5.954   4.056  0.00  0.00    -0.034 A 
ATOM      5  C4  UNL d   1      -4.658   5.935   2.875  0.00  0.00     0.162 A 
ATOM      6  C5  UNL d   1      -4.016   5.912   1.641  0.00  0.00     0.062 A 
ATOM      7  F   UNL d   1      -4.739   5.893   0.511  0.00  0.00    -0.097 F 
ATOM      8  F1  UNL d   1      -5.999   5.936   2.909  0.00  0.00    -0.096 F 
ATOM      9  I   UNL d   1      -4.872   5.988   5.903  0.00  0.00    -0.060 I 
ATOM     10  F2  UNL d   1      -1.775   5.971   5.097  0.00  0.00    -0.096 F 
ATOM     11  F3  UNL d   1      -0.544   5.928   2.685  0.00  0.00    -0.097 F 
ATOM     12  F4  UNL d   1      -2.014   5.888   0.387  0.00  0.00    -0.092 F 
ENDROOT
TORSDOF 0
ENDMDL
