MODEL 1
REMARK minimizedAffinity 12.8678026
REMARK minimizedRMSD -1
REMARK  0 active torsions:
REMARK  status: ('A' for Active; 'I' for Inactive)
ROOT
ATOM      1  C   UNL d   1      -4.163   5.951   4.470  0.00  0.00     0.124 A 
ATOM      2  C1  UNL d   1      -2.789   5.951   4.671  0.00  0.00     0.062 A 
ATOM      3  C2  UNL d   1      -1.922   5.964   3.583  0.00  0.00     0.162 A 
ATOM      4  C3  UNL d   1      -2.425   5.978   2.282  0.00  0.00    -0.034 A 
ATOM      5  C4  UNL d   1      -3.808   5.977   2.087  0.00  0.00     0.162 A 
ATOM      6  C5  UNL d   1      -4.670   5.964   3.178  0.00  0.00     0.062 A 
ATOM      7  F   UNL d   1      -5.997   5.963   2.981  0.00  0.00    -0.097 F 
ATOM      8  F1  UNL d   1      -4.326   5.990   0.850  0.00  0.00    -0.096 F 
ATOM      9  I   UNL d   1      -1.132   5.998   0.652  0.00  0.00    -0.060 I 
ATOM     10  F2  UNL d   1      -0.600   5.964   3.807  0.00  0.00    -0.096 F 
ATOM     11  F3  UNL d   1      -2.296   5.938   5.918  0.00  0.00    -0.097 F 
ATOM     12  F4  UNL d   1      -4.995   5.937   5.519  0.00  0.00    -0.092 F 
ENDROOT
TORSDOF 0
ENDMDL
