MODEL 1
REMARK minimizedAffinity 22.5862236
REMARK minimizedRMSD -1
REMARK  0 active torsions:
REMARK  status: ('A' for Active; 'I' for Inactive)
ROOT
ATOM      1  C   UNL d   1      -2.793   2.387   1.288  0.00  0.00     0.124 A 
ATOM      2  C1  UNL d   1      -2.986   2.102   2.633  0.00  0.00     0.062 A 
ATOM      3  C2  UNL d   1      -3.213   3.131   3.541  0.00  0.00     0.162 A 
ATOM      4  C3  UNL d   1      -3.250   4.457   3.108  0.00  0.00    -0.034 A 
ATOM      5  C4  UNL d   1      -3.054   4.736   1.755  0.00  0.00     0.162 A 
ATOM      6  C5  UNL d   1      -2.827   3.704   0.850  0.00  0.00     0.062 A 
ATOM      7  F   UNL d   1      -2.641   3.982  -0.448  0.00  0.00    -0.097 F 
ATOM      8  F1  UNL d   1      -3.083   5.999   1.304  0.00  0.00    -0.096 F 
ATOM      9  I   UNL d   1      -3.590   5.999   4.464  0.00  0.00    -0.060 I 
ATOM     10  F2  UNL d   1      -3.397   2.826   4.835  0.00  0.00    -0.096 F 
ATOM     11  F3  UNL d   1      -2.952   0.831   3.058  0.00  0.00    -0.097 F 
ATOM     12  F4  UNL d   1      -2.573   1.395   0.416  0.00  0.00    -0.092 F 
ENDROOT
TORSDOF 0
ENDMDL
