MODEL 1
REMARK minimizedAffinity 15.1984911
REMARK minimizedRMSD -1
REMARK  0 active torsions:
REMARK  status: ('A' for Active; 'I' for Inactive)
ROOT
ATOM      1  C   UNL d   1      -3.039   2.354   1.461  0.00  0.00     0.124 A 
ATOM      2  C1  UNL d   1      -3.066   3.671   1.022  0.00  0.00     0.062 A 
ATOM      3  C2  UNL d   1      -3.166   4.713   1.938  0.00  0.00     0.162 A 
ATOM      4  C3  UNL d   1      -3.239   4.443   3.305  0.00  0.00    -0.034 A 
ATOM      5  C4  UNL d   1      -3.213   3.117   3.740  0.00  0.00     0.162 A 
ATOM      6  C5  UNL d   1      -3.113   2.079   2.819  0.00  0.00     0.062 A 
ATOM      7  F   UNL d   1      -3.088   0.808   3.246  0.00  0.00    -0.097 F 
ATOM      8  F1  UNL d   1      -3.282   2.822   5.046  0.00  0.00    -0.096 F 
ATOM      9  I   UNL d   1      -3.389   5.999   4.679  0.00  0.00    -0.060 I 
ATOM     10  F2  UNL d   1      -3.189   5.975   1.485  0.00  0.00    -0.096 F 
ATOM     11  F3  UNL d   1      -2.996   3.940  -0.290  0.00  0.00    -0.097 F 
ATOM     12  F4  UNL d   1      -2.944   1.353   0.576  0.00  0.00    -0.092 F 
ENDROOT
TORSDOF 0
ENDMDL
