MODEL 1
REMARK minimizedAffinity 11.7041636
REMARK minimizedRMSD -1
REMARK  0 active torsions:
REMARK  status: ('A' for Active; 'I' for Inactive)
ROOT
ATOM      1  C   UNL d   1      -4.488   5.967   4.015  0.00  0.00     0.124 A 
ATOM      2  C1  UNL d   1      -4.631   5.965   2.634  0.00  0.00     0.062 A 
ATOM      3  C2  UNL d   1      -3.507   5.973   1.814  0.00  0.00     0.162 A 
ATOM      4  C3  UNL d   1      -2.229   5.983   2.372  0.00  0.00    -0.034 A 
ATOM      5  C4  UNL d   1      -2.093   5.986   3.761  0.00  0.00     0.162 A 
ATOM      6  C5  UNL d   1      -3.219   5.978   4.577  0.00  0.00     0.062 A 
ATOM      7  F   UNL d   1      -3.079   5.980   5.911  0.00  0.00    -0.097 F 
ATOM      8  F1  UNL d   1      -0.878   5.996   4.331  0.00  0.00    -0.096 F 
ATOM      9  I   UNL d   1      -0.545   5.996   1.149  0.00  0.00    -0.060 I 
ATOM     10  F2  UNL d   1      -3.675   5.971   0.483  0.00  0.00    -0.096 F 
ATOM     11  F3  UNL d   1      -5.856   5.955   2.089  0.00  0.00    -0.097 F 
ATOM     12  F4  UNL d   1      -5.572   5.960   4.802  0.00  0.00    -0.092 F 
ENDROOT
TORSDOF 0
ENDMDL
