MODEL 1
REMARK minimizedAffinity 19.0931206
REMARK minimizedRMSD -1
REMARK  0 active torsions:
REMARK  status: ('A' for Active; 'I' for Inactive)
ROOT
ATOM      1  C   UNL d   1      -4.235   5.987   4.460  0.00  0.00     0.124 A 
ATOM      2  C1  UNL d   1      -4.679   5.989   3.145  0.00  0.00     0.062 A 
ATOM      3  C2  UNL d   1      -3.764   5.993   2.097  0.00  0.00     0.162 A 
ATOM      4  C3  UNL d   1      -2.394   5.993   2.359  0.00  0.00    -0.034 A 
ATOM      5  C4  UNL d   1      -1.954   5.991   3.684  0.00  0.00     0.162 A 
ATOM      6  C5  UNL d   1      -2.874   5.988   4.729  0.00  0.00     0.062 A 
ATOM      7  F   UNL d   1      -2.442   5.985   5.998  0.00  0.00    -0.097 F 
ATOM      8  F1  UNL d   1      -0.644   5.991   3.972  0.00  0.00    -0.096 F 
ATOM      9  I   UNL d   1      -1.021   5.998   0.795  0.00  0.00    -0.060 I 
ATOM     10  F2  UNL d   1      -4.222   5.996   0.836  0.00  0.00    -0.096 F 
ATOM     11  F3  UNL d   1      -5.994   5.990   2.884  0.00  0.00    -0.097 F 
ATOM     12  F4  UNL d   1      -5.118   5.984   5.467  0.00  0.00    -0.092 F 
ENDROOT
TORSDOF 0
ENDMDL
