MODEL 1
REMARK minimizedAffinity 13.7361689
REMARK minimizedRMSD -1
REMARK  0 active torsions:
REMARK  status: ('A' for Active; 'I' for Inactive)
ROOT
ATOM      1  C   UNL d   1      -3.833   3.232   1.892  0.00  0.00     0.124 A 
ATOM      2  C1  UNL d   1      -4.729   4.241   2.217  0.00  0.00     0.062 A 
ATOM      3  C2  UNL d   1      -4.515   5.032   3.342  0.00  0.00     0.162 A 
ATOM      4  C3  UNL d   1      -3.399   4.817   4.151  0.00  0.00    -0.034 A 
ATOM      5  C4  UNL d   1      -2.503   3.799   3.819  0.00  0.00     0.162 A 
ATOM      6  C5  UNL d   1      -2.721   3.012   2.693  0.00  0.00     0.062 A 
ATOM      7  F   UNL d   1      -1.855   2.037   2.382  0.00  0.00    -0.097 F 
ATOM      8  F1  UNL d   1      -1.420   3.566   4.576  0.00  0.00    -0.096 F 
ATOM      9  I   UNL d   1      -3.076   5.997   5.835  0.00  0.00    -0.060 I 
ATOM     10  F2  UNL d   1      -5.397   6.000   3.631  0.00  0.00    -0.096 F 
ATOM     11  F3  UNL d   1      -5.804   4.455   1.444  0.00  0.00    -0.097 F 
ATOM     12  F4  UNL d   1      -4.041   2.472   0.809  0.00  0.00    -0.092 F 
ENDROOT
TORSDOF 0
ENDMDL
