MODEL 1
REMARK minimizedAffinity 24.2039738
REMARK minimizedRMSD -1
REMARK  0 active torsions:
REMARK  status: ('A' for Active; 'I' for Inactive)
ROOT
ATOM      1  C   UNL d   1       0.018  -4.908   2.071  0.00  0.00     0.124 A 
ATOM      2  C1  UNL d   1      -1.028  -4.130   1.593  0.00  0.00     0.062 A 
ATOM      3  C2  UNL d   1      -0.861  -3.363   0.444  0.00  0.00     0.162 A 
ATOM      4  C3  UNL d   1       0.357  -3.371  -0.237  0.00  0.00    -0.034 A 
ATOM      5  C4  UNL d   1       1.404  -4.155   0.251  0.00  0.00     0.162 A 
ATOM      6  C5  UNL d   1       1.232  -4.919   1.400  0.00  0.00     0.062 A 
ATOM      7  F   UNL d   1       2.243  -5.670   1.861  0.00  0.00    -0.097 F 
ATOM      8  F1  UNL d   1       2.588  -4.185  -0.379  0.00  0.00    -0.096 F 
ATOM      9  I   UNL d   1       0.611  -2.225  -1.956  0.00  0.00    -0.060 I 
ATOM     10  F2  UNL d   1      -1.888  -2.621   0.004  0.00  0.00    -0.096 F 
ATOM     11  F3  UNL d   1      -2.202  -4.116   2.241  0.00  0.00    -0.097 F 
ATOM     12  F4  UNL d   1      -0.145  -5.644   3.178  0.00  0.00    -0.092 F 
ENDROOT
TORSDOF 0
ENDMDL
