MODEL 1
REMARK minimizedAffinity 19.9759197
REMARK minimizedRMSD -1
REMARK  0 active torsions:
REMARK  status: ('A' for Active; 'I' for Inactive)
ROOT
ATOM      1  C   UNL d   1      -4.009   3.186   2.057  0.00  0.00     0.124 A 
ATOM      2  C1  UNL d   1      -2.918   2.963   2.886  0.00  0.00     0.062 A 
ATOM      3  C2  UNL d   1      -2.714   3.765   4.005  0.00  0.00     0.162 A 
ATOM      4  C3  UNL d   1      -3.603   4.798   4.303  0.00  0.00    -0.034 A 
ATOM      5  C4  UNL d   1      -4.698   5.016   3.464  0.00  0.00     0.162 A 
ATOM      6  C5  UNL d   1      -4.898   4.212   2.347  0.00  0.00     0.062 A 
ATOM      7  F   UNL d   1      -5.952   4.428   1.547  0.00  0.00    -0.097 F 
ATOM      8  F1  UNL d   1      -5.573   6.000   3.721  0.00  0.00    -0.096 F 
ATOM      9  I   UNL d   1      -3.301   5.999   5.975  0.00  0.00    -0.060 I 
ATOM     10  F2  UNL d   1      -1.651   3.528   4.788  0.00  0.00    -0.096 F 
ATOM     11  F3  UNL d   1      -2.057   1.974   2.607  0.00  0.00    -0.097 F 
ATOM     12  F4  UNL d   1      -4.203   2.413   0.980  0.00  0.00    -0.092 F 
ENDROOT
TORSDOF 0
ENDMDL
