MODEL 1
REMARK minimizedAffinity 15.9474344
REMARK minimizedRMSD -1
REMARK  0 active torsions:
REMARK  status: ('A' for Active; 'I' for Inactive)
ROOT
ATOM      1  C   UNL d   1      -4.149   5.934   4.474  0.00  0.00     0.124 A 
ATOM      2  C1  UNL d   1      -2.784   5.943   4.729  0.00  0.00     0.062 A 
ATOM      3  C2  UNL d   1      -1.876   5.958   3.675  0.00  0.00     0.162 A 
ATOM      4  C3  UNL d   1      -2.328   5.967   2.355  0.00  0.00    -0.034 A 
ATOM      5  C4  UNL d   1      -3.702   5.958   2.107  0.00  0.00     0.162 A 
ATOM      6  C5  UNL d   1      -4.606   5.942   3.164  0.00  0.00     0.062 A 
ATOM      7  F   UNL d   1      -5.924   5.934   2.916  0.00  0.00    -0.097 F 
ATOM      8  F1  UNL d   1      -4.171   5.965   0.851  0.00  0.00    -0.096 F 
ATOM      9  I   UNL d   1      -0.972   5.990   0.776  0.00  0.00    -0.060 I 
ATOM     10  F2  UNL d   1      -0.563   5.966   3.950  0.00  0.00    -0.096 F 
ATOM     11  F3  UNL d   1      -2.340   5.934   5.994  0.00  0.00    -0.097 F 
ATOM     12  F4  UNL d   1      -5.021   5.918   5.490  0.00  0.00    -0.092 F 
ENDROOT
TORSDOF 0
ENDMDL
