MODEL 1
REMARK minimizedAffinity 22.2546215
REMARK minimizedRMSD -1
REMARK  0 active torsions:
REMARK  status: ('A' for Active; 'I' for Inactive)
ROOT
ATOM      1  C   UNL d   1      -3.001   2.390   1.495  0.00  0.00     0.124 A 
ATOM      2  C1  UNL d   1      -2.824   3.705   1.091  0.00  0.00     0.062 A 
ATOM      3  C2  UNL d   1      -2.880   4.738   2.022  0.00  0.00     0.162 A 
ATOM      4  C3  UNL d   1      -3.113   4.459   3.369  0.00  0.00    -0.034 A 
ATOM      5  C4  UNL d   1      -3.291   3.133   3.768  0.00  0.00     0.162 A 
ATOM      6  C5  UNL d   1      -3.234   2.105   2.833  0.00  0.00     0.062 A 
ATOM      7  F   UNL d   1      -3.405   0.834   3.226  0.00  0.00    -0.097 F 
ATOM      8  F1  UNL d   1      -3.516   2.829   5.055  0.00  0.00    -0.096 F 
ATOM      9  I   UNL d   1      -3.197   6.000   4.765  0.00  0.00    -0.060 I 
ATOM     10  F2  UNL d   1      -2.705   6.000   1.603  0.00  0.00    -0.096 F 
ATOM     11  F3  UNL d   1      -2.600   3.983  -0.202  0.00  0.00    -0.097 F 
ATOM     12  F4  UNL d   1      -2.948   1.398   0.597  0.00  0.00    -0.092 F 
ENDROOT
TORSDOF 0
ENDMDL
