MODEL 1
REMARK minimizedAffinity 6.84102821
REMARK minimizedRMSD -1
REMARK  0 active torsions:
REMARK  status: ('A' for Active; 'I' for Inactive)
ROOT
ATOM      1  C   UNL d   1       0.201  -2.927   0.410  0.00  0.00     0.078 C 
ATOM      2  C1  UNL d   1      -0.012  -2.950  -1.075  0.00  0.00    -0.077 A 
ATOM      3  C2  UNL d   1      -1.288  -2.773  -1.623  0.00  0.00    -0.001 A 
ATOM      4  C3  UNL d   1      -1.474  -2.807  -3.006  0.00  0.00     0.003 A 
ATOM      5  C4  UNL d   1      -0.387  -3.018  -3.852  0.00  0.00    -0.005 A 
ATOM      6  C5  UNL d   1       0.886  -3.197  -3.316  0.00  0.00     0.003 A 
ATOM      7  C6  UNL d   1       1.074  -3.164  -1.933  0.00  0.00    -0.001 A 
ENDROOT
TORSDOF 0
ENDMDL
