MODEL 1
REMARK minimizedAffinity 5.09991169
REMARK minimizedRMSD -1
REMARK  0 active torsions:
REMARK  status: ('A' for Active; 'I' for Inactive)
ROOT
ATOM      1  C   UNL d   1      -1.514  -2.326   0.701  0.00  0.00     0.078 C 
ATOM      2  C1  UNL d   1      -1.137  -2.583  -0.727  0.00  0.00    -0.077 A 
ATOM      3  C2  UNL d   1      -2.062  -3.120  -1.631  0.00  0.00    -0.001 A 
ATOM      4  C3  UNL d   1      -1.694  -3.364  -2.956  0.00  0.00     0.003 A 
ATOM      5  C4  UNL d   1      -0.401  -3.074  -3.388  0.00  0.00    -0.005 A 
ATOM      6  C5  UNL d   1       0.526  -2.542  -2.494  0.00  0.00     0.003 A 
ATOM      7  C6  UNL d   1       0.160  -2.298  -1.170  0.00  0.00    -0.001 A 
ENDROOT
TORSDOF 0
ENDMDL
