MODEL 1
REMARK minimizedAffinity 8.42157841
REMARK minimizedRMSD -1
REMARK  0 active torsions:
REMARK  status: ('A' for Active; 'I' for Inactive)
ROOT
ATOM      1  C   UNL d   1       1.990  -3.817  -3.903  0.00  0.00     0.078 C 
ATOM      2  C1  UNL d   1       0.908  -3.221  -3.053  0.00  0.00    -0.077 A 
ATOM      3  C2  UNL d   1      -0.338  -2.890  -3.599  0.00  0.00    -0.001 A 
ATOM      4  C3  UNL d   1      -1.333  -2.327  -2.799  0.00  0.00     0.003 A 
ATOM      5  C4  UNL d   1      -1.091  -2.088  -1.447  0.00  0.00    -0.005 A 
ATOM      6  C5  UNL d   1       0.146  -2.411  -0.895  0.00  0.00     0.003 A 
ATOM      7  C6  UNL d   1       1.142  -2.975  -1.694  0.00  0.00    -0.001 A 
ENDROOT
TORSDOF 0
ENDMDL
