MODEL 1
REMARK minimizedAffinity 4.8214922
REMARK minimizedRMSD -1
REMARK  0 active torsions:
REMARK  status: ('A' for Active; 'I' for Inactive)
ROOT
ATOM      1  C   UNL d   1      -3.333   1.934   0.458  0.00  0.00     0.078 C 
ATOM      2  C1  UNL d   1      -3.837   3.345   0.400  0.00  0.00    -0.077 A 
ATOM      3  C2  UNL d   1      -5.026   3.659  -0.269  0.00  0.00    -0.001 A 
ATOM      4  C3  UNL d   1      -5.478   4.979  -0.324  0.00  0.00     0.003 A 
ATOM      5  C4  UNL d   1      -4.747   5.995   0.289  0.00  0.00    -0.005 A 
ATOM      6  C5  UNL d   1      -3.562   5.692   0.956  0.00  0.00     0.003 A 
ATOM      7  C6  UNL d   1      -3.108   4.373   1.011  0.00  0.00    -0.001 A 
ENDROOT
TORSDOF 0
ENDMDL
