MODEL 1
REMARK minimizedAffinity 3.35406613
REMARK minimizedRMSD -1
REMARK  0 active torsions:
REMARK  status: ('A' for Active; 'I' for Inactive)
ROOT
ATOM      1  C   UNL d   1      -3.239  -2.497   0.689  0.00  0.00     0.078 C 
ATOM      2  C1  UNL d   1      -2.122  -2.507  -0.312  0.00  0.00    -0.077 A 
ATOM      3  C2  UNL d   1      -0.795  -2.306   0.087  0.00  0.00    -0.001 A 
ATOM      4  C3  UNL d   1       0.234  -2.308  -0.857  0.00  0.00     0.003 A 
ATOM      5  C4  UNL d   1      -0.054  -2.510  -2.205  0.00  0.00    -0.005 A 
ATOM      6  C5  UNL d   1      -1.372  -2.708  -2.612  0.00  0.00     0.003 A 
ATOM      7  C6  UNL d   1      -2.402  -2.707  -1.669  0.00  0.00    -0.001 A 
ENDROOT
TORSDOF 0
ENDMDL
