MODEL 1
REMARK minimizedAffinity 9.98429585
REMARK minimizedRMSD -1
REMARK  0 active torsions:
REMARK  status: ('A' for Active; 'I' for Inactive)
ROOT
ATOM      1  C   UNL d   1      -5.388   0.092   5.983  0.00  0.00     0.078 C 
ATOM      2  C1  UNL d   1      -3.922  -0.222   5.993  0.00  0.00    -0.077 A 
ATOM      3  C2  UNL d   1      -2.965   0.800   5.984  0.00  0.00    -0.001 A 
ATOM      4  C3  UNL d   1      -1.604   0.492   5.984  0.00  0.00     0.003 A 
ATOM      5  C4  UNL d   1      -1.187  -0.837   5.992  0.00  0.00    -0.005 A 
ATOM      6  C5  UNL d   1      -2.132  -1.861   5.999  0.00  0.00     0.003 A 
ATOM      7  C6  UNL d   1      -3.494  -1.556   5.999  0.00  0.00    -0.001 A 
ENDROOT
TORSDOF 0
ENDMDL
