MODEL 1
REMARK minimizedAffinity 2.00354838
REMARK minimizedRMSD -1
REMARK  0 active torsions:
REMARK  status: ('A' for Active; 'I' for Inactive)
ROOT
ATOM      1  C   UNL d   1       4.863  -5.995   5.762  0.00  0.00     0.078 C 
ATOM      2  C1  UNL d   1       4.818  -4.498   5.838  0.00  0.00    -0.077 A 
ATOM      3  C2  UNL d   1       5.996  -3.743   5.894  0.00  0.00    -0.001 A 
ATOM      4  C3  UNL d   1       5.939  -2.351   5.974  0.00  0.00     0.003 A 
ATOM      5  C4  UNL d   1       4.707  -1.701   6.000  0.00  0.00    -0.005 A 
ATOM      6  C5  UNL d   1       3.529  -2.444   5.946  0.00  0.00     0.003 A 
ATOM      7  C6  UNL d   1       3.584  -3.836   5.866  0.00  0.00    -0.001 A 
ENDROOT
TORSDOF 0
ENDMDL
