MODEL 1
REMARK minimizedAffinity 13.2980165
REMARK minimizedRMSD -1
REMARK  0 active torsions:
REMARK  status: ('A' for Active; 'I' for Inactive)
ROOT
ATOM      1  C   UNL d   1      -0.706  -2.603  -2.210  0.00  0.00     0.078 C 
ATOM      2  C1  UNL d   1       0.732  -2.760  -2.603  0.00  0.00    -0.077 A 
ATOM      3  C2  UNL d   1       1.111  -3.652  -3.613  0.00  0.00    -0.001 A 
ATOM      4  C3  UNL d   1       2.454  -3.795  -3.962  0.00  0.00     0.003 A 
ATOM      5  C4  UNL d   1       3.431  -3.049  -3.305  0.00  0.00    -0.005 A 
ATOM      6  C5  UNL d   1       3.064  -2.160  -2.297  0.00  0.00     0.003 A 
ATOM      7  C6  UNL d   1       1.721  -2.016  -1.947  0.00  0.00    -0.001 A 
ENDROOT
TORSDOF 0
ENDMDL
