MODEL 1
REMARK minimizedAffinity 4.19977713
REMARK minimizedRMSD -1
REMARK  0 active torsions:
REMARK  status: ('A' for Active; 'I' for Inactive)
ROOT
ATOM      1  C   UNL d   1       3.189  -4.283  -4.933  0.00  0.00     0.078 C 
ATOM      2  C1  UNL d   1       1.705  -4.074  -4.872  0.00  0.00    -0.077 A 
ATOM      3  C2  UNL d   1       1.093  -3.581  -3.714  0.00  0.00    -0.001 A 
ATOM      4  C3  UNL d   1      -0.291  -3.401  -3.668  0.00  0.00     0.003 A 
ATOM      5  C4  UNL d   1      -1.074  -3.713  -4.778  0.00  0.00    -0.005 A 
ATOM      6  C5  UNL d   1      -0.474  -4.207  -5.934  0.00  0.00     0.003 A 
ATOM      7  C6  UNL d   1       0.910  -4.387  -5.982  0.00  0.00    -0.001 A 
ENDROOT
TORSDOF 0
ENDMDL
