MODEL 1
REMARK minimizedAffinity 2.47094226
REMARK minimizedRMSD -1
REMARK  0 active torsions:
REMARK  status: ('A' for Active; 'I' for Inactive)
ROOT
ATOM      1  C   UNL d   1      -5.121   0.997   5.998  0.00  0.00     0.078 C 
ATOM      2  C1  UNL d   1      -3.816   0.259   6.000  0.00  0.00    -0.077 A 
ATOM      3  C2  UNL d   1      -2.597   0.949   5.989  0.00  0.00    -0.001 A 
ATOM      4  C3  UNL d   1      -1.390   0.248   5.982  0.00  0.00     0.003 A 
ATOM      5  C4  UNL d   1      -1.389  -1.145   5.983  0.00  0.00    -0.005 A 
ATOM      6  C5  UNL d   1      -2.597  -1.840   5.991  0.00  0.00     0.003 A 
ATOM      7  C6  UNL d   1      -3.805  -1.141   5.999  0.00  0.00    -0.001 A 
ENDROOT
TORSDOF 0
ENDMDL
