MODEL 1
REMARK minimizedAffinity 10.2774076
REMARK minimizedRMSD -1
REMARK  0 active torsions:
REMARK  status: ('A' for Active; 'I' for Inactive)
ROOT
ATOM      1  C   UNL d   1       0.745   5.049   1.324  0.00  0.00     0.078 C 
ATOM      2  C1  UNL d   1      -0.527   4.325   0.999  0.00  0.00    -0.077 A 
ATOM      3  C2  UNL d   1      -0.552   2.930   0.878  0.00  0.00    -0.001 A 
ATOM      4  C3  UNL d   1      -1.742   2.270   0.566  0.00  0.00     0.003 A 
ATOM      5  C4  UNL d   1      -2.915   2.996   0.371  0.00  0.00    -0.005 A 
ATOM      6  C5  UNL d   1      -2.899   4.385   0.487  0.00  0.00     0.003 A 
ATOM      7  C6  UNL d   1      -1.711   5.047   0.799  0.00  0.00    -0.001 A 
ENDROOT
TORSDOF 0
ENDMDL
