MODEL 1
REMARK minimizedAffinity 6.26229
REMARK minimizedRMSD -1
REMARK  0 active torsions:
REMARK  status: ('A' for Active; 'I' for Inactive)
ROOT
ATOM      1  C   UNL d   1      -2.636  -1.673   5.577  0.00  0.00     0.078 C 
ATOM      2  C1  UNL d   1      -3.116  -0.252   5.587  0.00  0.00    -0.077 A 
ATOM      3  C2  UNL d   1      -2.265   0.799   5.224  0.00  0.00    -0.001 A 
ATOM      4  C3  UNL d   1      -2.723   2.118   5.247  0.00  0.00     0.003 A 
ATOM      5  C4  UNL d   1      -4.032   2.397   5.634  0.00  0.00    -0.005 A 
ATOM      6  C5  UNL d   1      -4.886   1.358   5.998  0.00  0.00     0.003 A 
ATOM      7  C6  UNL d   1      -4.430   0.039   5.976  0.00  0.00    -0.001 A 
ENDROOT
TORSDOF 0
ENDMDL
