MODEL 1
REMARK minimizedAffinity 14.6598301
REMARK minimizedRMSD -1
REMARK  0 active torsions:
REMARK  status: ('A' for Active; 'I' for Inactive)
ROOT
ATOM      1  C   UNL d   1      -1.051  -2.669  -3.571  0.00  0.00     0.078 C 
ATOM      2  C1  UNL d   1      -0.730  -2.527  -2.113  0.00  0.00    -0.077 A 
ATOM      3  C2  UNL d   1      -0.029  -3.527  -1.428  0.00  0.00    -0.001 A 
ATOM      4  C3  UNL d   1       0.255  -3.385  -0.069  0.00  0.00     0.003 A 
ATOM      5  C4  UNL d   1      -0.159  -2.245   0.617  0.00  0.00    -0.005 A 
ATOM      6  C5  UNL d   1      -0.859  -1.245  -0.055  0.00  0.00     0.003 A 
ATOM      7  C6  UNL d   1      -1.144  -1.385  -1.414  0.00  0.00    -0.001 A 
ENDROOT
TORSDOF 0
ENDMDL
