MODEL 1
REMARK minimizedAffinity 4.70331335
REMARK minimizedRMSD -1
REMARK  0 active torsions:
REMARK  status: ('A' for Active; 'I' for Inactive)
ROOT
ATOM      1  C   UNL d   1      -1.034  -2.540  -4.685  0.00  0.00     0.078 C 
ATOM      2  C1  UNL d   1      -0.826  -2.380  -3.208  0.00  0.00    -0.077 A 
ATOM      3  C2  UNL d   1       0.396  -2.714  -2.612  0.00  0.00    -0.001 A 
ATOM      4  C3  UNL d   1       0.572  -2.570  -1.235  0.00  0.00     0.003 A 
ATOM      5  C4  UNL d   1      -0.471  -2.093  -0.442  0.00  0.00    -0.005 A 
ATOM      6  C5  UNL d   1      -1.691  -1.760  -1.027  0.00  0.00     0.003 A 
ATOM      7  C6  UNL d   1      -1.869  -1.904  -2.404  0.00  0.00    -0.001 A 
ENDROOT
TORSDOF 0
ENDMDL
