MODEL 1
REMARK minimizedAffinity 18.6976852
REMARK minimizedRMSD -1
REMARK  2 active torsions:
REMARK  status: ('A' for Active; 'I' for Inactive)
REMARK    1  A    between atoms: C1_2  and  C2_3 
REMARK    2  A    between atoms: C2_3  and  C3_4 
ROOT
ATOM      1  C3  UNL d   1      -1.909  -3.225  -3.911  0.00  0.00    -0.075 A 
ATOM      2  C4  UNL d   1      -1.809  -4.112  -2.829  0.00  0.00     0.002 A 
ATOM      3  C5  UNL d   1      -1.812  -5.491  -3.041  0.00  0.00     0.002 A 
ATOM      4  C6  UNL d   1      -1.924  -6.000  -4.333  0.00  0.00    -0.004 A 
ATOM      5  C7  UNL d   1      -2.040  -5.129  -5.414  0.00  0.00     0.002 A 
ATOM      6  C8  UNL d   1      -2.033  -3.748  -5.205  0.00  0.00     0.002 A 
ENDROOT
BRANCH   1   7
ATOM      7  C2  UNL d   1      -1.877  -1.731  -3.692  0.00  0.00     0.056 C 
BRANCH   7   8
ATOM      8  C1  UNL d   1      -0.490  -1.105  -3.866  0.00  0.00     0.007 C 
ATOM      9  C   UNL d   1      -0.302  -0.428  -5.218  0.00  0.00     0.009 C 
ENDBRANCH   7   8
ENDBRANCH   1   7
TORSDOF 2
ENDMDL
