MODEL 1
REMARK minimizedAffinity 9.60766029
REMARK minimizedRMSD -1
REMARK  2 active torsions:
REMARK  status: ('A' for Active; 'I' for Inactive)
REMARK    1  A    between atoms: C1_2  and  C2_3 
REMARK    2  A    between atoms: C2_3  and  C3_4 
ROOT
ATOM      1  C3  UNL d   1       2.256   0.640   3.768  0.00  0.00    -0.075 A 
ATOM      2  C4  UNL d   1       2.856   0.585   5.035  0.00  0.00     0.002 A 
ATOM      3  C5  UNL d   1       4.218   0.843   5.185  0.00  0.00     0.002 A 
ATOM      4  C6  UNL d   1       5.000   1.148   4.073  0.00  0.00    -0.004 A 
ATOM      5  C7  UNL d   1       4.418   1.188   2.807  0.00  0.00     0.002 A 
ATOM      6  C8  UNL d   1       3.054   0.935   2.654  0.00  0.00     0.002 A 
ENDROOT
BRANCH   1   7
ATOM      7  C2  UNL d   1       0.776   0.391   3.602  0.00  0.00     0.056 C 
BRANCH   7   8
ATOM      8  C1  UNL d   1       0.316   0.317   2.142  0.00  0.00     0.007 C 
ATOM      9  C   UNL d   1       0.269  -1.105   1.599  0.00  0.00     0.009 C 
ENDBRANCH   7   8
ENDBRANCH   1   7
TORSDOF 2
ENDMDL
