MODEL 1
REMARK minimizedAffinity 15.0405369
REMARK minimizedRMSD -1
REMARK  2 active torsions:
REMARK  status: ('A' for Active; 'I' for Inactive)
REMARK    1  A    between atoms: C1_2  and  C2_3 
REMARK    2  A    between atoms: C2_3  and  C3_4 
ROOT
ATOM      1  C3  UNL d   1      -0.024   1.372   3.857  0.00  0.00    -0.075 A 
ATOM      2  C4  UNL d   1      -0.628   1.139   2.613  0.00  0.00     0.002 A 
ATOM      3  C5  UNL d   1      -0.373  -0.040   1.912  0.00  0.00     0.002 A 
ATOM      4  C6  UNL d   1       0.494  -0.994   2.439  0.00  0.00    -0.004 A 
ATOM      5  C7  UNL d   1       1.113  -0.766   3.666  0.00  0.00     0.002 A 
ATOM      6  C8  UNL d   1       0.856   0.411   4.372  0.00  0.00     0.002 A 
ENDROOT
BRANCH   1   7
ATOM      7  C2  UNL d   1      -0.318   2.632   4.635  0.00  0.00     0.056 C 
BRANCH   7   8
ATOM      8  C1  UNL d   1       0.388   2.706   5.993  0.00  0.00     0.007 C 
ATOM      9  C   UNL d   1       1.577   3.658   6.000  0.00  0.00     0.009 C 
ENDBRANCH   7   8
ENDBRANCH   1   7
TORSDOF 2
ENDMDL
