MODEL 1
REMARK minimizedAffinity 18.2592869
REMARK minimizedRMSD -1
REMARK  2 active torsions:
REMARK  status: ('A' for Active; 'I' for Inactive)
REMARK    1  A    between atoms: C1_2  and  C2_3 
REMARK    2  A    between atoms: C2_3  and  C3_4 
ROOT
ATOM      1  C3  UNL d   1       3.954  -0.565   5.087  0.00  0.00    -0.075 A 
ATOM      2  C4  UNL d   1       2.759  -0.969   4.474  0.00  0.00     0.002 A 
ATOM      3  C5  UNL d   1       2.073  -0.103   3.621  0.00  0.00     0.002 A 
ATOM      4  C6  UNL d   1       2.567   1.177   3.378  0.00  0.00    -0.004 A 
ATOM      5  C7  UNL d   1       3.744   1.594   3.995  0.00  0.00     0.002 A 
ATOM      6  C8  UNL d   1       4.435   0.729   4.845  0.00  0.00     0.002 A 
ENDROOT
BRANCH   1   7
ATOM      7  C2  UNL d   1       4.716  -1.507   5.988  0.00  0.00     0.056 C 
BRANCH   7   8
ATOM      8  C1  UNL d   1       5.983  -2.090   5.352  0.00  0.00     0.007 C 
ATOM      9  C   UNL d   1       5.999  -3.613   5.336  0.00  0.00     0.009 C 
ENDBRANCH   7   8
ENDBRANCH   1   7
TORSDOF 2
ENDMDL
