MODEL 1
REMARK minimizedAffinity 17.7677193
REMARK minimizedRMSD -1
REMARK  2 active torsions:
REMARK  status: ('A' for Active; 'I' for Inactive)
REMARK    1  A    between atoms: C1_2  and  C2_3 
REMARK    2  A    between atoms: C2_3  and  C3_4 
ROOT
ATOM      1  C3  UNL d   1      -0.045   1.174   2.283  0.00  0.00    -0.075 A 
ATOM      2  C4  UNL d   1       0.888   0.988   3.313  0.00  0.00     0.002 A 
ATOM      3  C5  UNL d   1       1.475  -0.261   3.521  0.00  0.00     0.002 A 
ATOM      4  C6  UNL d   1       1.128  -1.340   2.711  0.00  0.00    -0.004 A 
ATOM      5  C7  UNL d   1       0.190  -1.171   1.695  0.00  0.00     0.002 A 
ATOM      6  C8  UNL d   1      -0.395   0.078   1.482  0.00  0.00     0.002 A 
ENDROOT
BRANCH   1   7
ATOM      7  C2  UNL d   1      -0.661   2.530   2.033  0.00  0.00     0.056 C 
BRANCH   7   8
ATOM      8  C1  UNL d   1       0.063   3.357   0.966  0.00  0.00     0.007 C 
ATOM      9  C   UNL d   1      -0.685   4.627   0.581  0.00  0.00     0.009 C 
ENDBRANCH   7   8
ENDBRANCH   1   7
TORSDOF 2
ENDMDL
