MODEL 1
REMARK minimizedAffinity 11.5751886
REMARK minimizedRMSD -1
REMARK  2 active torsions:
REMARK  status: ('A' for Active; 'I' for Inactive)
REMARK    1  A    between atoms: C1_2  and  C2_3 
REMARK    2  A    between atoms: C2_3  and  C3_4 
ROOT
ATOM      1  C3  UNL d   1      -0.720  -1.840  -3.962  0.00  0.00    -0.075 A 
ATOM      2  C4  UNL d   1      -0.101  -0.631  -3.611  0.00  0.00     0.002 A 
ATOM      3  C5  UNL d   1       1.090  -0.241  -4.225  0.00  0.00     0.002 A 
ATOM      4  C6  UNL d   1       1.680  -1.057  -5.188  0.00  0.00    -0.004 A 
ATOM      5  C7  UNL d   1       1.083  -2.267  -5.532  0.00  0.00     0.002 A 
ATOM      6  C8  UNL d   1      -0.111  -2.658  -4.922  0.00  0.00     0.002 A 
ENDROOT
BRANCH   1   7
ATOM      7  C2  UNL d   1      -2.024  -2.253  -3.322  0.00  0.00     0.056 C 
BRANCH   7   8
ATOM      8  C1  UNL d   1      -1.889  -2.700  -1.863  0.00  0.00     0.007 C 
ATOM      9  C   UNL d   1      -2.623  -4.000  -1.562  0.00  0.00     0.009 C 
ENDBRANCH   7   8
ENDBRANCH   1   7
TORSDOF 2
ENDMDL
