MODEL 1
REMARK minimizedAffinity 17.1139641
REMARK minimizedRMSD -1
REMARK  2 active torsions:
REMARK  status: ('A' for Active; 'I' for Inactive)
REMARK    1  A    between atoms: C1_2  and  C2_3 
REMARK    2  A    between atoms: C2_3  and  C3_4 
ROOT
ATOM      1  C3  UNL d   1      -0.351  -0.861   1.004  0.00  0.00    -0.075 A 
ATOM      2  C4  UNL d   1       0.607  -1.561   1.752  0.00  0.00     0.002 A 
ATOM      3  C5  UNL d   1       1.470  -0.881   2.613  0.00  0.00     0.002 A 
ATOM      4  C6  UNL d   1       1.392   0.505   2.729  0.00  0.00    -0.004 A 
ATOM      5  C7  UNL d   1       0.456   1.212   1.978  0.00  0.00     0.002 A 
ATOM      6  C8  UNL d   1      -0.411   0.534   1.120  0.00  0.00     0.002 A 
ENDROOT
BRANCH   1   7
ATOM      7  C2  UNL d   1      -1.306  -1.594   0.093  0.00  0.00     0.056 C 
BRANCH   7   8
ATOM      8  C1  UNL d   1      -0.644  -2.198  -1.150  0.00  0.00     0.007 C 
ATOM      9  C   UNL d   1      -1.339  -1.810  -2.448  0.00  0.00     0.009 C 
ENDBRANCH   7   8
ENDBRANCH   1   7
TORSDOF 2
ENDMDL
