MODEL 1
REMARK minimizedAffinity -3.62232804
REMARK minimizedRMSD -1
REMARK  1 active torsions:
REMARK  status: ('A' for Active; 'I' for Inactive)
REMARK    1  A    between atoms: C1_2  and  C2_3 
ROOT
ATOM      1  C2  UNL d   1       0.034   0.057   0.269  0.00  0.00    -0.073 A 
ATOM      2  C3  UNL d   1       0.721  -0.451   1.377  0.00  0.00    -0.002 A 
ATOM      3  C4  UNL d   1       0.619   0.177   2.619  0.00  0.00     0.004 A 
ATOM      4  C5  UNL d   1      -0.175   1.314   2.767  0.00  0.00    -0.004 A 
ATOM      5  C6  UNL d   1      -0.879   1.830   1.674  0.00  0.00    -0.075 A 
ATOM      6  C7  UNL d   1      -1.735   3.054   1.817  0.00  0.00     0.076 C 
ATOM      7  C8  UNL d   1      -0.769   1.195   0.430  0.00  0.00     0.001 A 
ENDROOT
BRANCH   1   8
ATOM      8  C1  UNL d   1       0.136  -0.622  -1.072  0.00  0.00     0.053 C 
ATOM      9  C   UNL d   1      -0.272  -2.085  -1.003  0.00  0.00     0.018 C 
ENDBRANCH   1   8
TORSDOF 1
ENDMDL
