MODEL 1
REMARK minimizedAffinity -2.55970645
REMARK minimizedRMSD -1
REMARK  1 active torsions:
REMARK  status: ('A' for Active; 'I' for Inactive)
REMARK    1  A    between atoms: C1_2  and  C2_3 
ROOT
ATOM      1  C2  UNL d   1      -0.182  -0.583   1.190  0.00  0.00    -0.073 A 
ATOM      2  C3  UNL d   1       1.041  -0.179   0.645  0.00  0.00    -0.002 A 
ATOM      3  C4  UNL d   1       1.706  -0.990  -0.275  0.00  0.00     0.004 A 
ATOM      4  C5  UNL d   1       1.153  -2.210  -0.664  0.00  0.00    -0.004 A 
ATOM      5  C6  UNL d   1      -0.075  -2.626  -0.139  0.00  0.00    -0.075 A 
ATOM      6  C7  UNL d   1      -0.683  -3.936  -0.546  0.00  0.00     0.076 C 
ATOM      7  C8  UNL d   1      -0.736  -1.807   0.786  0.00  0.00     0.001 A 
ENDROOT
BRANCH   1   8
ATOM      8  C1  UNL d   1      -0.907   0.293   2.179  0.00  0.00     0.053 C 
ATOM      9  C   UNL d   1      -0.332   1.700   2.223  0.00  0.00     0.018 C 
ENDBRANCH   1   8
TORSDOF 1
ENDMDL
