MODEL 1
REMARK minimizedAffinity 3.73910975
REMARK minimizedRMSD -1
REMARK  1 active torsions:
REMARK  status: ('A' for Active; 'I' for Inactive)
REMARK    1  A    between atoms: C1_2  and  C2_3 
ROOT
ATOM      1  C2  UNL d   1      -0.034  -0.945  -0.046  0.00  0.00    -0.073 A 
ATOM      2  C3  UNL d   1       1.115  -1.405   0.608  0.00  0.00    -0.002 A 
ATOM      3  C4  UNL d   1       1.693  -0.651   1.630  0.00  0.00     0.004 A 
ATOM      4  C5  UNL d   1       1.127   0.565   2.012  0.00  0.00    -0.004 A 
ATOM      5  C6  UNL d   1      -0.027   1.036   1.378  0.00  0.00    -0.075 A 
ATOM      6  C7  UNL d   1      -0.648   2.343   1.775  0.00  0.00     0.076 C 
ATOM      7  C8  UNL d   1      -0.601   0.274   0.351  0.00  0.00     0.001 A 
ENDROOT
BRANCH   1   8
ATOM      8  C1  UNL d   1      -0.666  -1.759  -1.146  0.00  0.00     0.053 C 
ATOM      9  C   UNL d   1      -0.423  -3.249  -0.964  0.00  0.00     0.018 C 
ENDBRANCH   1   8
TORSDOF 1
ENDMDL
