MODEL 1
REMARK minimizedAffinity 8.18453884
REMARK minimizedRMSD -1
REMARK  1 active torsions:
REMARK  status: ('A' for Active; 'I' for Inactive)
REMARK    1  A    between atoms: C1_2  and  C2_3 
ROOT
ATOM      1  C2  UNL d   1       1.402  -0.069   2.289  0.00  0.00    -0.073 A 
ATOM      2  C3  UNL d   1       1.464  -0.502   0.960  0.00  0.00    -0.002 A 
ATOM      3  C4  UNL d   1       1.010   0.321  -0.072  0.00  0.00     0.004 A 
ATOM      4  C5  UNL d   1       0.498   1.587   0.214  0.00  0.00    -0.004 A 
ATOM      5  C6  UNL d   1       0.439   2.042   1.535  0.00  0.00    -0.075 A 
ATOM      6  C7  UNL d   1      -0.111   3.400   1.860  0.00  0.00     0.076 C 
ATOM      7  C8  UNL d   1       0.894   1.208   2.566  0.00  0.00     0.001 A 
ENDROOT
BRANCH   1   8
ATOM      8  C1  UNL d   1       1.897  -0.952   3.405  0.00  0.00     0.053 C 
ATOM      9  C   UNL d   1       3.402  -1.162   3.343  0.00  0.00     0.018 C 
ENDBRANCH   1   8
TORSDOF 1
ENDMDL
