MODEL 1
REMARK minimizedAffinity 4.38512707
REMARK minimizedRMSD -1
REMARK  1 active torsions:
REMARK  status: ('A' for Active; 'I' for Inactive)
REMARK    1  A    between atoms: C1_2  and  C2_3 
ROOT
ATOM      1  C2  UNL d   1      -0.177   0.246  -0.162  0.00  0.00    -0.073 A 
ATOM      2  C3  UNL d   1       0.404   1.109  -1.097  0.00  0.00    -0.002 A 
ATOM      3  C4  UNL d   1      -0.334   1.563  -2.191  0.00  0.00     0.004 A 
ATOM      4  C5  UNL d   1      -1.661   1.165  -2.356  0.00  0.00    -0.004 A 
ATOM      5  C6  UNL d   1      -2.263   0.313  -1.425  0.00  0.00    -0.075 A 
ATOM      6  C7  UNL d   1      -3.688  -0.127  -1.590  0.00  0.00     0.076 C 
ATOM      7  C8  UNL d   1      -1.514  -0.141  -0.331  0.00  0.00     0.001 A 
ENDROOT
BRANCH   1   8
ATOM      8  C1  UNL d   1       0.614  -0.242   1.024  0.00  0.00     0.053 C 
ATOM      9  C   UNL d   1       0.310   0.558   2.281  0.00  0.00     0.018 C 
ENDBRANCH   1   8
TORSDOF 1
ENDMDL
