MODEL 1
REMARK minimizedAffinity 2.74110651
REMARK minimizedRMSD -1
REMARK  1 active torsions:
REMARK  status: ('A' for Active; 'I' for Inactive)
REMARK    1  A    between atoms: C1_2  and  C2_3 
ROOT
ATOM      1  C2  UNL d   1      -1.570  -2.348  -2.437  0.00  0.00    -0.073 A 
ATOM      2  C3  UNL d   1      -2.848  -2.170  -1.896  0.00  0.00    -0.002 A 
ATOM      3  C4  UNL d   1      -3.275  -0.902  -1.497  0.00  0.00     0.004 A 
ATOM      4  C5  UNL d   1      -2.432   0.200  -1.641  0.00  0.00    -0.004 A 
ATOM      5  C6  UNL d   1      -1.155   0.044  -2.191  0.00  0.00    -0.075 A 
ATOM      6  C7  UNL d   1      -0.236   1.219  -2.351  0.00  0.00     0.076 C 
ATOM      7  C8  UNL d   1      -0.733  -1.232  -2.587  0.00  0.00     0.001 A 
ENDROOT
BRANCH   1   8
ATOM      8  C1  UNL d   1      -1.107  -3.713  -2.876  0.00  0.00     0.053 C 
ATOM      9  C   UNL d   1      -0.363  -4.445  -1.770  0.00  0.00     0.018 C 
ENDBRANCH   1   8
TORSDOF 1
ENDMDL
