MODEL 1
REMARK minimizedAffinity 6.34852171
REMARK minimizedRMSD -1
REMARK  1 active torsions:
REMARK  status: ('A' for Active; 'I' for Inactive)
REMARK    1  A    between atoms: C1_2  and  C2_3 
ROOT
ATOM      1  C2  UNL d   1       2.901  -4.492  -1.655  0.00  0.00    -0.073 A 
ATOM      2  C3  UNL d   1       2.992  -5.022  -2.948  0.00  0.00    -0.002 A 
ATOM      3  C4  UNL d   1       4.047  -4.658  -3.786  0.00  0.00     0.004 A 
ATOM      4  C5  UNL d   1       5.023  -3.767  -3.339  0.00  0.00    -0.004 A 
ATOM      5  C6  UNL d   1       4.956  -3.236  -2.047  0.00  0.00    -0.075 A 
ATOM      6  C7  UNL d   1       5.997  -2.276  -1.552  0.00  0.00     0.076 C 
ATOM      7  C8  UNL d   1       3.892  -3.605  -1.212  0.00  0.00     0.001 A 
ENDROOT
BRANCH   1   8
ATOM      8  C1  UNL d   1       1.767  -4.887  -0.745  0.00  0.00     0.053 C 
ATOM      9  C   UNL d   1       0.413  -4.504  -1.320  0.00  0.00     0.018 C 
ENDBRANCH   1   8
TORSDOF 1
ENDMDL
