MODEL 1
REMARK minimizedAffinity 0.813464284
REMARK minimizedRMSD -1
REMARK  1 active torsions:
REMARK  status: ('A' for Active; 'I' for Inactive)
REMARK    1  A    between atoms: C1_2  and  C2_3 
ROOT
ATOM      1  C2  UNL d   1       0.351   1.449   2.254  0.00  0.00    -0.073 A 
ATOM      2  C3  UNL d   1      -0.105   1.001   3.499  0.00  0.00    -0.002 A 
ATOM      3  C4  UNL d   1       0.009  -0.346   3.849  0.00  0.00     0.004 A 
ATOM      4  C5  UNL d   1       0.585  -1.255   2.962  0.00  0.00    -0.004 A 
ATOM      5  C6  UNL d   1       1.058  -0.824   1.718  0.00  0.00    -0.075 A 
ATOM      6  C7  UNL d   1       1.678  -1.790   0.751  0.00  0.00     0.076 C 
ATOM      7  C8  UNL d   1       0.937   0.529   1.373  0.00  0.00     0.001 A 
ENDROOT
BRANCH   1   8
ATOM      8  C1  UNL d   1       0.236   2.903   1.875  0.00  0.00     0.053 C 
ATOM      9  C   UNL d   1       1.555   3.640   2.039  0.00  0.00     0.018 C 
ENDBRANCH   1   8
TORSDOF 1
ENDMDL
