MODEL 1
REMARK minimizedAffinity -2.54299235
REMARK minimizedRMSD -1
REMARK  0 active torsions:
REMARK  status: ('A' for Active; 'I' for Inactive)
ROOT
ATOM      1  C   UNL d   1       0.713  -1.201  -1.484  0.00  0.00     0.124 A 
ATOM      2  C1  UNL d   1      -0.525  -0.577  -1.550  0.00  0.00     0.062 A 
ATOM      3  C2  UNL d   1      -1.039   0.078  -0.435  0.00  0.00     0.162 A 
ATOM      4  C3  UNL d   1      -0.313   0.114   0.756  0.00  0.00    -0.034 A 
ATOM      5  C4  UNL d   1       0.931  -0.516   0.815  0.00  0.00     0.162 A 
ATOM      6  C5  UNL d   1       1.439  -1.170  -0.303  0.00  0.00     0.062 A 
ATOM      7  F   UNL d   1       2.636  -1.772  -0.237  0.00  0.00    -0.097 F 
ATOM      8  F1  UNL d   1       1.654  -0.501   1.944  0.00  0.00    -0.096 F 
ATOM      9  I   UNL d   1      -1.078   1.094   2.426  0.00  0.00    -0.060 I 
ATOM     10  F2  UNL d   1      -2.238   0.673  -0.527  0.00  0.00    -0.096 F 
ATOM     11  F3  UNL d   1      -1.230  -0.607  -2.691  0.00  0.00    -0.097 F 
ATOM     12  F4  UNL d   1       1.204  -1.832  -2.559  0.00  0.00    -0.092 F 
ENDROOT
TORSDOF 0
ENDMDL
