MODEL 1
REMARK minimizedAffinity -1.90684438
REMARK minimizedRMSD -1
REMARK  0 active torsions:
REMARK  status: ('A' for Active; 'I' for Inactive)
ROOT
ATOM      1  C   UNL d   1      -1.371   1.228   2.296  0.00  0.00     0.124 A 
ATOM      2  C1  UNL d   1      -1.810   0.399   1.272  0.00  0.00     0.062 A 
ATOM      3  C2  UNL d   1      -0.889  -0.267   0.468  0.00  0.00     0.162 A 
ATOM      4  C3  UNL d   1       0.479  -0.108   0.684  0.00  0.00    -0.034 A 
ATOM      5  C4  UNL d   1       0.913   0.728   1.715  0.00  0.00     0.162 A 
ATOM      6  C5  UNL d   1      -0.011   1.391   2.516  0.00  0.00     0.062 A 
ATOM      7  F   UNL d   1       0.415   2.191   3.505  0.00  0.00    -0.097 F 
ATOM      8  F1  UNL d   1       2.222   0.903   1.951  0.00  0.00    -0.096 F 
ATOM      9  I   UNL d   1       1.859  -1.102  -0.516  0.00  0.00    -0.060 I 
ATOM     10  F2  UNL d   1      -1.341  -1.061  -0.514  0.00  0.00    -0.096 F 
ATOM     11  F3  UNL d   1      -3.123   0.240   1.056  0.00  0.00    -0.097 F 
ATOM     12  F4  UNL d   1      -2.259   1.868   3.067  0.00  0.00    -0.092 F 
ENDROOT
TORSDOF 0
ENDMDL
