MODEL 1
REMARK minimizedAffinity -0.306852639
REMARK minimizedRMSD -1
REMARK  0 active torsions:
REMARK  status: ('A' for Active; 'I' for Inactive)
ROOT
ATOM      1  C   UNL d   1       0.732  -0.567  -1.198  0.00  0.00     0.124 A 
ATOM      2  C1  UNL d   1      -0.478   0.112  -1.170  0.00  0.00     0.062 A 
ATOM      3  C2  UNL d   1      -0.982   0.594   0.035  0.00  0.00     0.162 A 
ATOM      4  C3  UNL d   1      -0.275   0.401   1.221  0.00  0.00    -0.034 A 
ATOM      5  C4  UNL d   1       0.941  -0.284   1.185  0.00  0.00     0.162 A 
ATOM      6  C5  UNL d   1       1.440  -0.765  -0.021  0.00  0.00     0.062 A 
ATOM      7  F   UNL d   1       2.610  -1.420  -0.047  0.00  0.00    -0.097 F 
ATOM      8  F1  UNL d   1       1.647  -0.488   2.307  0.00  0.00    -0.096 F 
ATOM      9  I   UNL d   1      -1.025   1.121   3.024  0.00  0.00    -0.060 I 
ATOM     10  F2  UNL d   1      -2.154   1.247   0.032  0.00  0.00    -0.096 F 
ATOM     11  F3  UNL d   1      -1.165   0.303  -2.305  0.00  0.00    -0.097 F 
ATOM     12  F4  UNL d   1       1.214  -1.031  -2.358  0.00  0.00    -0.092 F 
ENDROOT
TORSDOF 0
ENDMDL
