MODEL 1
REMARK minimizedAffinity -1.46537042
REMARK minimizedRMSD -1
REMARK  0 active torsions:
REMARK  status: ('A' for Active; 'I' for Inactive)
ROOT
ATOM      1  C   UNL d   1      -1.748   0.420   1.811  0.00  0.00     0.124 A 
ATOM      2  C1  UNL d   1      -1.861  -0.422   0.713  0.00  0.00     0.062 A 
ATOM      3  C2  UNL d   1      -0.742  -0.721  -0.059  0.00  0.00     0.162 A 
ATOM      4  C3  UNL d   1       0.501  -0.177   0.265  0.00  0.00    -0.034 A 
ATOM      5  C4  UNL d   1       0.607   0.670   1.369  0.00  0.00     0.162 A 
ATOM      6  C5  UNL d   1      -0.514   0.965   2.137  0.00  0.00     0.062 A 
ATOM      7  F   UNL d   1      -0.402   1.780   3.197  0.00  0.00    -0.097 F 
ATOM      8  F1  UNL d   1       1.787   1.210   1.708  0.00  0.00    -0.096 F 
ATOM      9  I   UNL d   1       2.177  -0.622  -0.887  0.00  0.00    -0.060 I 
ATOM     10  F2  UNL d   1      -0.881  -1.538  -1.113  0.00  0.00    -0.096 F 
ATOM     11  F3  UNL d   1      -3.052  -0.949   0.395  0.00  0.00    -0.097 F 
ATOM     12  F4  UNL d   1      -2.826   0.707   2.551  0.00  0.00    -0.092 F 
ENDROOT
TORSDOF 0
ENDMDL
