MODEL 1
REMARK minimizedAffinity 1.58144438
REMARK minimizedRMSD -1
REMARK  0 active torsions:
REMARK  status: ('A' for Active; 'I' for Inactive)
ROOT
ATOM      1  C   UNL d   1      -1.140   1.479   2.653  0.00  0.00     0.124 A 
ATOM      2  C1  UNL d   1       0.246   1.533   2.605  0.00  0.00     0.062 A 
ATOM      3  C2  UNL d   1       0.946   0.757   1.685  0.00  0.00     0.162 A 
ATOM      4  C3  UNL d   1       0.260  -0.079   0.804  0.00  0.00    -0.034 A 
ATOM      5  C4  UNL d   1      -1.134  -0.128   0.859  0.00  0.00     0.162 A 
ATOM      6  C5  UNL d   1      -1.829   0.649   1.780  0.00  0.00     0.062 A 
ATOM      7  F   UNL d   1      -3.168   0.596   1.825  0.00  0.00    -0.097 F 
ATOM      8  F1  UNL d   1      -1.825  -0.921   0.026  0.00  0.00    -0.096 F 
ATOM      9  I   UNL d   1       1.302  -1.240  -0.574  0.00  0.00    -0.060 I 
ATOM     10  F2  UNL d   1       2.285   0.829   1.661  0.00  0.00    -0.096 F 
ATOM     11  F3  UNL d   1       0.914   2.334   3.448  0.00  0.00    -0.097 F 
ATOM     12  F4  UNL d   1      -1.810   2.226   3.540  0.00  0.00    -0.092 F 
ENDROOT
TORSDOF 0
ENDMDL
