MODEL 1
REMARK minimizedAffinity 0.544081926
REMARK minimizedRMSD -1
REMARK  0 active torsions:
REMARK  status: ('A' for Active; 'I' for Inactive)
ROOT
ATOM      1  C   UNL d   1      -0.538   0.935   2.809  0.00  0.00     0.124 A 
ATOM      2  C1  UNL d   1      -1.521   0.500   1.930  0.00  0.00     0.062 A 
ATOM      3  C2  UNL d   1      -1.190   0.162   0.621  0.00  0.00     0.162 A 
ATOM      4  C3  UNL d   1       0.131   0.257   0.183  0.00  0.00    -0.034 A 
ATOM      5  C4  UNL d   1       1.114   0.697   1.072  0.00  0.00     0.162 A 
ATOM      6  C5  UNL d   1       0.777   1.033   2.379  0.00  0.00     0.062 A 
ATOM      7  F   UNL d   1       1.728   1.453   3.227  0.00  0.00    -0.097 F 
ATOM      8  F1  UNL d   1       2.393   0.800   0.683  0.00  0.00    -0.096 F 
ATOM      9  I   UNL d   1       0.631  -0.247  -1.774  0.00  0.00    -0.060 I 
ATOM     10  F2  UNL d   1      -2.159  -0.255  -0.206  0.00  0.00    -0.096 F 
ATOM     11  F3  UNL d   1      -2.793   0.405   2.343  0.00  0.00    -0.097 F 
ATOM     12  F4  UNL d   1      -0.860   1.260   4.068  0.00  0.00    -0.092 F 
ENDROOT
TORSDOF 0
ENDMDL
