MODEL 1
REMARK minimizedAffinity -1.0672704
REMARK minimizedRMSD -1
REMARK  0 active torsions:
REMARK  status: ('A' for Active; 'I' for Inactive)
ROOT
ATOM      1  C1  BNZ d   1      -5.569   5.999   4.601  0.00  0.00     0.000 A 
ATOM      2  C2  BNZ d   1      -5.999   5.998   3.300  0.00  0.00     0.000 A 
ATOM      3  C3  BNZ d   1      -5.870   4.883   2.521  0.00  0.00     0.000 A 
ATOM      4  C4  BNZ d   1      -5.276   3.784   3.030  0.00  0.00     0.000 A 
ATOM      5  C5  BNZ d   1      -4.829   3.772   4.336  0.00  0.00     0.000 A 
ATOM      6  C6  BNZ d   1      -4.996   4.884   5.129  0.00  0.00     0.000 A 
ENDROOT
TORSDOF 0
ENDMDL
