MODEL 1
REMARK minimizedAffinity 8.58851814
REMARK minimizedRMSD -1
REMARK  0 active torsions:
REMARK  status: ('A' for Active; 'I' for Inactive)
ROOT
ATOM      1  C1  BNZ d   1      -3.383  -5.999  -1.041  0.00  0.00     0.000 A 
ATOM      2  C2  BNZ d   1      -2.353  -5.999  -0.138  0.00  0.00     0.000 A 
ATOM      3  C3  BNZ d   1      -1.053  -5.974  -0.559  0.00  0.00     0.000 A 
ATOM      4  C4  BNZ d   1      -0.784  -5.989  -1.881  0.00  0.00     0.000 A 
ATOM      5  C5  BNZ d   1      -1.811  -5.998  -2.803  0.00  0.00     0.000 A 
ATOM      6  C6  BNZ d   1      -3.119  -5.984  -2.376  0.00  0.00     0.000 A 
ENDROOT
TORSDOF 0
ENDMDL
