MODEL 1
REMARK minimizedAffinity 0.399168342
REMARK minimizedRMSD -1
REMARK  0 active torsions:
REMARK  status: ('A' for Active; 'I' for Inactive)
ROOT
ATOM      1  C1  BNZ d   1      -3.819   5.997   5.185  0.00  0.00     0.000 A 
ATOM      2  C2  BNZ d   1      -3.824   5.257   4.032  0.00  0.00     0.000 A 
ATOM      3  C3  BNZ d   1      -4.919   4.520   3.679  0.00  0.00     0.000 A 
ATOM      4  C4  BNZ d   1      -5.992   4.493   4.496  0.00  0.00     0.000 A 
ATOM      5  C5  BNZ d   1      -5.999   5.226   5.665  0.00  0.00     0.000 A 
ATOM      6  C6  BNZ d   1      -4.909   5.998   5.999  0.00  0.00     0.000 A 
ENDROOT
TORSDOF 0
ENDMDL
