MODEL 1
REMARK minimizedAffinity 7.15708637
REMARK minimizedRMSD -1
REMARK  0 active torsions:
REMARK  status: ('A' for Active; 'I' for Inactive)
ROOT
ATOM      1  C1  BNZ d   1       3.364  -0.163   1.259  0.00  0.00     0.000 A 
ATOM      2  C2  BNZ d   1       3.313   0.874   0.366  0.00  0.00     0.000 A 
ATOM      3  C3  BNZ d   1       2.572   0.776  -0.779  0.00  0.00     0.000 A 
ATOM      4  C4  BNZ d   1       1.916  -0.371  -1.048  0.00  0.00     0.000 A 
ATOM      5  C5  BNZ d   1       1.966  -1.429  -0.162  0.00  0.00     0.000 A 
ATOM      6  C6  BNZ d   1       2.681  -1.313   1.007  0.00  0.00     0.000 A 
ENDROOT
TORSDOF 0
ENDMDL
