MODEL 1
REMARK minimizedAffinity -1.32256973
REMARK minimizedRMSD -1
REMARK  0 active torsions:
REMARK  status: ('A' for Active; 'I' for Inactive)
ROOT
ATOM      1  C1  BNZ d   1      -4.087   5.986   5.022  0.00  0.00     0.000 A 
ATOM      2  C2  BNZ d   1      -4.108   5.084   3.991  0.00  0.00     0.000 A 
ATOM      3  C3  BNZ d   1      -5.077   4.122   3.924  0.00  0.00     0.000 A 
ATOM      4  C4  BNZ d   1      -5.998   4.038   4.905  0.00  0.00     0.000 A 
ATOM      5  C5  BNZ d   1      -5.984   4.935   5.955  0.00  0.00     0.000 A 
ATOM      6  C6  BNZ d   1      -5.031   5.926   6.000  0.00  0.00     0.000 A 
ENDROOT
TORSDOF 0
ENDMDL
