MODEL 1
REMARK minimizedAffinity -5.06028366
REMARK minimizedRMSD -1
REMARK  2 active torsions:
REMARK  status: ('A' for Active; 'I' for Inactive)
REMARK    1  A    between atoms: C2'_3  and  C1'_4 
REMARK    2  A    between atoms: C1'_4  and  C1_5 
ROOT
ATOM      1  C1  I4B d   1      -0.505   0.650  -0.963  0.00  0.00    -0.075 A 
ATOM      2  C2  I4B d   1      -0.342  -0.100  -2.101  0.00  0.00     0.003 A 
ATOM      3  C3  I4B d   1      -0.957   0.300  -3.312  0.00  0.00     0.002 A 
ATOM      4  C4  I4B d   1      -1.762   1.420  -3.328  0.00  0.00    -0.004 A 
ATOM      5  C5  I4B d   1      -1.908   2.192  -2.179  0.00  0.00     0.002 A 
ATOM      6  C6  I4B d   1      -1.266   1.812  -0.992  0.00  0.00     0.003 A 
ENDROOT
BRANCH   1   7
ATOM      7  C1' I4B d   1       0.131   0.181   0.307  0.00  0.00     0.060 C 
BRANCH   7   8
ATOM      8  C2' I4B d   1       1.402  -0.561  -0.055  0.00  0.00    -0.013 C 
ATOM      9  C4' I4B d   1       2.497   0.394  -0.450  0.00  0.00     0.013 C 
ATOM     10  C3' I4B d   1       1.806  -1.389   1.128  0.00  0.00     0.013 C 
ENDBRANCH   7   8
ENDBRANCH   1   7
TORSDOF 2
ENDMDL
