MODEL 1
REMARK minimizedAffinity -1.11774755
REMARK minimizedRMSD -1
REMARK  2 active torsions:
REMARK  status: ('A' for Active; 'I' for Inactive)
REMARK    1  A    between atoms: C2'_3  and  C1'_4 
REMARK    2  A    between atoms: C1'_4  and  C1_5 
ROOT
ATOM      1  C1  I4B d   1       0.289  -0.707   1.096  0.00  0.00    -0.075 A 
ATOM      2  C2  I4B d   1      -0.605  -0.735   2.136  0.00  0.00     0.003 A 
ATOM      3  C3  I4B d   1      -0.218  -1.255   3.395  0.00  0.00     0.002 A 
ATOM      4  C4  I4B d   1       1.049  -1.779   3.554  0.00  0.00    -0.004 A 
ATOM      5  C5  I4B d   1       1.962  -1.729   2.504  0.00  0.00     0.002 A 
ATOM      6  C6  I4B d   1       1.584  -1.178   1.271  0.00  0.00     0.003 A 
ENDROOT
BRANCH   1   7
ATOM      7  C1' I4B d   1      -0.163  -0.181  -0.230  0.00  0.00     0.060 C 
BRANCH   7   8
ATOM      8  C2' I4B d   1      -0.142   1.333  -0.163  0.00  0.00    -0.013 C 
ATOM      9  C4' I4B d   1       1.184   1.880  -0.622  0.00  0.00     0.013 C 
ATOM     10  C3' I4B d   1      -1.265   1.849  -1.013  0.00  0.00     0.013 C 
ENDBRANCH   7   8
ENDBRANCH   1   7
TORSDOF 2
ENDMDL
