MODEL 1
REMARK minimizedAffinity -5.17616796
REMARK minimizedRMSD -1
REMARK  2 active torsions:
REMARK  status: ('A' for Active; 'I' for Inactive)
REMARK    1  A    between atoms: C2'_3  and  C1'_4 
REMARK    2  A    between atoms: C1'_4  and  C1_5 
ROOT
ATOM      1  C1  I4B d   1       0.021   0.136  -0.500  0.00  0.00    -0.075 A 
ATOM      2  C2  I4B d   1       0.973  -0.254  -1.410  0.00  0.00     0.003 A 
ATOM      3  C3  I4B d   1       1.694  -1.457  -1.214  0.00  0.00     0.002 A 
ATOM      4  C4  I4B d   1       1.470  -2.207  -0.078  0.00  0.00    -0.004 A 
ATOM      5  C5  I4B d   1       0.489  -1.822   0.831  0.00  0.00     0.002 A 
ATOM      6  C6  I4B d   1      -0.249  -0.649   0.613  0.00  0.00     0.003 A 
ENDROOT
BRANCH   1   7
ATOM      7  C1' I4B d   1      -0.699   1.429  -0.721  0.00  0.00     0.060 C 
BRANCH   7   8
ATOM      8  C2' I4B d   1      -1.300   1.397  -2.111  0.00  0.00    -0.013 C 
ATOM      9  C4' I4B d   1      -2.724   0.906  -2.078  0.00  0.00     0.013 C 
ATOM     10  C3' I4B d   1      -1.217   2.781  -2.683  0.00  0.00     0.013 C 
ENDBRANCH   7   8
ENDBRANCH   1   7
TORSDOF 2
ENDMDL
