MODEL 1
REMARK minimizedAffinity 0.149107412
REMARK minimizedRMSD -1
REMARK  2 active torsions:
REMARK  status: ('A' for Active; 'I' for Inactive)
REMARK    1  A    between atoms: C2'_3  and  C1'_4 
REMARK    2  A    between atoms: C1'_4  and  C1_5 
ROOT
ATOM      1  C1  I4B d   1      -0.613   0.117  -0.423  0.00  0.00    -0.075 A 
ATOM      2  C2  I4B d   1      -0.868   0.822   0.727  0.00  0.00     0.003 A 
ATOM      3  C3  I4B d   1      -1.666   1.991   0.684  0.00  0.00     0.002 A 
ATOM      4  C4  I4B d   1      -2.143   2.445  -0.528  0.00  0.00    -0.004 A 
ATOM      5  C5  I4B d   1      -1.902   1.717  -1.690  0.00  0.00     0.002 A 
ATOM      6  C6  I4B d   1      -1.142   0.539  -1.636  0.00  0.00     0.003 A 
ENDROOT
BRANCH   1   7
ATOM      7  C1' I4B d   1       0.261  -1.095  -0.347  0.00  0.00     0.060 C 
BRANCH   7   8
ATOM      8  C2' I4B d   1       1.448  -0.760   0.532  0.00  0.00    -0.013 C 
ATOM      9  C4' I4B d   1       2.180  -2.005   0.957  0.00  0.00     0.013 C 
ATOM     10  C3' I4B d   1       2.348   0.161  -0.237  0.00  0.00     0.013 C 
ENDBRANCH   7   8
ENDBRANCH   1   7
TORSDOF 2
ENDMDL
