MODEL 1
REMARK minimizedAffinity -4.52857971
REMARK minimizedRMSD -1
REMARK  2 active torsions:
REMARK  status: ('A' for Active; 'I' for Inactive)
REMARK    1  A    between atoms: C2'_3  and  C1'_4 
REMARK    2  A    between atoms: C1'_4  and  C1_5 
ROOT
ATOM      1  C1  I4B d   1      -0.207   0.549  -0.369  0.00  0.00    -0.075 A 
ATOM      2  C2  I4B d   1       1.073   0.368  -0.831  0.00  0.00     0.003 A 
ATOM      3  C3  I4B d   1       1.893  -0.646  -0.279  0.00  0.00     0.002 A 
ATOM      4  C4  I4B d   1       1.414  -1.416   0.761  0.00  0.00    -0.004 A 
ATOM      5  C5  I4B d   1       0.108  -1.246   1.212  0.00  0.00     0.002 A 
ATOM      6  C6  I4B d   1      -0.712  -0.266   0.636  0.00  0.00     0.003 A 
ENDROOT
BRANCH   1   7
ATOM      7  C1' I4B d   1      -1.035   1.651  -0.953  0.00  0.00     0.060 C 
BRANCH   7   8
ATOM      8  C2' I4B d   1      -1.607   1.159  -2.266  0.00  0.00    -0.013 C 
ATOM      9  C4' I4B d   1      -3.112   1.215  -2.261  0.00  0.00     0.013 C 
ATOM     10  C3' I4B d   1      -1.037   2.006  -3.365  0.00  0.00     0.013 C 
ENDBRANCH   7   8
ENDBRANCH   1   7
TORSDOF 2
ENDMDL
