MODEL 1
REMARK minimizedAffinity -1.45298767
REMARK minimizedRMSD -1
REMARK  2 active torsions:
REMARK  status: ('A' for Active; 'I' for Inactive)
REMARK    1  A    between atoms: C2'_3  and  C1'_4 
REMARK    2  A    between atoms: C1'_4  and  C1_5 
ROOT
ATOM      1  C1  I4B d   1       0.899  -0.857  -0.999  0.00  0.00    -0.075 A 
ATOM      2  C2  I4B d   1       2.027  -0.222  -0.544  0.00  0.00     0.003 A 
ATOM      3  C3  I4B d   1       2.826  -0.821   0.460  0.00  0.00     0.002 A 
ATOM      4  C4  I4B d   1       2.436  -2.024   1.012  0.00  0.00    -0.004 A 
ATOM      5  C5  I4B d   1       1.304  -2.678   0.533  0.00  0.00     0.002 A 
ATOM      6  C6  I4B d   1       0.537  -2.097  -0.488  0.00  0.00     0.003 A 
ENDROOT
BRANCH   1   7
ATOM      7  C1' I4B d   1       0.059  -0.181  -2.036  0.00  0.00     0.060 C 
BRANCH   7   8
ATOM      8  C2' I4B d   1      -1.198   0.327  -1.361  0.00  0.00    -0.013 C 
ATOM      9  C4' I4B d   1      -0.867   1.187  -0.169  0.00  0.00     0.013 C 
ATOM     10  C3' I4B d   1      -1.992   1.093  -2.376  0.00  0.00     0.013 C 
ENDBRANCH   7   8
ENDBRANCH   1   7
TORSDOF 2
ENDMDL
