MODEL 1
REMARK minimizedAffinity -4.85612011
REMARK minimizedRMSD -1
REMARK  2 active torsions:
REMARK  status: ('A' for Active; 'I' for Inactive)
REMARK    1  A    between atoms: C2'_3  and  C1'_4 
REMARK    2  A    between atoms: C1'_4  and  C1_5 
ROOT
ATOM      1  C1  I4B d   1      -0.133   0.132  -0.120  0.00  0.00    -0.075 A 
ATOM      2  C2  I4B d   1       1.065   0.395  -0.736  0.00  0.00     0.003 A 
ATOM      3  C3  I4B d   1       2.123  -0.543  -0.667  0.00  0.00     0.002 A 
ATOM      4  C4  I4B d   1       1.958  -1.701   0.066  0.00  0.00    -0.004 A 
ATOM      5  C5  I4B d   1       0.735  -1.977   0.670  0.00  0.00     0.002 A 
ATOM      6  C6  I4B d   1      -0.322  -1.060   0.566  0.00  0.00     0.003 A 
ENDROOT
BRANCH   1   7
ATOM      7  C1' I4B d   1      -1.218   1.160  -0.185  0.00  0.00     0.060 C 
BRANCH   7   8
ATOM      8  C2' I4B d   1      -1.555   1.391  -1.644  0.00  0.00    -0.013 C 
ATOM      9  C4' I4B d   1      -3.015   1.140  -1.914  0.00  0.00     0.013 C 
ATOM     10  C3' I4B d   1      -1.176   2.801  -1.989  0.00  0.00     0.013 C 
ENDBRANCH   7   8
ENDBRANCH   1   7
TORSDOF 2
ENDMDL
