MODEL 1
REMARK minimizedAffinity -0.449289203
REMARK minimizedRMSD -1
REMARK  2 active torsions:
REMARK  status: ('A' for Active; 'I' for Inactive)
REMARK    1  A    between atoms: C2'_3  and  C1'_4 
REMARK    2  A    between atoms: C1'_4  and  C1_5 
ROOT
ATOM      1  C1  I4B d   1      -0.692   0.001   0.370  0.00  0.00    -0.075 A 
ATOM      2  C2  I4B d   1      -0.381  -1.336   0.399  0.00  0.00     0.003 A 
ATOM      3  C3  I4B d   1      -0.992  -2.189   1.350  0.00  0.00     0.002 A 
ATOM      4  C4  I4B d   1      -1.863  -1.659   2.278  0.00  0.00    -0.004 A 
ATOM      5  C5  I4B d   1      -2.195  -0.308   2.233  0.00  0.00     0.002 A 
ATOM      6  C6  I4B d   1      -1.615   0.525   1.265  0.00  0.00     0.003 A 
ENDROOT
BRANCH   1   7
ATOM      7  C1' I4B d   1      -0.003   0.879  -0.626  0.00  0.00     0.060 C 
BRANCH   7   8
ATOM      8  C2' I4B d   1       1.296   0.208  -1.021  0.00  0.00    -0.013 C 
ATOM      9  C4' I4B d   1       1.385   0.030  -2.514  0.00  0.00     0.013 C 
ATOM     10  C3' I4B d   1       2.427   1.048  -0.508  0.00  0.00     0.013 C 
ENDBRANCH   7   8
ENDBRANCH   1   7
TORSDOF 2
ENDMDL
