MODEL 1
REMARK minimizedAffinity -1.21058452
REMARK minimizedRMSD -1
REMARK  2 active torsions:
REMARK  status: ('A' for Active; 'I' for Inactive)
REMARK    1  A    between atoms: C2'_3  and  C1'_4 
REMARK    2  A    between atoms: C1'_4  and  C1_5 
ROOT
ATOM      1  C1  I4B d   1      -0.491   0.695  -1.014  0.00  0.00    -0.075 A 
ATOM      2  C2  I4B d   1      -0.394   1.963  -1.530  0.00  0.00     0.003 A 
ATOM      3  C3  I4B d   1      -1.352   2.429  -2.462  0.00  0.00     0.002 A 
ATOM      4  C4  I4B d   1      -2.354   1.582  -2.887  0.00  0.00    -0.004 A 
ATOM      5  C5  I4B d   1      -2.465   0.304  -2.347  0.00  0.00     0.002 A 
ATOM      6  C6  I4B d   1      -1.535  -0.139  -1.395  0.00  0.00     0.003 A 
ENDROOT
BRANCH   1   7
ATOM      7  C1' I4B d   1       0.557   0.223  -0.056  0.00  0.00     0.060 C 
BRANCH   7   8
ATOM      8  C2' I4B d   1       0.088  -1.088   0.540  0.00  0.00    -0.013 C 
ATOM      9  C4' I4B d   1       1.235  -1.854   1.144  0.00  0.00     0.013 C 
ATOM     10  C3' I4B d   1      -0.959  -0.781   1.569  0.00  0.00     0.013 C 
ENDBRANCH   7   8
ENDBRANCH   1   7
TORSDOF 2
ENDMDL
