MODEL 1
REMARK minimizedAffinity -3.19587994
REMARK minimizedRMSD -1
REMARK  2 active torsions:
REMARK  status: ('A' for Active; 'I' for Inactive)
REMARK    1  A    between atoms: C2'_3  and  C1'_4 
REMARK    2  A    between atoms: C1'_4  and  C1_5 
ROOT
ATOM      1  C1  I4B d   1      -0.664   0.779  -0.179  0.00  0.00    -0.075 A 
ATOM      2  C2  I4B d   1       0.574   0.820  -0.769  0.00  0.00     0.003 A 
ATOM      3  C3  I4B d   1       1.564  -0.128  -0.415  0.00  0.00     0.002 A 
ATOM      4  C4  I4B d   1       1.292  -1.063   0.563  0.00  0.00    -0.004 A 
ATOM      5  C5  I4B d   1       0.028  -1.118   1.143  0.00  0.00     0.002 A 
ATOM      6  C6  I4B d   1      -0.960  -0.199   0.762  0.00  0.00     0.003 A 
ENDROOT
BRANCH   1   7
ATOM      7  C1' I4B d   1      -1.675   1.817  -0.551  0.00  0.00     0.060 C 
BRANCH   7   8
ATOM      8  C2' I4B d   1      -1.813   1.813  -2.060  0.00  0.00    -0.013 C 
ATOM      9  C4' I4B d   1      -3.224   1.494  -2.478  0.00  0.00     0.013 C 
ATOM     10  C3' I4B d   1      -1.389   3.160  -2.567  0.00  0.00     0.013 C 
ENDBRANCH   7   8
ENDBRANCH   1   7
TORSDOF 2
ENDMDL
