MODEL 1
REMARK minimizedAffinity -2.1226747
REMARK minimizedRMSD -1
REMARK  2 active torsions:
REMARK  status: ('A' for Active; 'I' for Inactive)
REMARK    1  A    between atoms: C2'_3  and  C1'_4 
REMARK    2  A    between atoms: C1'_4  and  C1_5 
ROOT
ATOM      1  C1  I4B d   1      -0.180   0.426  -0.573  0.00  0.00    -0.075 A 
ATOM      2  C2  I4B d   1      -0.092  -0.920  -0.823  0.00  0.00     0.003 A 
ATOM      3  C3  I4B d   1       1.156  -1.583  -0.726  0.00  0.00     0.002 A 
ATOM      4  C4  I4B d   1       2.290  -0.857  -0.427  0.00  0.00    -0.004 A 
ATOM      5  C5  I4B d   1       2.195   0.504  -0.151  0.00  0.00     0.002 A 
ATOM      6  C6  I4B d   1       0.951   1.148  -0.213  0.00  0.00     0.003 A 
ENDROOT
BRANCH   1   7
ATOM      7  C1' I4B d   1      -1.507   1.101  -0.717  0.00  0.00     0.060 C 
BRANCH   7   8
ATOM      8  C2' I4B d   1      -1.722   1.399  -2.187  0.00  0.00    -0.013 C 
ATOM      9  C4' I4B d   1      -3.147   1.133  -2.595  0.00  0.00     0.013 C 
ATOM     10  C3' I4B d   1      -1.348   2.831  -2.429  0.00  0.00     0.013 C 
ENDBRANCH   7   8
ENDBRANCH   1   7
TORSDOF 2
ENDMDL
