MODEL 1
REMARK minimizedAffinity -2.77930236
REMARK minimizedRMSD -1
REMARK  2 active torsions:
REMARK  status: ('A' for Active; 'I' for Inactive)
REMARK    1  A    between atoms: C2'_3  and  C1'_4 
REMARK    2  A    between atoms: C1'_4  and  C1_5 
ROOT
ATOM      1  C1  I4B d   1      -1.372   1.348  -1.119  0.00  0.00    -0.075 A 
ATOM      2  C2  I4B d   1      -1.192   2.638  -1.553  0.00  0.00     0.003 A 
ATOM      3  C3  I4B d   1      -1.780   3.070  -2.767  0.00  0.00     0.002 A 
ATOM      4  C4  I4B d   1      -2.493   2.172  -3.534  0.00  0.00    -0.004 A 
ATOM      5  C5  I4B d   1      -2.693   0.871  -3.082  0.00  0.00     0.002 A 
ATOM      6  C6  I4B d   1      -2.140   0.460  -1.861  0.00  0.00     0.003 A 
ENDROOT
BRANCH   1   7
ATOM      7  C1' I4B d   1      -0.709   0.916   0.150  0.00  0.00     0.060 C 
BRANCH   7   8
ATOM      8  C2' I4B d   1       0.136  -0.304  -0.157  0.00  0.00    -0.013 C 
ATOM      9  C4' I4B d   1       1.602   0.040  -0.181  0.00  0.00     0.013 C 
ATOM     10  C3' I4B d   1      -0.159  -1.344   0.883  0.00  0.00     0.013 C 
ENDBRANCH   7   8
ENDBRANCH   1   7
TORSDOF 2
ENDMDL
