MODEL 1
REMARK minimizedAffinity 0.973597765
REMARK minimizedRMSD -1
REMARK  1 active torsions:
REMARK  status: ('A' for Active; 'I' for Inactive)
REMARK    1  A    between atoms: C1_2  and  C2_3 
ROOT
ATOM      1  C2  UNL d   1      -0.609  -1.007   4.864  0.00  0.00    -0.077 A 
ATOM      2  C3  UNL d   1      -1.173  -1.911   5.774  0.00  0.00     0.002 A 
ATOM      3  C4  UNL d   1      -2.552  -1.921   5.997  0.00  0.00     0.002 A 
ATOM      4  C5  UNL d   1      -3.376  -1.032   5.311  0.00  0.00    -0.004 A 
ATOM      5  C6  UNL d   1      -2.824  -0.127   4.405  0.00  0.00     0.002 A 
ATOM      6  C7  UNL d   1      -1.447  -0.115   4.182  0.00  0.00     0.002 A 
ENDROOT
BRANCH   1   7
ATOM      7  C1  UNL d   1       0.872  -1.028   4.585  0.00  0.00     0.055 C 
ATOM      8  C   UNL d   1       1.541  -2.228   5.239  0.00  0.00     0.019 C 
ENDBRANCH   1   7
TORSDOF 1
ENDMDL
