MODEL 1
REMARK minimizedAffinity -3.19623399
REMARK minimizedRMSD -1
REMARK  1 active torsions:
REMARK  status: ('A' for Active; 'I' for Inactive)
REMARK    1  A    between atoms: C1_2  and  C2_3 
ROOT
ATOM      1  C2  UNL d   1       1.997   1.594   0.657  0.00  0.00    -0.077 A 
ATOM      2  C3  UNL d   1       1.909   0.239   1.004  0.00  0.00     0.002 A 
ATOM      3  C4  UNL d   1       0.889  -0.559   0.482  0.00  0.00     0.002 A 
ATOM      4  C5  UNL d   1      -0.046  -0.013  -0.394  0.00  0.00    -0.004 A 
ATOM      5  C6  UNL d   1       0.032   1.335  -0.744  0.00  0.00     0.002 A 
ATOM      6  C7  UNL d   1       1.049   2.135  -0.222  0.00  0.00     0.002 A 
ENDROOT
BRANCH   1   7
ATOM      7  C1  UNL d   1       3.124   2.445   1.181  0.00  0.00     0.055 C 
ATOM      8  C   UNL d   1       2.922   3.911   0.826  0.00  0.00     0.019 C 
ENDBRANCH   1   7
TORSDOF 1
ENDMDL
