MODEL 1
REMARK minimizedAffinity -2.03805304
REMARK minimizedRMSD -1
REMARK  1 active torsions:
REMARK  status: ('A' for Active; 'I' for Inactive)
REMARK    1  A    between atoms: C1_2  and  C2_3 
ROOT
ATOM      1  C2  UNL d   1       0.027  -0.180   0.629  0.00  0.00    -0.077 A 
ATOM      2  C3  UNL d   1       0.788  -0.203  -0.548  0.00  0.00     0.002 A 
ATOM      3  C4  UNL d   1       1.120   0.987  -1.198  0.00  0.00     0.002 A 
ATOM      4  C5  UNL d   1       0.700   2.209  -0.677  0.00  0.00    -0.004 A 
ATOM      5  C6  UNL d   1      -0.059   2.242   0.492  0.00  0.00     0.002 A 
ATOM      6  C7  UNL d   1      -0.393   1.054   1.143  0.00  0.00     0.002 A 
ENDROOT
BRANCH   1   7
ATOM      7  C1  UNL d   1      -0.290  -1.459   1.359  0.00  0.00     0.055 C 
ATOM      8  C   UNL d   1      -1.044  -2.433   0.466  0.00  0.00     0.019 C 
ENDBRANCH   1   7
TORSDOF 1
ENDMDL
