MODEL 1
REMARK minimizedAffinity -4.07935333
REMARK minimizedRMSD -1
REMARK  1 active torsions:
REMARK  status: ('A' for Active; 'I' for Inactive)
REMARK    1  A    between atoms: C1_2  and  C2_3 
ROOT
ATOM      1  C2  UNL d   1      -0.043  -0.008   0.490  0.00  0.00    -0.077 A 
ATOM      2  C3  UNL d   1      -1.402   0.311   0.620  0.00  0.00     0.002 A 
ATOM      3  C4  UNL d   1      -2.313  -0.648   1.067  0.00  0.00     0.002 A 
ATOM      4  C5  UNL d   1      -1.875  -1.930   1.391  0.00  0.00    -0.004 A 
ATOM      5  C6  UNL d   1      -0.525  -2.258   1.264  0.00  0.00     0.002 A 
ATOM      6  C7  UNL d   1       0.386  -1.301   0.816  0.00  0.00     0.002 A 
ENDROOT
BRANCH   1   7
ATOM      7  C1  UNL d   1       0.949   1.039   0.055  0.00  0.00     0.055 C 
ATOM      8  C   UNL d   1       0.403   2.443   0.273  0.00  0.00     0.019 C 
ENDBRANCH   1   7
TORSDOF 1
ENDMDL
