MODEL 1
REMARK minimizedAffinity -4.72471619
REMARK minimizedRMSD -1
REMARK  1 active torsions:
REMARK  status: ('A' for Active; 'I' for Inactive)
REMARK    1  A    between atoms: C1_2  and  C2_3 
ROOT
ATOM      1  C2  UNL d   1       0.209  -1.118   0.417  0.00  0.00    -0.077 A 
ATOM      2  C3  UNL d   1       0.624  -0.451   1.579  0.00  0.00     0.002 A 
ATOM      3  C4  UNL d   1       1.017   0.887   1.522  0.00  0.00     0.002 A 
ATOM      4  C5  UNL d   1       0.996   1.571   0.308  0.00  0.00    -0.004 A 
ATOM      5  C6  UNL d   1       0.587   0.915  -0.853  0.00  0.00     0.002 A 
ATOM      6  C7  UNL d   1       0.195  -0.423  -0.798  0.00  0.00     0.002 A 
ENDROOT
BRANCH   1   7
ATOM      7  C1  UNL d   1      -0.262  -2.547   0.485  0.00  0.00     0.055 C 
ATOM      8  C   UNL d   1      -1.715  -2.631   0.930  0.00  0.00     0.019 C 
ENDBRANCH   1   7
TORSDOF 1
ENDMDL
