MODEL 1
REMARK minimizedAffinity -5.52827787
REMARK minimizedRMSD -1
REMARK  1 active torsions:
REMARK  status: ('A' for Active; 'I' for Inactive)
REMARK    1  A    between atoms: C1_2  and  C2_3 
ROOT
ATOM      1  C2  UNL d   1       0.760   1.020   0.623  0.00  0.00    -0.077 A 
ATOM      2  C3  UNL d   1       1.923   1.004   1.405  0.00  0.00     0.002 A 
ATOM      3  C4  UNL d   1       2.691   2.161   1.553  0.00  0.00     0.002 A 
ATOM      4  C5  UNL d   1       2.302   3.342   0.925  0.00  0.00    -0.004 A 
ATOM      5  C6  UNL d   1       1.148   3.368   0.143  0.00  0.00     0.002 A 
ATOM      6  C7  UNL d   1       0.380   2.212  -0.007  0.00  0.00     0.002 A 
ENDROOT
BRANCH   1   7
ATOM      7  C1  UNL d   1      -0.095  -0.214   0.502  0.00  0.00     0.055 C 
ATOM      8  C   UNL d   1       0.054  -1.112   1.721  0.00  0.00     0.019 C 
ENDBRANCH   1   7
TORSDOF 1
ENDMDL
