MODEL 1
REMARK minimizedAffinity -4.75380611
REMARK minimizedRMSD -1
REMARK  1 active torsions:
REMARK  status: ('A' for Active; 'I' for Inactive)
REMARK    1  A    between atoms: C1_2  and  C2_3 
ROOT
ATOM      1  C2  UNL d   1      -0.033  -1.040  -0.197  0.00  0.00    -0.077 A 
ATOM      2  C3  UNL d   1       0.955  -2.008  -0.424  0.00  0.00     0.002 A 
ATOM      3  C4  UNL d   1       0.778  -3.317   0.031  0.00  0.00     0.002 A 
ATOM      4  C5  UNL d   1      -0.386  -3.669   0.710  0.00  0.00    -0.004 A 
ATOM      5  C6  UNL d   1      -1.373  -2.712   0.941  0.00  0.00     0.002 A 
ATOM      6  C7  UNL d   1      -1.198  -1.404   0.489  0.00  0.00     0.002 A 
ENDROOT
BRANCH   1   7
ATOM      7  C1  UNL d   1       0.134   0.360  -0.729  0.00  0.00     0.055 C 
ATOM      8  C   UNL d   1       0.418   0.353  -2.224  0.00  0.00     0.019 C 
ENDBRANCH   1   7
TORSDOF 1
ENDMDL
