MODEL 1
REMARK minimizedAffinity -1.80831599
REMARK minimizedRMSD -1
REMARK  1 active torsions:
REMARK  status: ('A' for Active; 'I' for Inactive)
REMARK    1  A    between atoms: C1_2  and  C2_3 
ROOT
ATOM      1  C2  UNL d   1      -0.800  -1.939  -0.713  0.00  0.00    -0.077 A 
ATOM      2  C3  UNL d   1      -0.081  -0.737  -0.762  0.00  0.00     0.002 A 
ATOM      3  C4  UNL d   1       0.068   0.044   0.387  0.00  0.00     0.002 A 
ATOM      4  C5  UNL d   1      -0.495  -0.372   1.591  0.00  0.00    -0.004 A 
ATOM      5  C6  UNL d   1      -1.214  -1.565   1.649  0.00  0.00     0.002 A 
ATOM      6  C7  UNL d   1      -1.365  -2.346   0.502  0.00  0.00     0.002 A 
ENDROOT
BRANCH   1   7
ATOM      7  C1  UNL d   1      -0.920  -2.806  -1.939  0.00  0.00     0.055 C 
ATOM      8  C   UNL d   1      -0.068  -2.272  -3.081  0.00  0.00     0.019 C 
ENDBRANCH   1   7
TORSDOF 1
ENDMDL
