MODEL 1
REMARK minimizedAffinity -3.65181684
REMARK minimizedRMSD -1
REMARK  1 active torsions:
REMARK  status: ('A' for Active; 'I' for Inactive)
REMARK    1  A    between atoms: C1_2  and  C2_3 
ROOT
ATOM      1  C2  UNL d   1      -0.746  -1.960  -0.731  0.00  0.00    -0.077 A 
ATOM      2  C3  UNL d   1      -0.380  -0.611  -0.620  0.00  0.00     0.002 A 
ATOM      3  C4  UNL d   1      -0.429   0.035   0.617  0.00  0.00     0.002 A 
ATOM      4  C5  UNL d   1      -0.840  -0.660   1.752  0.00  0.00    -0.004 A 
ATOM      5  C6  UNL d   1      -1.209  -2.001   1.652  0.00  0.00     0.002 A 
ATOM      6  C7  UNL d   1      -1.161  -2.648   0.416  0.00  0.00     0.002 A 
ENDROOT
BRANCH   1   7
ATOM      7  C1  UNL d   1      -0.646  -2.672  -2.054  0.00  0.00     0.055 C 
ATOM      8  C   UNL d   1       0.112  -1.837  -3.076  0.00  0.00     0.019 C 
ENDBRANCH   1   7
TORSDOF 1
ENDMDL
