MODEL 1
REMARK minimizedAffinity -2.91134048
REMARK minimizedRMSD -1
REMARK  1 active torsions:
REMARK  status: ('A' for Active; 'I' for Inactive)
REMARK    1  A    between atoms: C1_2  and  C2_3 
ROOT
ATOM      1  C2  UNL d   1      -0.146  -0.210   0.330  0.00  0.00    -0.077 A 
ATOM      2  C3  UNL d   1      -0.310  -1.040  -0.788  0.00  0.00     0.002 A 
ATOM      3  C4  UNL d   1      -0.826  -2.329  -0.641  0.00  0.00     0.002 A 
ATOM      4  C5  UNL d   1      -1.186  -2.798   0.621  0.00  0.00    -0.004 A 
ATOM      5  C6  UNL d   1      -1.025  -1.981   1.739  0.00  0.00     0.002 A 
ATOM      6  C7  UNL d   1      -0.508  -0.692   1.594  0.00  0.00     0.002 A 
ENDROOT
BRANCH   1   7
ATOM      7  C1  UNL d   1       0.364   1.198   0.168  0.00  0.00     0.055 C 
ATOM      8  C   UNL d   1      -0.755   2.150  -0.230  0.00  0.00     0.019 C 
ENDBRANCH   1   7
TORSDOF 1
ENDMDL
