MODEL 1
REMARK minimizedAffinity -3.75558901
REMARK minimizedRMSD -1
REMARK  1 active torsions:
REMARK  status: ('A' for Active; 'I' for Inactive)
REMARK    1  A    between atoms: N_2  and  C1_3 
ROOT
ATOM      1  C1  UNL d   1       0.201   0.128  -0.313  0.00  0.00     0.143 A 
ATOM      2  C2  UNL d   1      -0.327  -0.935   0.427  0.00  0.00    -0.057 A 
ATOM      3  C3  UNL d   1      -1.595  -1.457   0.144  0.00  0.00     0.033 A 
ATOM      4  C4  UNL d   1      -2.371  -0.905  -0.869  0.00  0.00    -0.042 A 
ATOM      5  C5  UNL d   1      -1.876   0.169  -1.602  0.00  0.00     0.033 A 
ATOM      6  C6  UNL d   1      -0.607   0.682  -1.318  0.00  0.00    -0.057 A 
ENDROOT
BRANCH   1   7
ATOM      7  N   UNL d   1       1.414   0.756  -0.016  0.00  0.00    -0.732 N 
ATOM      8  C   UNL d   1       1.458   1.881   0.893  0.00  0.00     0.284 C 
ATOM      9  H3  UNL d   1       2.175   0.092   0.107  0.00  0.00     0.395 HD
ENDBRANCH   1   7
TORSDOF 1
ENDMDL
