MODEL 1
REMARK minimizedAffinity -2.03383279
REMARK minimizedRMSD -1
REMARK  1 active torsions:
REMARK  status: ('A' for Active; 'I' for Inactive)
REMARK    1  A    between atoms: N_2  and  C1_3 
ROOT
ATOM      1  C1  UNL d   1       0.329  -0.113  -0.058  0.00  0.00     0.143 A 
ATOM      2  C2  UNL d   1      -0.640  -0.871   0.607  0.00  0.00    -0.057 A 
ATOM      3  C3  UNL d   1      -1.870  -1.166   0.007  0.00  0.00     0.033 A 
ATOM      4  C4  UNL d   1      -2.165  -0.681  -1.263  0.00  0.00    -0.042 A 
ATOM      5  C5  UNL d   1      -1.226   0.095  -1.933  0.00  0.00     0.033 A 
ATOM      6  C6  UNL d   1       0.003   0.381  -1.331  0.00  0.00    -0.057 A 
ENDROOT
BRANCH   1   7
ATOM      7  N   UNL d   1       1.531   0.296   0.524  0.00  0.00    -0.732 N 
ATOM      8  C   UNL d   1       2.082   1.603   0.235  0.00  0.00     0.284 C 
ATOM      9  H3  UNL d   1       1.603   0.021   1.501  0.00  0.00     0.395 HD
ENDBRANCH   1   7
TORSDOF 1
ENDMDL
