MODEL 1
REMARK minimizedAffinity -1.46036196
REMARK minimizedRMSD -1
REMARK  1 active torsions:
REMARK  status: ('A' for Active; 'I' for Inactive)
REMARK    1  A    between atoms: N_2  and  C1_3 
ROOT
ATOM      1  C1  UNL d   1       0.956   0.710   0.138  0.00  0.00     0.143 A 
ATOM      2  C2  UNL d   1       0.076   1.047  -0.896  0.00  0.00    -0.057 A 
ATOM      3  C3  UNL d   1      -1.022   0.236  -1.209  0.00  0.00     0.033 A 
ATOM      4  C4  UNL d   1      -1.243  -0.946  -0.510  0.00  0.00    -0.042 A 
ATOM      5  C5  UNL d   1      -0.367  -1.314   0.505  0.00  0.00     0.033 A 
ATOM      6  C6  UNL d   1       0.723  -0.497   0.818  0.00  0.00    -0.057 A 
ENDROOT
BRANCH   1   7
ATOM      7  N   UNL d   1       2.120   1.423   0.433  0.00  0.00    -0.732 N 
ATOM      8  C   UNL d   1       2.097   2.508   1.391  0.00  0.00     0.284 C 
ATOM      9  H3  UNL d   1       2.936   0.821   0.507  0.00  0.00     0.395 HD
ENDBRANCH   1   7
TORSDOF 1
ENDMDL
