MODEL 1
REMARK minimizedAffinity -2.77159381
REMARK minimizedRMSD -1
REMARK  1 active torsions:
REMARK  status: ('A' for Active; 'I' for Inactive)
REMARK    1  A    between atoms: N_2  and  C1_3 
ROOT
ATOM      1  C1  UNL d   1       1.301   0.463   0.563  0.00  0.00     0.143 A 
ATOM      2  C2  UNL d   1       1.732  -0.180   1.728  0.00  0.00    -0.057 A 
ATOM      3  C3  UNL d   1       2.470   0.501   2.703  0.00  0.00     0.033 A 
ATOM      4  C4  UNL d   1       2.815   1.836   2.516  0.00  0.00    -0.042 A 
ATOM      5  C5  UNL d   1       2.419   2.488   1.354  0.00  0.00     0.033 A 
ATOM      6  C6  UNL d   1       1.677   1.804   0.387  0.00  0.00    -0.057 A 
ENDROOT
BRANCH   1   7
ATOM      7  N   UNL d   1       0.649  -0.186  -0.489  0.00  0.00    -0.732 N 
ATOM      8  C   UNL d   1      -0.614   0.309  -0.992  0.00  0.00     0.284 C 
ATOM      9  H3  UNL d   1       1.293  -0.494  -1.214  0.00  0.00     0.395 HD
ENDBRANCH   1   7
TORSDOF 1
ENDMDL
