MODEL 1
REMARK minimizedAffinity -2.69137907
REMARK minimizedRMSD -1
REMARK  1 active torsions:
REMARK  status: ('A' for Active; 'I' for Inactive)
REMARK    1  A    between atoms: N_2  and  C1_3 
ROOT
ATOM      1  C1  UNL d   1       1.891   0.402   0.451  0.00  0.00     0.143 A 
ATOM      2  C2  UNL d   1       2.073  -0.734   1.247  0.00  0.00    -0.057 A 
ATOM      3  C3  UNL d   1       1.022  -1.627   1.489  0.00  0.00     0.033 A 
ATOM      4  C4  UNL d   1      -0.241  -1.383   0.961  0.00  0.00    -0.042 A 
ATOM      5  C5  UNL d   1      -0.451  -0.247   0.187  0.00  0.00     0.033 A 
ATOM      6  C6  UNL d   1       0.604   0.638  -0.056  0.00  0.00    -0.057 A 
ENDROOT
BRANCH   1   7
ATOM      7  N   UNL d   1       2.870   1.379   0.255  0.00  0.00    -0.732 N 
ATOM      8  C   UNL d   1       2.799   2.645   0.953  0.00  0.00     0.284 C 
ATOM      9  H3  UNL d   1       3.807   0.986   0.203  0.00  0.00     0.395 HD
ENDBRANCH   1   7
TORSDOF 1
ENDMDL
