MODEL 1
REMARK minimizedAffinity -2.44624853
REMARK minimizedRMSD -1
REMARK  1 active torsions:
REMARK  status: ('A' for Active; 'I' for Inactive)
REMARK    1  A    between atoms: N_2  and  C1_3 
ROOT
ATOM      1  C1  UNL d   1       1.651   0.740   0.735  0.00  0.00     0.143 A 
ATOM      2  C2  UNL d   1       2.696   0.961  -0.168  0.00  0.00    -0.057 A 
ATOM      3  C3  UNL d   1       3.558   2.056  -0.027  0.00  0.00     0.033 A 
ATOM      4  C4  UNL d   1       3.371   2.967   1.007  0.00  0.00    -0.042 A 
ATOM      5  C5  UNL d   1       2.323   2.781   1.901  0.00  0.00     0.033 A 
ATOM      6  C6  UNL d   1       1.469   1.683   1.759  0.00  0.00    -0.057 A 
ENDROOT
BRANCH   1   7
ATOM      7  N   UNL d   1       0.700  -0.274   0.591  0.00  0.00    -0.732 N 
ATOM      8  C   UNL d   1      -0.574  -0.006  -0.040  0.00  0.00     0.284 C 
ATOM      9  H3  UNL d   1       1.118  -1.163   0.324  0.00  0.00     0.395 HD
ENDBRANCH   1   7
TORSDOF 1
ENDMDL
