MODEL 1
REMARK minimizedAffinity 9.53589153
REMARK minimizedRMSD -1
REMARK  1 active torsions:
REMARK  status: ('A' for Active; 'I' for Inactive)
REMARK    1  A    between atoms: N_2  and  C1_3 
ROOT
ATOM      1  C1  UNL d   1       0.197  -1.242   0.742  0.00  0.00     0.143 A 
ATOM      2  C2  UNL d   1      -0.995  -1.815   1.197  0.00  0.00    -0.057 A 
ATOM      3  C3  UNL d   1      -2.132  -1.870   0.382  0.00  0.00     0.033 A 
ATOM      4  C4  UNL d   1      -2.105  -1.325  -0.898  0.00  0.00    -0.042 A 
ATOM      5  C5  UNL d   1      -0.938  -0.728  -1.362  0.00  0.00     0.033 A 
ATOM      6  C6  UNL d   1       0.196  -0.682  -0.545  0.00  0.00    -0.057 A 
ENDROOT
BRANCH   1   7
ATOM      7  N   UNL d   1       1.331  -1.069   1.540  0.00  0.00    -0.732 N 
ATOM      8  C   UNL d   1       1.646   0.227   2.102  0.00  0.00     0.284 C 
ATOM      9  H3  UNL d   1       1.479  -1.847   2.179  0.00  0.00     0.395 HD
ENDBRANCH   1   7
TORSDOF 1
ENDMDL
