MODEL 1
REMARK minimizedAffinity 3.05913663
REMARK minimizedRMSD -1
REMARK  1 active torsions:
REMARK  status: ('A' for Active; 'I' for Inactive)
REMARK    1  A    between atoms: N_2  and  C1_3 
ROOT
ATOM      1  C1  UNL d   1      -1.833  -1.523   0.541  0.00  0.00     0.143 A 
ATOM      2  C2  UNL d   1      -0.625  -0.988   0.079  0.00  0.00    -0.057 A 
ATOM      3  C3  UNL d   1      -0.561  -0.272  -1.122  0.00  0.00     0.033 A 
ATOM      4  C4  UNL d   1      -1.702  -0.102  -1.899  0.00  0.00    -0.042 A 
ATOM      5  C5  UNL d   1      -2.908  -0.647  -1.472  0.00  0.00     0.033 A 
ATOM      6  C6  UNL d   1      -2.967  -1.356  -0.268  0.00  0.00    -0.057 A 
ENDROOT
BRANCH   1   7
ATOM      7  N   UNL d   1      -1.942  -2.329   1.677  0.00  0.00    -0.732 N 
ATOM      8  C   UNL d   1      -0.758  -2.813   2.355  0.00  0.00     0.284 C 
ATOM      9  H3  UNL d   1      -2.682  -2.019   2.304  0.00  0.00     0.395 HD
ENDBRANCH   1   7
TORSDOF 1
ENDMDL
