MODEL 1
REMARK minimizedAffinity -2.55119205
REMARK minimizedRMSD -1
REMARK  1 active torsions:
REMARK  status: ('A' for Active; 'I' for Inactive)
REMARK    1  A    between atoms: N_2  and  C1_3 
ROOT
ATOM      1  C1  UNL d   1       0.526   0.457   0.069  0.00  0.00     0.143 A 
ATOM      2  C2  UNL d   1       0.071  -0.787   0.518  0.00  0.00    -0.057 A 
ATOM      3  C3  UNL d   1      -1.031  -1.415  -0.076  0.00  0.00     0.033 A 
ATOM      4  C4  UNL d   1      -1.718  -0.793  -1.113  0.00  0.00    -0.042 A 
ATOM      5  C5  UNL d   1      -1.299   0.456  -1.559  0.00  0.00     0.033 A 
ATOM      6  C6  UNL d   1      -0.194   1.075  -0.966  0.00  0.00    -0.057 A 
ENDROOT
BRANCH   1   7
ATOM      7  N   UNL d   1       1.554   1.177   0.682  0.00  0.00    -0.732 N 
ATOM      8  C   UNL d   1       2.503   1.929  -0.111  0.00  0.00     0.284 C 
ATOM      9  H3  UNL d   1       1.244   1.657   1.524  0.00  0.00     0.395 HD
ENDBRANCH   1   7
TORSDOF 1
ENDMDL
