MODEL 1
REMARK minimizedAffinity -3.89220786
REMARK minimizedRMSD -1
REMARK  1 active torsions:
REMARK  status: ('A' for Active; 'I' for Inactive)
REMARK    1  A    between atoms: N_2  and  C1_3 
ROOT
ATOM      1  C1  UNL d   1       1.068   1.091   0.669  0.00  0.00     0.143 A 
ATOM      2  C2  UNL d   1       2.188   1.220  -0.158  0.00  0.00    -0.057 A 
ATOM      3  C3  UNL d   1       3.098   2.271   0.010  0.00  0.00     0.033 A 
ATOM      4  C4  UNL d   1       2.887   3.230   0.994  0.00  0.00    -0.042 A 
ATOM      5  C5  UNL d   1       1.767   3.136   1.813  0.00  0.00     0.033 A 
ATOM      6  C6  UNL d   1       0.865   2.081   1.644  0.00  0.00    -0.057 A 
ENDROOT
BRANCH   1   7
ATOM      7  N   UNL d   1       0.074   0.125   0.489  0.00  0.00    -0.732 N 
ATOM      8  C   UNL d   1      -0.851   0.218  -0.620  0.00  0.00     0.284 C 
ATOM      9  H3  UNL d   1       0.411  -0.817   0.672  0.00  0.00     0.395 HD
ENDBRANCH   1   7
TORSDOF 1
ENDMDL
