MODEL 1
REMARK minimizedAffinity 0.0910240561
REMARK minimizedRMSD -1
REMARK  1 active torsions:
REMARK  status: ('A' for Active; 'I' for Inactive)
REMARK    1  A    between atoms: N_2  and  C1_3 
ROOT
ATOM      1  C1  UNL d   1      -1.430  -0.894  -0.148  0.00  0.00     0.143 A 
ATOM      2  C2  UNL d   1      -0.912  -1.616   0.933  0.00  0.00    -0.057 A 
ATOM      3  C3  UNL d   1       0.352  -1.326   1.460  0.00  0.00     0.033 A 
ATOM      4  C4  UNL d   1       1.135  -0.325   0.896  0.00  0.00    -0.042 A 
ATOM      5  C5  UNL d   1       0.651   0.389  -0.195  0.00  0.00     0.033 A 
ATOM      6  C6  UNL d   1      -0.615   0.099  -0.713  0.00  0.00    -0.057 A 
ENDROOT
BRANCH   1   7
ATOM      7  N   UNL d   1      -2.638  -1.200  -0.780  0.00  0.00    -0.732 N 
ATOM      8  C   UNL d   1      -2.658  -2.005  -1.983  0.00  0.00     0.284 C 
ATOM      9  H3  UNL d   1      -3.377  -1.424  -0.118  0.00  0.00     0.395 HD
ENDBRANCH   1   7
TORSDOF 1
ENDMDL
