MODEL 1
REMARK minimizedAffinity -3.83096313
REMARK minimizedRMSD -1
REMARK  1 active torsions:
REMARK  status: ('A' for Active; 'I' for Inactive)
REMARK    1  A    between atoms: N_2  and  C1_3 
ROOT
ATOM      1  C1  UNL d   1      -0.158  -0.106  -0.071  0.00  0.00     0.143 A 
ATOM      2  C2  UNL d   1      -0.741   0.684  -1.068  0.00  0.00    -0.057 A 
ATOM      3  C3  UNL d   1      -1.990   0.361  -1.613  0.00  0.00     0.033 A 
ATOM      4  C4  UNL d   1      -2.667  -0.778  -1.189  0.00  0.00    -0.042 A 
ATOM      5  C5  UNL d   1      -2.095  -1.592  -0.218  0.00  0.00     0.033 A 
ATOM      6  C6  UNL d   1      -0.851  -1.260   0.327  0.00  0.00    -0.057 A 
ENDROOT
BRANCH   1   7
ATOM      7  N   UNL d   1       1.124   0.108   0.440  0.00  0.00    -0.732 N 
ATOM      8  C   UNL d   1       1.673   1.444   0.519  0.00  0.00     0.284 C 
ATOM      9  H3  UNL d   1       1.319  -0.471   1.254  0.00  0.00     0.395 HD
ENDBRANCH   1   7
TORSDOF 1
ENDMDL
