MODEL 1
REMARK minimizedAffinity -2.36972189
REMARK minimizedRMSD -1
REMARK  1 active torsions:
REMARK  status: ('A' for Active; 'I' for Inactive)
REMARK    1  A    between atoms: N_2  and  C1_3 
ROOT
ATOM      1  C1  UNL d   1      -0.163  -0.497  -0.112  0.00  0.00     0.143 A 
ATOM      2  C2  UNL d   1      -0.182  -1.527   0.834  0.00  0.00    -0.057 A 
ATOM      3  C3  UNL d   1       0.991  -1.950   1.470  0.00  0.00     0.033 A 
ATOM      4  C4  UNL d   1       2.213  -1.368   1.149  0.00  0.00    -0.042 A 
ATOM      5  C5  UNL d   1       2.260  -0.360   0.193  0.00  0.00     0.033 A 
ATOM      6  C6  UNL d   1       1.084   0.063  -0.434  0.00  0.00    -0.057 A 
ENDROOT
BRANCH   1   7
ATOM      7  N   UNL d   1      -1.279  -0.098  -0.851  0.00  0.00    -0.732 N 
ATOM      8  C   UNL d   1      -2.324  -1.045  -1.178  0.00  0.00     0.284 C 
ATOM      9  H3  UNL d   1      -1.622   0.819  -0.573  0.00  0.00     0.395 HD
ENDBRANCH   1   7
TORSDOF 1
ENDMDL
