MODEL 1
REMARK minimizedAffinity -3.10218883
REMARK minimizedRMSD -1
REMARK  1 active torsions:
REMARK  status: ('A' for Active; 'I' for Inactive)
REMARK    1  A    between atoms: N_2  and  C1_3 
ROOT
ATOM      1  C1  UNL d   1       1.728   0.771   0.022  0.00  0.00     0.143 A 
ATOM      2  C2  UNL d   1       2.733   1.335  -0.771  0.00  0.00    -0.057 A 
ATOM      3  C3  UNL d   1       3.356   2.535  -0.409  0.00  0.00     0.033 A 
ATOM      4  C4  UNL d   1       2.963   3.211   0.742  0.00  0.00    -0.042 A 
ATOM      5  C5  UNL d   1       1.948   2.682   1.532  0.00  0.00     0.033 A 
ATOM      6  C6  UNL d   1       1.335   1.479   1.169  0.00  0.00    -0.057 A 
ENDROOT
BRANCH   1   7
ATOM      7  N   UNL d   1       1.002  -0.368  -0.335  0.00  0.00    -0.732 N 
ATOM      8  C   UNL d   1      -0.274  -0.249  -1.006  0.00  0.00     0.284 C 
ATOM      9  H3  UNL d   1       1.597  -1.108  -0.701  0.00  0.00     0.395 HD
ENDBRANCH   1   7
TORSDOF 1
ENDMDL
