MODEL 1
REMARK minimizedAffinity -2.73123884
REMARK minimizedRMSD -1
REMARK  1 active torsions:
REMARK  status: ('A' for Active; 'I' for Inactive)
REMARK    1  A    between atoms: N_2  and  C1_3 
ROOT
ATOM      1  C1  UNL d   1       0.158   0.263  -0.336  0.00  0.00     0.143 A 
ATOM      2  C2  UNL d   1       1.556   0.265  -0.275  0.00  0.00    -0.057 A 
ATOM      3  C3  UNL d   1       2.248   1.211   0.490  0.00  0.00     0.033 A 
ATOM      4  C4  UNL d   1       1.553   2.194   1.187  0.00  0.00    -0.042 A 
ATOM      5  C5  UNL d   1       0.165   2.227   1.120  0.00  0.00     0.033 A 
ATOM      6  C6  UNL d   1      -0.521   1.275   0.360  0.00  0.00    -0.057 A 
ENDROOT
BRANCH   1   7
ATOM      7  N   UNL d   1      -0.584  -0.590  -1.157  0.00  0.00    -0.732 N 
ATOM      8  C   UNL d   1      -2.030  -0.537  -1.160  0.00  0.00     0.284 C 
ATOM      9  H3  UNL d   1      -0.170  -0.697  -2.081  0.00  0.00     0.395 HD
ENDBRANCH   1   7
TORSDOF 1
ENDMDL
