MODEL 1
REMARK minimizedAffinity -1.26371872
REMARK minimizedRMSD -1
REMARK  1 active torsions:
REMARK  status: ('A' for Active; 'I' for Inactive)
REMARK    1  A    between atoms: N_2  and  C1_3 
ROOT
ATOM      1  C1  UNL d   1       1.300   1.263   0.574  0.00  0.00     0.143 A 
ATOM      2  C2  UNL d   1       0.961   2.133   1.615  0.00  0.00    -0.057 A 
ATOM      3  C3  UNL d   1       1.853   3.117   2.059  0.00  0.00     0.033 A 
ATOM      4  C4  UNL d   1       3.115   3.229   1.486  0.00  0.00    -0.042 A 
ATOM      5  C5  UNL d   1       3.484   2.359   0.466  0.00  0.00     0.033 A 
ATOM      6  C6  UNL d   1       2.586   1.383   0.023  0.00  0.00    -0.057 A 
ENDROOT
BRANCH   1   7
ATOM      7  N   UNL d   1       0.496   0.201   0.154  0.00  0.00    -0.732 N 
ATOM      8  C   UNL d   1      -0.534   0.405  -0.842  0.00  0.00     0.284 C 
ATOM      9  H3  UNL d   1       1.022  -0.663   0.038  0.00  0.00     0.395 HD
ENDBRANCH   1   7
TORSDOF 1
ENDMDL
