MODEL 1
REMARK minimizedAffinity -3.35760427
REMARK minimizedRMSD -1
REMARK  0 active torsions:
REMARK  status: ('A' for Active; 'I' for Inactive)
ROOT
ATOM      1  C1  BNZ d   1       1.496   1.507   0.828  0.00  0.00     0.000 A 
ATOM      2  C2  BNZ d   1       0.211   1.941   0.641  0.00  0.00     0.000 A 
ATOM      3  C3  BNZ d   1      -0.752   1.093   0.168  0.00  0.00     0.000 A 
ATOM      4  C4  BNZ d   1      -0.420  -0.174  -0.154  0.00  0.00     0.000 A 
ATOM      5  C5  BNZ d   1       0.873  -0.623   0.020  0.00  0.00     0.000 A 
ATOM      6  C6  BNZ d   1       1.831   0.221   0.533  0.00  0.00     0.000 A 
ENDROOT
TORSDOF 0
ENDMDL
