MODEL 1
REMARK minimizedAffinity -5.07527781
REMARK minimizedRMSD -1
REMARK  0 active torsions:
REMARK  status: ('A' for Active; 'I' for Inactive)
ROOT
ATOM      1  C1  BNZ d   1       1.555   1.235   0.635  0.00  0.00     0.000 A 
ATOM      2  C2  BNZ d   1       2.825   0.963   1.071  0.00  0.00     0.000 A 
ATOM      3  C3  BNZ d   1       3.280  -0.324   1.141  0.00  0.00     0.000 A 
ATOM      4  C4  BNZ d   1       2.454  -1.338   0.814  0.00  0.00     0.000 A 
ATOM      5  C5  BNZ d   1       1.168  -1.081   0.382  0.00  0.00     0.000 A 
ATOM      6  C6  BNZ d   1       0.726   0.218   0.275  0.00  0.00     0.000 A 
ENDROOT
TORSDOF 0
ENDMDL
