MODEL 1
REMARK minimizedAffinity -4.84696388
REMARK minimizedRMSD -1
REMARK  0 active torsions:
REMARK  status: ('A' for Active; 'I' for Inactive)
ROOT
ATOM      1  C1  BNZ d   1       1.301  -1.797   0.945  0.00  0.00     0.000 A 
ATOM      2  C2  BNZ d   1       0.687  -0.680   0.445  0.00  0.00     0.000 A 
ATOM      3  C3  BNZ d   1       1.394   0.471   0.232  0.00  0.00     0.000 A 
ATOM      4  C4  BNZ d   1       2.702   0.515   0.556  0.00  0.00     0.000 A 
ATOM      5  C5  BNZ d   1       3.333  -0.601   1.069  0.00  0.00     0.000 A 
ATOM      6  C6  BNZ d   1       2.628  -1.769   1.246  0.00  0.00     0.000 A 
ENDROOT
TORSDOF 0
ENDMDL
