MODEL 1
REMARK minimizedAffinity -5.23266983
REMARK minimizedRMSD -1
REMARK  0 active torsions:
REMARK  status: ('A' for Active; 'I' for Inactive)
ROOT
ATOM      1  C1  BNZ d   1       3.028  -0.784   1.860  0.00  0.00     0.000 A 
ATOM      2  C2  BNZ d   1       2.103  -1.792   1.792  0.00  0.00     0.000 A 
ATOM      3  C3  BNZ d   1       0.992  -1.670   1.005  0.00  0.00     0.000 A 
ATOM      4  C4  BNZ d   1       0.787  -0.526   0.320  0.00  0.00     0.000 A 
ATOM      5  C5  BNZ d   1       1.706   0.503   0.386  0.00  0.00     0.000 A 
ATOM      6  C6  BNZ d   1       2.843   0.361   1.149  0.00  0.00     0.000 A 
ENDROOT
TORSDOF 0
ENDMDL
