MODEL 1
REMARK minimizedAffinity -5.38172626
REMARK minimizedRMSD -1
REMARK  0 active torsions:
REMARK  status: ('A' for Active; 'I' for Inactive)
ROOT
ATOM      1  C1  BNZ d   1       1.789  -1.048   0.428  0.00  0.00     0.000 A 
ATOM      2  C2  BNZ d   1       0.551  -0.528   0.161  0.00  0.00     0.000 A 
ATOM      3  C3  BNZ d   1       0.329   0.819   0.223  0.00  0.00     0.000 A 
ATOM      4  C4  BNZ d   1       1.334   1.640   0.592  0.00  0.00     0.000 A 
ATOM      5  C5  BNZ d   1       2.585   1.130   0.874  0.00  0.00     0.000 A 
ATOM      6  C6  BNZ d   1       2.815  -0.223   0.772  0.00  0.00     0.000 A 
ENDROOT
TORSDOF 0
ENDMDL
