MODEL 1
REMARK minimizedAffinity -1.92401278
REMARK minimizedRMSD -1
REMARK  0 active torsions:
REMARK  status: ('A' for Active; 'I' for Inactive)
ROOT
ATOM      1  C1  BNZ d   1       6.000   2.690  -3.767  0.00  0.00     0.000 A 
ATOM      2  C2  BNZ d   1       5.365   1.477  -3.785  0.00  0.00     0.000 A 
ATOM      3  C3  BNZ d   1       4.723   1.038  -4.909  0.00  0.00     0.000 A 
ATOM      4  C4  BNZ d   1       4.681   1.830  -6.000  0.00  0.00     0.000 A 
ATOM      5  C5  BNZ d   1       5.308   3.060  -5.995  0.00  0.00     0.000 A 
ATOM      6  C6  BNZ d   1       5.987   3.481  -4.875  0.00  0.00     0.000 A 
ENDROOT
TORSDOF 0
ENDMDL
