MODEL 1
REMARK minimizedAffinity 7.65143394
REMARK minimizedRMSD -1
REMARK  0 active torsions:
REMARK  status: ('A' for Active; 'I' for Inactive)
ROOT
ATOM      1  C   UNL d   1      -4.849  -1.139   2.535  0.00  0.00     0.020 A 
ATOM      2  C1  UNL d   1      -5.435  -1.134   3.800  0.00  0.00     0.020 A 
ATOM      3  C2  UNL d   1      -4.812  -0.466   4.856  0.00  0.00     0.034 A 
ATOM      4  C3  UNL d   1      -3.598   0.200   4.649  0.00  0.00     0.017 A 
ATOM      5  C4  UNL d   1      -3.010   0.194   3.379  0.00  0.00     0.017 A 
ATOM      6  C5  UNL d   1      -3.639  -0.476   2.325  0.00  0.00     0.034 A 
ATOM      7 Cl   UNL d   1      -1.514   0.993   3.046  0.00  0.00    -0.070 Cl
ATOM      8 Cl1  UNL d   1      -2.883   1.005   6.000  0.00  0.00    -0.070 Cl
ENDROOT
TORSDOF 0
ENDMDL
