MODEL 1
REMARK minimizedAffinity 6.70374632
REMARK minimizedRMSD -1
REMARK  0 active torsions:
REMARK  status: ('A' for Active; 'I' for Inactive)
ROOT
ATOM      1  C   UNL d   1      -0.113   4.872  -5.997  0.00  0.00     0.020 A 
ATOM      2  C1  UNL d   1      -0.943   5.276  -4.952  0.00  0.00     0.020 A 
ATOM      3  C2  UNL d   1      -0.535   5.097  -3.628  0.00  0.00     0.034 A 
ATOM      4  C3  UNL d   1       0.705   4.513  -3.346  0.00  0.00     0.017 A 
ATOM      5  C4  UNL d   1       1.537   4.108  -4.396  0.00  0.00     0.017 A 
ATOM      6  C5  UNL d   1       1.125   4.290  -5.720  0.00  0.00     0.034 A 
ATOM      7 Cl   UNL d   1       3.082   3.381  -4.127  0.00  0.00    -0.070 Cl
ATOM      8 Cl1  UNL d   1       1.145   4.323  -1.686  0.00  0.00    -0.070 Cl
ENDROOT
TORSDOF 0
ENDMDL
