MODEL 1
REMARK minimizedAffinity 3.74221301
REMARK minimizedRMSD -1
REMARK  0 active torsions:
REMARK  status: ('A' for Active; 'I' for Inactive)
ROOT
ATOM      1  C   UNL d   1      -2.186   5.999  -5.473  0.00  0.00     0.020 A 
ATOM      2  C1  UNL d   1      -2.513   5.448  -4.235  0.00  0.00     0.020 A 
ATOM      3  C2  UNL d   1      -1.559   4.721  -3.520  0.00  0.00     0.034 A 
ATOM      4  C3  UNL d   1      -0.273   4.542  -4.043  0.00  0.00     0.017 A 
ATOM      5  C4  UNL d   1       0.054   5.095  -5.287  0.00  0.00     0.017 A 
ATOM      6  C5  UNL d   1      -0.905   5.823  -5.998  0.00  0.00     0.034 A 
ATOM      7 Cl   UNL d   1       1.620   4.917  -5.997  0.00  0.00    -0.070 Cl
ATOM      8 Cl1  UNL d   1       0.856   3.631  -3.105  0.00  0.00    -0.070 Cl
ENDROOT
TORSDOF 0
ENDMDL
