MODEL 1
REMARK minimizedAffinity 6.02453709
REMARK minimizedRMSD -1
REMARK  0 active torsions:
REMARK  status: ('A' for Active; 'I' for Inactive)
ROOT
ATOM      1  C   UNL d   1       1.290   4.453  -5.409  0.00  0.00     0.020 A 
ATOM      2  C1  UNL d   1       1.425   4.446  -4.021  0.00  0.00     0.020 A 
ATOM      3  C2  UNL d   1       0.388   4.920  -3.216  0.00  0.00     0.034 A 
ATOM      4  C3  UNL d   1      -0.789   5.405  -3.797  0.00  0.00     0.017 A 
ATOM      5  C4  UNL d   1      -0.925   5.412  -5.190  0.00  0.00     0.017 A 
ATOM      6  C5  UNL d   1       0.117   4.936  -5.992  0.00  0.00     0.034 A 
ATOM      7 Cl   UNL d   1      -2.348   5.994  -5.979  0.00  0.00    -0.070 Cl
ATOM      8 Cl1  UNL d   1      -2.031   5.976  -2.740  0.00  0.00    -0.070 Cl
ENDROOT
TORSDOF 0
ENDMDL
