MODEL 1
REMARK minimizedAffinity 7.0005064
REMARK minimizedRMSD -1
REMARK  0 active torsions:
REMARK  status: ('A' for Active; 'I' for Inactive)
ROOT
ATOM      1  C   UNL d   1       6.000   1.129   2.877  0.00  0.00     0.020 A 
ATOM      2  C1  UNL d   1       5.965   2.510   3.066  0.00  0.00     0.020 A 
ATOM      3  C2  UNL d   1       4.845   3.242   2.666  0.00  0.00     0.034 A 
ATOM      4  C3  UNL d   1       3.755   2.593   2.076  0.00  0.00     0.017 A 
ATOM      5  C4  UNL d   1       3.790   1.207   1.887  0.00  0.00     0.017 A 
ATOM      6  C5  UNL d   1       4.914   0.479   2.289  0.00  0.00     0.034 A 
ATOM      7 Cl   UNL d   1       2.483   0.336   1.166  0.00  0.00    -0.070 Cl
ATOM      8 Cl1  UNL d   1       2.402   3.560   1.606  0.00  0.00    -0.070 Cl
ENDROOT
TORSDOF 0
ENDMDL
