MODEL 1
REMARK minimizedAffinity 6.12243843
REMARK minimizedRMSD -1
REMARK  0 active torsions:
REMARK  status: ('A' for Active; 'I' for Inactive)
ROOT
ATOM      1  C   UNL d   1      -2.669  -3.575   0.069  0.00  0.00     0.020 A 
ATOM      2  C1  UNL d   1      -2.894  -2.610   1.050  0.00  0.00     0.020 A 
ATOM      3  C2  UNL d   1      -1.815  -2.030   1.721  0.00  0.00     0.034 A 
ATOM      4  C3  UNL d   1      -0.506  -2.414   1.411  0.00  0.00     0.017 A 
ATOM      5  C4  UNL d   1      -0.280  -3.382   0.425  0.00  0.00     0.017 A 
ATOM      6  C5  UNL d   1      -1.364  -3.960  -0.243  0.00  0.00     0.034 A 
ATOM      7 Cl   UNL d   1       1.308  -3.907  -0.012  0.00  0.00    -0.070 Cl
ATOM      8 Cl1  UNL d   1       0.781  -1.656   2.279  0.00  0.00    -0.070 Cl
ENDROOT
TORSDOF 0
ENDMDL
