MODEL 1
REMARK minimizedAffinity 12.9770222
REMARK minimizedRMSD -1
REMARK  0 active torsions:
REMARK  status: ('A' for Active; 'I' for Inactive)
ROOT
ATOM      1  C   UNL d   1       2.048   5.068   0.254  0.00  0.00     0.020 A 
ATOM      2  C1  UNL d   1       2.069   3.782   0.791  0.00  0.00     0.020 A 
ATOM      3  C2  UNL d   1       1.924   2.674  -0.047  0.00  0.00     0.034 A 
ATOM      4  C3  UNL d   1       1.757   2.850  -1.425  0.00  0.00     0.017 A 
ATOM      5  C4  UNL d   1       1.736   4.142  -1.963  0.00  0.00     0.017 A 
ATOM      6  C5  UNL d   1       1.882   5.248  -1.120  0.00  0.00     0.034 A 
ATOM      7 Cl   UNL d   1       1.535   4.439  -3.654  0.00  0.00    -0.070 Cl
ATOM      8 Cl1  UNL d   1       1.584   1.434  -2.401  0.00  0.00    -0.070 Cl
ENDROOT
TORSDOF 0
ENDMDL
