MODEL 1
REMARK minimizedAffinity 12.775548
REMARK minimizedRMSD -1
REMARK  0 active torsions:
REMARK  status: ('A' for Active; 'I' for Inactive)
ROOT
ATOM      1  C   UNL d   1       0.104   5.601  -4.747  0.00  0.00     0.020 A 
ATOM      2  C1  UNL d   1      -0.546   5.901  -5.944  0.00  0.00     0.020 A 
ATOM      3  C2  UNL d   1      -1.941   5.900  -6.000  0.00  0.00     0.034 A 
ATOM      4  C3  UNL d   1      -2.692   5.598  -4.857  0.00  0.00     0.017 A 
ATOM      5  C4  UNL d   1      -2.038   5.297  -3.657  0.00  0.00     0.017 A 
ATOM      6  C5  UNL d   1      -0.641   5.299  -3.606  0.00  0.00     0.034 A 
ATOM      7 Cl   UNL d   1      -2.896   4.914  -2.205  0.00  0.00    -0.070 Cl
ATOM      8 Cl1  UNL d   1      -4.413   5.615  -4.999  0.00  0.00    -0.070 Cl
ENDROOT
TORSDOF 0
ENDMDL
