MODEL 1
REMARK minimizedAffinity 4.5417366
REMARK minimizedRMSD -1
REMARK  0 active torsions:
REMARK  status: ('A' for Active; 'I' for Inactive)
ROOT
ATOM      1  C   UNL d   1      -0.210  -3.665   0.037  0.00  0.00     0.020 A 
ATOM      2  C1  UNL d   1      -1.542  -3.253   0.046  0.00  0.00     0.020 A 
ATOM      3  C2  UNL d   1      -1.983  -2.340   1.007  0.00  0.00     0.034 A 
ATOM      4  C3  UNL d   1      -1.093  -1.837   1.962  0.00  0.00     0.017 A 
ATOM      5  C4  UNL d   1       0.244  -2.251   1.952  0.00  0.00     0.017 A 
ATOM      6  C5  UNL d   1       0.681  -3.165   0.987  0.00  0.00     0.034 A 
ATOM      7 Cl   UNL d   1       1.402  -1.675   3.098  0.00  0.00    -0.070 Cl
ATOM      8 Cl1  UNL d   1      -1.707  -0.712   3.120  0.00  0.00    -0.070 Cl
ENDROOT
TORSDOF 0
ENDMDL
