MODEL 1
REMARK minimizedAffinity 10.9146156
REMARK minimizedRMSD -1
REMARK  0 active torsions:
REMARK  status: ('A' for Active; 'I' for Inactive)
ROOT
ATOM      1  C   UNL d   1       4.214  -1.080   2.233  0.00  0.00     0.020 A 
ATOM      2  C1  UNL d   1       3.542  -0.099   1.505  0.00  0.00     0.020 A 
ATOM      3  C2  UNL d   1       2.147  -0.051   1.521  0.00  0.00     0.034 A 
ATOM      4  C3  UNL d   1       1.418  -0.985   2.267  0.00  0.00     0.017 A 
ATOM      5  C4  UNL d   1       2.094  -1.970   2.997  0.00  0.00     0.017 A 
ATOM      6  C5  UNL d   1       3.491  -2.013   2.978  0.00  0.00     0.034 A 
ATOM      7 Cl   UNL d   1       1.264  -3.157   3.941  0.00  0.00    -0.070 Cl
ATOM      8 Cl1  UNL d   1      -0.305  -0.866   2.241  0.00  0.00    -0.070 Cl
ENDROOT
TORSDOF 0
ENDMDL
