MODEL 1
REMARK minimizedAffinity 6.3947525
REMARK minimizedRMSD -1
REMARK  0 active torsions:
REMARK  status: ('A' for Active; 'I' for Inactive)
ROOT
ATOM      1  C   UNL d   1       5.782   2.090   3.359  0.00  0.00     0.020 A 
ATOM      2  C1  UNL d   1       4.497   2.624   3.274  0.00  0.00     0.020 A 
ATOM      3  C2  UNL d   1       3.427   1.812   2.893  0.00  0.00     0.034 A 
ATOM      4  C3  UNL d   1       3.640   0.461   2.595  0.00  0.00     0.017 A 
ATOM      5  C4  UNL d   1       4.930  -0.074   2.681  0.00  0.00     0.017 A 
ATOM      6  C5  UNL d   1       5.998   0.744   3.063  0.00  0.00     0.034 A 
ATOM      7 Cl   UNL d   1       5.271  -1.732   2.329  0.00  0.00    -0.070 Cl
ATOM      8 Cl1  UNL d   1       2.270  -0.484   2.131  0.00  0.00    -0.070 Cl
ENDROOT
TORSDOF 0
ENDMDL
