MODEL 1
REMARK minimizedAffinity 13.5535059
REMARK minimizedRMSD -1
REMARK  0 active torsions:
REMARK  status: ('A' for Active; 'I' for Inactive)
ROOT
ATOM      1  C   UNL d   1      -0.044  -1.304   4.228  0.00  0.00     0.020 A 
ATOM      2  C1  UNL d   1       0.470  -2.597   4.142  0.00  0.00     0.020 A 
ATOM      3  C2  UNL d   1       0.289  -3.344   2.977  0.00  0.00     0.034 A 
ATOM      4  C3  UNL d   1      -0.409  -2.799   1.893  0.00  0.00     0.017 A 
ATOM      5  C4  UNL d   1      -0.925  -1.501   1.980  0.00  0.00     0.017 A 
ATOM      6  C5  UNL d   1      -0.740  -0.757   3.149  0.00  0.00     0.034 A 
ATOM      7 Cl   UNL d   1      -1.796  -0.761   0.684  0.00  0.00    -0.070 Cl
ATOM      8 Cl1  UNL d   1      -0.595  -3.780   0.482  0.00  0.00    -0.070 Cl
ENDROOT
TORSDOF 0
ENDMDL
