MODEL 1
REMARK minimizedAffinity 5.47354698
REMARK minimizedRMSD -1
REMARK  0 active torsions:
REMARK  status: ('A' for Active; 'I' for Inactive)
ROOT
ATOM      1  C   UNL d   1      -4.790   5.278  -1.537  0.00  0.00     0.020 A 
ATOM      2  C1  UNL d   1      -5.947   5.784  -2.128  0.00  0.00     0.020 A 
ATOM      3  C2  UNL d   1      -5.991   5.998  -3.507  0.00  0.00     0.034 A 
ATOM      4  C3  UNL d   1      -4.875   5.707  -4.300  0.00  0.00     0.017 A 
ATOM      5  C4  UNL d   1      -3.713   5.200  -3.706  0.00  0.00     0.017 A 
ATOM      6  C5  UNL d   1      -3.675   4.987  -2.325  0.00  0.00     0.034 A 
ATOM      7 Cl   UNL d   1      -2.297   4.817  -4.619  0.00  0.00    -0.070 Cl
ATOM      8 Cl1  UNL d   1      -4.999   5.997  -5.999  0.00  0.00    -0.070 Cl
ENDROOT
TORSDOF 0
ENDMDL
