MODEL 1
REMARK minimizedAffinity 8.5922699
REMARK minimizedRMSD -1
REMARK  0 active torsions:
REMARK  status: ('A' for Active; 'I' for Inactive)
ROOT
ATOM      1  C   UNL d   1      -3.774   5.999  -4.020  0.00  0.00     0.020 A 
ATOM      2  C1  UNL d   1      -3.652   5.993  -5.409  0.00  0.00     0.020 A 
ATOM      3  C2  UNL d   1      -2.386   5.987  -5.999  0.00  0.00     0.034 A 
ATOM      4  C3  UNL d   1      -1.237   5.987  -5.199  0.00  0.00     0.017 A 
ATOM      5  C4  UNL d   1      -1.361   5.993  -3.805  0.00  0.00     0.017 A 
ATOM      6  C5  UNL d   1      -2.631   5.999  -3.220  0.00  0.00     0.034 A 
ATOM      7 Cl   UNL d   1       0.010   5.993  -2.753  0.00  0.00    -0.070 Cl
ATOM      8 Cl1  UNL d   1       0.296   5.978  -5.996  0.00  0.00    -0.070 Cl
ENDROOT
TORSDOF 0
ENDMDL
