MODEL 1
REMARK minimizedAffinity 4.72841406
REMARK minimizedRMSD -1
REMARK  0 active torsions:
REMARK  status: ('A' for Active; 'I' for Inactive)
ROOT
ATOM      1  C   UNL d   1      -4.295   1.377   0.256  0.00  0.00     0.020 A 
ATOM      2  C1  UNL d   1      -4.187   0.398  -0.730  0.00  0.00     0.020 A 
ATOM      3  C2  UNL d   1      -3.373  -0.717  -0.521  0.00  0.00     0.034 A 
ATOM      4  C3  UNL d   1      -2.663  -0.855   0.678  0.00  0.00     0.017 A 
ATOM      5  C4  UNL d   1      -2.772   0.129   1.667  0.00  0.00     0.017 A 
ATOM      6  C5  UNL d   1      -3.589   1.243   1.452  0.00  0.00     0.034 A 
ATOM      7 Cl   UNL d   1      -1.928   0.028   3.172  0.00  0.00    -0.070 Cl
ATOM      8 Cl1  UNL d   1      -1.675  -2.260   0.870  0.00  0.00    -0.070 Cl
ENDROOT
TORSDOF 0
ENDMDL
