MODEL 1
REMARK minimizedAffinity 6.27378988
REMARK minimizedRMSD -1
REMARK  0 active torsions:
REMARK  status: ('A' for Active; 'I' for Inactive)
ROOT
ATOM      1  C   UNL d   1      -0.509  -5.102  -5.246  0.00  0.00     0.020 A 
ATOM      2  C1  UNL d   1      -1.263  -6.000  -6.000  0.00  0.00     0.020 A 
ATOM      3  C2  UNL d   1      -2.658  -5.920  -5.990  0.00  0.00     0.034 A 
ATOM      4  C3  UNL d   1      -3.301  -4.941  -5.225  0.00  0.00     0.017 A 
ATOM      5  C4  UNL d   1      -2.543  -4.040  -4.469  0.00  0.00     0.017 A 
ATOM      6  C5  UNL d   1      -1.147  -4.124  -4.482  0.00  0.00     0.034 A 
ATOM      7 Cl   UNL d   1      -3.265  -2.804  -3.500  0.00  0.00    -0.070 Cl
ATOM      8 Cl1  UNL d   1      -5.028  -4.901  -5.259  0.00  0.00    -0.070 Cl
ENDROOT
TORSDOF 0
ENDMDL
