MODEL 1
REMARK minimizedAffinity 7.4953351
REMARK minimizedRMSD -1
REMARK  0 active torsions:
REMARK  status: ('A' for Active; 'I' for Inactive)
ROOT
ATOM      1  C   UNL d   1      -0.619   5.444  -5.504  0.00  0.00     0.020 A 
ATOM      2  C1  UNL d   1      -0.426   5.235  -4.139  0.00  0.00     0.020 A 
ATOM      3  C2  UNL d   1      -1.518   5.257  -3.269  0.00  0.00     0.034 A 
ATOM      4  C3  UNL d   1      -2.807   5.489  -3.763  0.00  0.00     0.017 A 
ATOM      5  C4  UNL d   1      -2.999   5.699  -5.133  0.00  0.00     0.017 A 
ATOM      6  C5  UNL d   1      -1.902   5.676  -6.000  0.00  0.00     0.034 A 
ATOM      7 Cl   UNL d   1      -4.560   5.991  -5.816  0.00  0.00    -0.070 Cl
ATOM      8 Cl1  UNL d   1      -4.112   5.502  -2.629  0.00  0.00    -0.070 Cl
ENDROOT
TORSDOF 0
ENDMDL
