MODEL 1
REMARK minimizedAffinity 12.049655
REMARK minimizedRMSD -1
REMARK  0 active torsions:
REMARK  status: ('A' for Active; 'I' for Inactive)
ROOT
ATOM      1  C   UNL d   1      -1.423  -1.424   1.879  0.00  0.00     0.020 A 
ATOM      2  C1  UNL d   1      -2.234  -1.951   0.874  0.00  0.00     0.020 A 
ATOM      3  C2  UNL d   1      -3.159  -1.133   0.223  0.00  0.00     0.034 A 
ATOM      4  C3  UNL d   1      -3.276   0.216   0.575  0.00  0.00     0.017 A 
ATOM      5  C4  UNL d   1      -2.462   0.745   1.584  0.00  0.00     0.017 A 
ATOM      6  C5  UNL d   1      -1.537  -0.079   2.233  0.00  0.00     0.034 A 
ATOM      7 Cl   UNL d   1      -2.549   2.400   2.073  0.00  0.00    -0.070 Cl
ATOM      8 Cl1  UNL d   1      -4.441   1.170  -0.273  0.00  0.00    -0.070 Cl
ENDROOT
TORSDOF 0
ENDMDL
