MODEL 1
REMARK minimizedAffinity 6.46999216
REMARK minimizedRMSD -1
REMARK  0 active torsions:
REMARK  status: ('A' for Active; 'I' for Inactive)
ROOT
ATOM      1  C   UNL d   1      -2.249  -0.302   2.503  0.00  0.00     0.020 A 
ATOM      2  C1  UNL d   1      -1.887  -1.332   1.636  0.00  0.00     0.020 A 
ATOM      3  C2  UNL d   1      -2.269  -1.282   0.293  0.00  0.00     0.034 A 
ATOM      4  C3  UNL d   1      -3.015  -0.199  -0.186  0.00  0.00     0.017 A 
ATOM      5  C4  UNL d   1      -3.378   0.835   0.685  0.00  0.00     0.017 A 
ATOM      6  C5  UNL d   1      -2.993   0.779   2.028  0.00  0.00     0.034 A 
ATOM      7 Cl   UNL d   1      -4.298   2.203   0.167  0.00  0.00    -0.070 Cl
ATOM      8 Cl1  UNL d   1      -3.452  -0.202  -1.858  0.00  0.00    -0.070 Cl
ENDROOT
TORSDOF 0
ENDMDL
