MODEL 1
REMARK minimizedAffinity -1.21712196
REMARK minimizedRMSD -1
REMARK  0 active torsions:
REMARK  status: ('A' for Active; 'I' for Inactive)
ROOT
ATOM      1  O1  BZF d   1       1.414  -0.873   0.210  0.00  0.00    -0.204 OA
ATOM      2  C2  BZF d   1       1.312  -1.133  -1.143  0.00  0.00     0.174 A 
ATOM      3  C3  BZF d   1       0.065  -0.872  -1.588  0.00  0.00    -0.012 A 
ATOM      4  C3A BZF d   1      -0.631  -0.333  -0.460  0.00  0.00    -0.107 A 
ATOM      5  C4  BZF d   1      -1.902   0.131  -0.276  0.00  0.00     0.055 A 
ATOM      6  C5  BZF d   1      -2.289   0.520   0.967  0.00  0.00    -0.016 A 
ATOM      7  C6  BZF d   1      -1.435   0.453   2.048  0.00  0.00     0.022 A 
ATOM      8  C7  BZF d   1      -0.163   0.005   1.914  0.00  0.00     0.029 A 
ATOM      9  C7A BZF d   1       0.242  -0.358   0.652  0.00  0.00     0.058 A 
ENDROOT
TORSDOF 0
ENDMDL
