MODEL 1
REMARK minimizedAffinity -3.6135366
REMARK minimizedRMSD -1
REMARK  0 active torsions:
REMARK  status: ('A' for Active; 'I' for Inactive)
ROOT
ATOM      1  O1  BZF d   1       1.309   0.386  -1.889  0.00  0.00    -0.204 OA
ATOM      2  C2  BZF d   1       1.042  -0.155  -3.132  0.00  0.00     0.174 A 
ATOM      3  C3  BZF d   1      -0.173  -0.741  -3.147  0.00  0.00    -0.012 A 
ATOM      4  C3A BZF d   1      -0.736  -0.474  -1.859  0.00  0.00    -0.107 A 
ATOM      5  C4  BZF d   1      -1.931  -0.783  -1.275  0.00  0.00     0.055 A 
ATOM      6  C5  BZF d   1      -2.141  -0.438   0.023  0.00  0.00    -0.016 A 
ATOM      7  C6  BZF d   1      -1.177   0.212   0.766  0.00  0.00     0.022 A 
ATOM      8  C7  BZF d   1       0.022   0.544   0.228  0.00  0.00     0.029 A 
ATOM      9  C7A BZF d   1       0.224   0.226  -1.093  0.00  0.00     0.058 A 
ENDROOT
TORSDOF 0
ENDMDL
