MODEL 1
REMARK minimizedAffinity -2.7752192
REMARK minimizedRMSD -1
REMARK  0 active torsions:
REMARK  status: ('A' for Active; 'I' for Inactive)
ROOT
ATOM      1  O1  BZF d   1       1.556  -0.915   2.276  0.00  0.00    -0.204 OA
ATOM      2  C2  BZF d   1       2.291  -1.237   1.151  0.00  0.00     0.174 A 
ATOM      3  C3  BZF d   1       1.538  -1.120   0.038  0.00  0.00    -0.012 A 
ATOM      4  C3A BZF d   1       0.279  -0.610   0.488  0.00  0.00    -0.107 A 
ATOM      5  C4  BZF d   1      -0.879  -0.270  -0.152  0.00  0.00     0.055 A 
ATOM      6  C5  BZF d   1      -1.949   0.127   0.586  0.00  0.00    -0.016 A 
ATOM      7  C6  BZF d   1      -1.899   0.189   1.963  0.00  0.00     0.022 A 
ATOM      8  C7  BZF d   1      -0.771  -0.134   2.642  0.00  0.00     0.029 A 
ATOM      9  C7A BZF d   1       0.323  -0.503   1.897  0.00  0.00     0.058 A 
ENDROOT
TORSDOF 0
ENDMDL
