MODEL 1
REMARK minimizedAffinity -2.0510838
REMARK minimizedRMSD -1
REMARK  0 active torsions:
REMARK  status: ('A' for Active; 'I' for Inactive)
ROOT
ATOM      1  O1  BZF d   1       1.183  -0.896  -0.785  0.00  0.00    -0.204 OA
ATOM      2  C2  BZF d   1       0.992  -0.557  -2.110  0.00  0.00     0.174 A 
ATOM      3  C3  BZF d   1      -0.172   0.105  -2.272  0.00  0.00    -0.012 A 
ATOM      4  C3A BZF d   1      -0.700   0.266  -0.953  0.00  0.00    -0.107 A 
ATOM      5  C4  BZF d   1      -1.827   0.858  -0.458  0.00  0.00     0.055 A 
ATOM      6  C5  BZF d   1      -2.086   0.776   0.873  0.00  0.00    -0.016 A 
ATOM      7  C6  BZF d   1      -1.244   0.107   1.737  0.00  0.00     0.022 A 
ATOM      8  C7  BZF d   1      -0.112  -0.492   1.294  0.00  0.00     0.029 A 
ATOM      9  C7A BZF d   1       0.170  -0.383  -0.046  0.00  0.00     0.058 A 
ENDROOT
TORSDOF 0
ENDMDL
