MODEL 1
REMARK minimizedAffinity -2.41060543
REMARK minimizedRMSD -1
REMARK  0 active torsions:
REMARK  status: ('A' for Active; 'I' for Inactive)
ROOT
ATOM      1  O1  BZF d   1       1.929  -0.735   1.997  0.00  0.00    -0.204 OA
ATOM      2  C2  BZF d   1       1.855  -0.682   3.376  0.00  0.00     0.174 A 
ATOM      3  C3  BZF d   1       0.628  -0.292   3.774  0.00  0.00    -0.012 A 
ATOM      4  C3A BZF d   1      -0.140  -0.178   2.572  0.00  0.00    -0.107 A 
ATOM      5  C4  BZF d   1      -1.438   0.159   2.316  0.00  0.00     0.055 A 
ATOM      6  C5  BZF d   1      -1.855   0.247   1.025  0.00  0.00    -0.016 A 
ATOM      7  C6  BZF d   1      -1.001   0.011  -0.031  0.00  0.00     0.022 A 
ATOM      8  C7  BZF d   1       0.295  -0.331   0.173  0.00  0.00     0.029 A 
ATOM      9  C7A BZF d   1       0.711  -0.453   1.477  0.00  0.00     0.058 A 
ENDROOT
TORSDOF 0
ENDMDL
