MODEL 1
REMARK minimizedAffinity 0.43447578
REMARK minimizedRMSD -1
REMARK  0 active torsions:
REMARK  status: ('A' for Active; 'I' for Inactive)
ROOT
ATOM      1  O1  BZF d   1       1.729  -0.515   2.068  0.00  0.00    -0.204 OA
ATOM      2  C2  BZF d   1       1.310  -0.456   3.383  0.00  0.00     0.174 A 
ATOM      3  C3  BZF d   1       0.001  -0.140   3.454  0.00  0.00    -0.012 A 
ATOM      4  C3A BZF d   1      -0.447  -0.083   2.096  0.00  0.00    -0.107 A 
ATOM      5  C4  BZF d   1      -1.657   0.171   1.516  0.00  0.00     0.055 A 
ATOM      6  C5  BZF d   1      -1.742   0.223   0.161  0.00  0.00    -0.016 A 
ATOM      7  C6  BZF d   1      -0.637   0.033  -0.644  0.00  0.00     0.022 A 
ATOM      8  C7  BZF d   1       0.583  -0.226  -0.115  0.00  0.00     0.029 A 
ATOM      9  C7A BZF d   1       0.666  -0.313   1.254  0.00  0.00     0.058 A 
ENDROOT
TORSDOF 0
ENDMDL
