MODEL 1
REMARK minimizedAffinity -3.17774129
REMARK minimizedRMSD -1
REMARK  0 active torsions:
REMARK  status: ('A' for Active; 'I' for Inactive)
ROOT
ATOM      1  O1  BZF d   1       1.309  -0.777   1.886  0.00  0.00    -0.204 OA
ATOM      2  C2  BZF d   1       1.854  -1.143   0.670  0.00  0.00     0.174 A 
ATOM      3  C3  BZF d   1       0.949  -1.007  -0.320  0.00  0.00    -0.012 A 
ATOM      4  C3A BZF d   1      -0.208  -0.438   0.303  0.00  0.00    -0.107 A 
ATOM      5  C4  BZF d   1      -1.433  -0.055  -0.164  0.00  0.00     0.055 A 
ATOM      6  C5  BZF d   1      -2.364   0.395   0.718  0.00  0.00    -0.016 A 
ATOM      7  C6  BZF d   1      -2.106   0.471   2.071  0.00  0.00     0.022 A 
ATOM      8  C7  BZF d   1      -0.904   0.107   2.580  0.00  0.00     0.029 A 
ATOM      9  C7A BZF d   1       0.050  -0.317   1.688  0.00  0.00     0.058 A 
ENDROOT
TORSDOF 0
ENDMDL
