MODEL 1
REMARK minimizedAffinity -1.52206624
REMARK minimizedRMSD -1
REMARK  0 active torsions:
REMARK  status: ('A' for Active; 'I' for Inactive)
ROOT
ATOM      1  O1  BZF d   1      -0.659   0.552   2.346  0.00  0.00    -0.204 OA
ATOM      2  C2  BZF d   1      -1.842   0.931   1.741  0.00  0.00     0.174 A 
ATOM      3  C3  BZF d   1      -1.797   0.699   0.414  0.00  0.00    -0.012 A 
ATOM      4  C3A BZF d   1      -0.539   0.055   0.187  0.00  0.00    -0.107 A 
ATOM      5  C4  BZF d   1       0.076  -0.436  -0.929  0.00  0.00     0.055 A 
ATOM      6  C5  BZF d   1       1.334  -0.938  -0.822  0.00  0.00    -0.016 A 
ATOM      7  C6  BZF d   1       2.008  -0.961   0.382  0.00  0.00     0.022 A 
ATOM      8  C7  BZF d   1       1.436  -0.490   1.517  0.00  0.00     0.029 A 
ATOM      9  C7A BZF d   1       0.152  -0.012   1.418  0.00  0.00     0.058 A 
ENDROOT
TORSDOF 0
ENDMDL
