MODEL 1
REMARK minimizedAffinity 4.42215872
REMARK minimizedRMSD -1
REMARK  0 active torsions:
REMARK  status: ('A' for Active; 'I' for Inactive)
ROOT
ATOM      1  O1  BZF d   1       0.109   1.376  -5.250  0.00  0.00    -0.204 OA
ATOM      2  C2  BZF d   1       1.123   1.243  -4.321  0.00  0.00     0.174 A 
ATOM      3  C3  BZF d   1       1.037   0.057  -3.685  0.00  0.00    -0.012 A 
ATOM      4  C3A BZF d   1      -0.047  -0.631  -4.316  0.00  0.00    -0.107 A 
ATOM      5  C4  BZF d   1      -0.610  -1.862  -4.136  0.00  0.00     0.055 A 
ATOM      6  C5  BZF d   1      -1.703  -2.202  -4.868  0.00  0.00    -0.016 A 
ATOM      7  C6  BZF d   1      -2.263  -1.335  -5.783  0.00  0.00     0.022 A 
ATOM      8  C7  BZF d   1      -1.737  -0.104  -6.000  0.00  0.00     0.029 A 
ATOM      9  C7A BZF d   1      -0.612   0.229  -5.286  0.00  0.00     0.058 A 
ENDROOT
TORSDOF 0
ENDMDL
