MODEL 1
REMARK minimizedAffinity -3.3186202
REMARK minimizedRMSD -1
REMARK  0 active torsions:
REMARK  status: ('A' for Active; 'I' for Inactive)
ROOT
ATOM      1  O1  BZF d   1       1.669  -0.931   1.236  0.00  0.00    -0.204 OA
ATOM      2  C2  BZF d   1       1.908  -0.940   2.596  0.00  0.00     0.174 A 
ATOM      3  C3  BZF d   1       0.850  -0.447   3.271  0.00  0.00    -0.012 A 
ATOM      4  C3A BZF d   1      -0.146  -0.194   2.276  0.00  0.00    -0.107 A 
ATOM      5  C4  BZF d   1      -1.423   0.287   2.328  0.00  0.00     0.055 A 
ATOM      6  C5  BZF d   1      -2.103   0.483   1.167  0.00  0.00    -0.016 A 
ATOM      7  C6  BZF d   1      -1.535   0.213  -0.061  0.00  0.00     0.022 A 
ATOM      8  C7  BZF d   1      -0.273  -0.270  -0.162  0.00  0.00     0.029 A 
ATOM      9  C7A BZF d   1       0.405  -0.499   1.011  0.00  0.00     0.058 A 
ENDROOT
TORSDOF 0
ENDMDL
