MODEL 1
REMARK minimizedAffinity -3.57794285
REMARK minimizedRMSD -1
REMARK  0 active torsions:
REMARK  status: ('A' for Active; 'I' for Inactive)
ROOT
ATOM      1  O1  BZF d   1      -0.494   0.356   3.385  0.00  0.00    -0.204 OA
ATOM      2  C2  BZF d   1       0.741  -0.223   3.602  0.00  0.00     0.174 A 
ATOM      3  C3  BZF d   1       1.203  -0.801   2.475  0.00  0.00    -0.012 A 
ATOM      4  C3A BZF d   1       0.235  -0.489   1.468  0.00  0.00    -0.107 A 
ATOM      5  C4  BZF d   1       0.142  -0.771   0.135  0.00  0.00     0.055 A 
ATOM      6  C5  BZF d   1      -0.967  -0.382  -0.547  0.00  0.00    -0.016 A 
ATOM      7  C6  BZF d   1      -2.003   0.285   0.073  0.00  0.00     0.022 A 
ATOM      8  C7  BZF d   1      -1.955   0.592   1.392  0.00  0.00     0.029 A 
ATOM      9  C7A BZF d   1      -0.820   0.229   2.077  0.00  0.00     0.058 A 
ENDROOT
TORSDOF 0
ENDMDL
