MODEL 1
REMARK minimizedAffinity -2.73292255
REMARK minimizedRMSD -1
REMARK  0 active torsions:
REMARK  status: ('A' for Active; 'I' for Inactive)
ROOT
ATOM      1  O1  BZF d   1       0.328  -0.701  -0.217  0.00  0.00    -0.204 OA
ATOM      2  C2  BZF d   1      -0.872  -0.489  -0.868  0.00  0.00     0.174 A 
ATOM      3  C3  BZF d   1      -1.800  -0.009  -0.016  0.00  0.00    -0.012 A 
ATOM      4  C3A BZF d   1      -1.113   0.172   1.226  0.00  0.00    -0.107 A 
ATOM      5  C4  BZF d   1      -1.496   0.637   2.452  0.00  0.00     0.055 A 
ATOM      6  C5  BZF d   1      -0.601   0.617   3.474  0.00  0.00    -0.016 A 
ATOM      7  C6  BZF d   1       0.681   0.136   3.308  0.00  0.00     0.022 A 
ATOM      8  C7  BZF d   1       1.109  -0.330   2.110  0.00  0.00     0.029 A 
ATOM      9  C7A BZF d   1       0.217  -0.281   1.066  0.00  0.00     0.058 A 
ENDROOT
TORSDOF 0
ENDMDL
