MODEL 1
REMARK minimizedAffinity 0.526185751
REMARK minimizedRMSD -1
REMARK  0 active torsions:
REMARK  status: ('A' for Active; 'I' for Inactive)
ROOT
ATOM      1  O1  BZF d   1      -0.736  -0.070  -1.317  0.00  0.00    -0.204 OA
ATOM      2  C2  BZF d   1       0.535  -0.596  -1.445  0.00  0.00     0.174 A 
ATOM      3  C3  BZF d   1       1.141  -0.680  -0.243  0.00  0.00    -0.012 A 
ATOM      4  C3A BZF d   1       0.156  -0.259   0.705  0.00  0.00    -0.107 A 
ATOM      5  C4  BZF d   1       0.153  -0.141   2.066  0.00  0.00     0.055 A 
ATOM      6  C5  BZF d   1      -0.946   0.369   2.682  0.00  0.00    -0.016 A 
ATOM      7  C6  BZF d   1      -2.056   0.774   1.969  0.00  0.00     0.022 A 
ATOM      8  C7  BZF d   1      -2.102   0.670   0.619  0.00  0.00     0.029 A 
ATOM      9  C7A BZF d   1      -1.006   0.125  -0.004  0.00  0.00     0.058 A 
ENDROOT
TORSDOF 0
ENDMDL
