MODEL 1
REMARK minimizedAffinity 3.94526625
REMARK minimizedRMSD -1
REMARK  0 active torsions:
REMARK  status: ('A' for Active; 'I' for Inactive)
ROOT
ATOM      1  O1  BZF d   1      -0.275   0.922   2.193  0.00  0.00    -0.204 OA
ATOM      2  C2  BZF d   1      -1.282   0.462   3.020  0.00  0.00     0.174 A 
ATOM      3  C3  BZF d   1      -2.151  -0.308   2.334  0.00  0.00    -0.012 A 
ATOM      4  C3A BZF d   1      -1.606  -0.406   1.014  0.00  0.00    -0.107 A 
ATOM      5  C4  BZF d   1      -2.006  -1.050  -0.121  0.00  0.00     0.055 A 
ATOM      6  C5  BZF d   1      -1.288  -0.884  -1.263  0.00  0.00    -0.016 A 
ATOM      7  C6  BZF d   1      -0.170  -0.078  -1.306  0.00  0.00     0.022 A 
ATOM      8  C7  BZF d   1       0.269   0.578  -0.204  0.00  0.00     0.029 A 
ATOM      9  C7A BZF d   1      -0.435   0.386   0.959  0.00  0.00     0.058 A 
ENDROOT
TORSDOF 0
ENDMDL
