MODEL 1
REMARK minimizedAffinity -2.48178101
REMARK minimizedRMSD -1
REMARK  0 active torsions:
REMARK  status: ('A' for Active; 'I' for Inactive)
ROOT
ATOM      1  O1  BZF d   1      -0.425   1.092  -0.383  0.00  0.00    -0.204 OA
ATOM      2  C2  BZF d   1      -0.647  -0.155   0.167  0.00  0.00     0.174 A 
ATOM      3  C3  BZF d   1      -0.252  -1.128  -0.679  0.00  0.00    -0.012 A 
ATOM      4  C3A BZF d   1       0.333  -0.445  -1.792  0.00  0.00    -0.107 A 
ATOM      5  C4  BZF d   1       0.920  -0.868  -2.950  0.00  0.00     0.055 A 
ATOM      6  C5  BZF d   1       1.322   0.056  -3.862  0.00  0.00    -0.016 A 
ATOM      7  C6  BZF d   1       1.148   1.408  -3.651  0.00  0.00     0.022 A 
ATOM      8  C7  BZF d   1       0.575   1.876  -2.516  0.00  0.00     0.029 A 
ATOM      9  C7A BZF d   1       0.198   0.946  -1.577  0.00  0.00     0.058 A 
ENDROOT
TORSDOF 0
ENDMDL
