MODEL 1
REMARK minimizedAffinity -3.44184184
REMARK minimizedRMSD -1
REMARK  0 active torsions:
REMARK  status: ('A' for Active; 'I' for Inactive)
ROOT
ATOM      1  O1  BZF d   1       1.548  -0.604   1.562  0.00  0.00    -0.204 OA
ATOM      2  C2  BZF d   1       2.038  -1.193   0.412  0.00  0.00     0.174 A 
ATOM      3  C3  BZF d   1       1.078  -1.275  -0.531  0.00  0.00    -0.012 A 
ATOM      4  C3A BZF d   1      -0.061  -0.617   0.034  0.00  0.00    -0.107 A 
ATOM      5  C4  BZF d   1      -1.320  -0.359  -0.427  0.00  0.00     0.055 A 
ATOM      6  C5  BZF d   1      -2.217   0.239   0.401  0.00  0.00    -0.016 A 
ATOM      7  C6  BZF d   1      -1.890   0.587   1.696  0.00  0.00     0.022 A 
ATOM      8  C7  BZF d   1      -0.651   0.356   2.195  0.00  0.00     0.029 A 
ATOM      9  C7A BZF d   1       0.267  -0.218   1.350  0.00  0.00     0.058 A 
ENDROOT
TORSDOF 0
ENDMDL
