MODEL 1
REMARK minimizedAffinity -0.0553450026
REMARK minimizedRMSD -1
REMARK  0 active torsions:
REMARK  status: ('A' for Active; 'I' for Inactive)
ROOT
ATOM      1  O1  BZF d   1      -2.648   0.628   1.644  0.00  0.00    -0.204 OA
ATOM      2  C2  BZF d   1      -2.970   0.739   0.306  0.00  0.00     0.174 A 
ATOM      3  C3  BZF d   1      -1.934   0.360  -0.469  0.00  0.00    -0.012 A 
ATOM      4  C3A BZF d   1      -0.931  -0.099   0.442  0.00  0.00    -0.107 A 
ATOM      5  C4  BZF d   1       0.322  -0.616   0.277  0.00  0.00     0.055 A 
ATOM      6  C5  BZF d   1       1.072  -0.896   1.376  0.00  0.00    -0.016 A 
ATOM      7  C6  BZF d   1       0.602  -0.666   2.653  0.00  0.00     0.022 A 
ATOM      8  C7  BZF d   1      -0.637  -0.159   2.867  0.00  0.00     0.029 A 
ATOM      9  C7A BZF d   1      -1.409   0.093   1.759  0.00  0.00     0.058 A 
ENDROOT
TORSDOF 0
ENDMDL
