MODEL 1
REMARK minimizedAffinity -6.08229113
REMARK minimizedRMSD -1
REMARK  1 active torsions:
REMARK  status: ('A' for Active; 'I' for Inactive)
REMARK    1  A    between atoms: C1_2  and  C2_3 
ROOT
ATOM      1  C2  UNL d   1       0.048  -0.188   0.319  0.00  0.00    -0.073 A 
ATOM      2  C3  UNL d   1       1.327  -0.523  -0.141  0.00  0.00    -0.002 A 
ATOM      3  C4  UNL d   1       1.962  -1.677   0.319  0.00  0.00     0.004 A 
ATOM      4  C5  UNL d   1       1.323  -2.511   1.237  0.00  0.00    -0.004 A 
ATOM      5  C6  UNL d   1       0.041  -2.200   1.700  0.00  0.00    -0.075 A 
ATOM      6  C7  UNL d   1      -0.658  -3.085   2.689  0.00  0.00     0.076 C 
ATOM      7  C8  UNL d   1      -0.589  -1.037   1.235  0.00  0.00     0.001 A 
ENDROOT
BRANCH   1   8
ATOM      8  C1  UNL d   1      -0.644   1.054  -0.180  0.00  0.00     0.053 C 
ATOM      9  C   UNL d   1      -1.412   1.762   0.926  0.00  0.00     0.018 C 
ENDBRANCH   1   8
TORSDOF 1
ENDMDL
