MODEL 1
REMARK minimizedAffinity -1.12356842
REMARK minimizedRMSD -1
REMARK  1 active torsions:
REMARK  status: ('A' for Active; 'I' for Inactive)
REMARK    1  A    between atoms: C1_2  and  C2_3 
ROOT
ATOM      1  C2  UNL d   1       1.320  -0.878   0.296  0.00  0.00    -0.073 A 
ATOM      2  C3  UNL d   1       1.340  -0.249  -0.954  0.00  0.00    -0.002 A 
ATOM      3  C4  UNL d   1       0.323   0.636  -1.315  0.00  0.00     0.004 A 
ATOM      4  C5  UNL d   1      -0.719   0.906  -0.429  0.00  0.00    -0.004 A 
ATOM      5  C6  UNL d   1      -0.751   0.297   0.830  0.00  0.00    -0.075 A 
ATOM      6  C7  UNL d   1      -1.866   0.576   1.794  0.00  0.00     0.076 C 
ATOM      7  C8  UNL d   1       0.273  -0.592   1.184  0.00  0.00     0.001 A 
ENDROOT
BRANCH   1   8
ATOM      8  C1  UNL d   1       2.419  -1.829   0.692  0.00  0.00     0.053 C 
ATOM      9  C   UNL d   1       1.873  -3.098   1.327  0.00  0.00     0.018 C 
ENDBRANCH   1   8
TORSDOF 1
ENDMDL
