MODEL 1
REMARK minimizedAffinity -0.046154622
REMARK minimizedRMSD -1
REMARK  1 active torsions:
REMARK  status: ('A' for Active; 'I' for Inactive)
REMARK    1  A    between atoms: C1_2  and  C2_3 
ROOT
ATOM      1  C2  UNL d   1      -0.408   0.064  -0.561  0.00  0.00    -0.073 A 
ATOM      2  C3  UNL d   1      -0.463   0.865   0.585  0.00  0.00    -0.002 A 
ATOM      3  C4  UNL d   1      -1.330   1.957   0.641  0.00  0.00     0.004 A 
ATOM      4  C5  UNL d   1      -2.155   2.254  -0.444  0.00  0.00    -0.004 A 
ATOM      5  C6  UNL d   1      -2.123   1.459  -1.594  0.00  0.00    -0.075 A 
ATOM      6  C7  UNL d   1      -3.002   1.767  -2.770  0.00  0.00     0.076 C 
ATOM      7  C8  UNL d   1      -1.248   0.365  -1.643  0.00  0.00     0.001 A 
ENDROOT
BRANCH   1   8
ATOM      8  C1  UNL d   1       0.522  -1.120  -0.624  0.00  0.00     0.053 C 
ATOM      9  C   UNL d   1       1.590  -1.064   0.457  0.00  0.00     0.018 C 
ENDBRANCH   1   8
TORSDOF 1
ENDMDL
