MODEL 1
REMARK minimizedAffinity -4.42026758
REMARK minimizedRMSD -1
REMARK  1 active torsions:
REMARK  status: ('A' for Active; 'I' for Inactive)
REMARK    1  A    between atoms: C1_2  and  C2_3 
ROOT
ATOM      1  C2  UNL d   1      -0.283   0.717  -0.749  0.00  0.00    -0.073 A 
ATOM      2  C3  UNL d   1      -1.121   0.607   0.366  0.00  0.00    -0.002 A 
ATOM      3  C4  UNL d   1      -0.957  -0.444   1.270  0.00  0.00     0.004 A 
ATOM      4  C5  UNL d   1       0.049  -1.389   1.072  0.00  0.00    -0.004 A 
ATOM      5  C6  UNL d   1       0.904  -1.290  -0.030  0.00  0.00    -0.075 A 
ATOM      6  C7  UNL d   1       1.989  -2.300  -0.258  0.00  0.00     0.076 C 
ATOM      7  C8  UNL d   1       0.731  -0.233  -0.935  0.00  0.00     0.001 A 
ENDROOT
BRANCH   1   8
ATOM      8  C1  UNL d   1      -0.453   1.853  -1.725  0.00  0.00     0.053 C 
ATOM      9  C   UNL d   1      -1.725   1.715  -2.545  0.00  0.00     0.018 C 
ENDBRANCH   1   8
TORSDOF 1
ENDMDL
