MODEL 1
REMARK minimizedAffinity -4.14674807
REMARK minimizedRMSD -1
REMARK  1 active torsions:
REMARK  status: ('A' for Active; 'I' for Inactive)
REMARK    1  A    between atoms: C1_2  and  C2_3 
ROOT
ATOM      1  C2  UNL d   1       0.151   0.413  -0.073  0.00  0.00    -0.073 A 
ATOM      2  C3  UNL d   1       1.358   0.780  -0.680  0.00  0.00    -0.002 A 
ATOM      3  C4  UNL d   1       2.474  -0.054  -0.590  0.00  0.00     0.004 A 
ATOM      4  C5  UNL d   1       2.393  -1.263   0.100  0.00  0.00    -0.004 A 
ATOM      5  C6  UNL d   1       1.193  -1.652   0.704  0.00  0.00    -0.075 A 
ATOM      6  C7  UNL d   1       1.090  -2.948   1.452  0.00  0.00     0.076 C 
ATOM      7  C8  UNL d   1       0.077  -0.808   0.611  0.00  0.00     0.001 A 
ENDROOT
BRANCH   1   8
ATOM      8  C1  UNL d   1      -1.058   1.307  -0.173  0.00  0.00     0.053 C 
ATOM      9  C   UNL d   1      -1.355   1.706  -1.609  0.00  0.00     0.018 C 
ENDBRANCH   1   8
TORSDOF 1
ENDMDL
