MODEL 1
REMARK minimizedAffinity -2.33725119
REMARK minimizedRMSD -1
REMARK  1 active torsions:
REMARK  status: ('A' for Active; 'I' for Inactive)
REMARK    1  A    between atoms: C1_2  and  C2_3 
ROOT
ATOM      1  C2  UNL d   1      -0.573   0.529  -0.101  0.00  0.00    -0.073 A 
ATOM      2  C3  UNL d   1      -1.522   0.903   0.857  0.00  0.00    -0.002 A 
ATOM      3  C4  UNL d   1      -1.907   0.007   1.855  0.00  0.00     0.004 A 
ATOM      4  C5  UNL d   1      -1.343  -1.267   1.910  0.00  0.00    -0.004 A 
ATOM      5  C6  UNL d   1      -0.384  -1.655   0.969  0.00  0.00    -0.075 A 
ATOM      6  C7  UNL d   1       0.231  -3.023   1.013  0.00  0.00     0.076 C 
ATOM      7  C8  UNL d   1      -0.005  -0.751  -0.032  0.00  0.00     0.001 A 
ENDROOT
BRANCH   1   8
ATOM      8  C1  UNL d   1      -0.150   1.496  -1.177  0.00  0.00     0.053 C 
ATOM      9  C   UNL d   1      -1.328   1.972  -2.011  0.00  0.00     0.018 C 
ENDBRANCH   1   8
TORSDOF 1
ENDMDL
