MODEL 1
REMARK minimizedAffinity -2.50125098
REMARK minimizedRMSD -1
REMARK  1 active torsions:
REMARK  status: ('A' for Active; 'I' for Inactive)
REMARK    1  A    between atoms: C1_2  and  C2_3 
ROOT
ATOM      1  C2  UNL d   1       0.294   0.497  -0.092  0.00  0.00    -0.073 A 
ATOM      2  C3  UNL d   1       1.495   0.995  -0.610  0.00  0.00    -0.002 A 
ATOM      3  C4  UNL d   1       2.661   0.231  -0.544  0.00  0.00     0.004 A 
ATOM      4  C5  UNL d   1       2.637  -1.038   0.033  0.00  0.00    -0.004 A 
ATOM      5  C6  UNL d   1       1.444  -1.558   0.545  0.00  0.00    -0.075 A 
ATOM      6  C7  UNL d   1       1.402  -2.921   1.171  0.00  0.00     0.076 C 
ATOM      7  C8  UNL d   1       0.278  -0.784   0.478  0.00  0.00     0.001 A 
ENDROOT
BRANCH   1   8
ATOM      8  C1  UNL d   1      -0.969   1.316  -0.167  0.00  0.00     0.053 C 
ATOM      9  C   UNL d   1      -1.614   1.245  -1.542  0.00  0.00     0.018 C 
ENDBRANCH   1   8
TORSDOF 1
ENDMDL
