MODEL 1
REMARK minimizedAffinity -3.19922137
REMARK minimizedRMSD -1
REMARK  1 active torsions:
REMARK  status: ('A' for Active; 'I' for Inactive)
REMARK    1  A    between atoms: C1_2  and  C2_3 
ROOT
ATOM      1  C2  UNL d   1      -0.948   1.352  -1.237  0.00  0.00    -0.073 A 
ATOM      2  C3  UNL d   1       0.313   0.863  -1.594  0.00  0.00    -0.002 A 
ATOM      3  C4  UNL d   1       0.951  -0.089  -0.798  0.00  0.00     0.004 A 
ATOM      4  C5  UNL d   1       0.332  -0.567   0.357  0.00  0.00    -0.004 A 
ATOM      5  C6  UNL d   1      -0.934  -0.100   0.723  0.00  0.00    -0.075 A 
ATOM      6  C7  UNL d   1      -1.613  -0.602   1.964  0.00  0.00     0.076 C 
ATOM      7  C8  UNL d   1      -1.567   0.859  -0.080  0.00  0.00     0.001 A 
ENDROOT
BRANCH   1   8
ATOM      8  C1  UNL d   1      -1.644   2.376  -2.097  0.00  0.00     0.053 C 
ATOM      9  C   UNL d   1      -2.914   1.825  -2.725  0.00  0.00     0.018 C 
ENDBRANCH   1   8
TORSDOF 1
ENDMDL
