MODEL 1
REMARK minimizedAffinity 7.60514498
REMARK minimizedRMSD -1
REMARK  0 active torsions:
REMARK  status: ('A' for Active; 'I' for Inactive)
ROOT
ATOM      1  O1  BZF d   1      -3.190   0.392  -0.632  0.00  0.00    -0.204 OA
ATOM      2  C2  BZF d   1      -4.366   1.027  -0.285  0.00  0.00     0.174 A 
ATOM      3  C3  BZF d   1      -4.544   1.010   1.052  0.00  0.00    -0.012 A 
ATOM      4  C3A BZF d   1      -3.361   0.401   1.580  0.00  0.00    -0.107 A 
ATOM      5  C4  BZF d   1      -2.938   0.117   2.847  0.00  0.00     0.055 A 
ATOM      6  C5  BZF d   1      -1.765  -0.548   3.017  0.00  0.00    -0.016 A 
ATOM      7  C6  BZF d   1      -0.994  -0.947   1.945  0.00  0.00     0.022 A 
ATOM      8  C7  BZF d   1      -1.370  -0.683   0.670  0.00  0.00     0.029 A 
ATOM      9  C7A BZF d   1      -2.539   0.018   0.496  0.00  0.00     0.058 A 
ENDROOT
TORSDOF 0
ENDMDL
