MODEL 1
REMARK minimizedAffinity 5.44434929
REMARK minimizedRMSD -1
REMARK  0 active torsions:
REMARK  status: ('A' for Active; 'I' for Inactive)
ROOT
ATOM      1  O1  BZF d   1      -6.000  -4.823   5.575  0.00  0.00    -0.204 OA
ATOM      2  C2  BZF d   1      -5.764  -3.523   5.979  0.00  0.00     0.174 A 
ATOM      3  C3  BZF d   1      -5.382  -2.760   4.935  0.00  0.00    -0.012 A 
ATOM      4  C3A BZF d   1      -5.468  -3.615   3.792  0.00  0.00    -0.107 A 
ATOM      5  C4  BZF d   1      -5.232  -3.429   2.460  0.00  0.00     0.055 A 
ATOM      6  C5  BZF d   1      -5.339  -4.489   1.615  0.00  0.00    -0.016 A 
ATOM      7  C6  BZF d   1      -5.676  -5.747   2.069  0.00  0.00     0.022 A 
ATOM      8  C7  BZF d   1      -5.925  -5.980   3.381  0.00  0.00     0.029 A 
ATOM      9  C7A BZF d   1      -5.849  -4.904   4.232  0.00  0.00     0.058 A 
ENDROOT
TORSDOF 0
ENDMDL
