MODEL 1
REMARK minimizedAffinity 15.212965
REMARK minimizedRMSD -1
REMARK  0 active torsions:
REMARK  status: ('A' for Active; 'I' for Inactive)
ROOT
ATOM      1  O1  BZF d   1      -0.909  -0.199   5.207  0.00  0.00    -0.204 OA
ATOM      2  C2  BZF d   1      -1.975   0.498   4.672  0.00  0.00     0.174 A 
ATOM      3  C3  BZF d   1      -2.125   0.211   3.363  0.00  0.00    -0.012 A 
ATOM      4  C3A BZF d   1      -1.145  -0.792   3.083  0.00  0.00    -0.107 A 
ATOM      5  C4  BZF d   1      -0.810  -1.490   1.957  0.00  0.00     0.055 A 
ATOM      6  C5  BZF d   1       0.244  -2.346   2.000  0.00  0.00    -0.016 A 
ATOM      7  C6  BZF d   1       0.988  -2.525   3.147  0.00  0.00     0.022 A 
ATOM      8  C7  BZF d   1       0.692  -1.859   4.290  0.00  0.00     0.029 A 
ATOM      9  C7A BZF d   1      -0.394  -1.018   4.259  0.00  0.00     0.058 A 
ENDROOT
TORSDOF 0
ENDMDL
