MODEL 1
REMARK minimizedAffinity 14.3619585
REMARK minimizedRMSD -1
REMARK  0 active torsions:
REMARK  status: ('A' for Active; 'I' for Inactive)
ROOT
ATOM      1  O1  BZF d   1       0.530   2.444  -5.687  0.00  0.00    -0.204 OA
ATOM      2  C2  BZF d   1      -0.488   3.342  -5.941  0.00  0.00     0.174 A 
ATOM      3  C3  BZF d   1      -0.545   4.286  -4.980  0.00  0.00    -0.012 A 
ATOM      4  C3A BZF d   1       0.563   4.012  -4.117  0.00  0.00    -0.107 A 
ATOM      5  C4  BZF d   1       1.046   4.612  -2.989  0.00  0.00     0.055 A 
ATOM      6  C5  BZF d   1       2.102   4.052  -2.344  0.00  0.00    -0.016 A 
ATOM      7  C6  BZF d   1       2.696   2.891  -2.795  0.00  0.00     0.022 A 
ATOM      8  C7  BZF d   1       2.256   2.263  -3.912  0.00  0.00     0.029 A 
ATOM      9  C7A BZF d   1       1.209   2.844  -4.584  0.00  0.00     0.058 A 
ENDROOT
TORSDOF 0
ENDMDL
