MODEL 1
REMARK minimizedAffinity 10.8880949
REMARK minimizedRMSD -1
REMARK  0 active torsions:
REMARK  status: ('A' for Active; 'I' for Inactive)
ROOT
ATOM      1  O1  BZF d   1      -0.747  -1.089   2.989  0.00  0.00    -0.204 OA
ATOM      2  C2  BZF d   1       0.427  -0.893   3.690  0.00  0.00     0.174 A 
ATOM      3  C3  BZF d   1       1.419  -1.656   3.186  0.00  0.00    -0.012 A 
ATOM      4  C3A BZF d   1       0.851  -2.305   2.044  0.00  0.00    -0.107 A 
ATOM      5  C4  BZF d   1       1.346  -3.179   1.118  0.00  0.00     0.055 A 
ATOM      6  C5  BZF d   1       0.510  -3.681   0.172  0.00  0.00    -0.016 A 
ATOM      7  C6  BZF d   1      -0.825  -3.336   0.125  0.00  0.00     0.022 A 
ATOM      8  C7  BZF d   1      -1.360  -2.469   1.019  0.00  0.00     0.029 A 
ATOM      9  C7A BZF d   1      -0.511  -1.935   1.957  0.00  0.00     0.058 A 
ENDROOT
TORSDOF 0
ENDMDL
