MODEL 1
REMARK minimizedAffinity 5.47995806
REMARK minimizedRMSD -1
REMARK  0 active torsions:
REMARK  status: ('A' for Active; 'I' for Inactive)
ROOT
ATOM      1  O1  BZF d   1       0.845  -1.586   4.090  0.00  0.00    -0.204 OA
ATOM      2  C2  BZF d   1       1.465  -2.559   3.331  0.00  0.00     0.174 A 
ATOM      3  C3  BZF d   1       0.779  -2.788   2.193  0.00  0.00    -0.012 A 
ATOM      4  C3A BZF d   1      -0.289  -1.836   2.200  0.00  0.00    -0.107 A 
ATOM      5  C4  BZF d   1      -1.303  -1.556   1.329  0.00  0.00     0.055 A 
ATOM      6  C5  BZF d   1      -2.223  -0.614   1.667  0.00  0.00    -0.016 A 
ATOM      7  C6  BZF d   1      -2.163   0.062   2.868  0.00  0.00     0.022 A 
ATOM      8  C7  BZF d   1      -1.173  -0.178   3.762  0.00  0.00     0.029 A 
ATOM      9  C7A BZF d   1      -0.223  -1.106   3.409  0.00  0.00     0.058 A 
ENDROOT
TORSDOF 0
ENDMDL
