MODEL 1
REMARK minimizedAffinity 10.2099419
REMARK minimizedRMSD -1
REMARK  0 active torsions:
REMARK  status: ('A' for Active; 'I' for Inactive)
ROOT
ATOM      1  O1  BZF d   1      -0.635  -3.209   0.828  0.00  0.00    -0.204 OA
ATOM      2  C2  BZF d   1      -1.741  -2.426   0.559  0.00  0.00     0.174 A 
ATOM      3  C3  BZF d   1      -1.869  -1.448   1.479  0.00  0.00    -0.012 A 
ATOM      4  C3A BZF d   1      -0.723  -1.575   2.325  0.00  0.00    -0.107 A 
ATOM      5  C4  BZF d   1      -0.277  -0.880   3.413  0.00  0.00     0.055 A 
ATOM      6  C5  BZF d   1       0.841  -1.305   4.056  0.00  0.00    -0.016 A 
ATOM      7  C6  BZF d   1       1.536  -2.423   3.643  0.00  0.00     0.022 A 
ATOM      8  C7  BZF d   1       1.136  -3.142   2.566  0.00  0.00     0.029 A 
ATOM      9  C7A BZF d   1       0.024  -2.696   1.894  0.00  0.00     0.058 A 
ENDROOT
TORSDOF 0
ENDMDL
