MODEL 1
REMARK minimizedAffinity 18.4268761
REMARK minimizedRMSD -1
REMARK  0 active torsions:
REMARK  status: ('A' for Active; 'I' for Inactive)
ROOT
ATOM      1  O1  BZF d   1       0.739  -1.043   3.896  0.00  0.00    -0.204 OA
ATOM      2  C2  BZF d   1       1.485  -2.064   3.341  0.00  0.00     0.174 A 
ATOM      3  C3  BZF d   1       0.890  -2.542   2.229  0.00  0.00    -0.012 A 
ATOM      4  C3A BZF d   1      -0.255  -1.710   2.028  0.00  0.00    -0.107 A 
ATOM      5  C4  BZF d   1      -1.236  -1.676   1.078  0.00  0.00     0.055 A 
ATOM      6  C5  BZF d   1      -2.253  -0.784   1.210  0.00  0.00    -0.016 A 
ATOM      7  C6  BZF d   1      -2.323   0.084   2.281  0.00  0.00     0.022 A 
ATOM      8  C7  BZF d   1      -1.371   0.091   3.245  0.00  0.00     0.029 A 
ATOM      9  C7A BZF d   1      -0.325  -0.787   3.097  0.00  0.00     0.058 A 
ENDROOT
TORSDOF 0
ENDMDL
