MODEL 1
REMARK minimizedAffinity 9.78986454
REMARK minimizedRMSD -1
REMARK  0 active torsions:
REMARK  status: ('A' for Active; 'I' for Inactive)
ROOT
ATOM      1  O1  BZF d   1       0.366  -1.385   3.914  0.00  0.00    -0.204 OA
ATOM      2  C2  BZF d   1       1.045  -2.292   3.123  0.00  0.00     0.174 A 
ATOM      3  C3  BZF d   1       0.450  -2.416   1.919  0.00  0.00    -0.012 A 
ATOM      4  C3A BZF d   1      -0.616  -1.462   1.926  0.00  0.00    -0.107 A 
ATOM      5  C4  BZF d   1      -1.559  -1.101   1.006  0.00  0.00     0.055 A 
ATOM      6  C5  BZF d   1      -2.503  -0.187   1.352  0.00  0.00    -0.016 A 
ATOM      7  C6  BZF d   1      -2.538   0.380   2.609  0.00  0.00     0.022 A 
ATOM      8  C7  BZF d   1      -1.622   0.057   3.553  0.00  0.00     0.029 A 
ATOM      9  C7A BZF d   1      -0.646  -0.841   3.196  0.00  0.00     0.058 A 
ENDROOT
TORSDOF 0
ENDMDL
