MODEL 1
REMARK minimizedAffinity 16.9196949
REMARK minimizedRMSD -1
REMARK  0 active torsions:
REMARK  status: ('A' for Active; 'I' for Inactive)
ROOT
ATOM      1  O1  BZF d   1      -0.027  -2.913   1.183  0.00  0.00    -0.204 OA
ATOM      2  C2  BZF d   1       1.001  -2.315   1.886  0.00  0.00     0.174 A 
ATOM      3  C3  BZF d   1       0.695  -1.035   2.184  0.00  0.00    -0.012 A 
ATOM      4  C3A BZF d   1      -0.643  -0.849   1.713  0.00  0.00    -0.107 A 
ATOM      5  C4  BZF d   1      -1.507   0.209   1.733  0.00  0.00     0.055 A 
ATOM      6  C5  BZF d   1      -2.715   0.086   1.124  0.00  0.00    -0.016 A 
ATOM      7  C6  BZF d   1      -3.090  -1.076   0.482  0.00  0.00     0.022 A 
ATOM      8  C7  BZF d   1      -2.269  -2.153   0.439  0.00  0.00     0.029 A 
ATOM      9  C7A BZF d   1      -1.061  -2.044   1.083  0.00  0.00     0.058 A 
ENDROOT
TORSDOF 0
ENDMDL
