MODEL 1
REMARK minimizedAffinity 12.9952822
REMARK minimizedRMSD -1
REMARK  0 active torsions:
REMARK  status: ('A' for Active; 'I' for Inactive)
ROOT
ATOM      1  O1  BZF d   1       5.119   4.118  -2.623  0.00  0.00    -0.204 OA
ATOM      2  C2  BZF d   1       5.999   4.133  -1.558  0.00  0.00     0.174 A 
ATOM      3  C3  BZF d   1       5.607   3.267  -0.601  0.00  0.00    -0.012 A 
ATOM      4  C3A BZF d   1       4.457   2.607  -1.140  0.00  0.00    -0.107 A 
ATOM      5  C4  BZF d   1       3.630   1.628  -0.669  0.00  0.00     0.055 A 
ATOM      6  C5  BZF d   1       2.554   1.258  -1.412  0.00  0.00    -0.016 A 
ATOM      7  C6  BZF d   1       2.273   1.848  -2.627  0.00  0.00     0.022 A 
ATOM      8  C7  BZF d   1       3.068   2.820  -3.138  0.00  0.00     0.029 A 
ATOM      9  C7A BZF d   1       4.174   3.173  -2.404  0.00  0.00     0.058 A 
ENDROOT
TORSDOF 0
ENDMDL
