MODEL 1
REMARK minimizedAffinity 14.0132294
REMARK minimizedRMSD -1
REMARK  0 active torsions:
REMARK  status: ('A' for Active; 'I' for Inactive)
ROOT
ATOM      1  O1  BZF d   1       0.473  -1.347   4.085  0.00  0.00    -0.204 OA
ATOM      2  C2  BZF d   1       1.000  -2.622   4.011  0.00  0.00     0.174 A 
ATOM      3  C3  BZF d   1       0.507  -3.282   2.943  0.00  0.00    -0.012 A 
ATOM      4  C3A BZF d   1      -0.312  -2.331   2.258  0.00  0.00    -0.107 A 
ATOM      5  C4  BZF d   1      -1.059  -2.385   1.116  0.00  0.00     0.055 A 
ATOM      6  C5  BZF d   1      -1.801  -1.303   0.760  0.00  0.00    -0.016 A 
ATOM      7  C6  BZF d   1      -1.824  -0.155   1.524  0.00  0.00     0.022 A 
ATOM      8  C7  BZF d   1      -1.095  -0.052   2.662  0.00  0.00     0.029 A 
ATOM      9  C7A BZF d   1      -0.319  -1.132   3.007  0.00  0.00     0.058 A 
ENDROOT
TORSDOF 0
ENDMDL
