MODEL 1
REMARK minimizedAffinity 12.3945847
REMARK minimizedRMSD -1
REMARK  0 active torsions:
REMARK  status: ('A' for Active; 'I' for Inactive)
ROOT
ATOM      1  O1  BZF d   1      -5.991   2.071   5.996  0.00  0.00    -0.204 OA
ATOM      2  C2  BZF d   1      -5.996   3.393   5.595  0.00  0.00     0.174 A 
ATOM      3  C3  BZF d   1      -4.937   3.657   4.803  0.00  0.00    -0.012 A 
ATOM      4  C3A BZF d   1      -4.276   2.399   4.627  0.00  0.00    -0.107 A 
ATOM      5  C4  BZF d   1      -3.169   2.010   3.930  0.00  0.00     0.055 A 
ATOM      6  C5  BZF d   1      -2.748   0.721   4.025  0.00  0.00    -0.016 A 
ATOM      7  C6  BZF d   1      -3.406  -0.201   4.811  0.00  0.00     0.022 A 
ATOM      8  C7  BZF d   1      -4.512   0.137   5.518  0.00  0.00     0.029 A 
ATOM      9  C7A BZF d   1      -4.959   1.430   5.398  0.00  0.00     0.058 A 
ENDROOT
TORSDOF 0
ENDMDL
