MODEL 1
REMARK minimizedAffinity 20.1659355
REMARK minimizedRMSD -1
REMARK  0 active torsions:
REMARK  status: ('A' for Active; 'I' for Inactive)
ROOT
ATOM      1  O1  BZF d   1      -0.395  -0.687   4.453  0.00  0.00    -0.204 OA
ATOM      2  C2  BZF d   1      -0.332  -1.753   5.330  0.00  0.00     0.174 A 
ATOM      3  C3  BZF d   1      -0.468  -2.923   4.672  0.00  0.00    -0.012 A 
ATOM      4  C3A BZF d   1      -0.534  -2.570   3.287  0.00  0.00    -0.107 A 
ATOM      5  C4  BZF d   1      -0.654  -3.298   2.138  0.00  0.00     0.055 A 
ATOM      6  C5  BZF d   1      -0.763  -2.644   0.951  0.00  0.00    -0.016 A 
ATOM      7  C6  BZF d   1      -0.761  -1.267   0.878  0.00  0.00     0.022 A 
ATOM      8  C7  BZF d   1      -0.639  -0.503   1.990  0.00  0.00     0.029 A 
ATOM      9  C7A BZF d   1      -0.495  -1.160   3.188  0.00  0.00     0.058 A 
ENDROOT
TORSDOF 0
ENDMDL
