MODEL 1
REMARK minimizedAffinity 19.543499
REMARK minimizedRMSD -1
REMARK  0 active torsions:
REMARK  status: ('A' for Active; 'I' for Inactive)
ROOT
ATOM      1  O1  BZF d   1      -1.619   0.519   4.375  0.00  0.00    -0.204 OA
ATOM      2  C2  BZF d   1      -0.710   0.127   5.339  0.00  0.00     0.174 A 
ATOM      3  C3  BZF d   1       0.158  -0.776   4.839  0.00  0.00    -0.012 A 
ATOM      4  C3A BZF d   1      -0.176  -0.891   3.452  0.00  0.00    -0.107 A 
ATOM      5  C4  BZF d   1       0.339  -1.622   2.420  0.00  0.00     0.055 A 
ATOM      6  C5  BZF d   1      -0.263  -1.562   1.203  0.00  0.00    -0.016 A 
ATOM      7  C6  BZF d   1      -1.383  -0.786   0.985  0.00  0.00     0.022 A 
ATOM      8  C7  BZF d   1      -1.927  -0.040   1.976  0.00  0.00     0.029 A 
ATOM      9  C7A BZF d   1      -1.301  -0.073   3.199  0.00  0.00     0.058 A 
ENDROOT
TORSDOF 0
ENDMDL
