MODEL 1
REMARK minimizedAffinity 9.204566
REMARK minimizedRMSD -1
REMARK  0 active torsions:
REMARK  status: ('A' for Active; 'I' for Inactive)
ROOT
ATOM      1  O1  BZF d   1      -0.800   3.780  -5.833  0.00  0.00    -0.204 OA
ATOM      2  C2  BZF d   1      -1.295   5.068  -5.900  0.00  0.00     0.174 A 
ATOM      3  C3  BZF d   1      -0.829   5.813  -4.877  0.00  0.00    -0.012 A 
ATOM      4  C3A BZF d   1       0.084   4.962  -4.177  0.00  0.00    -0.107 A 
ATOM      5  C4  BZF d   1       0.877   5.137  -3.079  0.00  0.00     0.055 A 
ATOM      6  C5  BZF d   1       1.593   4.083  -2.607  0.00  0.00    -0.016 A 
ATOM      7  C6  BZF d   1       1.537   2.841  -3.205  0.00  0.00     0.022 A 
ATOM      8  C7  BZF d   1       0.769   2.620  -4.299  0.00  0.00     0.029 A 
ATOM      9  C7A BZF d   1       0.069   3.691  -4.798  0.00  0.00     0.058 A 
ENDROOT
TORSDOF 0
ENDMDL
