MODEL 1
REMARK minimizedAffinity 0.674277604
REMARK minimizedRMSD -1
REMARK  0 active torsions:
REMARK  status: ('A' for Active; 'I' for Inactive)
ROOT
ATOM      1  C   UNL d   1      -0.313   3.346   1.642  0.00  0.00     0.172 C 
ATOM      2  N   UNL d   1       0.717   4.146   2.263  0.00  0.00    -0.070 N 
ATOM      3  C1  UNL d   1       0.679   5.505   2.432  0.00  0.00    -0.004 A 
ATOM      4  C2  UNL d   1       1.844   5.884   3.063  0.00  0.00    -0.047 A 
ATOM      5  C3  UNL d   1       2.610   4.713   3.278  0.00  0.00    -0.047 A 
ATOM      6  C4  UNL d   1       1.888   3.652   2.773  0.00  0.00    -0.004 A 
ENDROOT
TORSDOF 0
ENDMDL
