MODEL 1
REMARK minimizedAffinity 2.61064625
REMARK minimizedRMSD -1
REMARK  0 active torsions:
REMARK  status: ('A' for Active; 'I' for Inactive)
ROOT
ATOM      1  C   UNL d   1      -0.264   5.983   1.227  0.00  0.00     0.172 C 
ATOM      2  N   UNL d   1       0.186   5.984   2.599  0.00  0.00    -0.070 N 
ATOM      3  C1  UNL d   1      -0.622   5.972   3.705  0.00  0.00    -0.004 A 
ATOM      4  C2  UNL d   1       0.188   5.977   4.820  0.00  0.00    -0.047 A 
ATOM      5  C3  UNL d   1       1.530   5.994   4.369  0.00  0.00    -0.047 A 
ATOM      6  C4  UNL d   1       1.499   5.998   2.990  0.00  0.00    -0.004 A 
ENDROOT
TORSDOF 0
ENDMDL
