MODEL 1
REMARK minimizedAffinity 6.62354994
REMARK minimizedRMSD -1
REMARK  0 active torsions:
REMARK  status: ('A' for Active; 'I' for Inactive)
ROOT
ATOM      1  C   UNL d   1       3.273   0.497  -0.772  0.00  0.00     0.172 C 
ATOM      2  N   UNL d   1       1.975   0.896  -0.282  0.00  0.00    -0.070 N 
ATOM      3  C1  UNL d   1       1.075   1.680  -0.954  0.00  0.00    -0.004 A 
ATOM      4  C2  UNL d   1      -0.036   1.828  -0.152  0.00  0.00    -0.047 A 
ATOM      5  C3  UNL d   1       0.205   1.109   1.043  0.00  0.00    -0.047 A 
ATOM      6  C4  UNL d   1       1.457   0.542   0.935  0.00  0.00    -0.004 A 
ENDROOT
TORSDOF 0
ENDMDL
