MODEL 1
REMARK minimizedAffinity 0.656417847
REMARK minimizedRMSD -1
REMARK  0 active torsions:
REMARK  status: ('A' for Active; 'I' for Inactive)
ROOT
ATOM      1  C   UNL d   1       3.878  -1.737   1.375  0.00  0.00     0.172 C 
ATOM      2  N   UNL d   1       3.371  -0.480   0.877  0.00  0.00    -0.070 N 
ATOM      3  C1  UNL d   1       3.388   0.712   1.552  0.00  0.00    -0.004 A 
ATOM      4  C2  UNL d   1       2.815   1.666   0.739  0.00  0.00    -0.047 A 
ATOM      5  C3  UNL d   1       2.439   1.025  -0.466  0.00  0.00    -0.047 A 
ATOM      6  C4  UNL d   1       2.795  -0.302  -0.353  0.00  0.00    -0.004 A 
ENDROOT
TORSDOF 0
ENDMDL
