MODEL 1
REMARK minimizedAffinity 3.93866086
REMARK minimizedRMSD -1
REMARK  0 active torsions:
REMARK  status: ('A' for Active; 'I' for Inactive)
ROOT
ATOM      1  C   UNL d   1       2.143   0.926  -0.325  0.00  0.00     0.172 C 
ATOM      2  N   UNL d   1       3.563   1.144  -0.467  0.00  0.00    -0.070 N 
ATOM      3  C1  UNL d   1       4.219   1.394  -1.643  0.00  0.00    -0.004 A 
ATOM      4  C2  UNL d   1       5.558   1.543  -1.356  0.00  0.00    -0.047 A 
ATOM      5  C3  UNL d   1       5.714   1.376   0.040  0.00  0.00    -0.047 A 
ATOM      6  C4  UNL d   1       4.463   1.131   0.566  0.00  0.00    -0.004 A 
ENDROOT
TORSDOF 0
ENDMDL
