MODEL 1
REMARK minimizedAffinity -0.763799071
REMARK minimizedRMSD -1
REMARK  0 active torsions:
REMARK  status: ('A' for Active; 'I' for Inactive)
ROOT
ATOM      1  C   UNL d   1       3.760   6.000   4.266  0.00  0.00     0.172 C 
ATOM      2  N   UNL d   1       3.290   4.707   4.705  0.00  0.00    -0.070 N 
ATOM      3  C1  UNL d   1       3.002   4.359   5.998  0.00  0.00    -0.004 A 
ATOM      4  C2  UNL d   1       2.585   3.046   5.999  0.00  0.00    -0.047 A 
ATOM      5  C3  UNL d   1       2.624   2.588   4.661  0.00  0.00    -0.047 A 
ATOM      6  C4  UNL d   1       3.064   3.636   3.881  0.00  0.00    -0.004 A 
ENDROOT
TORSDOF 0
ENDMDL
