MODEL 1
REMARK minimizedAffinity 0.390641153
REMARK minimizedRMSD -1
REMARK  0 active torsions:
REMARK  status: ('A' for Active; 'I' for Inactive)
ROOT
ATOM      1  C   UNL d   1       3.753   5.999   4.499  0.00  0.00     0.172 C 
ATOM      2  N   UNL d   1       3.730   4.604   4.873  0.00  0.00    -0.070 N 
ATOM      3  C1  UNL d   1       3.146   4.089   5.999  0.00  0.00    -0.004 A 
ATOM      4  C2  UNL d   1       3.342   2.725   5.989  0.00  0.00    -0.047 A 
ATOM      5  C3  UNL d   1       4.070   2.410   4.818  0.00  0.00    -0.047 A 
ATOM      6  C4  UNL d   1       4.298   3.592   4.145  0.00  0.00    -0.004 A 
ENDROOT
TORSDOF 0
ENDMDL
