MODEL 1
REMARK minimizedAffinity -1.45138836
REMARK minimizedRMSD -1
REMARK  2 active torsions:
REMARK  status: ('A' for Active; 'I' for Inactive)
REMARK    1  A    between atoms: C2'_3  and  C1'_4 
REMARK    2  A    between atoms: C1'_4  and  C1_5 
ROOT
ATOM      1  C1  I4B d   1      -0.299   0.056   0.213  0.00  0.00    -0.075 A 
ATOM      2  C2  I4B d   1      -0.941   0.703  -0.814  0.00  0.00     0.003 A 
ATOM      3  C3  I4B d   1      -2.224   1.267  -0.610  0.00  0.00     0.002 A 
ATOM      4  C4  I4B d   1      -2.845   1.118   0.613  0.00  0.00    -0.004 A 
ATOM      5  C5  I4B d   1      -2.183   0.482   1.660  0.00  0.00     0.002 A 
ATOM      6  C6  I4B d   1      -0.897  -0.041   1.463  0.00  0.00     0.003 A 
ENDROOT
BRANCH   1   7
ATOM      7  C1' I4B d   1       1.040  -0.557  -0.047  0.00  0.00     0.060 C 
BRANCH   7   8
ATOM      8  C2' I4B d   1       1.962  -0.164   1.090  0.00  0.00    -0.013 C 
ATOM      9  C4' I4B d   1       3.159  -1.074   1.161  0.00  0.00     0.013 C 
ATOM     10  C3' I4B d   1       2.376   1.262   0.878  0.00  0.00     0.013 C 
ENDBRANCH   7   8
ENDBRANCH   1   7
TORSDOF 2
ENDMDL
