MODEL 1
REMARK minimizedAffinity -1.67837727
REMARK minimizedRMSD -1
REMARK  2 active torsions:
REMARK  status: ('A' for Active; 'I' for Inactive)
REMARK    1  A    between atoms: C2'_3  and  C1'_4 
REMARK    2  A    between atoms: C1'_4  and  C1_5 
ROOT
ATOM      1  C1  I4B d   1       0.938   0.030   0.993  0.00  0.00    -0.075 A 
ATOM      2  C2  I4B d   1      -0.220  -0.099   0.268  0.00  0.00     0.003 A 
ATOM      3  C3  I4B d   1      -0.742   1.008  -0.444  0.00  0.00     0.002 A 
ATOM      4  C4  I4B d   1      -0.106   2.230  -0.361  0.00  0.00    -0.004 A 
ATOM      5  C5  I4B d   1       1.080   2.353   0.356  0.00  0.00     0.002 A 
ATOM      6  C6  I4B d   1       1.613   1.243   1.028  0.00  0.00     0.003 A 
ENDROOT
BRANCH   1   7
ATOM      7  C1' I4B d   1       1.444  -1.151   1.759  0.00  0.00     0.060 C 
BRANCH   7   8
ATOM      8  C2' I4B d   1       2.329  -1.963   0.835  0.00  0.00    -0.013 C 
ATOM      9  C4' I4B d   1       1.724  -2.076  -0.539  0.00  0.00     0.013 C 
ATOM     10  C3' I4B d   1       3.673  -1.301   0.783  0.00  0.00     0.013 C 
ENDBRANCH   7   8
ENDBRANCH   1   7
TORSDOF 2
ENDMDL
