MODEL 1
REMARK minimizedAffinity -4.00707531
REMARK minimizedRMSD -1
REMARK  2 active torsions:
REMARK  status: ('A' for Active; 'I' for Inactive)
REMARK    1  A    between atoms: C2'_3  and  C1'_4 
REMARK    2  A    between atoms: C1'_4  and  C1_5 
ROOT
ATOM      1  C1  I4B d   1      -0.684   0.515  -0.251  0.00  0.00    -0.075 A 
ATOM      2  C2  I4B d   1       0.220   1.199   0.522  0.00  0.00     0.003 A 
ATOM      3  C3  I4B d   1       1.450   0.598   0.881  0.00  0.00     0.002 A 
ATOM      4  C4  I4B d   1       1.712  -0.700   0.491  0.00  0.00    -0.004 A 
ATOM      5  C5  I4B d   1       0.803  -1.384  -0.312  0.00  0.00     0.002 A 
ATOM      6  C6  I4B d   1      -0.397  -0.769  -0.696  0.00  0.00     0.003 A 
ENDROOT
BRANCH   1   7
ATOM      7  C1' I4B d   1      -1.988   1.169  -0.584  0.00  0.00     0.060 C 
BRANCH   7   8
ATOM      8  C2' I4B d   1      -2.991   0.781   0.483  0.00  0.00    -0.013 C 
ATOM      9  C4' I4B d   1      -3.107   1.851   1.536  0.00  0.00     0.013 C 
ATOM     10  C3' I4B d   1      -4.310   0.536  -0.187  0.00  0.00     0.013 C 
ENDBRANCH   7   8
ENDBRANCH   1   7
TORSDOF 2
ENDMDL
