MODEL 1
REMARK minimizedAffinity -4.79389906
REMARK minimizedRMSD -1
REMARK  2 active torsions:
REMARK  status: ('A' for Active; 'I' for Inactive)
REMARK    1  A    between atoms: C2'_3  and  C1'_4 
REMARK    2  A    between atoms: C1'_4  and  C1_5 
ROOT
ATOM      1  C1  I4B d   1      -0.497   0.296   0.551  0.00  0.00    -0.075 A 
ATOM      2  C2  I4B d   1      -1.143   0.019   1.730  0.00  0.00     0.003 A 
ATOM      3  C3  I4B d   1      -2.521   0.311   1.874  0.00  0.00     0.002 A 
ATOM      4  C4  I4B d   1      -3.198   0.922   0.839  0.00  0.00    -0.004 A 
ATOM      5  C5  I4B d   1      -2.548   1.181  -0.364  0.00  0.00     0.002 A 
ATOM      6  C6  I4B d   1      -1.192   0.855  -0.514  0.00  0.00     0.003 A 
ENDROOT
BRANCH   1   7
ATOM      7  C1' I4B d   1       0.966   0.005   0.444  0.00  0.00     0.060 C 
BRANCH   7   8
ATOM      8  C2' I4B d   1       1.177  -1.456   0.786  0.00  0.00    -0.013 C 
ATOM      9  C4' I4B d   1       1.440  -2.274  -0.451  0.00  0.00     0.013 C 
ATOM     10  C3' I4B d   1       2.325  -1.545   1.748  0.00  0.00     0.013 C 
ENDBRANCH   7   8
ENDBRANCH   1   7
TORSDOF 2
ENDMDL
