MODEL 1
REMARK minimizedAffinity -1.96456468
REMARK minimizedRMSD -1
REMARK  2 active torsions:
REMARK  status: ('A' for Active; 'I' for Inactive)
REMARK    1  A    between atoms: C2'_3  and  C1'_4 
REMARK    2  A    between atoms: C1'_4  and  C1_5 
ROOT
ATOM      1  C1  I4B d   1      -0.377  -0.335  -0.103  0.00  0.00    -0.075 A 
ATOM      2  C2  I4B d   1       0.576   0.373   0.586  0.00  0.00     0.003 A 
ATOM      3  C3  I4B d   1       1.852  -0.194   0.823  0.00  0.00     0.002 A 
ATOM      4  C4  I4B d   1       2.114  -1.481   0.399  0.00  0.00    -0.004 A 
ATOM      5  C5  I4B d   1       1.154  -2.188  -0.320  0.00  0.00     0.002 A 
ATOM      6  C6  I4B d   1      -0.095  -1.607  -0.584  0.00  0.00     0.003 A 
ENDROOT
BRANCH   1   7
ATOM      7  C1' I4B d   1      -1.725   0.281  -0.306  0.00  0.00     0.060 C 
BRANCH   7   8
ATOM      8  C2' I4B d   1      -2.513   0.114   0.977  0.00  0.00    -0.013 C 
ATOM      9  C4' I4B d   1      -2.416   1.344   1.840  0.00  0.00     0.013 C 
ATOM     10  C3' I4B d   1      -3.937  -0.180   0.612  0.00  0.00     0.013 C 
ENDBRANCH   7   8
ENDBRANCH   1   7
TORSDOF 2
ENDMDL
