MODEL 1
REMARK minimizedAffinity -3.43178701
REMARK minimizedRMSD -1
REMARK  0 active torsions:
REMARK  status: ('A' for Active; 'I' for Inactive)
ROOT
ATOM      1  C   UNL d   1      -3.442  -3.941  -1.029  0.00  0.00     0.078 C 
ATOM      2  C1  UNL d   1      -2.058  -3.380  -1.167  0.00  0.00    -0.077 A 
ATOM      3  C2  UNL d   1      -1.397  -3.386  -2.402  0.00  0.00    -0.001 A 
ATOM      4  C3  UNL d   1      -0.105  -2.870  -2.513  0.00  0.00     0.003 A 
ATOM      5  C4  UNL d   1       0.537  -2.345  -1.394  0.00  0.00    -0.005 A 
ATOM      6  C5  UNL d   1      -0.112  -2.336  -0.161  0.00  0.00     0.003 A 
ATOM      7  C6  UNL d   1      -1.404  -2.852  -0.047  0.00  0.00    -0.001 A 
ENDROOT
TORSDOF 0
ENDMDL
