MODEL 1
REMARK minimizedAffinity -3.32533383
REMARK minimizedRMSD -1
REMARK  0 active torsions:
REMARK  status: ('A' for Active; 'I' for Inactive)
ROOT
ATOM      1  C   UNL d   1      -1.044   0.892   0.161  0.00  0.00     0.078 C 
ATOM      2  C1  UNL d   1      -0.752  -0.470  -0.394  0.00  0.00    -0.077 A 
ATOM      3  C2  UNL d   1      -1.482  -0.980  -1.474  0.00  0.00    -0.001 A 
ATOM      4  C3  UNL d   1      -1.207  -2.254  -1.974  0.00  0.00     0.003 A 
ATOM      5  C4  UNL d   1      -0.201  -3.028  -1.399  0.00  0.00    -0.005 A 
ATOM      6  C5  UNL d   1       0.530  -2.530  -0.323  0.00  0.00     0.003 A 
ATOM      7  C6  UNL d   1       0.255  -1.257   0.179  0.00  0.00    -0.001 A 
ENDROOT
TORSDOF 0
ENDMDL
