MODEL 1
REMARK minimizedAffinity -4.41242456
REMARK minimizedRMSD -1
REMARK  0 active torsions:
REMARK  status: ('A' for Active; 'I' for Inactive)
ROOT
ATOM      1  C   UNL d   1      -0.952  -2.370  -0.404  0.00  0.00     0.078 C 
ATOM      2  C1  UNL d   1      -0.912  -0.935   0.030  0.00  0.00    -0.077 A 
ATOM      3  C2  UNL d   1      -2.016  -0.094  -0.157  0.00  0.00    -0.001 A 
ATOM      4  C3  UNL d   1      -1.960   1.243   0.242  0.00  0.00     0.003 A 
ATOM      5  C4  UNL d   1      -0.803   1.750   0.830  0.00  0.00    -0.005 A 
ATOM      6  C5  UNL d   1       0.301   0.921   1.018  0.00  0.00     0.003 A 
ATOM      7  C6  UNL d   1       0.247  -0.415   0.619  0.00  0.00    -0.001 A 
ENDROOT
TORSDOF 0
ENDMDL
