MODEL 1
REMARK minimizedAffinity -0.685330212
REMARK minimizedRMSD -1
REMARK  0 active torsions:
REMARK  status: ('A' for Active; 'I' for Inactive)
ROOT
ATOM      1  C   UNL d   1      -0.574  -2.004  -0.748  0.00  0.00     0.078 C 
ATOM      2  C1  UNL d   1      -0.780  -0.659  -0.118  0.00  0.00    -0.077 A 
ATOM      3  C2  UNL d   1      -2.017  -0.008  -0.196  0.00  0.00    -0.001 A 
ATOM      4  C3  UNL d   1      -2.191   1.248   0.387  0.00  0.00     0.003 A 
ATOM      5  C4  UNL d   1      -1.133   1.865   1.051  0.00  0.00    -0.005 A 
ATOM      6  C5  UNL d   1       0.103   1.225   1.132  0.00  0.00     0.003 A 
ATOM      7  C6  UNL d   1       0.279  -0.031   0.549  0.00  0.00    -0.001 A 
ENDROOT
TORSDOF 0
ENDMDL
