MODEL 1
REMARK minimizedAffinity -2.49416971
REMARK minimizedRMSD -1
REMARK  0 active torsions:
REMARK  status: ('A' for Active; 'I' for Inactive)
ROOT
ATOM      1  C   UNL d   1       0.349  -0.821   0.111  0.00  0.00     0.078 C 
ATOM      2  C1  UNL d   1      -0.141  -1.754  -0.956  0.00  0.00    -0.077 A 
ATOM      3  C2  UNL d   1      -1.497  -2.088  -1.056  0.00  0.00    -0.001 A 
ATOM      4  C3  UNL d   1      -1.937  -2.964  -2.049  0.00  0.00     0.003 A 
ATOM      5  C4  UNL d   1      -1.027  -3.516  -2.949  0.00  0.00    -0.005 A 
ATOM      6  C5  UNL d   1       0.325  -3.192  -2.856  0.00  0.00     0.003 A 
ATOM      7  C6  UNL d   1       0.767  -2.315  -1.864  0.00  0.00    -0.001 A 
ENDROOT
TORSDOF 0
ENDMDL
