MODEL 1
REMARK minimizedAffinity -2.81010389
REMARK minimizedRMSD -1
REMARK  0 active torsions:
REMARK  status: ('A' for Active; 'I' for Inactive)
ROOT
ATOM      1  C   UNL d   1       0.006  -1.093  -0.424  0.00  0.00     0.078 C 
ATOM      2  C1  UNL d   1       0.365   0.300   0.001  0.00  0.00    -0.077 A 
ATOM      3  C2  UNL d   1      -0.623   1.275   0.183  0.00  0.00    -0.001 A 
ATOM      4  C3  UNL d   1      -0.274   2.570   0.569  0.00  0.00     0.003 A 
ATOM      5  C4  UNL d   1       1.063   2.902   0.775  0.00  0.00    -0.005 A 
ATOM      6  C5  UNL d   1       2.054   1.939   0.594  0.00  0.00     0.003 A 
ATOM      7  C6  UNL d   1       1.706   0.643   0.208  0.00  0.00    -0.001 A 
ENDROOT
TORSDOF 0
ENDMDL
