MODEL 1
REMARK minimizedAffinity -2.76470923
REMARK minimizedRMSD -1
REMARK  0 active torsions:
REMARK  status: ('A' for Active; 'I' for Inactive)
ROOT
ATOM      1  C   UNL d   1      -0.210  -1.785  -0.223  0.00  0.00     0.078 C 
ATOM      2  C1  UNL d   1      -0.084  -0.319   0.071  0.00  0.00    -0.077 A 
ATOM      3  C2  UNL d   1      -1.216   0.502   0.139  0.00  0.00    -0.001 A 
ATOM      4  C3  UNL d   1      -1.083   1.866   0.404  0.00  0.00     0.003 A 
ATOM      5  C4  UNL d   1       0.180   2.421   0.600  0.00  0.00    -0.005 A 
ATOM      6  C5  UNL d   1       1.312   1.612   0.532  0.00  0.00     0.003 A 
ATOM      7  C6  UNL d   1       1.181   0.248   0.267  0.00  0.00    -0.001 A 
ENDROOT
TORSDOF 0
ENDMDL
