MODEL 1
REMARK minimizedAffinity -4.38852262
REMARK minimizedRMSD -1
REMARK  0 active torsions:
REMARK  status: ('A' for Active; 'I' for Inactive)
ROOT
ATOM      1  C   UNL d   1      -0.550  -4.059  -1.723  0.00  0.00     0.078 C 
ATOM      2  C1  UNL d   1       0.002  -2.797  -1.131  0.00  0.00    -0.077 A 
ATOM      3  C2  UNL d   1      -0.652  -2.150  -0.075  0.00  0.00    -0.001 A 
ATOM      4  C3  UNL d   1      -0.132  -0.970   0.460  0.00  0.00     0.003 A 
ATOM      5  C4  UNL d   1       1.042  -0.426  -0.056  0.00  0.00    -0.005 A 
ATOM      6  C5  UNL d   1       1.698  -1.061  -1.108  0.00  0.00     0.003 A 
ATOM      7  C6  UNL d   1       1.180  -2.241  -1.644  0.00  0.00    -0.001 A 
ENDROOT
TORSDOF 0
ENDMDL
