MODEL 1
REMARK minimizedAffinity -1.56495261
REMARK minimizedRMSD -1
REMARK  0 active torsions:
REMARK  status: ('A' for Active; 'I' for Inactive)
ROOT
ATOM      1  C   UNL d   1       0.009   0.112   0.187  0.00  0.00     0.078 C 
ATOM      2  C1  UNL d   1      -0.135  -1.200  -0.526  0.00  0.00    -0.077 A 
ATOM      3  C2  UNL d   1      -1.166  -2.089  -0.198  0.00  0.00    -0.001 A 
ATOM      4  C3  UNL d   1      -1.282  -3.311  -0.863  0.00  0.00     0.003 A 
ATOM      5  C4  UNL d   1      -0.370  -3.655  -1.859  0.00  0.00    -0.005 A 
ATOM      6  C5  UNL d   1       0.660  -2.778  -2.190  0.00  0.00     0.003 A 
ATOM      7  C6  UNL d   1       0.778  -1.555  -1.526  0.00  0.00    -0.001 A 
ENDROOT
TORSDOF 0
ENDMDL
