MODEL 1
REMARK minimizedAffinity -2.44546247
REMARK minimizedRMSD -1
REMARK  0 active torsions:
REMARK  status: ('A' for Active; 'I' for Inactive)
ROOT
ATOM      1  C   UNL d   1      -0.121   0.037  -0.026  0.00  0.00     0.078 C 
ATOM      2  C1  UNL d   1      -0.219  -1.286  -0.725  0.00  0.00    -0.077 A 
ATOM      3  C2  UNL d   1       0.022  -1.396  -2.100  0.00  0.00    -0.001 A 
ATOM      4  C3  UNL d   1      -0.081  -2.632  -2.739  0.00  0.00     0.003 A 
ATOM      5  C4  UNL d   1      -0.427  -3.769  -2.011  0.00  0.00    -0.005 A 
ATOM      6  C5  UNL d   1      -0.671  -3.670  -0.643  0.00  0.00     0.003 A 
ATOM      7  C6  UNL d   1      -0.568  -2.434  -0.002  0.00  0.00    -0.001 A 
ENDROOT
TORSDOF 0
ENDMDL
