MODEL 1
REMARK minimizedAffinity -3.16238737
REMARK minimizedRMSD -1
REMARK  0 active torsions:
REMARK  status: ('A' for Active; 'I' for Inactive)
ROOT
ATOM      1  C   UNL d   1       2.910   1.655   1.083  0.00  0.00     0.078 C 
ATOM      2  C1  UNL d   1       1.474   1.275   0.874  0.00  0.00    -0.077 A 
ATOM      3  C2  UNL d   1       0.451   2.222   1.002  0.00  0.00    -0.001 A 
ATOM      4  C3  UNL d   1      -0.881   1.852   0.814  0.00  0.00     0.003 A 
ATOM      5  C4  UNL d   1      -1.203   0.533   0.499  0.00  0.00    -0.005 A 
ATOM      6  C5  UNL d   1      -0.192  -0.417   0.372  0.00  0.00     0.003 A 
ATOM      7  C6  UNL d   1       1.141  -0.049   0.560  0.00  0.00    -0.001 A 
ENDROOT
TORSDOF 0
ENDMDL
