MODEL 1
REMARK minimizedAffinity -2.22915888
REMARK minimizedRMSD -1
REMARK  0 active torsions:
REMARK  status: ('A' for Active; 'I' for Inactive)
ROOT
ATOM      1  C   UNL d   1       0.008  -0.423  -0.189  0.00  0.00     0.078 C 
ATOM      2  C1  UNL d   1       0.341   0.943   0.334  0.00  0.00    -0.077 A 
ATOM      3  C2  UNL d   1       1.649   1.273   0.708  0.00  0.00    -0.001 A 
ATOM      4  C3  UNL d   1       1.942   2.545   1.202  0.00  0.00     0.003 A 
ATOM      5  C4  UNL d   1       0.931   3.497   1.328  0.00  0.00    -0.005 A 
ATOM      6  C5  UNL d   1      -0.374   3.176   0.960  0.00  0.00     0.003 A 
ATOM      7  C6  UNL d   1      -0.669   1.905   0.466  0.00  0.00    -0.001 A 
ENDROOT
TORSDOF 0
ENDMDL
