MODEL 1
REMARK minimizedAffinity -4.48928022
REMARK minimizedRMSD -1
REMARK  0 active torsions:
REMARK  status: ('A' for Active; 'I' for Inactive)
ROOT
ATOM      1  C   UNL d   1      -0.076  -0.025   0.145  0.00  0.00     0.078 C 
ATOM      2  C1  UNL d   1      -0.336  -1.090  -0.878  0.00  0.00    -0.077 A 
ATOM      3  C2  UNL d   1      -0.218  -0.820  -2.247  0.00  0.00    -0.001 A 
ATOM      4  C3  UNL d   1      -0.473  -1.819  -3.188  0.00  0.00     0.003 A 
ATOM      5  C4  UNL d   1      -0.849  -3.094  -2.770  0.00  0.00    -0.005 A 
ATOM      6  C5  UNL d   1      -0.972  -3.371  -1.410  0.00  0.00     0.003 A 
ATOM      7  C6  UNL d   1      -0.717  -2.374  -0.468  0.00  0.00    -0.001 A 
ENDROOT
TORSDOF 0
ENDMDL
