MODEL 1
REMARK minimizedAffinity -4.25728846
REMARK minimizedRMSD -1
REMARK  0 active torsions:
REMARK  status: ('A' for Active; 'I' for Inactive)
ROOT
ATOM      1  C   UNL d   1       0.373  -0.291   0.183  0.00  0.00     0.078 C 
ATOM      2  C1  UNL d   1       0.014  -1.232  -0.928  0.00  0.00    -0.077 A 
ATOM      3  C2  UNL d   1       0.743  -1.247  -2.124  0.00  0.00    -0.001 A 
ATOM      4  C3  UNL d   1       0.392  -2.122  -3.153  0.00  0.00     0.003 A 
ATOM      5  C4  UNL d   1      -0.689  -2.986  -2.999  0.00  0.00    -0.005 A 
ATOM      6  C5  UNL d   1      -1.422  -2.977  -1.814  0.00  0.00     0.003 A 
ATOM      7  C6  UNL d   1      -1.072  -2.103  -0.783  0.00  0.00    -0.001 A 
ENDROOT
TORSDOF 0
ENDMDL
