MODEL 1
REMARK minimizedAffinity -1.29455268
REMARK minimizedRMSD -1
REMARK  0 active torsions:
REMARK  status: ('A' for Active; 'I' for Inactive)
ROOT
ATOM      1  C   UNL d   1      -1.145   2.565  -0.003  0.00  0.00     0.078 C 
ATOM      2  C1  UNL d   1      -0.903   1.132   0.366  0.00  0.00    -0.077 A 
ATOM      3  C2  UNL d   1      -1.565   0.546   1.452  0.00  0.00    -0.001 A 
ATOM      4  C3  UNL d   1      -1.322  -0.787   1.791  0.00  0.00     0.003 A 
ATOM      5  C4  UNL d   1      -0.418  -1.544   1.049  0.00  0.00    -0.005 A 
ATOM      6  C5  UNL d   1       0.247  -0.968  -0.032  0.00  0.00     0.003 A 
ATOM      7  C6  UNL d   1       0.006   0.364  -0.372  0.00  0.00    -0.001 A 
ENDROOT
TORSDOF 0
ENDMDL
