MODEL 1
REMARK minimizedAffinity -3.22739148
REMARK minimizedRMSD -1
REMARK  0 active torsions:
REMARK  status: ('A' for Active; 'I' for Inactive)
ROOT
ATOM      1  C   UNL d   1      -0.610   2.806   0.650  0.00  0.00     0.078 C 
ATOM      2  C1  UNL d   1       0.028   1.451   0.577  0.00  0.00    -0.077 A 
ATOM      3  C2  UNL d   1      -0.747   0.296   0.416  0.00  0.00    -0.001 A 
ATOM      4  C3  UNL d   1      -0.140  -0.959   0.359  0.00  0.00     0.003 A 
ATOM      5  C4  UNL d   1       1.245  -1.072   0.465  0.00  0.00    -0.005 A 
ATOM      6  C5  UNL d   1       2.024   0.071   0.628  0.00  0.00     0.003 A 
ATOM      7  C6  UNL d   1       1.419   1.327   0.684  0.00  0.00    -0.001 A 
ENDROOT
TORSDOF 0
ENDMDL
