MODEL 1
REMARK minimizedAffinity -3.20633841
REMARK minimizedRMSD -1
REMARK  1 active torsions:
REMARK  status: ('A' for Active; 'I' for Inactive)
REMARK    1  A    between atoms: N_2  and  C1_3 
ROOT
ATOM      1  C1  UNL d   1      -0.126   0.298  -1.007  0.00  0.00     0.143 A 
ATOM      2  C2  UNL d   1      -1.330  -0.032  -0.376  0.00  0.00    -0.057 A 
ATOM      3  C3  UNL d   1      -1.379  -0.307   0.997  0.00  0.00     0.033 A 
ATOM      4  C4  UNL d   1      -0.215  -0.284   1.758  0.00  0.00    -0.042 A 
ATOM      5  C5  UNL d   1       0.997   0.018   1.147  0.00  0.00     0.033 A 
ATOM      6  C6  UNL d   1       1.038   0.298  -0.222  0.00  0.00    -0.057 A 
ENDROOT
BRANCH   1   7
ATOM      7  N   UNL d   1       0.003   0.485  -2.386  0.00  0.00    -0.732 N 
ATOM      8  C   UNL d   1       0.927  -0.321  -3.155  0.00  0.00     0.284 C 
ATOM      9  H3  UNL d   1      -0.892   0.642  -2.842  0.00  0.00     0.395 HD
ENDBRANCH   1   7
TORSDOF 1
ENDMDL
