MODEL 1
REMARK minimizedAffinity -3.80331635
REMARK minimizedRMSD -1
REMARK  1 active torsions:
REMARK  status: ('A' for Active; 'I' for Inactive)
REMARK    1  A    between atoms: N_2  and  C1_3 
ROOT
ATOM      1  C1  UNL d   1       0.340   0.206  -0.052  0.00  0.00     0.143 A 
ATOM      2  C2  UNL d   1       1.264   0.735   0.855  0.00  0.00    -0.057 A 
ATOM      3  C3  UNL d   1       1.067   0.631   2.237  0.00  0.00     0.033 A 
ATOM      4  C4  UNL d   1      -0.077   0.019   2.738  0.00  0.00    -0.042 A 
ATOM      5  C5  UNL d   1      -1.022  -0.492   1.855  0.00  0.00     0.033 A 
ATOM      6  C6  UNL d   1      -0.816  -0.391   0.476  0.00  0.00    -0.057 A 
ENDROOT
BRANCH   1   7
ATOM      7  N   UNL d   1       0.430   0.365  -1.437  0.00  0.00    -0.732 N 
ATOM      8  C   UNL d   1       0.513  -0.789  -2.307  0.00  0.00     0.284 C 
ATOM      9  H3  UNL d   1      -0.176   1.104  -1.784  0.00  0.00     0.395 HD
ENDBRANCH   1   7
TORSDOF 1
ENDMDL
