MODEL 1
REMARK minimizedAffinity -3.65432978
REMARK minimizedRMSD -1
REMARK  1 active torsions:
REMARK  status: ('A' for Active; 'I' for Inactive)
REMARK    1  A    between atoms: N_2  and  C1_3 
ROOT
ATOM      1  C1  UNL d   1       0.359   0.336   1.810  0.00  0.00     0.143 A 
ATOM      2  C2  UNL d   1      -0.091  -0.046   0.542  0.00  0.00    -0.057 A 
ATOM      3  C3  UNL d   1       0.663   0.222  -0.607  0.00  0.00     0.033 A 
ATOM      4  C4  UNL d   1       1.870   0.906  -0.511  0.00  0.00    -0.042 A 
ATOM      5  C5  UNL d   1       2.325   1.317   0.737  0.00  0.00     0.033 A 
ATOM      6  C6  UNL d   1       1.571   1.040   1.882  0.00  0.00    -0.057 A 
ENDROOT
BRANCH   1   7
ATOM      7  N   UNL d   1      -0.391   0.186   2.979  0.00  0.00    -0.732 N 
ATOM      8  C   UNL d   1      -1.791   0.550   3.009  0.00  0.00     0.284 C 
ATOM      9  H3  UNL d   1      -0.176  -0.679   3.470  0.00  0.00     0.395 HD
ENDBRANCH   1   7
TORSDOF 1
ENDMDL
