MODEL 1
REMARK minimizedAffinity -4.55349922
REMARK minimizedRMSD -1
REMARK  1 active torsions:
REMARK  status: ('A' for Active; 'I' for Inactive)
REMARK    1  A    between atoms: N_2  and  C1_3 
ROOT
ATOM      1  C1  UNL d   1      -0.037   0.277  -0.134  0.00  0.00     0.143 A 
ATOM      2  C2  UNL d   1      -0.933  -0.384   0.713  0.00  0.00    -0.057 A 
ATOM      3  C3  UNL d   1      -0.577  -0.724   2.024  0.00  0.00     0.033 A 
ATOM      4  C4  UNL d   1       0.696  -0.434   2.503  0.00  0.00    -0.042 A 
ATOM      5  C5  UNL d   1       1.612   0.201   1.671  0.00  0.00     0.033 A 
ATOM      6  C6  UNL d   1       1.248   0.544   0.365  0.00  0.00    -0.057 A 
ENDROOT
BRANCH   1   7
ATOM      7  N   UNL d   1      -0.297   0.554  -1.478  0.00  0.00    -0.732 N 
ATOM      8  C   UNL d   1       0.448  -0.112  -2.525  0.00  0.00     0.284 C 
ATOM      9  H3  UNL d   1      -1.292   0.647  -1.670  0.00  0.00     0.395 HD
ENDBRANCH   1   7
TORSDOF 1
ENDMDL
