MODEL 1
REMARK minimizedAffinity -4.4678998
REMARK minimizedRMSD -1
REMARK  1 active torsions:
REMARK  status: ('A' for Active; 'I' for Inactive)
REMARK    1  A    between atoms: N_2  and  C1_3 
ROOT
ATOM      1  C1  UNL d   1      -0.062   0.220   1.160  0.00  0.00     0.143 A 
ATOM      2  C2  UNL d   1       0.246  -0.172   2.467  0.00  0.00    -0.057 A 
ATOM      3  C3  UNL d   1      -0.761  -0.418   3.408  0.00  0.00     0.033 A 
ATOM      4  C4  UNL d   1      -2.098  -0.247   3.065  0.00  0.00    -0.042 A 
ATOM      5  C5  UNL d   1      -2.427   0.166   1.779  0.00  0.00     0.033 A 
ATOM      6  C6  UNL d   1      -1.417   0.403   0.841  0.00  0.00    -0.057 A 
ENDROOT
BRANCH   1   7
ATOM      7  N   UNL d   1       0.896   0.575   0.207  0.00  0.00    -0.732 N 
ATOM      8  C   UNL d   1       0.649   0.360  -1.203  0.00  0.00     0.284 C 
ATOM      9  H3  UNL d   1       1.345   1.463   0.420  0.00  0.00     0.395 HD
ENDBRANCH   1   7
TORSDOF 1
ENDMDL
