MODEL 1
REMARK minimizedAffinity -2.85230947
REMARK minimizedRMSD -1
REMARK  1 active torsions:
REMARK  status: ('A' for Active; 'I' for Inactive)
REMARK    1  A    between atoms: N_2  and  C1_3 
ROOT
ATOM      1  C1  UNL d   1      -0.716  -0.107   0.544  0.00  0.00     0.143 A 
ATOM      2  C2  UNL d   1      -0.772  -0.147   1.941  0.00  0.00    -0.057 A 
ATOM      3  C3  UNL d   1      -1.974   0.068   2.626  0.00  0.00     0.033 A 
ATOM      4  C4  UNL d   1      -3.139   0.358   1.924  0.00  0.00    -0.042 A 
ATOM      5  C5  UNL d   1      -3.102   0.427   0.536  0.00  0.00     0.033 A 
ATOM      6  C6  UNL d   1      -1.900   0.205  -0.143  0.00  0.00    -0.057 A 
ENDROOT
BRANCH   1   7
ATOM      7  N   UNL d   1       0.468  -0.215  -0.191  0.00  0.00    -0.732 N 
ATOM      8  C   UNL d   1       0.559   0.333  -1.527  0.00  0.00     0.284 C 
ATOM      9  H3  UNL d   1       1.295  -0.058   0.381  0.00  0.00     0.395 HD
ENDBRANCH   1   7
TORSDOF 1
ENDMDL
