MODEL 1
REMARK minimizedAffinity -3.10768485
REMARK minimizedRMSD -1
REMARK  1 active torsions:
REMARK  status: ('A' for Active; 'I' for Inactive)
REMARK    1  A    between atoms: N_2  and  C1_3 
ROOT
ATOM      1  C1  UNL d   1       0.611   0.188  -1.775  0.00  0.00     0.143 A 
ATOM      2  C2  UNL d   1       1.379  -0.024  -0.625  0.00  0.00    -0.057 A 
ATOM      3  C3  UNL d   1       0.827   0.117   0.654  0.00  0.00     0.033 A 
ATOM      4  C4  UNL d   1      -0.501   0.502   0.806  0.00  0.00    -0.042 A 
ATOM      5  C5  UNL d   1      -1.277   0.742  -0.322  0.00  0.00     0.033 A 
ATOM      6  C6  UNL d   1      -0.722   0.594  -1.597  0.00  0.00    -0.057 A 
ENDROOT
BRANCH   1   7
ATOM      7  N   UNL d   1       1.128   0.161  -3.072  0.00  0.00    -0.732 N 
ATOM      8  C   UNL d   1       1.170  -1.076  -3.823  0.00  0.00     0.284 C 
ATOM      9  H3  UNL d   1       0.845   0.970  -3.620  0.00  0.00     0.395 HD
ENDBRANCH   1   7
TORSDOF 1
ENDMDL
