MODEL 1
REMARK minimizedAffinity 1.05713749
REMARK minimizedRMSD -1
REMARK  1 active torsions:
REMARK  status: ('A' for Active; 'I' for Inactive)
REMARK    1  A    between atoms: N_2  and  C1_3 
ROOT
ATOM      1  C1  UNL d   1      -1.397  -0.599  -0.082  0.00  0.00     0.143 A 
ATOM      2  C2  UNL d   1      -1.725  -1.867  -0.574  0.00  0.00    -0.057 A 
ATOM      3  C3  UNL d   1      -2.315  -2.835   0.248  0.00  0.00     0.033 A 
ATOM      4  C4  UNL d   1      -2.562  -2.560   1.589  0.00  0.00    -0.042 A 
ATOM      5  C5  UNL d   1      -2.221  -1.315   2.106  0.00  0.00     0.033 A 
ATOM      6  C6  UNL d   1      -1.638  -0.351   1.278  0.00  0.00    -0.057 A 
ENDROOT
BRANCH   1   7
ATOM      7  N   UNL d   1      -0.718   0.371  -0.823  0.00  0.00    -0.732 N 
ATOM      8  C   UNL d   1       0.727   0.434  -0.807  0.00  0.00     0.284 C 
ATOM      9  H3  UNL d   1      -1.131   0.517  -1.742  0.00  0.00     0.395 HD
ENDBRANCH   1   7
TORSDOF 1
ENDMDL
