MODEL 1
REMARK minimizedAffinity -3.36297083
REMARK minimizedRMSD -1
REMARK  1 active torsions:
REMARK  status: ('A' for Active; 'I' for Inactive)
REMARK    1  A    between atoms: N_2  and  C1_3 
ROOT
ATOM      1  C1  UNL d   1       0.371   0.845   2.740  0.00  0.00     0.143 A 
ATOM      2  C2  UNL d   1      -0.672  -0.087   2.714  0.00  0.00    -0.057 A 
ATOM      3  C3  UNL d   1      -1.045  -0.727   1.526  0.00  0.00     0.033 A 
ATOM      4  C4  UNL d   1      -0.398  -0.422   0.332  0.00  0.00    -0.042 A 
ATOM      5  C5  UNL d   1       0.625   0.520   0.330  0.00  0.00     0.033 A 
ATOM      6  C6  UNL d   1       0.997   1.150   1.521  0.00  0.00    -0.057 A 
ENDROOT
BRANCH   1   7
ATOM      7  N   UNL d   1       0.723   1.587   3.870  0.00  0.00    -0.732 N 
ATOM      8  C   UNL d   1       0.622   3.030   3.866  0.00  0.00     0.284 C 
ATOM      9  H3  UNL d   1       0.409   1.151   4.734  0.00  0.00     0.395 HD
ENDBRANCH   1   7
TORSDOF 1
ENDMDL
