MODEL 1
REMARK minimizedAffinity -4.89251137
REMARK minimizedRMSD -1
REMARK  1 active torsions:
REMARK  status: ('A' for Active; 'I' for Inactive)
REMARK    1  A    between atoms: N_2  and  C1_3 
ROOT
ATOM      1  C1  UNL d   1      -0.721   0.207   0.422  0.00  0.00     0.143 A 
ATOM      2  C2  UNL d   1       0.252   0.217   1.426  0.00  0.00    -0.057 A 
ATOM      3  C3  UNL d   1      -0.074  -0.071   2.757  0.00  0.00     0.033 A 
ATOM      4  C4  UNL d   1      -1.390  -0.347   3.112  0.00  0.00    -0.042 A 
ATOM      5  C5  UNL d   1      -2.379  -0.338   2.135  0.00  0.00     0.033 A 
ATOM      6  C6  UNL d   1      -2.045  -0.057   0.806  0.00  0.00    -0.057 A 
ENDROOT
BRANCH   1   7
ATOM      7  N   UNL d   1      -0.477   0.581  -0.902  0.00  0.00    -0.732 N 
ATOM      8  C   UNL d   1       0.694   0.098  -1.601  0.00  0.00     0.284 C 
ATOM      9  H3  UNL d   1      -1.324   0.587  -1.466  0.00  0.00     0.395 HD
ENDBRANCH   1   7
TORSDOF 1
ENDMDL
