MODEL 1
REMARK minimizedAffinity -5.60072041
REMARK minimizedRMSD -1
REMARK  0 active torsions:
REMARK  status: ('A' for Active; 'I' for Inactive)
ROOT
ATOM      1  C   UNL d   1       0.072   0.863   0.036  0.00  0.00     0.078 C 
ATOM      2  C1  UNL d   1      -0.801  -0.162   0.695  0.00  0.00    -0.077 A 
ATOM      3  C2  UNL d   1      -1.963   0.213   1.380  0.00  0.00    -0.001 A 
ATOM      4  C3  UNL d   1      -2.761  -0.752   1.997  0.00  0.00     0.003 A 
ATOM      5  C4  UNL d   1      -2.405  -2.098   1.936  0.00  0.00    -0.005 A 
ATOM      6  C5  UNL d   1      -1.249  -2.480   1.259  0.00  0.00     0.003 A 
ATOM      7  C6  UNL d   1      -0.450  -1.517   0.641  0.00  0.00    -0.001 A 
ENDROOT
TORSDOF 0
ENDMDL
