MODEL 1
REMARK minimizedAffinity -3.18518519
REMARK minimizedRMSD -1
REMARK  0 active torsions:
REMARK  status: ('A' for Active; 'I' for Inactive)
ROOT
ATOM      1  C   UNL d   1      -0.654  -2.536   1.188  0.00  0.00     0.078 C 
ATOM      2  C1  UNL d   1      -0.069  -1.243   0.702  0.00  0.00    -0.077 A 
ATOM      3  C2  UNL d   1       1.285  -1.147   0.360  0.00  0.00    -0.001 A 
ATOM      4  C3  UNL d   1       1.818   0.065  -0.082  0.00  0.00     0.003 A 
ATOM      5  C4  UNL d   1       1.003   1.190  -0.186  0.00  0.00    -0.005 A 
ATOM      6  C5  UNL d   1      -0.346   1.105   0.154  0.00  0.00     0.003 A 
ATOM      7  C6  UNL d   1      -0.880  -0.106   0.596  0.00  0.00    -0.001 A 
ENDROOT
TORSDOF 0
ENDMDL
