MODEL 1
REMARK minimizedAffinity -4.49324894
REMARK minimizedRMSD -1
REMARK  0 active torsions:
REMARK  status: ('A' for Active; 'I' for Inactive)
ROOT
ATOM      1  C   UNL d   1      -1.935  -2.703   0.858  0.00  0.00     0.078 C 
ATOM      2  C1  UNL d   1      -0.883  -1.682   0.542  0.00  0.00    -0.077 A 
ATOM      3  C2  UNL d   1      -1.226  -0.351   0.277  0.00  0.00    -0.001 A 
ATOM      4  C3  UNL d   1      -0.238   0.586  -0.025  0.00  0.00     0.003 A 
ATOM      5  C4  UNL d   1       1.101   0.203  -0.066  0.00  0.00    -0.005 A 
ATOM      6  C5  UNL d   1       1.453  -1.120   0.194  0.00  0.00     0.003 A 
ATOM      7  C6  UNL d   1       0.465  -2.059   0.496  0.00  0.00    -0.001 A 
ENDROOT
TORSDOF 0
ENDMDL
