MODEL 1
REMARK minimizedAffinity -2.56143117
REMARK minimizedRMSD -1
REMARK  0 active torsions:
REMARK  status: ('A' for Active; 'I' for Inactive)
ROOT
ATOM      1  C   UNL d   1      -2.247  -3.039   1.367  0.00  0.00     0.078 C 
ATOM      2  C1  UNL d   1      -1.143  -2.079   1.038  0.00  0.00    -0.077 A 
ATOM      3  C2  UNL d   1       0.191  -2.502   0.993  0.00  0.00    -0.001 A 
ATOM      4  C3  UNL d   1       1.210  -1.595   0.695  0.00  0.00     0.003 A 
ATOM      5  C4  UNL d   1       0.905  -0.259   0.441  0.00  0.00    -0.005 A 
ATOM      6  C5  UNL d   1      -0.419   0.172   0.486  0.00  0.00     0.003 A 
ATOM      7  C6  UNL d   1      -1.439  -0.734   0.784  0.00  0.00    -0.001 A 
ENDROOT
TORSDOF 0
ENDMDL
