MODEL 1
REMARK minimizedAffinity -3.15934849
REMARK minimizedRMSD -1
REMARK  0 active torsions:
REMARK  status: ('A' for Active; 'I' for Inactive)
ROOT
ATOM      1  C   UNL d   1       0.689   2.614   0.016  0.00  0.00     0.078 C 
ATOM      2  C1  UNL d   1       0.881   2.501  -1.467  0.00  0.00    -0.077 A 
ATOM      3  C2  UNL d   1      -0.081   2.992  -2.359  0.00  0.00    -0.001 A 
ATOM      4  C3  UNL d   1       0.107   2.871  -3.736  0.00  0.00     0.003 A 
ATOM      5  C4  UNL d   1       1.254   2.257  -4.235  0.00  0.00    -0.005 A 
ATOM      6  C5  UNL d   1       2.215   1.763  -3.356  0.00  0.00     0.003 A 
ATOM      7  C6  UNL d   1       2.030   1.884  -1.978  0.00  0.00    -0.001 A 
ENDROOT
TORSDOF 0
ENDMDL
