MODEL 1
REMARK minimizedAffinity -2.50207734
REMARK minimizedRMSD -1
REMARK  0 active torsions:
REMARK  status: ('A' for Active; 'I' for Inactive)
ROOT
ATOM      1  C   UNL d   1       2.796   1.722  -2.946  0.00  0.00     0.078 C 
ATOM      2  C1  UNL d   1       1.543   1.878  -2.137  0.00  0.00    -0.077 A 
ATOM      3  C2  UNL d   1       1.485   1.442  -0.807  0.00  0.00    -0.001 A 
ATOM      4  C3  UNL d   1       0.309   1.585  -0.069  0.00  0.00     0.003 A 
ATOM      5  C4  UNL d   1      -0.817   2.162  -0.651  0.00  0.00    -0.005 A 
ATOM      6  C5  UNL d   1      -0.769   2.597  -1.974  0.00  0.00     0.003 A 
ATOM      7  C6  UNL d   1       0.406   2.455  -2.714  0.00  0.00    -0.001 A 
ENDROOT
TORSDOF 0
ENDMDL
