MODEL 1
REMARK minimizedAffinity -5.66412926
REMARK minimizedRMSD -1
REMARK  0 active torsions:
REMARK  status: ('A' for Active; 'I' for Inactive)
ROOT
ATOM      1  C   UNL d   1       0.511  -0.645  -0.128  0.00  0.00     0.078 C 
ATOM      2  C1  UNL d   1      -0.764  -0.857   0.633  0.00  0.00    -0.077 A 
ATOM      3  C2  UNL d   1      -1.625   0.212   0.908  0.00  0.00    -0.001 A 
ATOM      4  C3  UNL d   1      -2.804   0.002   1.626  0.00  0.00     0.003 A 
ATOM      5  C4  UNL d   1      -3.131  -1.275   2.076  0.00  0.00    -0.005 A 
ATOM      6  C5  UNL d   1      -2.279  -2.345   1.809  0.00  0.00     0.003 A 
ATOM      7  C6  UNL d   1      -1.100  -2.137   1.091  0.00  0.00    -0.001 A 
ENDROOT
TORSDOF 0
ENDMDL
