MODEL 1
REMARK minimizedAffinity -3.54440284
REMARK minimizedRMSD -1
REMARK  0 active torsions:
REMARK  status: ('A' for Active; 'I' for Inactive)
ROOT
ATOM      1  C   UNL d   1      -0.971  -2.837   1.221  0.00  0.00     0.078 C 
ATOM      2  C1  UNL d   1      -0.415  -1.553   0.680  0.00  0.00    -0.077 A 
ATOM      3  C2  UNL d   1       0.959  -1.400   0.456  0.00  0.00    -0.001 A 
ATOM      4  C3  UNL d   1       1.463  -0.196  -0.038  0.00  0.00     0.003 A 
ATOM      5  C4  UNL d   1       0.601   0.864  -0.311  0.00  0.00    -0.005 A 
ATOM      6  C5  UNL d   1      -0.767   0.722  -0.089  0.00  0.00     0.003 A 
ATOM      7  C6  UNL d   1      -1.273  -0.481   0.405  0.00  0.00    -0.001 A 
ENDROOT
TORSDOF 0
ENDMDL
