MODEL 1
REMARK minimizedAffinity -6.22674417
REMARK minimizedRMSD -1
REMARK  0 active torsions:
REMARK  status: ('A' for Active; 'I' for Inactive)
ROOT
ATOM      1  C   UNL d   1       0.631   1.028  -0.220  0.00  0.00     0.078 C 
ATOM      2  C1  UNL d   1      -0.015  -0.269   0.167  0.00  0.00    -0.077 A 
ATOM      3  C2  UNL d   1       0.757  -1.387   0.506  0.00  0.00    -0.001 A 
ATOM      4  C3  UNL d   1       0.142  -2.591   0.854  0.00  0.00     0.003 A 
ATOM      5  C4  UNL d   1      -1.248  -2.689   0.865  0.00  0.00    -0.005 A 
ATOM      6  C5  UNL d   1      -2.024  -1.583   0.526  0.00  0.00     0.003 A 
ATOM      7  C6  UNL d   1      -1.411  -0.378   0.178  0.00  0.00    -0.001 A 
ENDROOT
TORSDOF 0
ENDMDL
