MODEL 1
REMARK minimizedAffinity -5.06491375
REMARK minimizedRMSD -1
REMARK  0 active torsions:
REMARK  status: ('A' for Active; 'I' for Inactive)
ROOT
ATOM      1  C   UNL d   1      -2.061  -2.890   1.065  0.00  0.00     0.078 C 
ATOM      2  C1  UNL d   1      -0.939  -1.962   0.705  0.00  0.00    -0.077 A 
ATOM      3  C2  UNL d   1       0.392  -2.301   0.977  0.00  0.00    -0.001 A 
ATOM      4  C3  UNL d   1       1.426  -1.424   0.645  0.00  0.00     0.003 A 
ATOM      5  C4  UNL d   1       1.139  -0.201   0.041  0.00  0.00    -0.005 A 
ATOM      6  C5  UNL d   1      -0.182   0.145  -0.232  0.00  0.00     0.003 A 
ATOM      7  C6  UNL d   1      -1.217  -0.731   0.099  0.00  0.00    -0.001 A 
ENDROOT
TORSDOF 0
ENDMDL
