MODEL 1
REMARK minimizedAffinity -6.59028053
REMARK minimizedRMSD -1
REMARK  2 active torsions:
REMARK  status: ('A' for Active; 'I' for Inactive)
REMARK    1  A    between atoms: C2'_3  and  C1'_4 
REMARK    2  A    between atoms: C1'_4  and  C1_5 
ROOT
ATOM      1  C1  I4B d   1       0.067  -0.048  -0.517  0.00  0.00    -0.075 A 
ATOM      2  C2  I4B d   1      -0.952   0.143   0.382  0.00  0.00     0.003 A 
ATOM      3  C3  I4B d   1      -0.732  -0.069   1.765  0.00  0.00     0.002 A 
ATOM      4  C4  I4B d   1       0.499  -0.519   2.196  0.00  0.00    -0.004 A 
ATOM      5  C5  I4B d   1       1.538  -0.691   1.285  0.00  0.00     0.002 A 
ATOM      6  C6  I4B d   1       1.324  -0.442  -0.078  0.00  0.00     0.003 A 
ENDROOT
BRANCH   1   7
ATOM      7  C1' I4B d   1      -0.209   0.154  -1.973  0.00  0.00     0.060 C 
BRANCH   7   8
ATOM      8  C2' I4B d   1      -1.049   1.407  -2.120  0.00  0.00    -0.013 C 
ATOM      9  C4' I4B d   1      -0.225   2.557  -2.635  0.00  0.00     0.013 C 
ATOM     10  C3' I4B d   1      -2.186   1.096  -3.047  0.00  0.00     0.013 C 
ENDBRANCH   7   8
ENDBRANCH   1   7
TORSDOF 2
ENDMDL
