MODEL 1
REMARK minimizedAffinity -5.62632418
REMARK minimizedRMSD -1
REMARK  2 active torsions:
REMARK  status: ('A' for Active; 'I' for Inactive)
REMARK    1  A    between atoms: C2'_3  and  C1'_4 
REMARK    2  A    between atoms: C1'_4  and  C1_5 
ROOT
ATOM      1  C1  I4B d   1      -0.275   0.763  -0.303  0.00  0.00    -0.075 A 
ATOM      2  C2  I4B d   1       0.948   0.154  -0.174  0.00  0.00     0.003 A 
ATOM      3  C3  I4B d   1       1.354  -0.372   1.076  0.00  0.00     0.002 A 
ATOM      4  C4  I4B d   1       0.533  -0.224   2.175  0.00  0.00    -0.004 A 
ATOM      5  C5  I4B d   1      -0.717   0.373   2.037  0.00  0.00     0.002 A 
ATOM      6  C6  I4B d   1      -1.130   0.859   0.788  0.00  0.00     0.003 A 
ENDROOT
BRANCH   1   7
ATOM      7  C1' I4B d   1      -0.659   1.336  -1.631  0.00  0.00     0.060 C 
BRANCH   7   8
ATOM      8  C2' I4B d   1      -0.037   2.714  -1.741  0.00  0.00    -0.013 C 
ATOM      9  C4' I4B d   1       0.809   2.833  -2.981  0.00  0.00     0.013 C 
ATOM     10  C3' I4B d   1      -1.146   3.723  -1.743  0.00  0.00     0.013 C 
ENDBRANCH   7   8
ENDBRANCH   1   7
TORSDOF 2
ENDMDL
