MODEL 1
REMARK minimizedAffinity -2.47691464
REMARK minimizedRMSD -1
REMARK  2 active torsions:
REMARK  status: ('A' for Active; 'I' for Inactive)
REMARK    1  A    between atoms: C2'_3  and  C1'_4 
REMARK    2  A    between atoms: C1'_4  and  C1_5 
ROOT
ATOM      1  C1  I4B d   1      -0.616   0.430  -0.664  0.00  0.00    -0.075 A 
ATOM      2  C2  I4B d   1      -1.223   0.485   0.566  0.00  0.00     0.003 A 
ATOM      3  C3  I4B d   1      -0.646  -0.178   1.676  0.00  0.00     0.002 A 
ATOM      4  C4  I4B d   1       0.504  -0.921   1.502  0.00  0.00    -0.004 A 
ATOM      5  C5  I4B d   1       1.130  -0.957   0.259  0.00  0.00     0.002 A 
ATOM      6  C6  I4B d   1       0.574  -0.267  -0.828  0.00  0.00     0.003 A 
ENDROOT
BRANCH   1   7
ATOM      7  C1' I4B d   1      -1.271   1.114  -1.822  0.00  0.00     0.060 C 
BRANCH   7   8
ATOM      8  C2' I4B d   1      -0.748   2.535  -1.880  0.00  0.00    -0.013 C 
ATOM      9  C4' I4B d   1       0.074   2.763  -3.121  0.00  0.00     0.013 C 
ATOM     10  C3' I4B d   1      -1.925   3.464  -1.832  0.00  0.00     0.013 C 
ENDBRANCH   7   8
ENDBRANCH   1   7
TORSDOF 2
ENDMDL
