MODEL 1
REMARK minimizedAffinity -5.45420933
REMARK minimizedRMSD -1
REMARK  2 active torsions:
REMARK  status: ('A' for Active; 'I' for Inactive)
REMARK    1  A    between atoms: C2'_3  and  C1'_4 
REMARK    2  A    between atoms: C1'_4  and  C1_5 
ROOT
ATOM      1  C1  I4B d   1      -0.262   0.057  -0.642  0.00  0.00    -0.075 A 
ATOM      2  C2  I4B d   1       1.026  -0.285  -0.313  0.00  0.00     0.003 A 
ATOM      3  C3  I4B d   1       1.363  -0.588   1.028  0.00  0.00     0.002 A 
ATOM      4  C4  I4B d   1       0.399  -0.488   2.010  0.00  0.00    -0.004 A 
ATOM      5  C5  I4B d   1      -0.912  -0.164   1.672  0.00  0.00     0.002 A 
ATOM      6  C6  I4B d   1      -1.248   0.098   0.336  0.00  0.00     0.003 A 
ENDROOT
BRANCH   1   7
ATOM      7  C1' I4B d   1      -0.576   0.402  -2.063  0.00  0.00     0.060 C 
BRANCH   7   8
ATOM      8  C2' I4B d   1      -1.170   1.796  -2.084  0.00  0.00    -0.013 C 
ATOM      9  C4' I4B d   1      -0.259   2.766  -2.789  0.00  0.00     0.013 C 
ATOM     10  C3' I4B d   1      -2.506   1.719  -2.760  0.00  0.00     0.013 C 
ENDBRANCH   7   8
ENDBRANCH   1   7
TORSDOF 2
ENDMDL
