MODEL 1
REMARK minimizedAffinity -6.29555702
REMARK minimizedRMSD -1
REMARK  2 active torsions:
REMARK  status: ('A' for Active; 'I' for Inactive)
REMARK    1  A    between atoms: C2'_3  and  C1'_4 
REMARK    2  A    between atoms: C1'_4  and  C1_5 
ROOT
ATOM      1  C1  I4B d   1      -0.603   0.307  -1.422  0.00  0.00    -0.075 A 
ATOM      2  C2  I4B d   1       0.027  -0.900  -1.593  0.00  0.00     0.003 A 
ATOM      3  C3  I4B d   1       0.840  -1.432  -0.562  0.00  0.00     0.002 A 
ATOM      4  C4  I4B d   1       1.034  -0.704   0.594  0.00  0.00    -0.004 A 
ATOM      5  C5  I4B d   1       0.376   0.509   0.774  0.00  0.00     0.002 A 
ATOM      6  C6  I4B d   1      -0.457   1.013  -0.235  0.00  0.00     0.003 A 
ENDROOT
BRANCH   1   7
ATOM      7  C1' I4B d   1      -1.427   0.855  -2.544  0.00  0.00     0.060 C 
BRANCH   7   8
ATOM      8  C2' I4B d   1      -1.486   2.361  -2.388  0.00  0.00    -0.013 C 
ATOM      9  C4' I4B d   1      -0.258   3.016  -2.965  0.00  0.00     0.013 C 
ATOM     10  C3' I4B d   1      -2.730   2.849  -3.069  0.00  0.00     0.013 C 
ENDBRANCH   7   8
ENDBRANCH   1   7
TORSDOF 2
ENDMDL
