MODEL 1
REMARK minimizedAffinity -3.68709803
REMARK minimizedRMSD -1
REMARK  2 active torsions:
REMARK  status: ('A' for Active; 'I' for Inactive)
REMARK    1  A    between atoms: C2'_3  and  C1'_4 
REMARK    2  A    between atoms: C1'_4  and  C1_5 
ROOT
ATOM      1  C1  I4B d   1      -0.298   0.045  -0.605  0.00  0.00    -0.075 A 
ATOM      2  C2  I4B d   1       0.984  -0.278  -0.239  0.00  0.00     0.003 A 
ATOM      3  C3  I4B d   1       1.282  -0.595   1.109  0.00  0.00     0.002 A 
ATOM      4  C4  I4B d   1       0.285  -0.527   2.060  0.00  0.00    -0.004 A 
ATOM      5  C5  I4B d   1      -1.020  -0.221   1.683  0.00  0.00     0.002 A 
ATOM      6  C6  I4B d   1      -1.316   0.055   0.340  0.00  0.00     0.003 A 
ENDROOT
BRANCH   1   7
ATOM      7  C1' I4B d   1      -0.572   0.406  -2.031  0.00  0.00     0.060 C 
BRANCH   7   8
ATOM      8  C2' I4B d   1      -1.191   1.789  -2.052  0.00  0.00    -0.013 C 
ATOM      9  C4' I4B d   1      -0.292   2.779  -2.744  0.00  0.00     0.013 C 
ATOM     10  C3' I4B d   1      -2.520   1.690  -2.740  0.00  0.00     0.013 C 
ENDBRANCH   7   8
ENDBRANCH   1   7
TORSDOF 2
ENDMDL
