MODEL 1
REMARK minimizedAffinity -4.70852375
REMARK minimizedRMSD -1
REMARK  2 active torsions:
REMARK  status: ('A' for Active; 'I' for Inactive)
REMARK    1  A    between atoms: C2'_3  and  C1'_4 
REMARK    2  A    between atoms: C1'_4  and  C1_5 
ROOT
ATOM      1  C1  I4B d   1       1.119  -0.480   1.079  0.00  0.00    -0.075 A 
ATOM      2  C2  I4B d   1       1.234  -0.458   2.447  0.00  0.00     0.003 A 
ATOM      3  C3  I4B d   1       1.938  -1.485   3.120  0.00  0.00     0.002 A 
ATOM      4  C4  I4B d   1       2.465  -2.535   2.396  0.00  0.00    -0.004 A 
ATOM      5  C5  I4B d   1       2.367  -2.545   1.008  0.00  0.00     0.002 A 
ATOM      6  C6  I4B d   1       1.700  -1.505   0.344  0.00  0.00     0.003 A 
ENDROOT
BRANCH   1   7
ATOM      7  C1' I4B d   1       0.340   0.603   0.404  0.00  0.00     0.060 C 
BRANCH   7   8
ATOM      8  C2' I4B d   1      -0.571  -0.045  -0.619  0.00  0.00    -0.013 C 
ATOM      9  C4' I4B d   1      -1.853  -0.518   0.015  0.00  0.00     0.013 C 
ATOM     10  C3' I4B d   1      -0.840   0.957  -1.701  0.00  0.00     0.013 C 
ENDBRANCH   7   8
ENDBRANCH   1   7
TORSDOF 2
ENDMDL
