MODEL 1
REMARK minimizedAffinity -3.37941957
REMARK minimizedRMSD -1
REMARK  2 active torsions:
REMARK  status: ('A' for Active; 'I' for Inactive)
REMARK    1  A    between atoms: C2'_3  and  C1'_4 
REMARK    2  A    between atoms: C1'_4  and  C1_5 
ROOT
ATOM      1  C1  I4B d   1      -0.545   0.627  -1.222  0.00  0.00    -0.075 A 
ATOM      2  C2  I4B d   1       0.707   0.065  -1.190  0.00  0.00     0.003 A 
ATOM      3  C3  I4B d   1       1.158  -0.604  -0.026  0.00  0.00     0.002 A 
ATOM      4  C4  I4B d   1       0.349  -0.643   1.091  0.00  0.00    -0.004 A 
ATOM      5  C5  I4B d   1      -0.928  -0.093   1.049  0.00  0.00     0.002 A 
ATOM      6  C6  I4B d   1      -1.384   0.536  -0.119  0.00  0.00     0.003 A 
ENDROOT
BRANCH   1   7
ATOM      7  C1' I4B d   1      -0.976   1.355  -2.456  0.00  0.00     0.060 C 
BRANCH   7   8
ATOM      8  C2' I4B d   1      -0.391   2.751  -2.403  0.00  0.00    -0.013 C 
ATOM      9  C4' I4B d   1       0.816   2.871  -3.297  0.00  0.00     0.013 C 
ATOM     10  C3' I4B d   1      -1.462   3.719  -2.808  0.00  0.00     0.013 C 
ENDBRANCH   7   8
ENDBRANCH   1   7
TORSDOF 2
ENDMDL
