MODEL 1
REMARK minimizedAffinity 6.76768827
REMARK minimizedRMSD -1
REMARK  0 active torsions:
REMARK  status: ('A' for Active; 'I' for Inactive)
ROOT
ATOM      1  C   UNL d   1      -0.317  -1.091  -4.476  0.00  0.00     0.023 A 
ATOM      2  C1  UNL d   1       0.045  -0.457  -5.665  0.00  0.00     0.003 A 
ATOM      3  C2  UNL d   1       1.393  -0.316  -6.000  0.00  0.00     0.048 A 
ATOM      4  C3  UNL d   1       2.374  -0.811  -5.142  0.00  0.00     0.023 A 
ATOM      5  C4  UNL d   1       2.017  -1.447  -3.952  0.00  0.00     0.048 A 
ATOM      6  C5  UNL d   1       0.668  -1.585  -3.620  0.00  0.00     0.003 A 
ATOM      7  I   UNL d   1       4.381  -0.601  -5.639  0.00  0.00    -0.146 I 
ENDROOT
TORSDOF 0
ENDMDL
