MODEL 1
REMARK minimizedAffinity -3.22868276
REMARK minimizedRMSD -1
REMARK  0 active torsions:
REMARK  status: ('A' for Active; 'I' for Inactive)
ROOT
ATOM      1  C   UNL d   1      -1.560   0.224   0.792  0.00  0.00     0.023 A 
ATOM      2  C1  UNL d   1      -1.901  -0.739   1.742  0.00  0.00     0.003 A 
ATOM      3  C2  UNL d   1      -0.930  -1.238   2.613  0.00  0.00     0.048 A 
ATOM      4  C3  UNL d   1       0.380  -0.768   2.529  0.00  0.00     0.023 A 
ATOM      5  C4  UNL d   1       0.726   0.196   1.580  0.00  0.00     0.048 A 
ATOM      6  C5  UNL d   1      -0.248   0.690   0.711  0.00  0.00     0.003 A 
ATOM      7  I   UNL d   1       1.828  -1.509   3.824  0.00  0.00    -0.146 I 
ENDROOT
TORSDOF 0
ENDMDL
