MODEL 1
REMARK minimizedAffinity -0.279732674
REMARK minimizedRMSD -1
REMARK  0 active torsions:
REMARK  status: ('A' for Active; 'I' for Inactive)
ROOT
ATOM      1  C   UNL d   1      -0.257  -1.146  -4.212  0.00  0.00     0.023 A 
ATOM      2  C1  UNL d   1       0.859  -1.499  -3.452  0.00  0.00     0.003 A 
ATOM      3  C2  UNL d   1       2.143  -1.305  -3.964  0.00  0.00     0.048 A 
ATOM      4  C3  UNL d   1       2.306  -0.754  -5.235  0.00  0.00     0.023 A 
ATOM      5  C4  UNL d   1       1.193  -0.398  -5.998  0.00  0.00     0.048 A 
ATOM      6  C5  UNL d   1      -0.090  -0.596  -5.483  0.00  0.00     0.003 A 
ATOM      7  I   UNL d   1       4.217  -0.463  -5.997  0.00  0.00    -0.146 I 
ENDROOT
TORSDOF 0
ENDMDL
