MODEL 1
REMARK minimizedAffinity 4.46559334
REMARK minimizedRMSD -1
REMARK  0 active torsions:
REMARK  status: ('A' for Active; 'I' for Inactive)
ROOT
ATOM      1  C   UNL d   1       6.000  -0.030  -4.122  0.00  0.00     0.023 A 
ATOM      2  C1  UNL d   1       4.908  -0.373  -3.324  0.00  0.00     0.003 A 
ATOM      3  C2  UNL d   1       3.619  -0.365  -3.861  0.00  0.00     0.048 A 
ATOM      4  C3  UNL d   1       3.430  -0.015  -5.198  0.00  0.00     0.023 A 
ATOM      5  C4  UNL d   1       4.519   0.328  -6.000  0.00  0.00     0.048 A 
ATOM      6  C5  UNL d   1       5.806   0.320  -5.458  0.00  0.00     0.003 A 
ATOM      7  I   UNL d   1       1.512  -0.002  -6.000  0.00  0.00    -0.146 I 
ENDROOT
TORSDOF 0
ENDMDL
