MODEL 1
REMARK minimizedAffinity 11.4937887
REMARK minimizedRMSD -1
REMARK  0 active torsions:
REMARK  status: ('A' for Active; 'I' for Inactive)
ROOT
ATOM      1  C   UNL d   1       2.700  -0.984   4.242  0.00  0.00     0.023 A 
ATOM      2  C1  UNL d   1       1.659  -0.532   5.053  0.00  0.00     0.003 A 
ATOM      3  C2  UNL d   1       0.333  -0.731   4.665  0.00  0.00     0.048 A 
ATOM      4  C3  UNL d   1       0.054  -1.384   3.465  0.00  0.00     0.023 A 
ATOM      5  C4  UNL d   1       1.093  -1.839   2.650  0.00  0.00     0.048 A 
ATOM      6  C5  UNL d   1       2.417  -1.636   3.042  0.00  0.00     0.003 A 
ATOM      7  I   UNL d   1      -1.919  -1.681   2.884  0.00  0.00    -0.146 I 
ENDROOT
TORSDOF 0
ENDMDL
