MODEL 1
REMARK minimizedAffinity -2.17304993
REMARK minimizedRMSD -1
REMARK  0 active torsions:
REMARK  status: ('A' for Active; 'I' for Inactive)
ROOT
ATOM      1  C2' OXE d   1      -1.108   2.242  -1.535  0.00  0.00     0.078 C 
ATOM      2  C1' OXE d   1      -2.349   1.906   0.960  0.00  0.00     0.078 C 
ATOM      3  C1  OXE d   1      -1.178   1.015   0.632  0.00  0.00    -0.078 A 
ATOM      4  C2  OXE d   1      -0.606   1.154  -0.610  0.00  0.00    -0.078 A 
ATOM      5  C3  OXE d   1       0.512   0.395  -0.944  0.00  0.00     0.003 A 
ATOM      6  C4  OXE d   1       0.964  -0.615  -0.086  0.00  0.00    -0.002 A 
ATOM      7  C5  OXE d   1       0.371  -0.801   1.167  0.00  0.00    -0.002 A 
ATOM      8  C6  OXE d   1      -0.671   0.033   1.558  0.00  0.00     0.003 A 
ENDROOT
TORSDOF 0
ENDMDL
