MODEL 1
REMARK minimizedAffinity -3.75129771
REMARK minimizedRMSD -1
REMARK  0 active torsions:
REMARK  status: ('A' for Active; 'I' for Inactive)
ROOT
ATOM      1  C2' OXE d   1       0.623  -0.906  -0.694  0.00  0.00     0.078 C 
ATOM      2  C1' OXE d   1       0.616  -0.685   2.105  0.00  0.00     0.078 C 
ATOM      3  C1  OXE d   1      -0.263   0.259   1.323  0.00  0.00    -0.078 A 
ATOM      4  C2  OXE d   1      -0.218   0.175  -0.048  0.00  0.00    -0.078 A 
ATOM      5  C3  OXE d   1      -1.050   0.985  -0.816  0.00  0.00     0.003 A 
ATOM      6  C4  OXE d   1      -1.817   1.988  -0.211  0.00  0.00    -0.002 A 
ATOM      7  C5  OXE d   1      -1.846   2.117   1.182  0.00  0.00    -0.002 A 
ATOM      8  C6  OXE d   1      -1.110   1.234   1.964  0.00  0.00     0.003 A 
ENDROOT
TORSDOF 0
ENDMDL
