MODEL 1
REMARK minimizedAffinity -4.79805279
REMARK minimizedRMSD -1
REMARK  0 active torsions:
REMARK  status: ('A' for Active; 'I' for Inactive)
ROOT
ATOM      1  C2' OXE d   1       0.040  -0.595   1.992  0.00  0.00     0.078 C 
ATOM      2  C1' OXE d   1       0.805  -0.262  -0.688  0.00  0.00     0.078 C 
ATOM      3  C1  OXE d   1      -0.076   0.795  -0.072  0.00  0.00    -0.078 A 
ATOM      4  C2  OXE d   1      -0.484   0.600   1.226  0.00  0.00    -0.078 A 
ATOM      5  C3  OXE d   1      -1.253   1.572   1.860  0.00  0.00     0.003 A 
ATOM      6  C4  OXE d   1      -1.742   2.670   1.141  0.00  0.00    -0.002 A 
ATOM      7  C5  OXE d   1      -1.371   2.867  -0.193  0.00  0.00    -0.002 A 
ATOM      8  C6  OXE d   1      -0.506   1.963  -0.801  0.00  0.00     0.003 A 
ENDROOT
TORSDOF 0
ENDMDL
