MODEL 1
REMARK minimizedAffinity -3.27695894
REMARK minimizedRMSD -1
REMARK  0 active torsions:
REMARK  status: ('A' for Active; 'I' for Inactive)
ROOT
ATOM      1  C2' OXE d   1       0.950  -1.430  -1.265  0.00  0.00     0.078 C 
ATOM      2  C1' OXE d   1       1.383   1.295  -1.786  0.00  0.00     0.078 C 
ATOM      3  C1  OXE d   1       0.600   0.930  -0.549  0.00  0.00    -0.078 A 
ATOM      4  C2  OXE d   1       0.353  -0.403  -0.327  0.00  0.00    -0.078 A 
ATOM      5  C3  OXE d   1      -0.317  -0.797   0.828  0.00  0.00     0.003 A 
ATOM      6  C4  OXE d   1      -0.875   0.159   1.685  0.00  0.00    -0.002 A 
ATOM      7  C5  OXE d   1      -0.669   1.524   1.456  0.00  0.00    -0.002 A 
ATOM      8  C6  OXE d   1       0.101   1.924   0.369  0.00  0.00     0.003 A 
ENDROOT
TORSDOF 0
ENDMDL
