MODEL 1
REMARK minimizedAffinity -2.48424077
REMARK minimizedRMSD -1
REMARK  0 active torsions:
REMARK  status: ('A' for Active; 'I' for Inactive)
ROOT
ATOM      1  C2' OXE d   1       0.778  -0.813   1.990  0.00  0.00     0.078 C 
ATOM      2  C1' OXE d   1       0.854  -0.646  -0.811  0.00  0.00     0.078 C 
ATOM      3  C1  OXE d   1      -0.238   0.105  -0.091  0.00  0.00    -0.078 A 
ATOM      4  C2  OXE d   1      -0.296  -0.020   1.276  0.00  0.00    -0.078 A 
ATOM      5  C3  OXE d   1      -1.250   0.695   1.994  0.00  0.00     0.003 A 
ATOM      6  C4  OXE d   1      -2.245   1.418   1.325  0.00  0.00    -0.002 A 
ATOM      7  C5  OXE d   1      -2.229   1.526  -0.069  0.00  0.00    -0.002 A 
ATOM      8  C6  OXE d   1      -1.209   0.912  -0.788  0.00  0.00     0.003 A 
ENDROOT
TORSDOF 0
ENDMDL
