MODEL 1
REMARK minimizedAffinity -4.97900105
REMARK minimizedRMSD -1
REMARK  0 active torsions:
REMARK  status: ('A' for Active; 'I' for Inactive)
ROOT
ATOM      1  C2' OXE d   1      -1.900   1.907   0.786  0.00  0.00     0.078 C 
ATOM      2  C1' OXE d   1      -0.393   2.366  -1.537  0.00  0.00     0.078 C 
ATOM      3  C1  OXE d   1      -0.073   1.138  -0.722  0.00  0.00    -0.078 A 
ATOM      4  C2  OXE d   1      -0.784   0.946   0.438  0.00  0.00    -0.078 A 
ATOM      5  C3  OXE d   1      -0.566  -0.200   1.198  0.00  0.00     0.003 A 
ATOM      6  C4  OXE d   1       0.474  -1.078   0.874  0.00  0.00    -0.002 A 
ATOM      7  C5  OXE d   1       1.237  -0.880  -0.282  0.00  0.00    -0.002 A 
ATOM      8  C6  OXE d   1       0.948   0.197  -1.112  0.00  0.00     0.003 A 
ENDROOT
TORSDOF 0
ENDMDL
