MODEL 1
REMARK minimizedAffinity -4.40452909
REMARK minimizedRMSD -1
REMARK  0 active torsions:
REMARK  status: ('A' for Active; 'I' for Inactive)
ROOT
ATOM      1  C2' OXE d   1       0.241  -1.108   2.360  0.00  0.00     0.078 C 
ATOM      2  C1' OXE d   1       0.253  -0.978  -0.444  0.00  0.00     0.078 C 
ATOM      3  C1  OXE d   1      -0.341   0.185   0.311  0.00  0.00    -0.078 A 
ATOM      4  C2  OXE d   1      -0.385   0.092   1.681  0.00  0.00    -0.078 A 
ATOM      5  C3  OXE d   1      -0.873   1.159   2.429  0.00  0.00     0.003 A 
ATOM      6  C4  OXE d   1      -1.460   2.261   1.794  0.00  0.00    -0.002 A 
ATOM      7  C5  OXE d   1      -1.461   2.357   0.398  0.00  0.00    -0.002 A 
ATOM      8  C6  OXE d   1      -0.869   1.350  -0.355  0.00  0.00     0.003 A 
ENDROOT
TORSDOF 0
ENDMDL
