MODEL 1
REMARK minimizedAffinity 4.9649992
REMARK minimizedRMSD -1
REMARK  0 active torsions:
REMARK  status: ('A' for Active; 'I' for Inactive)
ROOT
ATOM      1  C2' OXE d   1       1.573  -0.044   0.374  0.00  0.00     0.078 C 
ATOM      2  C1' OXE d   1      -0.802  -1.430  -0.191  0.00  0.00     0.078 C 
ATOM      3  C1  OXE d   1      -0.730   0.028  -0.573  0.00  0.00    -0.078 A 
ATOM      4  C2  OXE d   1       0.418   0.710  -0.250  0.00  0.00    -0.078 A 
ATOM      5  C3  OXE d   1       0.558   2.042  -0.629  0.00  0.00     0.003 A 
ATOM      6  C4  OXE d   1      -0.518   2.734  -1.197  0.00  0.00    -0.002 A 
ATOM      7  C5  OXE d   1      -1.711   2.068  -1.498  0.00  0.00    -0.002 A 
ATOM      8  C6  OXE d   1      -1.818   0.708  -1.231  0.00  0.00     0.003 A 
ENDROOT
TORSDOF 0
ENDMDL
