MODEL 1
REMARK minimizedAffinity -4.46517992
REMARK minimizedRMSD -1
REMARK  0 active torsions:
REMARK  status: ('A' for Active; 'I' for Inactive)
ROOT
ATOM      1  C2' OXE d   1       0.269   1.229  -1.523  0.00  0.00     0.078 C 
ATOM      2  C1' OXE d   1       0.858  -1.141  -0.139  0.00  0.00     0.078 C 
ATOM      3  C1  OXE d   1      -0.120  -0.182   0.492  0.00  0.00    -0.078 A 
ATOM      4  C2  OXE d   1      -0.367   0.996  -0.170  0.00  0.00    -0.078 A 
ATOM      5  C3  OXE d   1      -1.303   1.891   0.341  0.00  0.00     0.003 A 
ATOM      6  C4  OXE d   1      -1.879   1.673   1.599  0.00  0.00    -0.002 A 
ATOM      7  C5  OXE d   1      -1.611   0.498   2.308  0.00  0.00    -0.002 A 
ATOM      8  C6  OXE d   1      -0.769  -0.458   1.751  0.00  0.00     0.003 A 
ENDROOT
TORSDOF 0
ENDMDL
