MODEL 1
REMARK minimizedAffinity -4.21023178
REMARK minimizedRMSD -1
REMARK  0 active torsions:
REMARK  status: ('A' for Active; 'I' for Inactive)
ROOT
ATOM      1  C2' OXE d   1       0.335  -1.027   2.296  0.00  0.00     0.078 C 
ATOM      2  C1' OXE d   1       1.057  -0.738  -0.401  0.00  0.00     0.078 C 
ATOM      3  C1  OXE d   1       0.071   0.249   0.173  0.00  0.00    -0.078 A 
ATOM      4  C2  OXE d   1      -0.312   0.072   1.481  0.00  0.00    -0.078 A 
ATOM      5  C3  OXE d   1      -1.176   0.987   2.076  0.00  0.00     0.003 A 
ATOM      6  C4  OXE d   1      -1.777   1.994   1.311  0.00  0.00    -0.002 A 
ATOM      7  C5  OXE d   1      -1.431   2.168  -0.033  0.00  0.00    -0.002 A 
ATOM      8  C6  OXE d   1      -0.478   1.332  -0.605  0.00  0.00     0.003 A 
ENDROOT
TORSDOF 0
ENDMDL
