MODEL 1
REMARK minimizedAffinity -3.43025613
REMARK minimizedRMSD -1
REMARK  0 active torsions:
REMARK  status: ('A' for Active; 'I' for Inactive)
ROOT
ATOM      1  C2' OXE d   1      -1.757   1.751   1.433  0.00  0.00     0.078 C 
ATOM      2  C1' OXE d   1      -0.693   2.285  -1.109  0.00  0.00     0.078 C 
ATOM      3  C1  OXE d   1      -0.239   1.030  -0.406  0.00  0.00    -0.078 A 
ATOM      4  C2  OXE d   1      -0.729   0.801   0.857  0.00  0.00    -0.078 A 
ATOM      5  C3  OXE d   1      -0.385  -0.370   1.528  0.00  0.00     0.003 A 
ATOM      6  C4  OXE d   1       0.574  -1.238   0.993  0.00  0.00    -0.002 A 
ATOM      7  C5  OXE d   1       1.115  -1.002  -0.275  0.00  0.00    -0.002 A 
ATOM      8  C6  OXE d   1       0.689   0.102  -1.004  0.00  0.00     0.003 A 
ENDROOT
TORSDOF 0
ENDMDL
