MODEL 1
REMARK minimizedAffinity -2.99340439
REMARK minimizedRMSD -1
REMARK  0 active torsions:
REMARK  status: ('A' for Active; 'I' for Inactive)
ROOT
ATOM      1  C2' OXE d   1      -0.375   2.326  -1.134  0.00  0.00     0.078 C 
ATOM      2  C1' OXE d   1      -1.684   2.298   1.349  0.00  0.00     0.078 C 
ATOM      3  C1  OXE d   1      -0.949   1.050   0.927  0.00  0.00    -0.078 A 
ATOM      4  C2  OXE d   1      -0.351   1.057  -0.310  0.00  0.00    -0.078 A 
ATOM      5  C3  OXE d   1       0.386  -0.048  -0.725  0.00  0.00     0.003 A 
ATOM      6  C4  OXE d   1       0.395  -1.222   0.038  0.00  0.00    -0.002 A 
ATOM      7  C5  OXE d   1      -0.241  -1.264   1.283  0.00  0.00    -0.002 A 
ATOM      8  C6  OXE d   1      -0.880  -0.125   1.760  0.00  0.00     0.003 A 
ENDROOT
TORSDOF 0
ENDMDL
