MODEL 1
REMARK minimizedAffinity -3.39526629
REMARK minimizedRMSD -1
REMARK  0 active torsions:
REMARK  status: ('A' for Active; 'I' for Inactive)
ROOT
ATOM      1  C2' OXE d   1      -0.338  -1.027   2.206  0.00  0.00     0.078 C 
ATOM      2  C1' OXE d   1      -1.396   1.479   1.512  0.00  0.00     0.078 C 
ATOM      3  C1  OXE d   1      -0.440   0.826   0.545  0.00  0.00    -0.078 A 
ATOM      4  C2  OXE d   1       0.109  -0.378   0.914  0.00  0.00    -0.078 A 
ATOM      5  C3  OXE d   1       0.955  -1.049   0.035  0.00  0.00     0.003 A 
ATOM      6  C4  OXE d   1       1.371  -0.437  -1.153  0.00  0.00    -0.002 A 
ATOM      7  C5  OXE d   1       0.855   0.807  -1.530  0.00  0.00    -0.002 A 
ATOM      8  C6  OXE d   1      -0.082   1.432  -0.714  0.00  0.00     0.003 A 
ENDROOT
TORSDOF 0
ENDMDL
