MODEL 1
REMARK minimizedAffinity -5.37301779
REMARK minimizedRMSD -1
REMARK  0 active torsions:
REMARK  status: ('A' for Active; 'I' for Inactive)
ROOT
ATOM      1  C2' OXE d   1      -0.049  -0.996   2.042  0.00  0.00     0.078 C 
ATOM      2  C1' OXE d   1       0.780  -0.674  -0.620  0.00  0.00     0.078 C 
ATOM      3  C1  OXE d   1      -0.125   0.380  -0.033  0.00  0.00    -0.078 A 
ATOM      4  C2  OXE d   1      -0.564   0.190   1.255  0.00  0.00    -0.078 A 
ATOM      5  C3  OXE d   1      -1.357   1.159   1.863  0.00  0.00     0.003 A 
ATOM      6  C4  OXE d   1      -1.836   2.248   1.125  0.00  0.00    -0.002 A 
ATOM      7  C5  OXE d   1      -1.434   2.439  -0.201  0.00  0.00    -0.002 A 
ATOM      8  C6  OXE d   1      -0.547   1.539  -0.780  0.00  0.00     0.003 A 
ENDROOT
TORSDOF 0
ENDMDL
