MODEL 1
REMARK minimizedAffinity -5.77482557
REMARK minimizedRMSD -1
REMARK  0 active torsions:
REMARK  status: ('A' for Active; 'I' for Inactive)
ROOT
ATOM      1  C2' OXE d   1       0.029  -0.707   2.056  0.00  0.00     0.078 C 
ATOM      2  C1' OXE d   1       0.261  -0.402  -0.725  0.00  0.00     0.078 C 
ATOM      3  C1  OXE d   1      -0.382   0.718   0.054  0.00  0.00    -0.078 A 
ATOM      4  C2  OXE d   1      -0.534   0.540   1.408  0.00  0.00    -0.078 A 
ATOM      5  C3  OXE d   1      -1.072   1.564   2.182  0.00  0.00     0.003 A 
ATOM      6  C4  OXE d   1      -1.600   2.710   1.574  0.00  0.00    -0.002 A 
ATOM      7  C5  OXE d   1      -1.491   2.893   0.192  0.00  0.00    -0.002 A 
ATOM      8  C6  OXE d   1      -0.848   1.928  -0.576  0.00  0.00     0.003 A 
ENDROOT
TORSDOF 0
ENDMDL
