MODEL 1
REMARK minimizedAffinity -1.63206267
REMARK minimizedRMSD -1
REMARK  0 active torsions:
REMARK  status: ('A' for Active; 'I' for Inactive)
ROOT
ATOM      1  C2' OXE d   1      -0.772  -0.841   1.116  0.00  0.00     0.078 C 
ATOM      2  C1' OXE d   1      -2.014   1.647   0.729  0.00  0.00     0.078 C 
ATOM      3  C1  OXE d   1      -0.721   1.385  -0.003  0.00  0.00    -0.078 A 
ATOM      4  C2  OXE d   1      -0.097   0.183   0.229  0.00  0.00    -0.078 A 
ATOM      5  C3  OXE d   1       1.070  -0.132  -0.462  0.00  0.00     0.003 A 
ATOM      6  C4  OXE d   1       1.694   0.824  -1.273  0.00  0.00    -0.002 A 
ATOM      7  C5  OXE d   1       1.095   2.069  -1.491  0.00  0.00    -0.002 A 
ATOM      8  C6  OXE d   1      -0.131   2.349  -0.898  0.00  0.00     0.003 A 
ENDROOT
TORSDOF 0
ENDMDL
