MODEL 1
REMARK minimizedAffinity -5.73146439
REMARK minimizedRMSD -1
REMARK  0 active torsions:
REMARK  status: ('A' for Active; 'I' for Inactive)
ROOT
ATOM      1  C2' OXE d   1       0.924  -1.099   1.831  0.00  0.00     0.078 C 
ATOM      2  C1' OXE d   1       0.402  -1.364  -0.915  0.00  0.00     0.078 C 
ATOM      3  C1  OXE d   1      -0.374  -0.321  -0.149  0.00  0.00    -0.078 A 
ATOM      4  C2  OXE d   1      -0.146  -0.231   1.203  0.00  0.00    -0.078 A 
ATOM      5  C3  OXE d   1      -0.794   0.751   1.947  0.00  0.00     0.003 A 
ATOM      6  C4  OXE d   1      -1.789   1.543   1.362  0.00  0.00    -0.002 A 
ATOM      7  C5  OXE d   1      -2.065   1.439  -0.006  0.00  0.00    -0.002 A 
ATOM      8  C6  OXE d   1      -1.338   0.544  -0.782  0.00  0.00     0.003 A 
ENDROOT
TORSDOF 0
ENDMDL
