MODEL 1
REMARK minimizedAffinity 4.1645174
REMARK minimizedRMSD -1
REMARK  0 active torsions:
REMARK  status: ('A' for Active; 'I' for Inactive)
ROOT
ATOM      1  C1  DEN d   1       4.442  -2.257   2.837  0.00  0.00     0.130 A 
ATOM      2  C2  DEN d   1       4.652  -3.617   3.324  0.00  0.00    -0.031 A 
ATOM      3  C3  DEN d   1       5.290  -3.533   4.653  0.00  0.00     0.027 A 
ATOM      4  C4  DEN d   1       5.966  -1.439   5.999  0.00  0.00     0.027 A 
ATOM      5  C5  DEN d   1       5.999  -0.062   5.991  0.00  0.00    -0.003 A 
ATOM      6  C6  DEN d   1       5.550   0.673   4.926  0.00  0.00     0.001 A 
ATOM      7  C7  DEN d   1       5.007   0.036   3.841  0.00  0.00     0.017 A 
ATOM      8  C8  DEN d   1       4.977  -1.353   3.839  0.00  0.00    -0.094 A 
ATOM      9  C9  DEN d   1       5.424  -2.078   4.931  0.00  0.00    -0.072 A 
ENDROOT
TORSDOF 0
ENDMDL
