MODEL 1
REMARK minimizedAffinity 8.370574
REMARK minimizedRMSD -1
REMARK  0 active torsions:
REMARK  status: ('A' for Active; 'I' for Inactive)
ROOT
ATOM      1  C1  DEN d   1       4.935   3.626   3.156  0.00  0.00     0.130 A 
ATOM      2  C2  DEN d   1       5.217   4.853   3.896  0.00  0.00    -0.031 A 
ATOM      3  C3  DEN d   1       4.934   5.997   3.006  0.00  0.00     0.027 A 
ATOM      4  C4  DEN d   1       4.086   5.988   0.571  0.00  0.00     0.027 A 
ATOM      5  C5  DEN d   1       3.715   5.186  -0.486  0.00  0.00    -0.003 A 
ATOM      6  C6  DEN d   1       3.757   3.819  -0.415  0.00  0.00     0.001 A 
ATOM      7  C7  DEN d   1       4.136   3.212   0.753  0.00  0.00     0.017 A 
ATOM      8  C8  DEN d   1       4.519   4.014   1.820  0.00  0.00    -0.094 A 
ATOM      9  C9  DEN d   1       4.457   5.394   1.733  0.00  0.00    -0.072 A 
ENDROOT
TORSDOF 0
ENDMDL
