MODEL 1
REMARK minimizedAffinity 2.3479495
REMARK minimizedRMSD -1
REMARK  0 active torsions:
REMARK  status: ('A' for Active; 'I' for Inactive)
ROOT
ATOM      1  C1  DEN d   1      -0.102  -2.292  -0.568  0.00  0.00     0.130 A 
ATOM      2  C2  DEN d   1      -0.502  -1.011   0.008  0.00  0.00    -0.031 A 
ATOM      3  C3  DEN d   1       0.153   0.062  -0.766  0.00  0.00     0.027 A 
ATOM      4  C4  DEN d   1       1.737  -0.135  -2.793  0.00  0.00     0.027 A 
ATOM      5  C5  DEN d   1       2.378  -1.016  -3.635  0.00  0.00    -0.003 A 
ATOM      6  C6  DEN d   1       2.265  -2.374  -3.494  0.00  0.00     0.001 A 
ATOM      7  C7  DEN d   1       1.457  -2.890  -2.515  0.00  0.00     0.017 A 
ATOM      8  C8  DEN d   1       0.814  -2.008  -1.658  0.00  0.00    -0.094 A 
ATOM      9  C9  DEN d   1       0.930  -0.638  -1.824  0.00  0.00    -0.072 A 
ENDROOT
TORSDOF 0
ENDMDL
