MODEL 1
REMARK minimizedAffinity 6.76826811
REMARK minimizedRMSD -1
REMARK  0 active torsions:
REMARK  status: ('A' for Active; 'I' for Inactive)
ROOT
ATOM      1  C1  DEN d   1       0.209  -2.104   0.208  0.00  0.00     0.130 A 
ATOM      2  C2  DEN d   1      -0.172  -0.727  -0.092  0.00  0.00    -0.031 A 
ATOM      3  C3  DEN d   1      -1.625  -0.701  -0.351  0.00  0.00     0.027 A 
ATOM      4  C4  DEN d   1      -3.315  -2.649  -0.312  0.00  0.00     0.027 A 
ATOM      5  C5  DEN d   1      -3.461  -4.005  -0.119  0.00  0.00    -0.003 A 
ATOM      6  C6  DEN d   1      -2.397  -4.821   0.161  0.00  0.00     0.001 A 
ATOM      7  C7  DEN d   1      -1.145  -4.281   0.300  0.00  0.00     0.017 A 
ATOM      8  C8  DEN d   1      -0.990  -2.916   0.100  0.00  0.00    -0.094 A 
ATOM      9  C9  DEN d   1      -2.080  -2.106  -0.170  0.00  0.00    -0.072 A 
ENDROOT
TORSDOF 0
ENDMDL
