MODEL 1
REMARK minimizedAffinity 3.86902308
REMARK minimizedRMSD -1
REMARK  0 active torsions:
REMARK  status: ('A' for Active; 'I' for Inactive)
ROOT
ATOM      1  C1  DEN d   1       4.871   2.088   2.849  0.00  0.00     0.130 A 
ATOM      2  C2  DEN d   1       5.289   3.321   3.510  0.00  0.00    -0.031 A 
ATOM      3  C3  DEN d   1       5.761   2.975   4.866  0.00  0.00     0.027 A 
ATOM      4  C4  DEN d   1       5.887   0.662   6.000  0.00  0.00     0.027 A 
ATOM      5  C5  DEN d   1       5.633  -0.682   5.839  0.00  0.00    -0.003 A 
ATOM      6  C6  DEN d   1       5.080  -1.189   4.693  0.00  0.00     0.001 A 
ATOM      7  C7  DEN d   1       4.805  -0.351   3.644  0.00  0.00     0.017 A 
ATOM      8  C8  DEN d   1       5.051   1.006   3.801  0.00  0.00    -0.094 A 
ATOM      9  C9  DEN d   1       5.622   1.497   4.963  0.00  0.00    -0.072 A 
ENDROOT
TORSDOF 0
ENDMDL
