MODEL 1
REMARK minimizedAffinity 4.58261204
REMARK minimizedRMSD -1
REMARK  0 active torsions:
REMARK  status: ('A' for Active; 'I' for Inactive)
ROOT
ATOM      1  C1  DEN d   1       3.670   4.131  -1.846  0.00  0.00     0.130 A 
ATOM      2  C2  DEN d   1       4.493   5.300  -2.148  0.00  0.00    -0.031 A 
ATOM      3  C3  DEN d   1       4.775   5.999  -0.878  0.00  0.00     0.027 A 
ATOM      4  C4  DEN d   1       4.027   5.386   1.513  0.00  0.00     0.027 A 
ATOM      5  C5  DEN d   1       3.306   4.488   2.268  0.00  0.00    -0.003 A 
ATOM      6  C6  DEN d   1       2.633   3.436   1.705  0.00  0.00     0.001 A 
ATOM      7  C7  DEN d   1       2.704   3.230   0.353  0.00  0.00     0.017 A 
ATOM      8  C8  DEN d   1       3.424   4.135  -0.416  0.00  0.00    -0.094 A 
ATOM      9  C9  DEN d   1       4.107   5.186   0.173  0.00  0.00    -0.072 A 
ENDROOT
TORSDOF 0
ENDMDL
