MODEL 1
REMARK minimizedAffinity 12.7269306
REMARK minimizedRMSD -1
REMARK  0 active torsions:
REMARK  status: ('A' for Active; 'I' for Inactive)
ROOT
ATOM      1  C1  DEN d   1       1.302  -0.750  -1.483  0.00  0.00     0.130 A 
ATOM      2  C2  DEN d   1       1.054  -1.583  -0.309  0.00  0.00    -0.031 A 
ATOM      3  C3  DEN d   1       1.115  -2.996  -0.731  0.00  0.00     0.027 A 
ATOM      4  C4  DEN d   1       1.571  -3.972  -3.075  0.00  0.00     0.027 A 
ATOM      5  C5  DEN d   1       1.827  -3.658  -4.391  0.00  0.00    -0.003 A 
ATOM      6  C6  DEN d   1       1.893  -2.363  -4.833  0.00  0.00     0.001 A 
ATOM      7  C7  DEN d   1       1.744  -1.333  -3.942  0.00  0.00     0.017 A 
ATOM      8  C8  DEN d   1       1.477  -1.642  -2.615  0.00  0.00    -0.094 A 
ATOM      9  C9  DEN d   1       1.427  -2.957  -2.185  0.00  0.00    -0.072 A 
ENDROOT
TORSDOF 0
ENDMDL
