MODEL 1
REMARK minimizedAffinity 3.07361126
REMARK minimizedRMSD -1
REMARK  0 active torsions:
REMARK  status: ('A' for Active; 'I' for Inactive)
ROOT
ATOM      1  C1  DEN d   1       5.998   2.268   3.166  0.00  0.00     0.130 A 
ATOM      2  C2  DEN d   1       5.997   3.277   4.223  0.00  0.00    -0.031 A 
ATOM      3  C3  DEN d   1       5.985   2.576   5.522  0.00  0.00     0.027 A 
ATOM      4  C4  DEN d   1       5.972   0.041   5.999  0.00  0.00     0.027 A 
ATOM      5  C5  DEN d   1       5.957  -1.210   5.422  0.00  0.00    -0.003 A 
ATOM      6  C6  DEN d   1       5.921  -1.387   4.065  0.00  0.00     0.001 A 
ATOM      7  C7  DEN d   1       5.944  -0.296   3.237  0.00  0.00     0.017 A 
ATOM      8  C8  DEN d   1       5.951   0.968   3.811  0.00  0.00    -0.094 A 
ATOM      9  C9  DEN d   1       6.000   1.127   5.186  0.00  0.00    -0.072 A 
ENDROOT
TORSDOF 0
ENDMDL
