MODEL 1
REMARK minimizedAffinity -5.10206223
REMARK minimizedRMSD -1
REMARK  0 active torsions:
REMARK  status: ('A' for Active; 'I' for Inactive)
ROOT
ATOM      1  C1  DEN d   1       2.982  -0.782  -4.679  0.00  0.00     0.130 A 
ATOM      2  C2  DEN d   1       2.601   0.595  -4.981  0.00  0.00    -0.031 A 
ATOM      3  C3  DEN d   1       1.749   1.085  -3.879  0.00  0.00     0.027 A 
ATOM      4  C4  DEN d   1       0.992  -0.146  -1.742  0.00  0.00     0.027 A 
ATOM      5  C5  DEN d   1       1.054  -1.335  -1.051  0.00  0.00    -0.003 A 
ATOM      6  C6  DEN d   1       1.729  -2.426  -1.532  0.00  0.00     0.001 A 
ATOM      7  C7  DEN d   1       2.407  -2.334  -2.719  0.00  0.00     0.017 A 
ATOM      8  C8  DEN d   1       2.344  -1.141  -3.425  0.00  0.00    -0.094 A 
ATOM      9  C9  DEN d   1       1.667  -0.046  -2.916  0.00  0.00    -0.072 A 
ENDROOT
TORSDOF 0
ENDMDL
