MODEL 1
REMARK minimizedAffinity 1.75767326
REMARK minimizedRMSD -1
REMARK  0 active torsions:
REMARK  status: ('A' for Active; 'I' for Inactive)
ROOT
ATOM      1  C1  DEN d   1       0.526  -3.211  -0.518  0.00  0.00     0.130 A 
ATOM      2  C2  DEN d   1       1.125  -1.890  -0.347  0.00  0.00    -0.031 A 
ATOM      3  C3  DEN d   1       0.066  -0.879  -0.537  0.00  0.00     0.027 A 
ATOM      4  C4  DEN d   1      -2.433  -1.229  -1.072  0.00  0.00     0.027 A 
ATOM      5  C5  DEN d   1      -3.407  -2.171  -1.320  0.00  0.00    -0.003 A 
ATOM      6  C6  DEN d   1      -3.133  -3.513  -1.352  0.00  0.00     0.001 A 
ATOM      7  C7  DEN d   1      -1.863  -3.953  -1.086  0.00  0.00     0.017 A 
ATOM      8  C8  DEN d   1      -0.875  -3.009  -0.843  0.00  0.00    -0.094 A 
ATOM      9  C9  DEN d   1      -1.174  -1.658  -0.803  0.00  0.00    -0.072 A 
ENDROOT
TORSDOF 0
ENDMDL
