MODEL 1
REMARK minimizedAffinity 3.83206892
REMARK minimizedRMSD -1
REMARK  0 active torsions:
REMARK  status: ('A' for Active; 'I' for Inactive)
ROOT
ATOM      1  C1  DEN d   1       0.160  -3.737   0.307  0.00  0.00     0.130 A 
ATOM      2  C2  DEN d   1       0.480  -2.323   0.134  0.00  0.00    -0.031 A 
ATOM      3  C3  DEN d   1      -0.661  -1.676  -0.544  0.00  0.00     0.027 A 
ATOM      4  C4  DEN d   1      -2.884  -2.721  -1.333  0.00  0.00     0.027 A 
ATOM      5  C5  DEN d   1      -3.608  -3.890  -1.415  0.00  0.00    -0.003 A 
ATOM      6  C6  DEN d   1      -3.117  -5.086  -0.964  0.00  0.00     0.001 A 
ATOM      7  C7  DEN d   1      -1.884  -5.133  -0.368  0.00  0.00     0.017 A 
ATOM      8  C8  DEN d   1      -1.145  -3.960  -0.288  0.00  0.00    -0.094 A 
ATOM      9  C9  DEN d   1      -1.664  -2.758  -0.739  0.00  0.00    -0.072 A 
ENDROOT
TORSDOF 0
ENDMDL
