MODEL 1
REMARK minimizedAffinity 0.811048388
REMARK minimizedRMSD -1
REMARK  0 active torsions:
REMARK  status: ('A' for Active; 'I' for Inactive)
ROOT
ATOM      1  C1  DEN d   1       0.736  -3.574  -0.234  0.00  0.00     0.130 A 
ATOM      2  C2  DEN d   1       1.163  -2.180  -0.305  0.00  0.00    -0.031 A 
ATOM      3  C3  DEN d   1      -0.016  -1.358  -0.644  0.00  0.00     0.027 A 
ATOM      4  C4  DEN d   1      -2.449  -2.104  -1.059  0.00  0.00     0.027 A 
ATOM      5  C5  DEN d   1      -3.295  -3.189  -1.121  0.00  0.00    -0.003 A 
ATOM      6  C6  DEN d   1      -2.854  -4.471  -0.928  0.00  0.00     0.001 A 
ATOM      7  C7  DEN d   1      -1.539  -4.697  -0.617  0.00  0.00     0.017 A 
ATOM      8  C8  DEN d   1      -0.678  -3.609  -0.560  0.00  0.00    -0.094 A 
ATOM      9  C9  DEN d   1      -1.146  -2.319  -0.747  0.00  0.00    -0.072 A 
ENDROOT
TORSDOF 0
ENDMDL
