MODEL 1
REMARK minimizedAffinity 5.69970703
REMARK minimizedRMSD -1
REMARK  0 active torsions:
REMARK  status: ('A' for Active; 'I' for Inactive)
ROOT
ATOM      1  C1  DEN d   1       4.574   3.754   3.417  0.00  0.00     0.130 A 
ATOM      2  C2  DEN d   1       5.189   4.914   4.058  0.00  0.00    -0.031 A 
ATOM      3  C3  DEN d   1       5.266   6.000   3.060  0.00  0.00     0.027 A 
ATOM      4  C4  DEN d   1       4.495   5.999   0.599  0.00  0.00     0.027 A 
ATOM      5  C5  DEN d   1       3.925   5.240  -0.398  0.00  0.00    -0.003 A 
ATOM      6  C6  DEN d   1       3.565   3.932  -0.206  0.00  0.00     0.001 A 
ATOM      7  C7  DEN d   1       3.731   3.357   1.027  0.00  0.00     0.017 A 
ATOM      8  C8  DEN d   1       4.312   4.115   2.036  0.00  0.00    -0.094 A 
ATOM      9  C9  DEN d   1       4.657   5.439   1.824  0.00  0.00    -0.072 A 
ENDROOT
TORSDOF 0
ENDMDL
