MODEL 1
REMARK minimizedAffinity -2.2012341
REMARK minimizedRMSD -1
REMARK  0 active torsions:
REMARK  status: ('A' for Active; 'I' for Inactive)
ROOT
ATOM      1  C1  DEN d   1       5.542   6.000   3.302  0.00  0.00     0.130 A 
ATOM      2  C2  DEN d   1       6.000   4.917   4.168  0.00  0.00    -0.031 A 
ATOM      3  C3  DEN d   1       5.776   3.641   3.461  0.00  0.00     0.027 A 
ATOM      4  C4  DEN d   1       4.776   3.237   1.118  0.00  0.00     0.027 A 
ATOM      5  C5  DEN d   1       4.232   3.848   0.009  0.00  0.00    -0.003 A 
ATOM      6  C6  DEN d   1       4.057   5.204  -0.065  0.00  0.00     0.001 A 
ATOM      7  C7  DEN d   1       4.471   6.000   0.970  0.00  0.00     0.017 A 
ATOM      8  C8  DEN d   1       5.013   5.391   2.094  0.00  0.00    -0.094 A 
ATOM      9  C9  DEN d   1       5.193   4.019   2.146  0.00  0.00    -0.072 A 
ENDROOT
TORSDOF 0
ENDMDL
