MODEL 1
REMARK minimizedAffinity 7.75161171
REMARK minimizedRMSD -1
REMARK  0 active torsions:
REMARK  status: ('A' for Active; 'I' for Inactive)
ROOT
ATOM      1  C1  DEN d   1       5.255   6.000   3.092  0.00  0.00     0.130 A 
ATOM      2  C2  DEN d   1       5.084   5.005   4.147  0.00  0.00    -0.031 A 
ATOM      3  C3  DEN d   1       4.434   3.819   3.555  0.00  0.00     0.027 A 
ATOM      4  C4  DEN d   1       3.682   3.426   1.119  0.00  0.00     0.027 A 
ATOM      5  C5  DEN d   1       3.607   3.988  -0.136  0.00  0.00    -0.003 A 
ATOM      6  C6  DEN d   1       4.040   5.261  -0.394  0.00  0.00     0.001 A 
ATOM      7  C7  DEN d   1       4.611   6.000   0.608  0.00  0.00     0.017 A 
ATOM      8  C8  DEN d   1       4.684   5.443   1.878  0.00  0.00    -0.094 A 
ATOM      9  C9  DEN d   1       4.252   4.150   2.116  0.00  0.00    -0.072 A 
ENDROOT
TORSDOF 0
ENDMDL
