MODEL 1
REMARK minimizedAffinity 3.07312918
REMARK minimizedRMSD -1
REMARK  0 active torsions:
REMARK  status: ('A' for Active; 'I' for Inactive)
ROOT
ATOM      1  C1  DEN d   1      -1.656  -1.119   3.686  0.00  0.00     0.130 A 
ATOM      2  C2  DEN d   1      -3.028  -1.336   4.135  0.00  0.00    -0.031 A 
ATOM      3  C3  DEN d   1      -3.908  -1.299   2.949  0.00  0.00     0.027 A 
ATOM      4  C4  DEN d   1      -3.280  -0.936   0.474  0.00  0.00     0.027 A 
ATOM      5  C5  DEN d   1      -2.239  -0.698  -0.397  0.00  0.00    -0.003 A 
ATOM      6  C6  DEN d   1      -0.947  -0.550   0.032  0.00  0.00     0.001 A 
ATOM      7  C7  DEN d   1      -0.654  -0.685   1.364  0.00  0.00     0.017 A 
ATOM      8  C8  DEN d   1      -1.699  -0.918   2.249  0.00  0.00    -0.094 A 
ATOM      9  C9  DEN d   1      -2.997  -1.076   1.794  0.00  0.00    -0.072 A 
ENDROOT
TORSDOF 0
ENDMDL
