MODEL 1
REMARK minimizedAffinity 5.16945314
REMARK minimizedRMSD -1
REMARK  0 active torsions:
REMARK  status: ('A' for Active; 'I' for Inactive)
ROOT
ATOM      1  C1  DEN d   1       5.174   4.045   2.923  0.00  0.00     0.130 A 
ATOM      2  C2  DEN d   1       4.521   5.052   3.754  0.00  0.00    -0.031 A 
ATOM      3  C3  DEN d   1       3.822   5.999   2.862  0.00  0.00     0.027 A 
ATOM      4  C4  DEN d   1       3.685   6.000   0.286  0.00  0.00     0.027 A 
ATOM      5  C5  DEN d   1       4.089   5.351  -0.860  0.00  0.00    -0.003 A 
ATOM      6  C6  DEN d   1       4.903   4.250  -0.827  0.00  0.00     0.001 A 
ATOM      7  C7  DEN d   1       5.304   3.738   0.379  0.00  0.00     0.017 A 
ATOM      8  C8  DEN d   1       4.908   4.391   1.538  0.00  0.00    -0.094 A 
ATOM      9  C9  DEN d   1       4.074   5.495   1.485  0.00  0.00    -0.072 A 
ENDROOT
TORSDOF 0
ENDMDL
