MODEL 1
REMARK minimizedAffinity 3.66984797
REMARK minimizedRMSD -1
REMARK  0 active torsions:
REMARK  status: ('A' for Active; 'I' for Inactive)
ROOT
ATOM      1  C1  DEN d   1       4.128   1.904   4.386  0.00  0.00     0.130 A 
ATOM      2  C2  DEN d   1       4.850   1.504   5.591  0.00  0.00    -0.031 A 
ATOM      3  C3  DEN d   1       5.714   2.629   6.000  0.00  0.00     0.027 A 
ATOM      4  C4  DEN d   1       6.000   4.941   4.893  0.00  0.00     0.027 A 
ATOM      5  C5  DEN d   1       5.606   5.739   3.841  0.00  0.00    -0.003 A 
ATOM      6  C6  DEN d   1       4.725   5.305   2.886  0.00  0.00     0.001 A 
ATOM      7  C7  DEN d   1       4.174   4.055   2.989  0.00  0.00     0.017 A 
ATOM      8  C8  DEN d   1       4.572   3.243   4.042  0.00  0.00    -0.094 A 
ATOM      9  C9  DEN d   1       5.454   3.704   5.004  0.00  0.00    -0.072 A 
ENDROOT
TORSDOF 0
ENDMDL
