MODEL 1
REMARK minimizedAffinity 11.7377949
REMARK minimizedRMSD -1
REMARK  0 active torsions:
REMARK  status: ('A' for Active; 'I' for Inactive)
ROOT
ATOM      1  C2' OXE d   1      -5.312  -2.547   2.508  0.00  0.00     0.078 C 
ATOM      2  C1' OXE d   1      -2.634  -3.358   2.726  0.00  0.00     0.078 C 
ATOM      3  C1  OXE d   1      -3.470  -3.978   1.635  0.00  0.00    -0.078 A 
ATOM      4  C2  OXE d   1      -4.792  -3.610   1.565  0.00  0.00    -0.078 A 
ATOM      5  C3  OXE d   1      -5.594  -4.111   0.544  0.00  0.00     0.003 A 
ATOM      6  C4  OXE d   1      -5.108  -5.102  -0.318  0.00  0.00    -0.002 A 
ATOM      7  C5  OXE d   1      -3.775  -5.520  -0.240  0.00  0.00    -0.002 A 
ATOM      8  C6  OXE d   1      -2.933  -4.938   0.702  0.00  0.00     0.003 A 
ENDROOT
TORSDOF 0
ENDMDL
