MODEL 1
REMARK minimizedAffinity 8.30171871
REMARK minimizedRMSD -1
REMARK  0 active torsions:
REMARK  status: ('A' for Active; 'I' for Inactive)
ROOT
ATOM      1  C2' OXE d   1       2.546  -3.866   0.331  0.00  0.00     0.078 C 
ATOM      2  C1' OXE d   1       3.480  -1.222   0.459  0.00  0.00     0.078 C 
ATOM      3  C1  OXE d   1       2.269  -1.580   1.283  0.00  0.00    -0.078 A 
ATOM      4  C2  OXE d   1       1.791  -2.864   1.178  0.00  0.00    -0.078 A 
ATOM      5  C3  OXE d   1       0.709  -3.263   1.958  0.00  0.00     0.003 A 
ATOM      6  C4  OXE d   1       0.010  -2.328   2.732  0.00  0.00    -0.002 A 
ATOM      7  C5  OXE d   1       0.457  -1.005   2.822  0.00  0.00    -0.002 A 
ATOM      8  C6  OXE d   1       1.607  -0.627   2.139  0.00  0.00     0.003 A 
ENDROOT
TORSDOF 0
ENDMDL
