MODEL 1
REMARK minimizedAffinity 10.4813938
REMARK minimizedRMSD -1
REMARK  0 active torsions:
REMARK  status: ('A' for Active; 'I' for Inactive)
ROOT
ATOM      1  C2' OXE d   1       1.347  -0.592   2.223  0.00  0.00     0.078 C 
ATOM      2  C1' OXE d   1       0.290  -0.756   4.819  0.00  0.00     0.078 C 
ATOM      3  C1  OXE d   1      -0.401  -1.534   3.727  0.00  0.00    -0.078 A 
ATOM      4  C2  OXE d   1       0.095  -1.411   2.452  0.00  0.00    -0.078 A 
ATOM      5  C3  OXE d   1      -0.472  -2.150   1.417  0.00  0.00     0.003 A 
ATOM      6  C4  OXE d   1      -1.636  -2.897   1.634  0.00  0.00    -0.002 A 
ATOM      7  C5  OXE d   1      -2.181  -3.004   2.918  0.00  0.00    -0.002 A 
ATOM      8  C6  OXE d   1      -1.553  -2.365   3.981  0.00  0.00     0.003 A 
ENDROOT
TORSDOF 0
ENDMDL
