MODEL 1
REMARK minimizedAffinity 8.4041996
REMARK minimizedRMSD -1
REMARK  0 active torsions:
REMARK  status: ('A' for Active; 'I' for Inactive)
ROOT
ATOM      1  C2' OXE d   1       0.835   5.413  -1.965  0.00  0.00     0.078 C 
ATOM      2  C1' OXE d   1      -1.479   4.382  -3.175  0.00  0.00     0.078 C 
ATOM      3  C1  OXE d   1      -0.803   3.542  -2.120  0.00  0.00    -0.078 A 
ATOM      4  C2  OXE d   1       0.355   4.034  -1.567  0.00  0.00    -0.078 A 
ATOM      5  C3  OXE d   1       0.988   3.325  -0.550  0.00  0.00     0.003 A 
ATOM      6  C4  OXE d   1       0.544   2.046  -0.194  0.00  0.00    -0.002 A 
ATOM      7  C5  OXE d   1      -0.611   1.509  -0.774  0.00  0.00    -0.002 A 
ATOM      8  C6  OXE d   1      -1.318   2.261  -1.705  0.00  0.00     0.003 A 
ENDROOT
TORSDOF 0
ENDMDL
