MODEL 1
REMARK minimizedAffinity 12.4069357
REMARK minimizedRMSD -1
REMARK  0 active torsions:
REMARK  status: ('A' for Active; 'I' for Inactive)
ROOT
ATOM      1  C2' OXE d   1       1.135  -1.061   1.774  0.00  0.00     0.078 C 
ATOM      2  C1' OXE d   1      -0.113  -0.428   4.208  0.00  0.00     0.078 C 
ATOM      3  C1  OXE d   1      -0.833  -1.366   3.271  0.00  0.00    -0.078 A 
ATOM      4  C2  OXE d   1      -0.237  -1.633   2.062  0.00  0.00    -0.078 A 
ATOM      5  C3  OXE d   1      -0.832  -2.534   1.184  0.00  0.00     0.003 A 
ATOM      6  C4  OXE d   1      -2.105  -3.051   1.454  0.00  0.00    -0.002 A 
ATOM      7  C5  OXE d   1      -2.748  -2.760   2.662  0.00  0.00    -0.002 A 
ATOM      8  C6  OXE d   1      -2.108  -1.955   3.598  0.00  0.00     0.003 A 
ENDROOT
TORSDOF 0
ENDMDL
