MODEL 1
REMARK minimizedAffinity 7.22865343
REMARK minimizedRMSD -1
REMARK  0 active torsions:
REMARK  status: ('A' for Active; 'I' for Inactive)
ROOT
ATOM      1  C2' OXE d   1       1.501  -0.756   1.367  0.00  0.00     0.078 C 
ATOM      2  C1' OXE d   1       2.052   1.536  -0.157  0.00  0.00     0.078 C 
ATOM      3  C1  OXE d   1       3.000   0.369  -0.273  0.00  0.00    -0.078 A 
ATOM      4  C2  OXE d   1       2.749  -0.730   0.512  0.00  0.00    -0.078 A 
ATOM      5  C3  OXE d   1       3.561  -1.855   0.402  0.00  0.00     0.003 A 
ATOM      6  C4  OXE d   1       4.719  -1.820  -0.384  0.00  0.00    -0.002 A 
ATOM      7  C5  OXE d   1       5.016  -0.695  -1.161  0.00  0.00    -0.002 A 
ATOM      8  C6  OXE d   1       4.146   0.389  -1.149  0.00  0.00     0.003 A 
ENDROOT
TORSDOF 0
ENDMDL
