MODEL 1
REMARK minimizedAffinity 5.68618059
REMARK minimizedRMSD -1
REMARK  0 active torsions:
REMARK  status: ('A' for Active; 'I' for Inactive)
ROOT
ATOM      1  C2' OXE d   1      -1.105  -3.385   2.436  0.00  0.00     0.078 C 
ATOM      2  C1' OXE d   1       0.805  -1.379   1.987  0.00  0.00     0.078 C 
ATOM      3  C1  OXE d   1      -0.014  -1.300   3.251  0.00  0.00    -0.078 A 
ATOM      4  C2  OXE d   1      -0.979  -2.260   3.440  0.00  0.00    -0.078 A 
ATOM      5  C3  OXE d   1      -1.725  -2.265   4.615  0.00  0.00     0.003 A 
ATOM      6  C4  OXE d   1      -1.609  -1.214   5.533  0.00  0.00    -0.002 A 
ATOM      7  C5  OXE d   1      -0.660  -0.205   5.340  0.00  0.00    -0.002 A 
ATOM      8  C6  OXE d   1       0.173  -0.256   4.228  0.00  0.00     0.003 A 
ENDROOT
TORSDOF 0
ENDMDL
