MODEL 1
REMARK minimizedAffinity 1.29760313
REMARK minimizedRMSD -1
REMARK  0 active torsions:
REMARK  status: ('A' for Active; 'I' for Inactive)
ROOT
ATOM      1  C2' OXE d   1      -1.316  -3.181   2.648  0.00  0.00     0.078 C 
ATOM      2  C1' OXE d   1       0.593  -1.137   2.405  0.00  0.00     0.078 C 
ATOM      3  C1  OXE d   1      -0.197  -1.213   3.688  0.00  0.00    -0.078 A 
ATOM      4  C2  OXE d   1      -1.161  -2.188   3.780  0.00  0.00    -0.078 A 
ATOM      5  C3  OXE d   1      -1.880  -2.336   4.962  0.00  0.00     0.003 A 
ATOM      6  C4  OXE d   1      -1.739  -1.407   6.000  0.00  0.00    -0.002 A 
ATOM      7  C5  OXE d   1      -0.790  -0.383   5.911  0.00  0.00    -0.002 A 
ATOM      8  C6  OXE d   1       0.017  -0.298   4.781  0.00  0.00     0.003 A 
ENDROOT
TORSDOF 0
ENDMDL
