MODEL 1
REMARK minimizedAffinity 6.0839076
REMARK minimizedRMSD -1
REMARK  0 active torsions:
REMARK  status: ('A' for Active; 'I' for Inactive)
ROOT
ATOM      1  C2' OXE d   1       0.016   5.973  -1.869  0.00  0.00     0.078 C 
ATOM      2  C1' OXE d   1      -1.326   4.200  -3.584  0.00  0.00     0.078 C 
ATOM      3  C1  OXE d   1      -0.588   3.616  -2.405  0.00  0.00    -0.078 A 
ATOM      4  C2  OXE d   1       0.105   4.486  -1.598  0.00  0.00    -0.078 A 
ATOM      5  C3  OXE d   1       0.757   4.006  -0.466  0.00  0.00     0.003 A 
ATOM      6  C4  OXE d   1       0.843   2.629  -0.228  0.00  0.00    -0.002 A 
ATOM      7  C5  OXE d   1       0.179   1.722  -1.060  0.00  0.00    -0.002 A 
ATOM      8  C6  OXE d   1      -0.575   2.201  -2.126  0.00  0.00     0.003 A 
ENDROOT
TORSDOF 0
ENDMDL
