MODEL 1
REMARK minimizedAffinity 7.56680346
REMARK minimizedRMSD -1
REMARK  0 active torsions:
REMARK  status: ('A' for Active; 'I' for Inactive)
ROOT
ATOM      1  C2' OXE d   1       0.561  -2.334   2.499  0.00  0.00     0.078 C 
ATOM      2  C1' OXE d   1      -1.489  -4.083   3.287  0.00  0.00     0.078 C 
ATOM      3  C1  OXE d   1      -1.274  -2.836   4.108  0.00  0.00    -0.078 A 
ATOM      4  C2  OXE d   1      -0.239  -2.010   3.742  0.00  0.00    -0.078 A 
ATOM      5  C3  OXE d   1      -0.032  -0.818   4.432  0.00  0.00     0.003 A 
ATOM      6  C4  OXE d   1      -0.769  -0.530   5.587  0.00  0.00    -0.002 A 
ATOM      7  C5  OXE d   1      -1.802  -1.379   6.000  0.00  0.00    -0.002 A 
ATOM      8  C6  OXE d   1      -2.095  -2.512   5.248  0.00  0.00     0.003 A 
ENDROOT
TORSDOF 0
ENDMDL
