MODEL 1
REMARK minimizedAffinity 13.656311
REMARK minimizedRMSD -1
REMARK  0 active torsions:
REMARK  status: ('A' for Active; 'I' for Inactive)
ROOT
ATOM      1  C2' OXE d   1       1.223   0.032   4.899  0.00  0.00     0.078 C 
ATOM      2  C1' OXE d   1      -1.416  -0.506   5.692  0.00  0.00     0.078 C 
ATOM      3  C1  OXE d   1      -0.960  -1.038   4.356  0.00  0.00    -0.078 A 
ATOM      4  C2  OXE d   1       0.318  -0.730   3.955  0.00  0.00    -0.078 A 
ATOM      5  C3  OXE d   1       0.806  -1.241   2.757  0.00  0.00     0.003 A 
ATOM      6  C4  OXE d   1      -0.040  -1.937   1.885  0.00  0.00    -0.002 A 
ATOM      7  C5  OXE d   1      -1.357  -2.227   2.256  0.00  0.00    -0.002 A 
ATOM      8  C6  OXE d   1      -1.819  -1.823   3.504  0.00  0.00     0.003 A 
ENDROOT
TORSDOF 0
ENDMDL
