MODEL 1
REMARK minimizedAffinity 9.57476139
REMARK minimizedRMSD -1
REMARK  0 active torsions:
REMARK  status: ('A' for Active; 'I' for Inactive)
ROOT
ATOM      1  C2' OXE d   1      -5.713   1.815  -1.831  0.00  0.00     0.078 C 
ATOM      2  C1' OXE d   1      -5.096   4.333  -0.755  0.00  0.00     0.078 C 
ATOM      3  C1  OXE d   1      -4.006   3.598  -1.494  0.00  0.00    -0.078 A 
ATOM      4  C2  OXE d   1      -4.303   2.346  -1.976  0.00  0.00    -0.078 A 
ATOM      5  C3  OXE d   1      -3.350   1.647  -2.712  0.00  0.00     0.003 A 
ATOM      6  C4  OXE d   1      -2.046   2.141  -2.833  0.00  0.00    -0.002 A 
ATOM      7  C5  OXE d   1      -1.711   3.396  -2.315  0.00  0.00    -0.002 A 
ATOM      8  C6  OXE d   1      -2.689   4.154  -1.681  0.00  0.00     0.003 A 
ENDROOT
TORSDOF 0
ENDMDL
