MODEL 1
REMARK minimizedAffinity 4.10512257
REMARK minimizedRMSD -1
REMARK  0 active torsions:
REMARK  status: ('A' for Active; 'I' for Inactive)
ROOT
ATOM      1  C2' OXE d   1      -1.087  -0.835   5.355  0.00  0.00     0.078 C 
ATOM      2  C1' OXE d   1      -1.713  -3.042   3.736  0.00  0.00     0.078 C 
ATOM      3  C1  OXE d   1      -0.563  -2.162   3.312  0.00  0.00    -0.078 A 
ATOM      4  C2  OXE d   1      -0.294  -1.058   4.085  0.00  0.00    -0.078 A 
ATOM      5  C3  OXE d   1       0.790  -0.244   3.770  0.00  0.00     0.003 A 
ATOM      6  C4  OXE d   1       1.513  -0.451   2.588  0.00  0.00    -0.002 A 
ATOM      7  C5  OXE d   1       1.229  -1.547   1.766  0.00  0.00    -0.002 A 
ATOM      8  C6  OXE d   1       0.224  -2.434   2.135  0.00  0.00     0.003 A 
ENDROOT
TORSDOF 0
ENDMDL
