MODEL 1
REMARK minimizedAffinity 14.9669828
REMARK minimizedRMSD -1
REMARK  0 active torsions:
REMARK  status: ('A' for Active; 'I' for Inactive)
ROOT
ATOM      1  C2' OXE d   1      -4.460   5.247  -1.877  0.00  0.00     0.078 C 
ATOM      2  C1' OXE d   1      -2.021   6.000  -3.045  0.00  0.00     0.078 C 
ATOM      3  C1  OXE d   1      -2.245   4.535  -2.765  0.00  0.00    -0.078 A 
ATOM      4  C2  OXE d   1      -3.422   4.181  -2.150  0.00  0.00    -0.078 A 
ATOM      5  C3  OXE d   1      -3.702   2.837  -1.919  0.00  0.00     0.003 A 
ATOM      6  C4  OXE d   1      -2.731   1.858  -2.165  0.00  0.00    -0.002 A 
ATOM      7  C5  OXE d   1      -1.510   2.202  -2.755  0.00  0.00    -0.002 A 
ATOM      8  C6  OXE d   1      -1.269   3.527  -3.099  0.00  0.00     0.003 A 
ENDROOT
TORSDOF 0
ENDMDL
