MODEL 1
REMARK minimizedAffinity 24.3875313
REMARK minimizedRMSD -1
REMARK  0 active torsions:
REMARK  status: ('A' for Active; 'I' for Inactive)
ROOT
ATOM      1  C2' OXE d   1       3.061   1.908   1.044  0.00  0.00     0.078 C 
ATOM      2  C1' OXE d   1       0.414   1.979   0.111  0.00  0.00     0.078 C 
ATOM      3  C1  OXE d   1       0.891   0.714   0.779  0.00  0.00    -0.078 A 
ATOM      4  C2  OXE d   1       2.201   0.671   1.191  0.00  0.00    -0.078 A 
ATOM      5  C3  OXE d   1       2.676  -0.452   1.863  0.00  0.00     0.003 A 
ATOM      6  C4  OXE d   1       1.877  -1.595   1.985  0.00  0.00    -0.002 A 
ATOM      7  C5  OXE d   1       0.552  -1.587   1.537  0.00  0.00    -0.002 A 
ATOM      8  C6  OXE d   1       0.031  -0.428   0.971  0.00  0.00     0.003 A 
ENDROOT
TORSDOF 0
ENDMDL
