MODEL 1
REMARK minimizedAffinity 18.493576
REMARK minimizedRMSD -1
REMARK  0 active torsions:
REMARK  status: ('A' for Active; 'I' for Inactive)
ROOT
ATOM      1  C2' OXE d   1       0.608  -3.493  -4.239  0.00  0.00     0.078 C 
ATOM      2  C1' OXE d   1       1.103  -5.998  -5.405  0.00  0.00     0.078 C 
ATOM      3  C1  OXE d   1       2.222  -4.986  -5.410  0.00  0.00    -0.078 A 
ATOM      4  C2  OXE d   1       1.956  -3.747  -4.879  0.00  0.00    -0.078 A 
ATOM      5  C3  OXE d   1       2.969  -2.795  -4.809  0.00  0.00     0.003 A 
ATOM      6  C4  OXE d   1       4.209  -3.034  -5.412  0.00  0.00    -0.002 A 
ATOM      7  C5  OXE d   1       4.488  -4.276  -5.994  0.00  0.00    -0.002 A 
ATOM      8  C6  OXE d   1       3.522  -5.275  -5.963  0.00  0.00     0.003 A 
ENDROOT
TORSDOF 0
ENDMDL
