MODEL 1
REMARK minimizedAffinity 21.7892208
REMARK minimizedRMSD -1
REMARK  0 active torsions:
REMARK  status: ('A' for Active; 'I' for Inactive)
ROOT
ATOM      1  C2' OXE d   1      -0.672   6.000  -2.908  0.00  0.00     0.078 C 
ATOM      2  C1' OXE d   1      -1.233   3.362  -3.688  0.00  0.00     0.078 C 
ATOM      3  C1  OXE d   1      -0.524   3.571  -2.374  0.00  0.00    -0.078 A 
ATOM      4  C2  OXE d   1      -0.212   4.863  -2.022  0.00  0.00    -0.078 A 
ATOM      5  C3  OXE d   1       0.392   5.116  -0.794  0.00  0.00     0.003 A 
ATOM      6  C4  OXE d   1       0.823   4.058   0.015  0.00  0.00    -0.002 A 
ATOM      7  C5  OXE d   1       0.551   2.733  -0.343  0.00  0.00    -0.002 A 
ATOM      8  C6  OXE d   1      -0.158   2.475  -1.511  0.00  0.00     0.003 A 
ENDROOT
TORSDOF 0
ENDMDL
