MODEL 1
REMARK minimizedAffinity -4.07813454
REMARK minimizedRMSD -1
REMARK  0 active torsions:
REMARK  status: ('A' for Active; 'I' for Inactive)
ROOT
ATOM      1  C   UNL d   1       1.132  -2.231   0.309  0.00  0.00     0.077 C 
ATOM      2  C1  UNL d   1       0.022  -1.499   1.004  0.00  0.00    -0.074 A 
ATOM      3  C2  UNL d   1      -0.812  -2.156   1.915  0.00  0.00    -0.005 A 
ATOM      4  C3  UNL d   1      -1.834  -1.460   2.561  0.00  0.00     0.006 A 
ATOM      5  C4  UNL d   1      -2.032  -0.103   2.303  0.00  0.00    -0.005 A 
ATOM      6  C5  UNL d   1      -1.208   0.570   1.396  0.00  0.00    -0.074 A 
ATOM      7  C6  UNL d   1      -1.401   2.031   1.115  0.00  0.00     0.077 C 
ATOM      8  C7  UNL d   1      -0.178  -0.134   0.757  0.00  0.00    -0.001 A 
ENDROOT
TORSDOF 0
ENDMDL
