MODEL 1
REMARK minimizedAffinity -5.34396935
REMARK minimizedRMSD -1
REMARK  0 active torsions:
REMARK  status: ('A' for Active; 'I' for Inactive)
ROOT
ATOM      1  C   UNL d   1       0.826   1.081  -0.818  0.00  0.00     0.077 C 
ATOM      2  C1  UNL d   1       0.126   0.026  -0.014  0.00  0.00    -0.074 A 
ATOM      3  C2  UNL d   1       0.663  -1.259   0.108  0.00  0.00    -0.005 A 
ATOM      4  C3  UNL d   1       0.005  -2.227   0.867  0.00  0.00     0.006 A 
ATOM      5  C4  UNL d   1      -1.194  -1.920   1.511  0.00  0.00    -0.005 A 
ATOM      6  C5  UNL d   1      -1.746  -0.639   1.401  0.00  0.00    -0.074 A 
ATOM      7  C6  UNL d   1      -3.029  -0.290   2.095  0.00  0.00     0.077 C 
ATOM      8  C7  UNL d   1      -1.075   0.330   0.642  0.00  0.00    -0.001 A 
ENDROOT
TORSDOF 0
ENDMDL
