MODEL 1
REMARK minimizedAffinity -3.33277225
REMARK minimizedRMSD -1
REMARK  0 active torsions:
REMARK  status: ('A' for Active; 'I' for Inactive)
ROOT
ATOM      1  C   UNL d   1       3.933   2.069  -2.112  0.00  0.00     0.077 C 
ATOM      2  C1  UNL d   1       2.452   1.830  -2.142  0.00  0.00    -0.074 A 
ATOM      3  C2  UNL d   1       1.664   2.329  -3.184  0.00  0.00    -0.005 A 
ATOM      4  C3  UNL d   1       0.290   2.091  -3.203  0.00  0.00     0.006 A 
ATOM      5  C4  UNL d   1      -0.309   1.353  -2.182  0.00  0.00    -0.005 A 
ATOM      6  C5  UNL d   1       0.463   0.846  -1.132  0.00  0.00    -0.074 A 
ATOM      7  C6  UNL d   1      -0.164   0.042  -0.031  0.00  0.00     0.077 C 
ATOM      8  C7  UNL d   1       1.844   1.083  -1.123  0.00  0.00    -0.001 A 
ENDROOT
TORSDOF 0
ENDMDL
