MODEL 1
REMARK minimizedAffinity -4.78715754
REMARK minimizedRMSD -1
REMARK  0 active torsions:
REMARK  status: ('A' for Active; 'I' for Inactive)
ROOT
ATOM      1  C   UNL d   1      -0.027   1.578  -0.392  0.00  0.00     0.077 C 
ATOM      2  C1  UNL d   1       0.036   0.144   0.042  0.00  0.00    -0.074 A 
ATOM      3  C2  UNL d   1       1.263  -0.514   0.173  0.00  0.00    -0.005 A 
ATOM      4  C3  UNL d   1       1.306  -1.846   0.588  0.00  0.00     0.006 A 
ATOM      5  C4  UNL d   1       0.125  -2.531   0.875  0.00  0.00    -0.005 A 
ATOM      6  C5  UNL d   1      -1.111  -1.889   0.750  0.00  0.00    -0.074 A 
ATOM      7  C6  UNL d   1      -2.390  -2.607   1.065  0.00  0.00     0.077 C 
ATOM      8  C7  UNL d   1      -1.146  -0.549   0.340  0.00  0.00    -0.001 A 
ENDROOT
TORSDOF 0
ENDMDL
