MODEL 1
REMARK minimizedAffinity -1.23361218
REMARK minimizedRMSD -1
REMARK  0 active torsions:
REMARK  status: ('A' for Active; 'I' for Inactive)
ROOT
ATOM      1  C   UNL d   1       0.585  -0.887   0.868  0.00  0.00     0.077 C 
ATOM      2  C1  UNL d   1       0.618   0.219  -0.145  0.00  0.00    -0.074 A 
ATOM      3  C2  UNL d   1       0.763   1.552   0.251  0.00  0.00    -0.005 A 
ATOM      4  C3  UNL d   1       0.801   2.569  -0.703  0.00  0.00     0.006 A 
ATOM      5  C4  UNL d   1       0.695   2.263  -2.061  0.00  0.00    -0.005 A 
ATOM      6  C5  UNL d   1       0.550   0.936  -2.475  0.00  0.00    -0.074 A 
ATOM      7  C6  UNL d   1       0.445   0.589  -3.931  0.00  0.00     0.077 C 
ATOM      8  C7  UNL d   1       0.520  -0.081  -1.511  0.00  0.00    -0.001 A 
ENDROOT
TORSDOF 0
ENDMDL
