MODEL 1
REMARK minimizedAffinity -2.02022672
REMARK minimizedRMSD -1
REMARK  0 active torsions:
REMARK  status: ('A' for Active; 'I' for Inactive)
ROOT
ATOM      1  C   UNL d   1      -2.251  -0.992   2.535  0.00  0.00     0.077 C 
ATOM      2  C1  UNL d   1      -1.067  -1.068   1.616  0.00  0.00    -0.074 A 
ATOM      3  C2  UNL d   1      -0.381  -2.271   1.425  0.00  0.00    -0.005 A 
ATOM      4  C3  UNL d   1       0.711  -2.328   0.560  0.00  0.00     0.006 A 
ATOM      5  C4  UNL d   1       1.129  -1.184  -0.121  0.00  0.00    -0.005 A 
ATOM      6  C5  UNL d   1       0.455   0.028   0.057  0.00  0.00    -0.074 A 
ATOM      7  C6  UNL d   1       0.884   1.265  -0.675  0.00  0.00     0.077 C 
ATOM      8  C7  UNL d   1      -0.647   0.076   0.922  0.00  0.00    -0.001 A 
ENDROOT
TORSDOF 0
ENDMDL
