MODEL 1
REMARK minimizedAffinity -2.28539896
REMARK minimizedRMSD -1
REMARK  0 active torsions:
REMARK  status: ('A' for Active; 'I' for Inactive)
ROOT
ATOM      1  C   UNL d   1      -0.696   3.654  -2.971  0.00  0.00     0.077 C 
ATOM      2  C1  UNL d   1       0.165   2.442  -2.770  0.00  0.00    -0.074 A 
ATOM      3  C2  UNL d   1       0.972   1.955  -3.803  0.00  0.00    -0.005 A 
ATOM      4  C3  UNL d   1       1.775   0.832  -3.598  0.00  0.00     0.006 A 
ATOM      5  C4  UNL d   1       1.779   0.187  -2.361  0.00  0.00    -0.005 A 
ATOM      6  C5  UNL d   1       0.979   0.661  -1.316  0.00  0.00    -0.074 A 
ATOM      7  C6  UNL d   1       0.979  -0.015   0.023  0.00  0.00     0.077 C 
ATOM      8  C7  UNL d   1       0.180   1.793  -1.527  0.00  0.00    -0.001 A 
ENDROOT
TORSDOF 0
ENDMDL
