MODEL 1
REMARK minimizedAffinity -5.87425423
REMARK minimizedRMSD -1
REMARK  0 active torsions:
REMARK  status: ('A' for Active; 'I' for Inactive)
ROOT
ATOM      1  C   UNL d   1       0.820   0.726  -0.637  0.00  0.00     0.077 C 
ATOM      2  C1  UNL d   1       0.036  -0.155   0.289  0.00  0.00    -0.074 A 
ATOM      3  C2  UNL d   1       0.437  -1.471   0.539  0.00  0.00    -0.005 A 
ATOM      4  C3  UNL d   1      -0.297  -2.277   1.410  0.00  0.00     0.006 A 
ATOM      5  C4  UNL d   1      -1.437  -1.775   2.038  0.00  0.00    -0.005 A 
ATOM      6  C5  UNL d   1      -1.853  -0.461   1.800  0.00  0.00    -0.074 A 
ATOM      7  C6  UNL d   1      -3.071   0.097   2.475  0.00  0.00     0.077 C 
ATOM      8  C7  UNL d   1      -1.107   0.344   0.929  0.00  0.00    -0.001 A 
ENDROOT
TORSDOF 0
ENDMDL
