MODEL 1
REMARK minimizedAffinity -2.19946527
REMARK minimizedRMSD -1
REMARK  0 active torsions:
REMARK  status: ('A' for Active; 'I' for Inactive)
ROOT
ATOM      1  C   UNL d   1      -2.070   0.787   1.423  0.00  0.00     0.077 C 
ATOM      2  C1  UNL d   1      -0.786   0.459   0.720  0.00  0.00    -0.074 A 
ATOM      3  C2  UNL d   1      -0.166  -0.782   0.898  0.00  0.00    -0.005 A 
ATOM      4  C3  UNL d   1       1.023  -1.076   0.231  0.00  0.00     0.006 A 
ATOM      5  C4  UNL d   1       1.603  -0.134  -0.620  0.00  0.00    -0.005 A 
ATOM      6  C5  UNL d   1       0.997   1.112  -0.811  0.00  0.00    -0.074 A 
ATOM      7  C6  UNL d   1       1.602   2.132  -1.729  0.00  0.00     0.077 C 
ATOM      8  C7  UNL d   1      -0.201   1.397  -0.142  0.00  0.00    -0.001 A 
ENDROOT
TORSDOF 0
ENDMDL
