MODEL 1
REMARK minimizedAffinity 9.69825745
REMARK minimizedRMSD -1
REMARK  0 active torsions:
REMARK  status: ('A' for Active; 'I' for Inactive)
ROOT
ATOM      1  C   UNL d   1      -5.070  -5.343  -5.988  0.00  0.00     0.077 C 
ATOM      2  C1  UNL d   1      -3.708  -4.728  -5.860  0.00  0.00    -0.074 A 
ATOM      3  C2  UNL d   1      -3.527  -3.348  -5.994  0.00  0.00    -0.005 A 
ATOM      4  C3  UNL d   1      -2.256  -2.789  -5.863  0.00  0.00     0.006 A 
ATOM      5  C4  UNL d   1      -1.155  -3.603  -5.596  0.00  0.00    -0.005 A 
ATOM      6  C5  UNL d   1      -1.316  -4.985  -5.457  0.00  0.00    -0.074 A 
ATOM      7  C6  UNL d   1      -0.145  -5.874  -5.161  0.00  0.00     0.077 C 
ATOM      8  C7  UNL d   1      -2.598  -5.538  -5.584  0.00  0.00    -0.001 A 
ENDROOT
TORSDOF 0
ENDMDL
