MODEL 1
REMARK minimizedAffinity -1.37610555
REMARK minimizedRMSD -1
REMARK  0 active torsions:
REMARK  status: ('A' for Active; 'I' for Inactive)
ROOT
ATOM      1  C   UNL d   1      -0.006   1.121  -4.874  0.00  0.00     0.077 C 
ATOM      2  C1  UNL d   1       0.428   1.481  -3.484  0.00  0.00    -0.074 A 
ATOM      3  C2  UNL d   1       1.060   2.701  -3.221  0.00  0.00    -0.005 A 
ATOM      4  C3  UNL d   1       1.448   3.026  -1.921  0.00  0.00     0.006 A 
ATOM      5  C4  UNL d   1       1.210   2.136  -0.873  0.00  0.00    -0.005 A 
ATOM      6  C5  UNL d   1       0.578   0.912  -1.117  0.00  0.00    -0.074 A 
ATOM      7  C6  UNL d   1       0.305  -0.051   0.000  0.00  0.00     0.077 C 
ATOM      8  C7  UNL d   1       0.184   0.596  -2.424  0.00  0.00    -0.001 A 
ENDROOT
TORSDOF 0
ENDMDL
