MODEL 1
REMARK minimizedAffinity -2.08222008
REMARK minimizedRMSD -1
REMARK  0 active torsions:
REMARK  status: ('A' for Active; 'I' for Inactive)
ROOT
ATOM      1  C   UNL d   1      -2.692   0.033   2.287  0.00  0.00     0.077 C 
ATOM      2  C1  UNL d   1      -1.411  -0.348   1.606  0.00  0.00    -0.074 A 
ATOM      3  C2  UNL d   1      -0.857  -1.621   1.779  0.00  0.00    -0.005 A 
ATOM      4  C3  UNL d   1       0.330  -1.964   1.131  0.00  0.00     0.006 A 
ATOM      5  C4  UNL d   1       0.974  -1.041   0.307  0.00  0.00    -0.005 A 
ATOM      6  C5  UNL d   1       0.434   0.236   0.122  0.00  0.00    -0.074 A 
ATOM      7  C6  UNL d   1       1.107   1.237  -0.769  0.00  0.00     0.077 C 
ATOM      8  C7  UNL d   1      -0.763   0.571   0.770  0.00  0.00    -0.001 A 
ENDROOT
TORSDOF 0
ENDMDL
