MODEL 1
REMARK minimizedAffinity -2.031039
REMARK minimizedRMSD -1
REMARK  0 active torsions:
REMARK  status: ('A' for Active; 'I' for Inactive)
ROOT
ATOM      1  C   UNL d   1       3.674   1.518  -3.681  0.00  0.00     0.077 C 
ATOM      2  C1  UNL d   1       2.327   1.705  -3.048  0.00  0.00    -0.074 A 
ATOM      3  C2  UNL d   1       1.225   2.109  -3.808  0.00  0.00    -0.005 A 
ATOM      4  C3  UNL d   1      -0.023   2.269  -3.207  0.00  0.00     0.006 A 
ATOM      5  C4  UNL d   1      -0.182   2.027  -1.842  0.00  0.00    -0.005 A 
ATOM      6  C5  UNL d   1       0.909   1.622  -1.066  0.00  0.00    -0.074 A 
ATOM      7  C6  UNL d   1       0.753   1.348   0.401  0.00  0.00     0.077 C 
ATOM      8  C7  UNL d   1       2.158   1.456  -1.678  0.00  0.00    -0.001 A 
ENDROOT
TORSDOF 0
ENDMDL
