MODEL 1
REMARK minimizedAffinity -4.09517336
REMARK minimizedRMSD -1
REMARK  0 active torsions:
REMARK  status: ('A' for Active; 'I' for Inactive)
ROOT
ATOM      1  C   UNL d   1       0.742   0.997  -0.510  0.00  0.00     0.077 C 
ATOM      2  C1  UNL d   1       0.109  -0.135   0.242  0.00  0.00    -0.074 A 
ATOM      3  C2  UNL d   1       0.642  -1.427   0.180  0.00  0.00    -0.005 A 
ATOM      4  C3  UNL d   1       0.048  -2.468   0.893  0.00  0.00     0.006 A 
ATOM      5  C4  UNL d   1      -1.083  -2.229   1.674  0.00  0.00    -0.005 A 
ATOM      6  C5  UNL d   1      -1.630  -0.944   1.749  0.00  0.00    -0.074 A 
ATOM      7  C6  UNL d   1      -2.840  -0.668   2.591  0.00  0.00     0.077 C 
ATOM      8  C7  UNL d   1      -1.023   0.098   1.035  0.00  0.00    -0.001 A 
ENDROOT
TORSDOF 0
ENDMDL
