MODEL 1
REMARK minimizedAffinity -4.65560102
REMARK minimizedRMSD -1
REMARK  0 active torsions:
REMARK  status: ('A' for Active; 'I' for Inactive)
ROOT
ATOM      1  C   UNL d   1       0.863   1.138  -0.710  0.00  0.00     0.077 C 
ATOM      2  C1  UNL d   1       0.252  -0.070  -0.064  0.00  0.00    -0.074 A 
ATOM      3  C2  UNL d   1       0.645  -1.360  -0.435  0.00  0.00    -0.005 A 
ATOM      4  C3  UNL d   1       0.075  -2.473   0.181  0.00  0.00     0.006 A 
ATOM      5  C4  UNL d   1      -0.893  -2.309   1.173  0.00  0.00    -0.005 A 
ATOM      6  C5  UNL d   1      -1.298  -1.027   1.558  0.00  0.00    -0.074 A 
ATOM      7  C6  UNL d   1      -2.329  -0.832   2.629  0.00  0.00     0.077 C 
ATOM      8  C7  UNL d   1      -0.715   0.088   0.939  0.00  0.00    -0.001 A 
ENDROOT
TORSDOF 0
ENDMDL
