MODEL 1
REMARK minimizedAffinity -2.76833773
REMARK minimizedRMSD -1
REMARK  0 active torsions:
REMARK  status: ('A' for Active; 'I' for Inactive)
ROOT
ATOM      1  C   UNL d   1       1.262   1.451  -1.135  0.00  0.00     0.077 C 
ATOM      2  C1  UNL d   1       0.370   0.714  -0.181  0.00  0.00    -0.074 A 
ATOM      3  C2  UNL d   1      -0.774   1.319   0.348  0.00  0.00    -0.005 A 
ATOM      4  C3  UNL d   1      -1.599   0.617   1.227  0.00  0.00     0.006 A 
ATOM      5  C4  UNL d   1      -1.289  -0.695   1.585  0.00  0.00    -0.005 A 
ATOM      6  C5  UNL d   1      -0.149  -1.317   1.066  0.00  0.00    -0.074 A 
ATOM      7  C6  UNL d   1       0.194  -2.731   1.433  0.00  0.00     0.077 C 
ATOM      8  C7  UNL d   1       0.671  -0.608   0.178  0.00  0.00    -0.001 A 
ENDROOT
TORSDOF 0
ENDMDL
