MODEL 1
REMARK minimizedAffinity -3.40151405
REMARK minimizedRMSD -1
REMARK  0 active torsions:
REMARK  status: ('A' for Active; 'I' for Inactive)
ROOT
ATOM      1  C   UNL d   1       4.441   1.380  -3.694  0.00  0.00     0.077 C 
ATOM      2  C1  UNL d   1       3.004   1.532  -3.294  0.00  0.00    -0.074 A 
ATOM      3  C2  UNL d   1       2.002   1.688  -4.257  0.00  0.00    -0.005 A 
ATOM      4  C3  UNL d   1       0.668   1.818  -3.870  0.00  0.00     0.006 A 
ATOM      5  C4  UNL d   1       0.324   1.795  -2.518  0.00  0.00    -0.005 A 
ATOM      6  C5  UNL d   1       1.312   1.639  -1.541  0.00  0.00    -0.074 A 
ATOM      7  C6  UNL d   1       0.957   1.602  -0.084  0.00  0.00     0.077 C 
ATOM      8  C7  UNL d   1       2.649   1.501  -1.938  0.00  0.00    -0.001 A 
ENDROOT
TORSDOF 0
ENDMDL
