MODEL 1
REMARK minimizedAffinity -2.02990246
REMARK minimizedRMSD -1
REMARK  0 active torsions:
REMARK  status: ('A' for Active; 'I' for Inactive)
ROOT
ATOM      1  C   UNL d   1       3.876   1.762  -3.045  0.00  0.00     0.077 C 
ATOM      2  C1  UNL d   1       2.405   1.706  -2.755  0.00  0.00    -0.074 A 
ATOM      3  C2  UNL d   1       1.465   1.971  -3.756  0.00  0.00    -0.005 A 
ATOM      4  C3  UNL d   1       0.100   1.905  -3.474  0.00  0.00     0.006 A 
ATOM      5  C4  UNL d   1      -0.337   1.575  -2.191  0.00  0.00    -0.005 A 
ATOM      6  C5  UNL d   1       0.589   1.305  -1.177  0.00  0.00    -0.074 A 
ATOM      7  C6  UNL d   1       0.136   0.939   0.205  0.00  0.00     0.077 C 
ATOM      8  C7  UNL d   1       1.958   1.366  -1.470  0.00  0.00    -0.001 A 
ENDROOT
TORSDOF 0
ENDMDL
