MODEL 1
REMARK minimizedAffinity 7.60780668
REMARK minimizedRMSD -1
REMARK  0 active torsions:
REMARK  status: ('A' for Active; 'I' for Inactive)
ROOT
ATOM      1  C   UNL d   1       1.952   4.924  -0.783  0.00  0.00     0.020 A 
ATOM      2  C1  UNL d   1       0.637   5.354  -0.960  0.00  0.00     0.020 A 
ATOM      3  C2  UNL d   1      -0.423   4.541  -0.554  0.00  0.00     0.034 A 
ATOM      4  C3  UNL d   1      -0.171   3.295   0.032  0.00  0.00     0.017 A 
ATOM      5  C4  UNL d   1       1.149   2.865   0.209  0.00  0.00     0.017 A 
ATOM      6  C5  UNL d   1       2.207   3.683  -0.200  0.00  0.00     0.034 A 
ATOM      7 Cl   UNL d   1       1.539   1.340   0.923  0.00  0.00    -0.070 Cl
ATOM      8 Cl1  UNL d   1      -1.531   2.342   0.510  0.00  0.00    -0.070 Cl
ENDROOT
TORSDOF 0
ENDMDL
