MODEL 1
REMARK minimizedAffinity 2.91947031
REMARK minimizedRMSD -1
REMARK  0 active torsions:
REMARK  status: ('A' for Active; 'I' for Inactive)
ROOT
ATOM      1  C   UNL d   1      -4.510   6.000   0.485  0.00  0.00     0.020 A 
ATOM      2  C1  UNL d   1      -5.101   5.240   1.493  0.00  0.00     0.020 A 
ATOM      3  C2  UNL d   1      -4.532   4.023   1.876  0.00  0.00     0.034 A 
ATOM      4  C3  UNL d   1      -3.367   3.564   1.250  0.00  0.00     0.017 A 
ATOM      5  C4  UNL d   1      -2.774   4.328   0.238  0.00  0.00     0.017 A 
ATOM      6  C5  UNL d   1      -3.349   5.545  -0.141  0.00  0.00     0.034 A 
ATOM      7 Cl   UNL d   1      -1.337   3.826  -0.581  0.00  0.00    -0.070 Cl
ATOM      8 Cl1  UNL d   1      -2.717   2.051   1.773  0.00  0.00    -0.070 Cl
ENDROOT
TORSDOF 0
ENDMDL
