MODEL 1
REMARK minimizedAffinity 7.51216507
REMARK minimizedRMSD -1
REMARK  0 active torsions:
REMARK  status: ('A' for Active; 'I' for Inactive)
ROOT
ATOM      1  C   UNL d   1       1.508   5.399  -1.506  0.00  0.00     0.020 A 
ATOM      2  C1  UNL d   1       0.324   6.000  -1.933  0.00  0.00     0.020 A 
ATOM      3  C2  UNL d   1      -0.860   5.261  -1.971  0.00  0.00     0.034 A 
ATOM      4  C3  UNL d   1      -0.864   3.917  -1.580  0.00  0.00     0.017 A 
ATOM      5  C4  UNL d   1       0.325   3.314  -1.152  0.00  0.00     0.017 A 
ATOM      6  C5  UNL d   1       1.508   4.059  -1.116  0.00  0.00     0.034 A 
ATOM      7 Cl   UNL d   1       0.399   1.661  -0.655  0.00  0.00    -0.070 Cl
ATOM      8 Cl1  UNL d   1      -2.364   3.063  -1.651  0.00  0.00    -0.070 Cl
ENDROOT
TORSDOF 0
ENDMDL
