MODEL 1
REMARK minimizedAffinity 12.4123287
REMARK minimizedRMSD -1
REMARK  0 active torsions:
REMARK  status: ('A' for Active; 'I' for Inactive)
ROOT
ATOM      1  C   UNL d   1      -1.049   0.536  -4.388  0.00  0.00     0.020 A 
ATOM      2  C1  UNL d   1      -2.283  -0.038  -4.691  0.00  0.00     0.020 A 
ATOM      3  C2  UNL d   1      -3.430   0.369  -4.006  0.00  0.00     0.034 A 
ATOM      4  C3  UNL d   1      -3.345   1.352  -3.013  0.00  0.00     0.017 A 
ATOM      5  C4  UNL d   1      -2.106   1.928  -2.710  0.00  0.00     0.017 A 
ATOM      6  C5  UNL d   1      -0.961   1.517  -3.400  0.00  0.00     0.034 A 
ATOM      7 Cl   UNL d   1      -1.922   3.147  -1.499  0.00  0.00    -0.070 Cl
ATOM      8 Cl1  UNL d   1      -4.803   1.807  -2.206  0.00  0.00    -0.070 Cl
ENDROOT
TORSDOF 0
ENDMDL
