MODEL 1
REMARK minimizedAffinity -2.08624148
REMARK minimizedRMSD -1
REMARK  0 active torsions:
REMARK  status: ('A' for Active; 'I' for Inactive)
ROOT
ATOM      1  C   UNL d   1      -3.489   6.000   0.751  0.00  0.00     0.020 A 
ATOM      2  C1  UNL d   1      -4.385   5.314   1.570  0.00  0.00     0.020 A 
ATOM      3  C2  UNL d   1      -4.172   3.964   1.860  0.00  0.00     0.034 A 
ATOM      4  C3  UNL d   1      -3.062   3.297   1.332  0.00  0.00     0.017 A 
ATOM      5  C4  UNL d   1      -2.163   3.987   0.510  0.00  0.00     0.017 A 
ATOM      6  C5  UNL d   1      -2.380   5.338   0.223  0.00  0.00     0.034 A 
ATOM      7 Cl   UNL d   1      -0.769   3.231  -0.179  0.00  0.00    -0.070 Cl
ATOM      8 Cl1  UNL d   1      -2.861   1.628   1.733  0.00  0.00    -0.070 Cl
ENDROOT
TORSDOF 0
ENDMDL
