MODEL 1
REMARK minimizedAffinity 13.33144
REMARK minimizedRMSD -1
REMARK  0 active torsions:
REMARK  status: ('A' for Active; 'I' for Inactive)
ROOT
ATOM      1  C   UNL d   1      -0.085   5.660  -2.480  0.00  0.00     0.020 A 
ATOM      2  C1  UNL d   1       1.139   5.124  -2.081  0.00  0.00     0.020 A 
ATOM      3  C2  UNL d   1       1.181   3.884  -1.440  0.00  0.00     0.034 A 
ATOM      4  C3  UNL d   1      -0.001   3.177  -1.195  0.00  0.00     0.017 A 
ATOM      5  C4  UNL d   1      -1.229   3.716  -1.596  0.00  0.00     0.017 A 
ATOM      6  C5  UNL d   1      -1.266   4.958  -2.238  0.00  0.00     0.034 A 
ATOM      7 Cl   UNL d   1      -2.730   2.903  -1.330  0.00  0.00    -0.070 Cl
ATOM      8 Cl1  UNL d   1       0.126   1.649  -0.398  0.00  0.00    -0.070 Cl
ENDROOT
TORSDOF 0
ENDMDL
