MODEL 1
REMARK minimizedAffinity 10.8270006
REMARK minimizedRMSD -1
REMARK  0 active torsions:
REMARK  status: ('A' for Active; 'I' for Inactive)
ROOT
ATOM      1  C   UNL d   1       0.999   4.134  -1.448  0.00  0.00     0.020 A 
ATOM      2  C1  UNL d   1       0.898   5.432  -1.946  0.00  0.00     0.020 A 
ATOM      3  C2  UNL d   1      -0.356   5.969  -2.247  0.00  0.00     0.034 A 
ATOM      4  C3  UNL d   1      -1.513   5.207  -2.050  0.00  0.00     0.017 A 
ATOM      5  C4  UNL d   1      -1.410   3.903  -1.550  0.00  0.00     0.017 A 
ATOM      6  C5  UNL d   1      -0.152   3.371  -1.250  0.00  0.00     0.034 A 
ATOM      7 Cl   UNL d   1      -2.793   2.902  -1.280  0.00  0.00    -0.070 Cl
ATOM      8 Cl1  UNL d   1      -3.031   5.934  -2.443  0.00  0.00    -0.070 Cl
ENDROOT
TORSDOF 0
ENDMDL
