MODEL 1
REMARK minimizedAffinity 6.95203733
REMARK minimizedRMSD -1
REMARK  0 active torsions:
REMARK  status: ('A' for Active; 'I' for Inactive)
ROOT
ATOM      1  C   UNL d   1       4.613  -2.407   0.280  0.00  0.00     0.020 A 
ATOM      2  C1  UNL d   1       5.281  -3.142   1.258  0.00  0.00     0.020 A 
ATOM      3  C2  UNL d   1       4.859  -3.081   2.588  0.00  0.00     0.034 A 
ATOM      4  C3  UNL d   1       3.765  -2.283   2.943  0.00  0.00     0.017 A 
ATOM      5  C4  UNL d   1       3.094  -1.546   1.960  0.00  0.00     0.017 A 
ATOM      6  C5  UNL d   1       3.522  -1.611   0.630  0.00  0.00     0.034 A 
ATOM      7 Cl   UNL d   1       1.736  -0.540   2.321  0.00  0.00    -0.070 Cl
ATOM      8 Cl1  UNL d   1       3.297  -2.255   4.606  0.00  0.00    -0.070 Cl
ENDROOT
TORSDOF 0
ENDMDL
