MODEL 1
REMARK minimizedAffinity 5.85779333
REMARK minimizedRMSD -1
REMARK  0 active torsions:
REMARK  status: ('A' for Active; 'I' for Inactive)
ROOT
ATOM      1  C   UNL d   1       2.091  -1.089   2.253  0.00  0.00     0.020 A 
ATOM      2  C1  UNL d   1       1.665  -1.281   0.939  0.00  0.00     0.020 A 
ATOM      3  C2  UNL d   1       2.533  -1.835  -0.003  0.00  0.00     0.034 A 
ATOM      4  C3  UNL d   1       3.833  -2.200   0.366  0.00  0.00     0.017 A 
ATOM      5  C4  UNL d   1       4.261  -2.007   1.685  0.00  0.00     0.017 A 
ATOM      6  C5  UNL d   1       3.387  -1.451   2.625  0.00  0.00     0.034 A 
ATOM      7 Cl   UNL d   1       5.850  -2.432   2.216  0.00  0.00    -0.070 Cl
ATOM      8 Cl1  UNL d   1       4.854  -2.880  -0.851  0.00  0.00    -0.070 Cl
ENDROOT
TORSDOF 0
ENDMDL
