MODEL 1
REMARK minimizedAffinity 8.75845718
REMARK minimizedRMSD -1
REMARK  0 active torsions:
REMARK  status: ('A' for Active; 'I' for Inactive)
ROOT
ATOM      1  C   UNL d   1      -5.868  -1.091   5.139  0.00  0.00     0.020 A 
ATOM      2  C1  UNL d   1      -4.752  -0.475   5.703  0.00  0.00     0.020 A 
ATOM      3  C2  UNL d   1      -3.767   0.076   4.880  0.00  0.00     0.034 A 
ATOM      4  C3  UNL d   1      -3.897   0.011   3.488  0.00  0.00     0.017 A 
ATOM      5  C4  UNL d   1      -5.017  -0.608   2.922  0.00  0.00     0.017 A 
ATOM      6  C5  UNL d   1      -6.000  -1.158   3.751  0.00  0.00     0.034 A 
ATOM      7 Cl   UNL d   1      -5.246  -0.727   1.213  0.00  0.00    -0.070 Cl
ATOM      8 Cl1  UNL d   1      -2.641   0.713   2.531  0.00  0.00    -0.070 Cl
ENDROOT
TORSDOF 0
ENDMDL
