MODEL 1
REMARK minimizedAffinity -5.29873037
REMARK minimizedRMSD -1
REMARK  0 active torsions:
REMARK  status: ('A' for Active; 'I' for Inactive)
ROOT
ATOM      1  C   UNL d   1      -0.296   0.441  -1.035  0.00  0.00     0.078 C 
ATOM      2  C1  UNL d   1       0.144  -0.125   0.282  0.00  0.00    -0.077 A 
ATOM      3  C2  UNL d   1       1.502  -0.283   0.581  0.00  0.00    -0.001 A 
ATOM      4  C3  UNL d   1       1.897  -0.820   1.808  0.00  0.00     0.003 A 
ATOM      5  C4  UNL d   1       0.939  -1.204   2.744  0.00  0.00    -0.005 A 
ATOM      6  C5  UNL d   1      -0.415  -1.052   2.455  0.00  0.00     0.003 A 
ATOM      7  C6  UNL d   1      -0.812  -0.515   1.229  0.00  0.00    -0.001 A 
ENDROOT
TORSDOF 0
ENDMDL
