MODEL 1
REMARK minimizedAffinity -5.73303366
REMARK minimizedRMSD -1
REMARK  0 active torsions:
REMARK  status: ('A' for Active; 'I' for Inactive)
ROOT
ATOM      1  C   UNL d   1       0.533   0.692  -0.671  0.00  0.00     0.078 C 
ATOM      2  C1  UNL d   1       1.173  -0.263   0.292  0.00  0.00    -0.077 A 
ATOM      3  C2  UNL d   1       2.094  -1.222  -0.148  0.00  0.00    -0.001 A 
ATOM      4  C3  UNL d   1       2.674  -2.111   0.758  0.00  0.00     0.003 A 
ATOM      5  C4  UNL d   1       2.339  -2.052   2.109  0.00  0.00    -0.005 A 
ATOM      6  C5  UNL d   1       1.422  -1.103   2.556  0.00  0.00     0.003 A 
ATOM      7  C6  UNL d   1       0.841  -0.213   1.651  0.00  0.00    -0.001 A 
ENDROOT
TORSDOF 0
ENDMDL
