MODEL 1
REMARK minimizedAffinity -5.50907183
REMARK minimizedRMSD -1
REMARK  0 active torsions:
REMARK  status: ('A' for Active; 'I' for Inactive)
ROOT
ATOM      1  C   UNL d   1      -0.585   0.018  -0.763  0.00  0.00     0.078 C 
ATOM      2  C1  UNL d   1       0.248  -0.583   0.330  0.00  0.00    -0.077 A 
ATOM      3  C2  UNL d   1       1.480  -1.186   0.048  0.00  0.00    -0.001 A 
ATOM      4  C3  UNL d   1       2.241  -1.749   1.074  0.00  0.00     0.003 A 
ATOM      5  C4  UNL d   1       1.778  -1.716   2.388  0.00  0.00    -0.005 A 
ATOM      6  C5  UNL d   1       0.552  -1.120   2.677  0.00  0.00     0.003 A 
ATOM      7  C6  UNL d   1      -0.210  -0.556   1.653  0.00  0.00    -0.001 A 
ENDROOT
TORSDOF 0
ENDMDL
