MODEL 1
REMARK minimizedAffinity -5.01466942
REMARK minimizedRMSD -1
REMARK  0 active torsions:
REMARK  status: ('A' for Active; 'I' for Inactive)
ROOT
ATOM      1  C   UNL d   1      -0.125  -0.235  -1.485  0.00  0.00     0.078 C 
ATOM      2  C1  UNL d   1       0.096  -0.428  -0.015  0.00  0.00    -0.077 A 
ATOM      3  C2  UNL d   1      -0.965  -0.328   0.894  0.00  0.00    -0.001 A 
ATOM      4  C3  UNL d   1      -0.742  -0.501   2.261  0.00  0.00     0.003 A 
ATOM      5  C4  UNL d   1       0.541  -0.773   2.732  0.00  0.00    -0.005 A 
ATOM      6  C5  UNL d   1       1.603  -0.872   1.836  0.00  0.00     0.003 A 
ATOM      7  C6  UNL d   1       1.382  -0.700   0.469  0.00  0.00    -0.001 A 
ENDROOT
TORSDOF 0
ENDMDL
