MODEL 1
REMARK minimizedAffinity -5.43764162
REMARK minimizedRMSD -1
REMARK  0 active torsions:
REMARK  status: ('A' for Active; 'I' for Inactive)
ROOT
ATOM      1  C   UNL d   1      -1.430  -0.243   0.500  0.00  0.00     0.078 C 
ATOM      2  C1  UNL d   1      -0.024  -0.641   0.836  0.00  0.00    -0.077 A 
ATOM      3  C2  UNL d   1       0.950  -0.760  -0.162  0.00  0.00    -0.001 A 
ATOM      4  C3  UNL d   1       2.253  -1.141   0.164  0.00  0.00     0.003 A 
ATOM      5  C4  UNL d   1       2.593  -1.407   1.489  0.00  0.00    -0.005 A 
ATOM      6  C5  UNL d   1       1.629  -1.293   2.490  0.00  0.00     0.003 A 
ATOM      7  C6  UNL d   1       0.326  -0.912   2.165  0.00  0.00    -0.001 A 
ENDROOT
TORSDOF 0
ENDMDL
