MODEL 1
REMARK minimizedAffinity -4.94583082
REMARK minimizedRMSD -1
REMARK  0 active torsions:
REMARK  status: ('A' for Active; 'I' for Inactive)
ROOT
ATOM      1  C   UNL d   1      -0.370   0.505  -0.429  0.00  0.00     0.078 C 
ATOM      2  C1  UNL d   1       0.344  -0.287   0.626  0.00  0.00    -0.077 A 
ATOM      3  C2  UNL d   1       1.425  -1.115   0.299  0.00  0.00    -0.001 A 
ATOM      4  C3  UNL d   1       2.074  -1.853   1.289  0.00  0.00     0.003 A 
ATOM      5  C4  UNL d   1       1.649  -1.772   2.614  0.00  0.00    -0.005 A 
ATOM      6  C5  UNL d   1       0.573  -0.952   2.949  0.00  0.00     0.003 A 
ATOM      7  C6  UNL d   1      -0.077  -0.213   1.960  0.00  0.00    -0.001 A 
ENDROOT
TORSDOF 0
ENDMDL
