MODEL 1
REMARK minimizedAffinity -2.88446641
REMARK minimizedRMSD -1
REMARK  0 active torsions:
REMARK  status: ('A' for Active; 'I' for Inactive)
ROOT
ATOM      1  O1  BZF d   1       2.604   0.893   0.796  0.00  0.00    -0.204 OA
ATOM      2  C2  BZF d   1       3.283  -0.283   1.048  0.00  0.00     0.174 A 
ATOM      3  C3  BZF d   1       2.463  -1.346   0.918  0.00  0.00    -0.012 A 
ATOM      4  C3A BZF d   1       1.216  -0.806   0.472  0.00  0.00    -0.107 A 
ATOM      5  C4  BZF d   1       0.012  -1.366   0.150  0.00  0.00     0.055 A 
ATOM      6  C5  BZF d   1      -1.027  -0.554  -0.179  0.00  0.00    -0.016 A 
ATOM      7  C6  BZF d   1      -0.899   0.820  -0.192  0.00  0.00     0.022 A 
ATOM      8  C7  BZF d   1       0.277   1.420   0.115  0.00  0.00     0.029 A 
ATOM      9  C7A BZF d   1       1.337   0.601   0.416  0.00  0.00     0.058 A 
ENDROOT
TORSDOF 0
ENDMDL
