MODEL 1
REMARK minimizedAffinity -4.7304821
REMARK minimizedRMSD -1
REMARK  0 active torsions:
REMARK  status: ('A' for Active; 'I' for Inactive)
ROOT
ATOM      1  O1  BZF d   1      -0.098  -1.005  -1.091  0.00  0.00    -0.204 OA
ATOM      2  C2  BZF d   1      -1.286  -0.339  -0.857  0.00  0.00     0.174 A 
ATOM      3  C3  BZF d   1      -1.120   0.621   0.075  0.00  0.00    -0.012 A 
ATOM      4  C3A BZF d   1       0.277   0.612   0.380  0.00  0.00    -0.107 A 
ATOM      5  C4  BZF d   1       1.059   1.350   1.222  0.00  0.00     0.055 A 
ATOM      6  C5  BZF d   1       2.377   1.042   1.340  0.00  0.00    -0.016 A 
ATOM      7  C6  BZF d   1       2.945   0.000   0.636  0.00  0.00     0.022 A 
ATOM      8  C7  BZF d   1       2.211  -0.757  -0.216  0.00  0.00     0.029 A 
ATOM      9  C7A BZF d   1       0.886  -0.426  -0.362  0.00  0.00     0.058 A 
ENDROOT
TORSDOF 0
ENDMDL
