MODEL 1
REMARK minimizedAffinity -4.0979929
REMARK minimizedRMSD -1
REMARK  0 active torsions:
REMARK  status: ('A' for Active; 'I' for Inactive)
ROOT
ATOM      1  O1  BZF d   1       0.605   0.302  -1.221  0.00  0.00    -0.204 OA
ATOM      2  C2  BZF d   1       0.667   0.838   0.051  0.00  0.00     0.174 A 
ATOM      3  C3  BZF d   1      -0.566   1.152   0.498  0.00  0.00    -0.012 A 
ATOM      4  C3A BZF d   1      -1.462   0.705  -0.524  0.00  0.00    -0.107 A 
ATOM      5  C4  BZF d   1      -2.821   0.723  -0.654  0.00  0.00     0.055 A 
ATOM      6  C5  BZF d   1      -3.380   0.274  -1.809  0.00  0.00    -0.016 A 
ATOM      7  C6  BZF d   1      -2.610  -0.193  -2.854  0.00  0.00     0.022 A 
ATOM      8  C7  BZF d   1      -1.258  -0.235  -2.769  0.00  0.00     0.029 A 
ATOM      9  C7A BZF d   1      -0.693   0.187  -1.591  0.00  0.00     0.058 A 
ENDROOT
TORSDOF 0
ENDMDL
