MODEL 1
REMARK minimizedAffinity -5.98332167
REMARK minimizedRMSD -1
REMARK  0 active torsions:
REMARK  status: ('A' for Active; 'I' for Inactive)
ROOT
ATOM      1  O1  BZF d   1      -0.580  -0.364   0.315  0.00  0.00    -0.204 OA
ATOM      2  C2  BZF d   1      -0.459   0.828  -0.373  0.00  0.00     0.174 A 
ATOM      3  C3  BZF d   1       0.815   1.269  -0.346  0.00  0.00    -0.012 A 
ATOM      4  C3A BZF d   1       1.553   0.246   0.328  0.00  0.00    -0.107 A 
ATOM      5  C4  BZF d   1       2.872   0.097   0.651  0.00  0.00     0.055 A 
ATOM      6  C5  BZF d   1       3.256  -0.986   1.375  0.00  0.00    -0.016 A 
ATOM      7  C6  BZF d   1       2.349  -1.936   1.798  0.00  0.00     0.022 A 
ATOM      8  C7  BZF d   1       1.032  -1.835   1.497  0.00  0.00     0.029 A 
ATOM      9  C7A BZF d   1       0.645  -0.758   0.737  0.00  0.00     0.058 A 
ENDROOT
TORSDOF 0
ENDMDL
