MODEL 1
REMARK minimizedAffinity -2.57857919
REMARK minimizedRMSD -1
REMARK  0 active torsions:
REMARK  status: ('A' for Active; 'I' for Inactive)
ROOT
ATOM      1  O1  BZF d   1      -0.183  -2.020   1.803  0.00  0.00    -0.204 OA
ATOM      2  C2  BZF d   1       0.838  -2.479   2.613  0.00  0.00     0.174 A 
ATOM      3  C3  BZF d   1       1.901  -1.651   2.559  0.00  0.00    -0.012 A 
ATOM      4  C3A BZF d   1       1.486  -0.560   1.731  0.00  0.00    -0.107 A 
ATOM      5  C4  BZF d   1       2.097   0.589   1.316  0.00  0.00     0.055 A 
ATOM      6  C5  BZF d   1       1.444   1.409   0.452  0.00  0.00    -0.016 A 
ATOM      7  C6  BZF d   1       0.182   1.111  -0.019  0.00  0.00     0.022 A 
ATOM      8  C7  BZF d   1      -0.466  -0.014   0.368  0.00  0.00     0.029 A 
ATOM      9  C7A BZF d   1       0.178  -0.829   1.267  0.00  0.00     0.058 A 
ENDROOT
TORSDOF 0
ENDMDL
