MODEL 1
REMARK minimizedAffinity -1.36885381
REMARK minimizedRMSD -1
REMARK  0 active torsions:
REMARK  status: ('A' for Active; 'I' for Inactive)
ROOT
ATOM      1  O1  BZF d   1      -0.207  -0.283   1.436  0.00  0.00    -0.204 OA
ATOM      2  C2  BZF d   1      -0.067   0.707   0.483  0.00  0.00     0.174 A 
ATOM      3  C3  BZF d   1       0.985   1.502   0.770  0.00  0.00    -0.012 A 
ATOM      4  C3A BZF d   1       1.592   0.919   1.928  0.00  0.00    -0.107 A 
ATOM      5  C4  BZF d   1       2.685   1.244   2.679  0.00  0.00     0.055 A 
ATOM      6  C5  BZF d   1       2.965   0.512   3.789  0.00  0.00    -0.016 A 
ATOM      7  C6  BZF d   1       2.171  -0.546   4.180  0.00  0.00     0.022 A 
ATOM      8  C7  BZF d   1       1.079  -0.909   3.465  0.00  0.00     0.029 A 
ATOM      9  C7A BZF d   1       0.812  -0.192   2.324  0.00  0.00     0.058 A 
ENDROOT
TORSDOF 0
ENDMDL
