MODEL 1
REMARK minimizedAffinity 2.20376539
REMARK minimizedRMSD -1
REMARK  0 active torsions:
REMARK  status: ('A' for Active; 'I' for Inactive)
ROOT
ATOM      1  O1  BZF d   1      -0.920   2.012   0.424  0.00  0.00    -0.204 OA
ATOM      2  C2  BZF d   1      -0.773   3.380   0.302  0.00  0.00     0.174 A 
ATOM      3  C3  BZF d   1       0.431   3.775   0.766  0.00  0.00    -0.012 A 
ATOM      4  C3A BZF d   1       1.112   2.568   1.119  0.00  0.00    -0.107 A 
ATOM      5  C4  BZF d   1       2.353   2.305   1.624  0.00  0.00     0.055 A 
ATOM      6  C5  BZF d   1       2.685   1.022   1.927  0.00  0.00    -0.016 A 
ATOM      7  C6  BZF d   1       1.799  -0.020   1.742  0.00  0.00     0.022 A 
ATOM      8  C7  BZF d   1       0.558   0.192   1.239  0.00  0.00     0.029 A 
ATOM      9  C7A BZF d   1       0.232   1.483   0.902  0.00  0.00     0.058 A 
ENDROOT
TORSDOF 0
ENDMDL
