MODEL 1
REMARK minimizedAffinity 1.22952867
REMARK minimizedRMSD -1
REMARK  0 active torsions:
REMARK  status: ('A' for Active; 'I' for Inactive)
ROOT
ATOM      1  O1  BZF d   1      -1.126  -0.372   1.402  0.00  0.00    -0.204 OA
ATOM      2  C2  BZF d   1      -1.188   0.776   0.636  0.00  0.00     0.174 A 
ATOM      3  C3  BZF d   1      -0.050   1.491   0.753  0.00  0.00    -0.012 A 
ATOM      4  C3A BZF d   1       0.810   0.697   1.575  0.00  0.00    -0.107 A 
ATOM      5  C4  BZF d   1       2.084   0.864   2.037  0.00  0.00     0.055 A 
ATOM      6  C5  BZF d   1       2.609  -0.064   2.880  0.00  0.00    -0.016 A 
ATOM      7  C6  BZF d   1       1.886  -1.167   3.286  0.00  0.00     0.022 A 
ATOM      8  C7  BZF d   1       0.620  -1.378   2.850  0.00  0.00     0.029 A 
ATOM      9  C7A BZF d   1       0.099  -0.460   1.972  0.00  0.00     0.058 A 
ENDROOT
TORSDOF 0
ENDMDL
