MODEL 1
REMARK minimizedAffinity -3.74019861
REMARK minimizedRMSD -1
REMARK  0 active torsions:
REMARK  status: ('A' for Active; 'I' for Inactive)
ROOT
ATOM      1  O1  BZF d   1      -0.575  -0.316  -0.229  0.00  0.00    -0.204 OA
ATOM      2  C2  BZF d   1      -0.614  -1.657  -0.558  0.00  0.00     0.174 A 
ATOM      3  C3  BZF d   1       0.525  -2.275  -0.185  0.00  0.00    -0.012 A 
ATOM      4  C3A BZF d   1       1.288  -1.276   0.498  0.00  0.00    -0.107 A 
ATOM      5  C4  BZF d   1       2.507  -1.284   1.114  0.00  0.00     0.055 A 
ATOM      6  C5  BZF d   1       2.999  -0.123   1.620  0.00  0.00    -0.016 A 
ATOM      7  C6  BZF d   1       2.302   1.064   1.524  0.00  0.00     0.022 A 
ATOM      8  C7  BZF d   1       1.087   1.121   0.926  0.00  0.00     0.029 A 
ATOM      9  C7A BZF d   1       0.573  -0.058   0.442  0.00  0.00     0.058 A 
ENDROOT
TORSDOF 0
ENDMDL
