MODEL 1
REMARK minimizedAffinity -0.0596929863
REMARK minimizedRMSD -1
REMARK  0 active torsions:
REMARK  status: ('A' for Active; 'I' for Inactive)
ROOT
ATOM      1  O1  BZF d   1       1.662   1.276   0.773  0.00  0.00    -0.204 OA
ATOM      2  C2  BZF d   1       0.486   1.228   0.049  0.00  0.00     0.174 A 
ATOM      3  C3  BZF d   1      -0.109   0.026   0.183  0.00  0.00    -0.012 A 
ATOM      4  C3A BZF d   1       0.701  -0.693   1.118  0.00  0.00    -0.107 A 
ATOM      5  C4  BZF d   1       0.617  -1.941   1.668  0.00  0.00     0.055 A 
ATOM      6  C5  BZF d   1       1.610  -2.367   2.492  0.00  0.00    -0.016 A 
ATOM      7  C6  BZF d   1       2.701  -1.575   2.784  0.00  0.00     0.022 A 
ATOM      8  C7  BZF d   1       2.826  -0.329   2.266  0.00  0.00     0.029 A 
ATOM      9  C7A BZF d   1       1.808   0.117   1.459  0.00  0.00     0.058 A 
ENDROOT
TORSDOF 0
ENDMDL
