MODEL 1
REMARK minimizedAffinity -5.65661955
REMARK minimizedRMSD -1
REMARK  0 active torsions:
REMARK  status: ('A' for Active; 'I' for Inactive)
ROOT
ATOM      1  O1  BZF d   1      -0.678  -1.001   0.668  0.00  0.00    -0.204 OA
ATOM      2  C2  BZF d   1      -0.653   0.274   0.136  0.00  0.00     0.174 A 
ATOM      3  C3  BZF d   1       0.549   0.852   0.336  0.00  0.00    -0.012 A 
ATOM      4  C3A BZF d   1       1.354  -0.157   0.955  0.00  0.00    -0.107 A 
ATOM      5  C4  BZF d   1       2.650  -0.192   1.383  0.00  0.00     0.055 A 
ATOM      6  C5  BZF d   1       3.108  -1.307   2.011  0.00  0.00    -0.016 A 
ATOM      7  C6  BZF d   1       2.297  -2.400   2.232  0.00  0.00     0.022 A 
ATOM      8  C7  BZF d   1       1.005  -2.414   1.822  0.00  0.00     0.029 A 
ATOM      9  C7A BZF d   1       0.549  -1.302   1.157  0.00  0.00     0.058 A 
ENDROOT
TORSDOF 0
ENDMDL
