MODEL 1
REMARK minimizedAffinity -2.74633241
REMARK minimizedRMSD -1
REMARK  0 active torsions:
REMARK  status: ('A' for Active; 'I' for Inactive)
ROOT
ATOM      1  O1  BZF d   1      -1.092  -1.276  -0.815  0.00  0.00    -0.204 OA
ATOM      2  C2  BZF d   1      -0.593  -0.231  -0.062  0.00  0.00     0.174 A 
ATOM      3  C3  BZF d   1      -1.100   0.946  -0.481  0.00  0.00    -0.012 A 
ATOM      4  C3A BZF d   1      -2.040   0.607  -1.505  0.00  0.00    -0.107 A 
ATOM      5  C4  BZF d   1      -2.877   1.345  -2.293  0.00  0.00     0.055 A 
ATOM      6  C5  BZF d   1      -3.614   0.715  -3.245  0.00  0.00    -0.016 A 
ATOM      7  C6  BZF d   1      -3.535  -0.648  -3.441  0.00  0.00     0.022 A 
ATOM      8  C7  BZF d   1      -2.723  -1.422  -2.680  0.00  0.00     0.029 A 
ATOM      9  C7A BZF d   1      -2.002  -0.793  -1.695  0.00  0.00     0.058 A 
ENDROOT
TORSDOF 0
ENDMDL
