MODEL 1
REMARK minimizedAffinity 10.5517998
REMARK minimizedRMSD -1
REMARK  0 active torsions:
REMARK  status: ('A' for Active; 'I' for Inactive)
ROOT
ATOM      1  C1  DEN d   1      -1.040   0.474   0.859  0.00  0.00     0.130 A 
ATOM      2  C2  DEN d   1      -2.200   0.987   0.135  0.00  0.00    -0.031 A 
ATOM      3  C3  DEN d   1      -3.413   0.584   0.874  0.00  0.00     0.027 A 
ATOM      4  C4  DEN d   1      -3.607  -0.773   3.059  0.00  0.00     0.027 A 
ATOM      5  C5  DEN d   1      -2.897  -1.435   4.035  0.00  0.00    -0.003 A 
ATOM      6  C6  DEN d   1      -1.532  -1.537   4.004  0.00  0.00     0.001 A 
ATOM      7  C7  DEN d   1      -0.829  -0.927   2.998  0.00  0.00     0.017 A 
ATOM      8  C8  DEN d   1      -1.538  -0.263   2.006  0.00  0.00    -0.094 A 
ATOM      9  C9  DEN d   1      -2.918  -0.162   2.062  0.00  0.00    -0.072 A 
ENDROOT
TORSDOF 0
ENDMDL
