MODEL 1
REMARK minimizedAffinity 20.4526844
REMARK minimizedRMSD -1
REMARK  0 active torsions:
REMARK  status: ('A' for Active; 'I' for Inactive)
ROOT
ATOM      1  C1  DEN d   1       0.162   0.612   0.463  0.00  0.00     0.130 A 
ATOM      2  C2  DEN d   1      -0.443   0.150  -0.783  0.00  0.00    -0.031 A 
ATOM      3  C3  DEN d   1       0.480   0.480  -1.888  0.00  0.00     0.027 A 
ATOM      4  C4  DEN d   1       2.776   1.651  -1.789  0.00  0.00     0.027 A 
ATOM      5  C5  DEN d   1       3.703   2.236  -0.955  0.00  0.00    -0.003 A 
ATOM      6  C6  DEN d   1       3.500   2.351   0.395  0.00  0.00     0.001 A 
ATOM      7  C7  DEN d   1       2.364   1.832   0.958  0.00  0.00     0.017 A 
ATOM      8  C8  DEN d   1       1.422   1.247   0.122  0.00  0.00    -0.094 A 
ATOM      9  C9  DEN d   1       1.650   1.130  -1.238  0.00  0.00    -0.072 A 
ENDROOT
TORSDOF 0
ENDMDL
