MODEL 1
REMARK minimizedAffinity 11.4476814
REMARK minimizedRMSD -1
REMARK  0 active torsions:
REMARK  status: ('A' for Active; 'I' for Inactive)
ROOT
ATOM      1  C1  DEN d   1      -3.258   0.603   0.857  0.00  0.00     0.130 A 
ATOM      2  C2  DEN d   1      -2.215   1.593   0.600  0.00  0.00    -0.031 A 
ATOM      3  C3  DEN d   1      -1.096   1.328   1.527  0.00  0.00     0.027 A 
ATOM      4  C4  DEN d   1      -0.875  -0.513   3.320  0.00  0.00     0.027 A 
ATOM      5  C5  DEN d   1      -1.508  -1.582   3.915  0.00  0.00    -0.003 A 
ATOM      6  C6  DEN d   1      -2.771  -1.974   3.559  0.00  0.00     0.001 A 
ATOM      7  C7  DEN d   1      -3.425  -1.319   2.549  0.00  0.00     0.017 A 
ATOM      8  C8  DEN d   1      -2.797  -0.235   1.949  0.00  0.00    -0.094 A 
ATOM      9  C9  DEN d   1      -1.515   0.137   2.315  0.00  0.00    -0.072 A 
ENDROOT
TORSDOF 0
ENDMDL
