MODEL 1
REMARK minimizedAffinity 4.15609598
REMARK minimizedRMSD -1
REMARK  0 active torsions:
REMARK  status: ('A' for Active; 'I' for Inactive)
ROOT
ATOM      1  C1  DEN d   1      -2.673  -1.117   4.063  0.00  0.00     0.130 A 
ATOM      2  C2  DEN d   1      -1.486  -1.677   4.705  0.00  0.00    -0.031 A 
ATOM      3  C3  DEN d   1      -0.337  -1.466   3.803  0.00  0.00     0.027 A 
ATOM      4  C4  DEN d   1      -0.278  -0.328   1.489  0.00  0.00     0.027 A 
ATOM      5  C5  DEN d   1      -1.039   0.292   0.523  0.00  0.00    -0.003 A 
ATOM      6  C6  DEN d   1      -2.393   0.454   0.654  0.00  0.00     0.001 A 
ATOM      7  C7  DEN d   1      -3.020   0.031   1.795  0.00  0.00     0.017 A 
ATOM      8  C8  DEN d   1      -2.261  -0.602   2.770  0.00  0.00    -0.094 A 
ATOM      9  C9  DEN d   1      -0.891  -0.746   2.625  0.00  0.00    -0.072 A 
ENDROOT
TORSDOF 0
ENDMDL
