MODEL 1
REMARK minimizedAffinity 3.40899563
REMARK minimizedRMSD -1
REMARK  0 active torsions:
REMARK  status: ('A' for Active; 'I' for Inactive)
ROOT
ATOM      1  C1  DEN d   1       2.526   1.542   1.300  0.00  0.00     0.130 A 
ATOM      2  C2  DEN d   1       3.492   2.201   0.426  0.00  0.00    -0.031 A 
ATOM      3  C3  DEN d   1       3.073   1.973  -0.972  0.00  0.00     0.027 A 
ATOM      4  C4  DEN d   1       1.030   0.675  -1.862  0.00  0.00     0.027 A 
ATOM      5  C5  DEN d   1      -0.072  -0.069  -1.501  0.00  0.00    -0.003 A 
ATOM      6  C6  DEN d   1      -0.364  -0.354  -0.193  0.00  0.00     0.001 A 
ATOM      7  C7  DEN d   1       0.431   0.146   0.804  0.00  0.00     0.017 A 
ATOM      8  C8  DEN d   1       1.548   0.890   0.448  0.00  0.00    -0.094 A 
ATOM      9  C9  DEN d   1       1.819   1.178  -0.879  0.00  0.00    -0.072 A 
ENDROOT
TORSDOF 0
ENDMDL
