MODEL 1
REMARK minimizedAffinity 3.06754255
REMARK minimizedRMSD -1
REMARK  0 active torsions:
REMARK  status: ('A' for Active; 'I' for Inactive)
ROOT
ATOM      1  C1  DEN d   1      -0.566   0.788  -3.290  0.00  0.00     0.130 A 
ATOM      2  C2  DEN d   1       0.515   1.009  -4.246  0.00  0.00    -0.031 A 
ATOM      3  C3  DEN d   1       1.787   1.049  -3.495  0.00  0.00     0.027 A 
ATOM      4  C4  DEN d   1       2.183   0.785  -0.960  0.00  0.00     0.027 A 
ATOM      5  C5  DEN d   1       1.570   0.591   0.258  0.00  0.00    -0.003 A 
ATOM      6  C6  DEN d   1       0.210   0.484   0.382  0.00  0.00     0.001 A 
ATOM      7  C7  DEN d   1      -0.579   0.525  -0.738  0.00  0.00     0.017 A 
ATOM      8  C8  DEN d   1       0.032   0.728  -1.968  0.00  0.00    -0.094 A 
ATOM      9  C9  DEN d   1       1.409   0.822  -2.074  0.00  0.00    -0.072 A 
ENDROOT
TORSDOF 0
ENDMDL
