MODEL 1
REMARK minimizedAffinity 3.83950996
REMARK minimizedRMSD -1
REMARK  0 active torsions:
REMARK  status: ('A' for Active; 'I' for Inactive)
ROOT
ATOM      1  C1  DEN d   1       0.354  -0.200   0.333  0.00  0.00     0.130 A 
ATOM      2  C2  DEN d   1      -0.802   0.157  -0.485  0.00  0.00    -0.031 A 
ATOM      3  C3  DEN d   1      -1.989   0.191   0.394  0.00  0.00     0.027 A 
ATOM      4  C4  DEN d   1      -2.146  -0.268   2.927  0.00  0.00     0.027 A 
ATOM      5  C5  DEN d   1      -1.431  -0.619   4.051  0.00  0.00    -0.003 A 
ATOM      6  C6  DEN d   1      -0.088  -0.887   4.008  0.00  0.00     0.001 A 
ATOM      7  C7  DEN d   1       0.591  -0.763   2.825  0.00  0.00     0.017 A 
ATOM      8  C8  DEN d   1      -0.124  -0.416   1.686  0.00  0.00    -0.094 A 
ATOM      9  C9  DEN d   1      -1.479  -0.138   1.752  0.00  0.00    -0.072 A 
ENDROOT
TORSDOF 0
ENDMDL
