MODEL 1
REMARK minimizedAffinity 0.586650372
REMARK minimizedRMSD -1
REMARK  0 active torsions:
REMARK  status: ('A' for Active; 'I' for Inactive)
ROOT
ATOM      1  C1  DEN d   1       1.178  -0.856   2.308  0.00  0.00     0.130 A 
ATOM      2  C2  DEN d   1       1.187  -1.140   3.740  0.00  0.00    -0.031 A 
ATOM      3  C3  DEN d   1      -0.127  -0.749   4.291  0.00  0.00     0.027 A 
ATOM      4  C4  DEN d   1      -2.164   0.258   3.071  0.00  0.00     0.027 A 
ATOM      5  C5  DEN d   1      -2.643   0.690   1.854  0.00  0.00    -0.003 A 
ATOM      6  C6  DEN d   1      -1.876   0.669   0.719  0.00  0.00     0.001 A 
ATOM      7  C7  DEN d   1      -0.604   0.164   0.768  0.00  0.00     0.017 A 
ATOM      8  C8  DEN d   1      -0.112  -0.267   1.993  0.00  0.00    -0.094 A 
ATOM      9  C9  DEN d   1      -0.906  -0.249   3.127  0.00  0.00    -0.072 A 
ENDROOT
TORSDOF 0
ENDMDL
