MODEL 1
REMARK minimizedAffinity 9.86899567
REMARK minimizedRMSD -1
REMARK  2 active torsions:
REMARK  status: ('A' for Active; 'I' for Inactive)
REMARK    1  A    between atoms: C2'_3  and  C1'_4 
REMARK    2  A    between atoms: C1'_4  and  C1_5 
ROOT
ATOM      1  C1  I4B d   1       1.184  -0.849   1.203  0.00  0.00    -0.075 A 
ATOM      2  C2  I4B d   1       0.075  -0.127   1.566  0.00  0.00     0.003 A 
ATOM      3  C3  I4B d   1      -1.215  -0.546   1.157  0.00  0.00     0.002 A 
ATOM      4  C4  I4B d   1      -1.343  -1.656   0.348  0.00  0.00    -0.004 A 
ATOM      5  C5  I4B d   1      -0.220  -2.401  -0.000  0.00  0.00     0.002 A 
ATOM      6  C6  I4B d   1       1.051  -2.002   0.439  0.00  0.00     0.003 A 
ENDROOT
BRANCH   1   7
ATOM      7  C1' I4B d   1       2.533  -0.360   1.625  0.00  0.00     0.060 C 
BRANCH   7   8
ATOM      8  C2' I4B d   1       3.497  -0.604   0.481  0.00  0.00    -0.013 C 
ATOM      9  C4' I4B d   1       3.310   0.411  -0.616  0.00  0.00     0.013 C 
ATOM     10  C3' I4B d   1       4.890  -0.555   1.032  0.00  0.00     0.013 C 
ENDBRANCH   7   8
ENDBRANCH   1   7
TORSDOF 2
ENDMDL
