MODEL 1
REMARK minimizedAffinity 4.4956975
REMARK minimizedRMSD -1
REMARK  2 active torsions:
REMARK  status: ('A' for Active; 'I' for Inactive)
REMARK    1  A    between atoms: C2'_3  and  C1'_4 
REMARK    2  A    between atoms: C1'_4  and  C1_5 
ROOT
ATOM      1  C1  I4B d   1       1.158  -1.286   0.653  0.00  0.00    -0.075 A 
ATOM      2  C2  I4B d   1      -0.098  -0.733   0.604  0.00  0.00     0.003 A 
ATOM      3  C3  I4B d   1      -1.227  -1.550   0.355  0.00  0.00     0.002 A 
ATOM      4  C4  I4B d   1      -1.051  -2.897   0.112  0.00  0.00    -0.004 A 
ATOM      5  C5  I4B d   1       0.220  -3.460   0.186  0.00  0.00     0.002 A 
ATOM      6  C6  I4B d   1       1.330  -2.652   0.470  0.00  0.00     0.003 A 
ENDROOT
BRANCH   1   7
ATOM      7  C1' I4B d   1       2.332  -0.388   0.886  0.00  0.00     0.060 C 
BRANCH   7   8
ATOM      8  C2' I4B d   1       3.335  -0.636  -0.222  0.00  0.00    -0.013 C 
ATOM      9  C4' I4B d   1       3.264   0.442  -1.272  0.00  0.00     0.013 C 
ATOM     10  C3' I4B d   1       4.700  -0.701   0.396  0.00  0.00     0.013 C 
ENDBRANCH   7   8
ENDBRANCH   1   7
TORSDOF 2
ENDMDL
