MODEL 1
REMARK minimizedAffinity -0.00731217116
REMARK minimizedRMSD -1
REMARK  2 active torsions:
REMARK  status: ('A' for Active; 'I' for Inactive)
REMARK    1  A    between atoms: C2'_3  and  C1'_4 
REMARK    2  A    between atoms: C1'_4  and  C1_5 
ROOT
ATOM      1  C1  I4B d   1       2.153  -2.445   0.383  0.00  0.00    -0.075 A 
ATOM      2  C2  I4B d   1       1.130  -3.289   0.740  0.00  0.00     0.003 A 
ATOM      3  C3  I4B d   1      -0.203  -2.813   0.786  0.00  0.00     0.002 A 
ATOM      4  C4  I4B d   1      -0.460  -1.484   0.518  0.00  0.00    -0.004 A 
ATOM      5  C5  I4B d   1       0.575  -0.636   0.134  0.00  0.00     0.002 A 
ATOM      6  C6  I4B d   1       1.888  -1.122   0.054  0.00  0.00     0.003 A 
ENDROOT
BRANCH   1   7
ATOM      7  C1' I4B d   1       3.553  -2.972   0.377  0.00  0.00     0.060 C 
BRANCH   7   8
ATOM      8  C2' I4B d   1       3.490  -4.460   0.098  0.00  0.00    -0.013 C 
ATOM      9  C4' I4B d   1       3.870  -4.764  -1.328  0.00  0.00     0.013 C 
ATOM     10  C3' I4B d   1       4.408  -5.151   1.061  0.00  0.00     0.013 C 
ENDBRANCH   7   8
ENDBRANCH   1   7
TORSDOF 2
ENDMDL
