MODEL 1
REMARK minimizedAffinity 1.64301825
REMARK minimizedRMSD -1
REMARK  2 active torsions:
REMARK  status: ('A' for Active; 'I' for Inactive)
REMARK    1  A    between atoms: C2'_3  and  C1'_4 
REMARK    2  A    between atoms: C1'_4  and  C1_5 
ROOT
ATOM      1  C1  I4B d   1       1.666  -3.371   0.140  0.00  0.00    -0.075 A 
ATOM      2  C2  I4B d   1       2.343  -2.184   0.274  0.00  0.00     0.003 A 
ATOM      3  C3  I4B d   1       1.663  -1.021   0.710  0.00  0.00     0.002 A 
ATOM      4  C4  I4B d   1       0.305  -1.078   0.952  0.00  0.00    -0.004 A 
ATOM      5  C5  I4B d   1      -0.374  -2.287   0.837  0.00  0.00     0.002 A 
ATOM      6  C6  I4B d   1       0.312  -3.444   0.440  0.00  0.00     0.003 A 
ENDROOT
BRANCH   1   7
ATOM      7  C1' I4B d   1       2.408  -4.572  -0.355  0.00  0.00     0.060 C 
BRANCH   7   8
ATOM      8  C2' I4B d   1       3.763  -4.595   0.322  0.00  0.00    -0.013 C 
ATOM      9  C4' I4B d   1       4.165  -5.999   0.689  0.00  0.00     0.013 C 
ATOM     10  C3' I4B d   1       4.758  -3.973  -0.612  0.00  0.00     0.013 C 
ENDBRANCH   7   8
ENDBRANCH   1   7
TORSDOF 2
ENDMDL
