MODEL 1
REMARK minimizedAffinity 2.06152487
REMARK minimizedRMSD -1
REMARK  2 active torsions:
REMARK  status: ('A' for Active; 'I' for Inactive)
REMARK    1  A    between atoms: C2'_3  and  C1'_4 
REMARK    2  A    between atoms: C1'_4  and  C1_5 
ROOT
ATOM      1  C1  I4B d   1       1.361  -2.910   0.599  0.00  0.00    -0.075 A 
ATOM      2  C2  I4B d   1       0.016  -2.850   0.330  0.00  0.00     0.003 A 
ATOM      3  C3  I4B d   1      -0.647  -1.600   0.283  0.00  0.00     0.002 A 
ATOM      4  C4  I4B d   1       0.057  -0.446   0.559  0.00  0.00    -0.004 A 
ATOM      5  C5  I4B d   1       1.425  -0.506   0.810  0.00  0.00     0.002 A 
ATOM      6  C6  I4B d   1       2.084  -1.744   0.818  0.00  0.00     0.003 A 
ENDROOT
BRANCH   1   7
ATOM      7  C1' I4B d   1       2.023  -4.249   0.674  0.00  0.00     0.060 C 
BRANCH   7   8
ATOM      8  C2' I4B d   1       3.380  -4.136   0.010  0.00  0.00    -0.013 C 
ATOM      9  C4' I4B d   1       4.144  -2.947   0.531  0.00  0.00     0.013 C 
ATOM     10  C3' I4B d   1       4.126  -5.412   0.263  0.00  0.00     0.013 C 
ENDBRANCH   7   8
ENDBRANCH   1   7
TORSDOF 2
ENDMDL
