MODEL 1
REMARK minimizedAffinity 2.27374816
REMARK minimizedRMSD -1
REMARK  2 active torsions:
REMARK  status: ('A' for Active; 'I' for Inactive)
REMARK    1  A    between atoms: C2'_3  and  C1'_4 
REMARK    2  A    between atoms: C1'_4  and  C1_5 
ROOT
ATOM      1  C1  I4B d   1       1.134  -0.982   0.812  0.00  0.00    -0.075 A 
ATOM      2  C2  I4B d   1       1.417  -2.315   0.645  0.00  0.00     0.003 A 
ATOM      3  C3  I4B d   1       0.366  -3.257   0.526  0.00  0.00     0.002 A 
ATOM      4  C4  I4B d   1      -0.943  -2.832   0.630  0.00  0.00    -0.004 A 
ATOM      5  C5  I4B d   1      -1.228  -1.478   0.777  0.00  0.00     0.002 A 
ATOM      6  C6  I4B d   1      -0.183  -0.545   0.856  0.00  0.00     0.003 A 
ENDROOT
BRANCH   1   7
ATOM      7  C1' I4B d   1       2.268  -0.019   0.966  0.00  0.00     0.060 C 
BRANCH   7   8
ATOM      8  C2' I4B d   1       2.632   0.041   2.436  0.00  0.00    -0.013 C 
ATOM      9  C4' I4B d   1       1.512  -0.479   3.297  0.00  0.00     0.013 C 
ATOM     10  C3' I4B d   1       3.885  -0.758   2.635  0.00  0.00     0.013 C 
ENDBRANCH   7   8
ENDBRANCH   1   7
TORSDOF 2
ENDMDL
