MODEL 1
REMARK minimizedAffinity -4.09398174
REMARK minimizedRMSD -1
REMARK  2 active torsions:
REMARK  status: ('A' for Active; 'I' for Inactive)
REMARK    1  A    between atoms: C2'_3  and  C1'_4 
REMARK    2  A    between atoms: C1'_4  and  C1_5 
ROOT
ATOM      1  C1  I4B d   1       1.309  -2.709   0.028  0.00  0.00    -0.075 A 
ATOM      2  C2  I4B d   1       1.659  -1.382   0.019  0.00  0.00     0.003 A 
ATOM      3  C3  I4B d   1       0.904  -0.440   0.760  0.00  0.00     0.002 A 
ATOM      4  C4  I4B d   1      -0.215  -0.859   1.450  0.00  0.00    -0.004 A 
ATOM      5  C5  I4B d   1      -0.555  -2.208   1.476  0.00  0.00     0.002 A 
ATOM      6  C6  I4B d   1       0.219  -3.141   0.771  0.00  0.00     0.003 A 
ENDROOT
BRANCH   1   7
ATOM      7  C1' I4B d   1       2.109  -3.671  -0.792  0.00  0.00     0.060 C 
BRANCH   7   8
ATOM      8  C2' I4B d   1       3.396  -3.962  -0.046  0.00  0.00    -0.013 C 
ATOM      9  C4' I4B d   1       4.113  -5.146  -0.639  0.00  0.00     0.013 C 
ATOM     10  C3' I4B d   1       4.250  -2.730  -0.098  0.00  0.00     0.013 C 
ENDBRANCH   7   8
ENDBRANCH   1   7
TORSDOF 2
ENDMDL
