MODEL 1
REMARK minimizedAffinity -2.61328125
REMARK minimizedRMSD -1
REMARK  2 active torsions:
REMARK  status: ('A' for Active; 'I' for Inactive)
REMARK    1  A    between atoms: C2'_3  and  C1'_4 
REMARK    2  A    between atoms: C1'_4  and  C1_5 
ROOT
ATOM      1  C1  I4B d   1       0.928  -2.007  -0.058  0.00  0.00    -0.075 A 
ATOM      2  C2  I4B d   1       0.774  -3.370   0.004  0.00  0.00     0.003 A 
ATOM      3  C3  I4B d   1       1.906  -4.218  -0.066  0.00  0.00     0.002 A 
ATOM      4  C4  I4B d   1       3.158  -3.668  -0.247  0.00  0.00    -0.004 A 
ATOM      5  C5  I4B d   1       3.314  -2.285  -0.287  0.00  0.00     0.002 A 
ATOM      6  C6  I4B d   1       2.194  -1.449  -0.179  0.00  0.00     0.003 A 
ENDROOT
BRANCH   1   7
ATOM      7  C1' I4B d   1      -0.292  -1.142  -0.015  0.00  0.00     0.060 C 
BRANCH   7   8
ATOM      8  C2' I4B d   1      -0.448  -0.627   1.402  0.00  0.00    -0.013 C 
ATOM      9  C4' I4B d   1       0.653   0.338   1.756  0.00  0.00     0.013 C 
ATOM     10  C3' I4B d   1      -1.794   0.025   1.511  0.00  0.00     0.013 C 
ENDBRANCH   7   8
ENDBRANCH   1   7
TORSDOF 2
ENDMDL
