MODEL 1
REMARK minimizedAffinity 0.465234667
REMARK minimizedRMSD -1
REMARK  2 active torsions:
REMARK  status: ('A' for Active; 'I' for Inactive)
REMARK    1  A    between atoms: C2'_3  and  C1'_4 
REMARK    2  A    between atoms: C1'_4  and  C1_5 
ROOT
ATOM      1  C1  I4B d   1       1.566  -3.176   0.142  0.00  0.00    -0.075 A 
ATOM      2  C2  I4B d   1       0.261  -3.433   0.483  0.00  0.00     0.003 A 
ATOM      3  C3  I4B d   1      -0.497  -2.462   1.181  0.00  0.00     0.002 A 
ATOM      4  C4  I4B d   1       0.099  -1.277   1.560  0.00  0.00    -0.004 A 
ATOM      5  C5  I4B d   1       1.415  -1.009   1.194  0.00  0.00     0.002 A 
ATOM      6  C6  I4B d   1       2.150  -1.959   0.470  0.00  0.00     0.003 A 
ENDROOT
BRANCH   1   7
ATOM      7  C1' I4B d   1       2.348  -4.236  -0.566  0.00  0.00     0.060 C 
BRANCH   7   8
ATOM      8  C2' I4B d   1       3.627  -4.470   0.211  0.00  0.00    -0.013 C 
ATOM      9  C4' I4B d   1       4.140  -5.871   0.008  0.00  0.00     0.013 C 
ATOM     10  C3' I4B d   1       4.635  -3.454  -0.240  0.00  0.00     0.013 C 
ENDBRANCH   7   8
ENDBRANCH   1   7
TORSDOF 2
ENDMDL
