MODEL 1
REMARK minimizedAffinity -2.63820601
REMARK minimizedRMSD -1
REMARK  2 active torsions:
REMARK  status: ('A' for Active; 'I' for Inactive)
REMARK    1  A    between atoms: C2'_3  and  C1'_4 
REMARK    2  A    between atoms: C1'_4  and  C1_5 
ROOT
ATOM      1  C1  I4B d   1       1.254  -2.357   0.071  0.00  0.00    -0.075 A 
ATOM      2  C2  I4B d   1      -0.099  -2.484   0.261  0.00  0.00     0.003 A 
ATOM      3  C3  I4B d   1      -0.820  -1.482   0.954  0.00  0.00     0.002 A 
ATOM      4  C4  I4B d   1      -0.143  -0.400   1.481  0.00  0.00    -0.004 A 
ATOM      5  C5  I4B d   1       1.225  -0.261   1.268  0.00  0.00     0.002 A 
ATOM      6  C6  I4B d   1       1.927  -1.239   0.548  0.00  0.00     0.003 A 
ENDROOT
BRANCH   1   7
ATOM      7  C1' I4B d   1       1.989  -3.451  -0.636  0.00  0.00     0.060 C 
BRANCH   7   8
ATOM      8  C2' I4B d   1       3.266  -3.727   0.131  0.00  0.00    -0.013 C 
ATOM      9  C4' I4B d   1       3.920  -5.000  -0.339  0.00  0.00     0.013 C 
ATOM     10  C3' I4B d   1       4.179  -2.551  -0.050  0.00  0.00     0.013 C 
ENDBRANCH   7   8
ENDBRANCH   1   7
TORSDOF 2
ENDMDL
