MODEL 1
REMARK minimizedAffinity 3.71602798
REMARK minimizedRMSD -1
REMARK  2 active torsions:
REMARK  status: ('A' for Active; 'I' for Inactive)
REMARK    1  A    between atoms: C2'_3  and  C1'_4 
REMARK    2  A    between atoms: C1'_4  and  C1_5 
ROOT
ATOM      1  C1  I4B d   1       0.398  -1.593   0.570  0.00  0.00    -0.075 A 
ATOM      2  C2  I4B d   1      -0.115  -2.862   0.683  0.00  0.00     0.003 A 
ATOM      3  C3  I4B d   1       0.696  -3.987   0.399  0.00  0.00     0.002 A 
ATOM      4  C4  I4B d   1       1.991  -3.797  -0.040  0.00  0.00    -0.004 A 
ATOM      5  C5  I4B d   1       2.516  -2.512  -0.132  0.00  0.00     0.002 A 
ATOM      6  C6  I4B d   1       1.719  -1.403   0.187  0.00  0.00     0.003 A 
ENDROOT
BRANCH   1   7
ATOM      7  C1' I4B d   1      -0.497  -0.427   0.846  0.00  0.00     0.060 C 
BRANCH   7   8
ATOM      8  C2' I4B d   1       0.037   0.293   2.068  0.00  0.00    -0.013 C 
ATOM      9  C4' I4B d   1      -0.293  -0.459   3.330  0.00  0.00     0.013 C 
ATOM     10  C3' I4B d   1       1.519   0.448   1.902  0.00  0.00     0.013 C 
ENDBRANCH   7   8
ENDBRANCH   1   7
TORSDOF 2
ENDMDL
