MODEL 1
REMARK minimizedAffinity -1.9583472
REMARK minimizedRMSD -1
REMARK  2 active torsions:
REMARK  status: ('A' for Active; 'I' for Inactive)
REMARK    1  A    between atoms: C2'_3  and  C1'_4 
REMARK    2  A    between atoms: C1'_4  and  C1_5 
ROOT
ATOM      1  C1  I4B d   1       0.865  -1.966   0.215  0.00  0.00    -0.075 A 
ATOM      2  C2  I4B d   1       0.741  -3.308   0.477  0.00  0.00     0.003 A 
ATOM      3  C3  I4B d   1       1.891  -4.132   0.539  0.00  0.00     0.002 A 
ATOM      4  C4  I4B d   1       3.132  -3.586   0.284  0.00  0.00    -0.004 A 
ATOM      5  C5  I4B d   1       3.259  -2.221   0.041  0.00  0.00     0.002 A 
ATOM      6  C6  I4B d   1       2.120  -1.403   0.018  0.00  0.00     0.003 A 
ENDROOT
BRANCH   1   7
ATOM      7  C1' I4B d   1      -0.373  -1.131   0.125  0.00  0.00     0.060 C 
BRANCH   7   8
ATOM      8  C2' I4B d   1      -0.670  -0.587   1.507  0.00  0.00    -0.013 C 
ATOM      9  C4' I4B d   1       0.513   0.158   2.066  0.00  0.00     0.013 C 
ATOM     10  C3' I4B d   1      -1.872   0.305   1.405  0.00  0.00     0.013 C 
ENDBRANCH   7   8
ENDBRANCH   1   7
TORSDOF 2
ENDMDL
