MODEL 1
REMARK minimizedAffinity 3.85429239
REMARK minimizedRMSD -1
REMARK  2 active torsions:
REMARK  status: ('A' for Active; 'I' for Inactive)
REMARK    1  A    between atoms: C2'_3  and  C1'_4 
REMARK    2  A    between atoms: C1'_4  and  C1_5 
ROOT
ATOM      1  C1  I4B d   1       0.325  -0.702   1.590  0.00  0.00    -0.075 A 
ATOM      2  C2  I4B d   1      -0.513  -1.692   1.142  0.00  0.00     0.003 A 
ATOM      3  C3  I4B d   1      -0.096  -2.566   0.108  0.00  0.00     0.002 A 
ATOM      4  C4  I4B d   1       1.139  -2.383  -0.479  0.00  0.00    -0.004 A 
ATOM      5  C5  I4B d   1       1.997  -1.393  -0.008  0.00  0.00     0.002 A 
ATOM      6  C6  I4B d   1       1.593  -0.555   1.042  0.00  0.00     0.003 A 
ENDROOT
BRANCH   1   7
ATOM      7  C1' I4B d   1      -0.160   0.224   2.660  0.00  0.00     0.060 C 
BRANCH   7   8
ATOM      8  C2' I4B d   1      -0.581  -0.617   3.849  0.00  0.00    -0.013 C 
ATOM      9  C4' I4B d   1       0.611  -1.240   4.526  0.00  0.00     0.013 C 
ATOM     10  C3' I4B d   1      -1.340   0.266   4.794  0.00  0.00     0.013 C 
ENDBRANCH   7   8
ENDBRANCH   1   7
TORSDOF 2
ENDMDL
