MODEL 1
REMARK minimizedAffinity -1.88471186
REMARK minimizedRMSD -1
REMARK  0 active torsions:
REMARK  status: ('A' for Active; 'I' for Inactive)
ROOT
ATOM      1  C   UNL d   1       0.812   3.630   0.844  0.00  0.00     0.172 C 
ATOM      2  N   UNL d   1       0.981   2.279   0.362  0.00  0.00    -0.070 N 
ATOM      3  C1  UNL d   1       1.597   1.261   1.040  0.00  0.00    -0.004 A 
ATOM      4  C2  UNL d   1       1.552   0.137   0.245  0.00  0.00    -0.047 A 
ATOM      5  C3  UNL d   1       0.888   0.491  -0.953  0.00  0.00    -0.047 A 
ATOM      6  C4  UNL d   1       0.545   1.823  -0.854  0.00  0.00    -0.004 A 
ENDROOT
TORSDOF 0
ENDMDL
