MODEL 1
REMARK minimizedAffinity -3.48625231
REMARK minimizedRMSD -1
REMARK  0 active torsions:
REMARK  status: ('A' for Active; 'I' for Inactive)
ROOT
ATOM      1  C   UNL d   1       1.543  -0.987  -0.904  0.00  0.00     0.172 C 
ATOM      2  N   UNL d   1       1.354   0.440  -0.783  0.00  0.00    -0.070 N 
ATOM      3  C1  UNL d   1       1.562   1.360  -1.776  0.00  0.00    -0.004 A 
ATOM      4  C2  UNL d   1       1.271   2.606  -1.264  0.00  0.00    -0.047 A 
ATOM      5  C3  UNL d   1       0.876   2.429   0.083  0.00  0.00    -0.047 A 
ATOM      6  C4  UNL d   1       0.936   1.078   0.355  0.00  0.00    -0.004 A 
ENDROOT
TORSDOF 0
ENDMDL
