MODEL 1
REMARK minimizedAffinity -1.43101251
REMARK minimizedRMSD -1
REMARK  0 active torsions:
REMARK  status: ('A' for Active; 'I' for Inactive)
ROOT
ATOM      1  C   UNL d   1       1.172   3.620  -1.430  0.00  0.00     0.172 C 
ATOM      2  N   UNL d   1       1.124   2.318  -0.808  0.00  0.00    -0.070 N 
ATOM      3  C1  UNL d   1       1.506   2.033   0.476  0.00  0.00    -0.004 A 
ATOM      4  C2  UNL d   1       1.307   0.685   0.686  0.00  0.00    -0.047 A 
ATOM      5  C3  UNL d   1       0.787   0.142  -0.513  0.00  0.00    -0.047 A 
ATOM      6  C4  UNL d   1       0.684   1.175  -1.421  0.00  0.00    -0.004 A 
ENDROOT
TORSDOF 0
ENDMDL
