MODEL 1
REMARK minimizedAffinity -1.8972317
REMARK minimizedRMSD -1
REMARK  0 active torsions:
REMARK  status: ('A' for Active; 'I' for Inactive)
ROOT
ATOM      1  C   UNL d   1       1.100  -1.407  -0.572  0.00  0.00     0.172 C 
ATOM      2  N   UNL d   1       1.083   0.036  -0.508  0.00  0.00    -0.070 N 
ATOM      3  C1  UNL d   1       0.904   0.783   0.625  0.00  0.00    -0.004 A 
ATOM      4  C2  UNL d   1       0.955   2.113   0.266  0.00  0.00    -0.047 A 
ATOM      5  C3  UNL d   1       1.170   2.167  -1.131  0.00  0.00    -0.047 A 
ATOM      6  C4  UNL d   1       1.246   0.867  -1.585  0.00  0.00    -0.004 A 
ENDROOT
TORSDOF 0
ENDMDL
