MODEL 1
REMARK minimizedAffinity -0.154318482
REMARK minimizedRMSD -1
REMARK  0 active torsions:
REMARK  status: ('A' for Active; 'I' for Inactive)
ROOT
ATOM      1  C   UNL d   1       0.441   3.014   0.100  0.00  0.00     0.172 C 
ATOM      2  N   UNL d   1       0.976   1.898  -0.644  0.00  0.00    -0.070 N 
ATOM      3  C1  UNL d   1       1.574   1.972  -1.874  0.00  0.00    -0.004 A 
ATOM      4  C2  UNL d   1       1.946   0.696  -2.240  0.00  0.00    -0.047 A 
ATOM      5  C3  UNL d   1       1.556  -0.175  -1.194  0.00  0.00    -0.047 A 
ATOM      6  C4  UNL d   1       0.958   0.596  -0.219  0.00  0.00    -0.004 A 
ENDROOT
TORSDOF 0
ENDMDL
