MODEL 1
REMARK minimizedAffinity 8.11501026
REMARK minimizedRMSD -1
REMARK  0 active torsions:
REMARK  status: ('A' for Active; 'I' for Inactive)
ROOT
ATOM      1  C   UNL d   1       1.061   3.673  -1.570  0.00  0.00     0.172 C 
ATOM      2  N   UNL d   1       1.226   2.246  -1.419  0.00  0.00    -0.070 N 
ATOM      3  C1  UNL d   1       2.012   1.628  -0.484  0.00  0.00    -0.004 A 
ATOM      4  C2  UNL d   1       1.898   0.267  -0.670  0.00  0.00    -0.047 A 
ATOM      5  C3  UNL d   1       1.013   0.060  -1.754  0.00  0.00    -0.047 A 
ATOM      6  C4  UNL d   1       0.611   1.302  -2.199  0.00  0.00    -0.004 A 
ENDROOT
TORSDOF 0
ENDMDL
