MODEL 1
REMARK minimizedAffinity -0.930443287
REMARK minimizedRMSD -1
REMARK  0 active torsions:
REMARK  status: ('A' for Active; 'I' for Inactive)
ROOT
ATOM      1  C   UNL d   1       0.873  -0.116  -1.181  0.00  0.00     0.172 C 
ATOM      2  N   UNL d   1       0.903   1.318  -1.014  0.00  0.00    -0.070 N 
ATOM      3  C1  UNL d   1       0.862   1.984   0.182  0.00  0.00    -0.004 A 
ATOM      4  C2  UNL d   1       0.911   3.335  -0.084  0.00  0.00    -0.047 A 
ATOM      5  C3  UNL d   1       0.983   3.487  -1.490  0.00  0.00    -0.047 A 
ATOM      6  C4  UNL d   1       0.976   2.223  -2.040  0.00  0.00    -0.004 A 
ENDROOT
TORSDOF 0
ENDMDL
