MODEL 1
REMARK minimizedAffinity 1.24846804
REMARK minimizedRMSD -1
REMARK  0 active torsions:
REMARK  status: ('A' for Active; 'I' for Inactive)
ROOT
ATOM      1  C   UNL d   1       3.734   0.323   0.648  0.00  0.00     0.172 C 
ATOM      2  N   UNL d   1       2.354   0.499   0.261  0.00  0.00    -0.070 N 
ATOM      3  C1  UNL d   1       1.625  -0.366  -0.510  0.00  0.00    -0.004 A 
ATOM      4  C2  UNL d   1       0.358   0.159  -0.650  0.00  0.00    -0.047 A 
ATOM      5  C3  UNL d   1       0.325   1.382   0.060  0.00  0.00    -0.047 A 
ATOM      6  C4  UNL d   1       1.574   1.569   0.615  0.00  0.00    -0.004 A 
ENDROOT
TORSDOF 0
ENDMDL
