MODEL 1
REMARK minimizedAffinity -0.61059773
REMARK minimizedRMSD -1
REMARK  0 active torsions:
REMARK  status: ('A' for Active; 'I' for Inactive)
ROOT
ATOM      1  C   UNL d   1       0.941   3.053  -1.889  0.00  0.00     0.172 C 
ATOM      2  N   UNL d   1       1.034   1.732  -1.313  0.00  0.00    -0.070 N 
ATOM      3  C1  UNL d   1       0.394   1.309  -0.179  0.00  0.00    -0.004 A 
ATOM      4  C2  UNL d   1       0.740  -0.008   0.034  0.00  0.00    -0.047 A 
ATOM      5  C3  UNL d   1       1.620  -0.389  -1.007  0.00  0.00    -0.047 A 
ATOM      6  C4  UNL d   1       1.784   0.707  -1.827  0.00  0.00    -0.004 A 
ENDROOT
TORSDOF 0
ENDMDL
