MODEL 1
REMARK minimizedAffinity -3.79821873
REMARK minimizedRMSD -1
REMARK  0 active torsions:
REMARK  status: ('A' for Active; 'I' for Inactive)
ROOT
ATOM      1  C   UNL d   1       1.068   3.744  -1.196  0.00  0.00     0.172 C 
ATOM      2  N   UNL d   1       0.933   2.475  -0.520  0.00  0.00    -0.070 N 
ATOM      3  C1  UNL d   1       0.797   1.256  -1.129  0.00  0.00    -0.004 A 
ATOM      4  C2  UNL d   1       0.698   0.300  -0.142  0.00  0.00    -0.047 A 
ATOM      5  C3  UNL d   1       0.776   0.967   1.104  0.00  0.00    -0.047 A 
ATOM      6  C4  UNL d   1       0.921   2.312   0.840  0.00  0.00    -0.004 A 
ENDROOT
TORSDOF 0
ENDMDL
