MODEL 1
REMARK minimizedAffinity 0.849838793
REMARK minimizedRMSD -1
REMARK  0 active torsions:
REMARK  status: ('A' for Active; 'I' for Inactive)
ROOT
ATOM      1  C   UNL d   1       0.803   3.313  -1.728  0.00  0.00     0.172 C 
ATOM      2  N   UNL d   1       0.964   2.006  -1.135  0.00  0.00    -0.070 N 
ATOM      3  C1  UNL d   1       0.306   1.545  -0.026  0.00  0.00    -0.004 A 
ATOM      4  C2  UNL d   1       0.736   0.258   0.215  0.00  0.00    -0.047 A 
ATOM      5  C3  UNL d   1       1.686  -0.065  -0.783  0.00  0.00    -0.047 A 
ATOM      6  C4  UNL d   1       1.808   1.035  -1.605  0.00  0.00    -0.004 A 
ENDROOT
TORSDOF 0
ENDMDL
