MODEL 1
REMARK minimizedAffinity -1.28536534
REMARK minimizedRMSD -1
REMARK  0 active torsions:
REMARK  status: ('A' for Active; 'I' for Inactive)
ROOT
ATOM      1  C   UNL d   1      -1.738   1.192   5.573  0.00  0.00     0.172 C 
ATOM      2  N   UNL d   1      -2.418   1.355   4.310  0.00  0.00    -0.070 N 
ATOM      3  C1  UNL d   1      -2.188   2.354   3.403  0.00  0.00    -0.004 A 
ATOM      4  C2  UNL d   1      -3.036   2.157   2.334  0.00  0.00    -0.047 A 
ATOM      5  C3  UNL d   1      -3.802   0.999   2.609  0.00  0.00    -0.047 A 
ATOM      6  C4  UNL d   1      -3.399   0.523   3.838  0.00  0.00    -0.004 A 
ENDROOT
TORSDOF 0
ENDMDL
