MODEL 1
REMARK minimizedAffinity 1.58081174
REMARK minimizedRMSD -1
REMARK  0 active torsions:
REMARK  status: ('A' for Active; 'I' for Inactive)
ROOT
ATOM      1  C   UNL d   1       0.895   2.929  -1.952  0.00  0.00     0.172 C 
ATOM      2  N   UNL d   1       1.017   1.889  -0.958  0.00  0.00    -0.070 N 
ATOM      3  C1  UNL d   1       1.228   0.560  -1.215  0.00  0.00    -0.004 A 
ATOM      4  C2  UNL d   1       1.285  -0.100  -0.006  0.00  0.00    -0.047 A 
ATOM      5  C3  UNL d   1       1.100   0.865   1.012  0.00  0.00    -0.047 A 
ATOM      6  C4  UNL d   1       0.937   2.088   0.395  0.00  0.00    -0.004 A 
ENDROOT
TORSDOF 0
ENDMDL
