MODEL 1
REMARK minimizedAffinity -0.051379405
REMARK minimizedRMSD -1
REMARK  0 active torsions:
REMARK  status: ('A' for Active; 'I' for Inactive)
ROOT
ATOM      1  C   UNL d   1       0.440   2.834  -2.166  0.00  0.00     0.172 C 
ATOM      2  N   UNL d   1       0.743   1.849  -1.154  0.00  0.00    -0.070 N 
ATOM      3  C1  UNL d   1       0.572   0.497  -1.280  0.00  0.00    -0.004 A 
ATOM      4  C2  UNL d   1       0.976  -0.091  -0.101  0.00  0.00    -0.047 A 
ATOM      5  C3  UNL d   1       1.403   0.944   0.764  0.00  0.00    -0.047 A 
ATOM      6  C4  UNL d   1       1.248   2.135   0.087  0.00  0.00    -0.004 A 
ENDROOT
TORSDOF 0
ENDMDL
