MODEL 1
REMARK minimizedAffinity -3.56703949
REMARK minimizedRMSD -1
REMARK  0 active torsions:
REMARK  status: ('A' for Active; 'I' for Inactive)
ROOT
ATOM      1  C   UNL d   1       0.954   3.745  -1.125  0.00  0.00     0.172 C 
ATOM      2  N   UNL d   1       0.981   2.433  -0.523  0.00  0.00    -0.070 N 
ATOM      3  C1  UNL d   1       1.435   1.288  -1.123  0.00  0.00    -0.004 A 
ATOM      4  C2  UNL d   1       1.294   0.255  -0.222  0.00  0.00    -0.047 A 
ATOM      5  C3  UNL d   1       0.735   0.797   0.960  0.00  0.00    -0.047 A 
ATOM      6  C4  UNL d   1       0.552   2.147   0.746  0.00  0.00    -0.004 A 
ENDROOT
TORSDOF 0
ENDMDL
