MODEL 1
REMARK minimizedAffinity -2.67544556
REMARK minimizedRMSD -1
REMARK  0 active torsions:
REMARK  status: ('A' for Active; 'I' for Inactive)
ROOT
ATOM      1  C   UNL d   1       1.257   3.369  -1.911  0.00  0.00     0.172 C 
ATOM      2  N   UNL d   1       1.067   2.274  -0.988  0.00  0.00    -0.070 N 
ATOM      3  C1  UNL d   1       1.000   0.949  -1.325  0.00  0.00    -0.004 A 
ATOM      4  C2  UNL d   1       0.814   0.228  -0.165  0.00  0.00    -0.047 A 
ATOM      5  C3  UNL d   1       0.766   1.152   0.905  0.00  0.00    -0.047 A 
ATOM      6  C4  UNL d   1       0.925   2.412   0.367  0.00  0.00    -0.004 A 
ENDROOT
TORSDOF 0
ENDMDL
