MODEL 1
REMARK minimizedAffinity 0.457226455
REMARK minimizedRMSD -1
REMARK  0 active torsions:
REMARK  status: ('A' for Active; 'I' for Inactive)
ROOT
ATOM      1  C   UNL d   1      -4.672   1.046   3.024  0.00  0.00     0.172 C 
ATOM      2  N   UNL d   1      -3.706   1.161   4.091  0.00  0.00    -0.070 N 
ATOM      3  C1  UNL d   1      -3.697   0.421   5.243  0.00  0.00    -0.004 A 
ATOM      4  C2  UNL d   1      -2.619   0.830   5.999  0.00  0.00    -0.047 A 
ATOM      5  C3  UNL d   1      -1.958   1.851   5.276  0.00  0.00    -0.047 A 
ATOM      6  C4  UNL d   1      -2.652   2.036   4.099  0.00  0.00    -0.004 A 
ENDROOT
TORSDOF 0
ENDMDL
