MODEL 1
REMARK minimizedAffinity 5.91086626
REMARK minimizedRMSD -1
REMARK  0 active torsions:
REMARK  status: ('A' for Active; 'I' for Inactive)
ROOT
ATOM      1  C   UNL d   1       1.652  -0.538  -0.821  0.00  0.00     0.077 C 
ATOM      2  C1  UNL d   1       0.552   0.301  -0.243  0.00  0.00    -0.074 A 
ATOM      3  C2  UNL d   1      -0.656  -0.276   0.162  0.00  0.00    -0.005 A 
ATOM      4  C3  UNL d   1      -1.667   0.517   0.706  0.00  0.00     0.006 A 
ATOM      5  C4  UNL d   1      -1.480   1.892   0.851  0.00  0.00    -0.005 A 
ATOM      6  C5  UNL d   1      -0.279   2.487   0.452  0.00  0.00    -0.074 A 
ATOM      7  C6  UNL d   1      -0.058   3.962   0.609  0.00  0.00     0.077 C 
ATOM      8  C7  UNL d   1       0.734   1.683  -0.088  0.00  0.00    -0.001 A 
ENDROOT
TORSDOF 0
ENDMDL
