MODEL 1
REMARK minimizedAffinity 12.9700451
REMARK minimizedRMSD -1
REMARK  0 active torsions:
REMARK  status: ('A' for Active; 'I' for Inactive)
ROOT
ATOM      1  C   UNL d   1       1.650  -1.597   4.369  0.00  0.00     0.077 C 
ATOM      2  C1  UNL d   1       1.904  -0.983   3.025  0.00  0.00    -0.074 A 
ATOM      3  C2  UNL d   1       3.013  -0.159   2.808  0.00  0.00    -0.005 A 
ATOM      4  C3  UNL d   1       3.242   0.396   1.550  0.00  0.00     0.006 A 
ATOM      5  C4  UNL d   1       2.365   0.134   0.496  0.00  0.00    -0.005 A 
ATOM      6  C5  UNL d   1       1.251  -0.688   0.693  0.00  0.00    -0.074 A 
ATOM      7  C6  UNL d   1       0.305  -0.988  -0.431  0.00  0.00     0.077 C 
ATOM      8  C7  UNL d   1       1.032  -1.248   1.959  0.00  0.00    -0.001 A 
ENDROOT
TORSDOF 0
ENDMDL
