MODEL 1
REMARK minimizedAffinity 6.9000392
REMARK minimizedRMSD -1
REMARK  0 active torsions:
REMARK  status: ('A' for Active; 'I' for Inactive)
ROOT
ATOM      1  C   UNL d   1       1.346  -0.380   2.399  0.00  0.00     0.077 C 
ATOM      2  C1  UNL d   1       1.976  -1.457   3.231  0.00  0.00    -0.074 A 
ATOM      3  C2  UNL d   1       1.252  -2.593   3.604  0.00  0.00    -0.005 A 
ATOM      4  C3  UNL d   1       1.854  -3.591   4.370  0.00  0.00     0.006 A 
ATOM      5  C4  UNL d   1       3.185  -3.463   4.769  0.00  0.00    -0.005 A 
ATOM      6  C5  UNL d   1       3.926  -2.334   4.404  0.00  0.00    -0.074 A 
ATOM      7  C6  UNL d   1       5.360  -2.186   4.817  0.00  0.00     0.077 C 
ATOM      8  C7  UNL d   1       3.315  -1.339   3.629  0.00  0.00    -0.001 A 
ENDROOT
TORSDOF 0
ENDMDL
