MODEL 1
REMARK minimizedAffinity 2.63892984
REMARK minimizedRMSD -1
REMARK  0 active torsions:
REMARK  status: ('A' for Active; 'I' for Inactive)
ROOT
ATOM      1  C   UNL d   1       2.756   0.105   2.393  0.00  0.00     0.077 C 
ATOM      2  C1  UNL d   1       2.940  -0.962   3.431  0.00  0.00    -0.074 A 
ATOM      3  C2  UNL d   1       1.898  -1.837   3.755  0.00  0.00    -0.005 A 
ATOM      4  C3  UNL d   1       2.087  -2.830   4.716  0.00  0.00     0.006 A 
ATOM      5  C4  UNL d   1       3.317  -2.957   5.363  0.00  0.00    -0.005 A 
ATOM      6  C5  UNL d   1       4.370  -2.092   5.051  0.00  0.00    -0.074 A 
ATOM      7  C6  UNL d   1       5.702  -2.222   5.729  0.00  0.00     0.077 C 
ATOM      8  C7  UNL d   1       4.175  -1.101   4.079  0.00  0.00    -0.001 A 
ENDROOT
TORSDOF 0
ENDMDL
