MODEL 1
REMARK minimizedAffinity 4.74750948
REMARK minimizedRMSD -1
REMARK  0 active torsions:
REMARK  status: ('A' for Active; 'I' for Inactive)
ROOT
ATOM      1  O1  BZF d   1      -3.275   0.372  -4.273  0.00  0.00    -0.204 OA
ATOM      2  C2  BZF d   1      -2.957   0.625  -5.593  0.00  0.00     0.174 A 
ATOM      3  C3  BZF d   1      -1.783   1.282  -5.685  0.00  0.00    -0.012 A 
ATOM      4  C3A BZF d   1      -1.293   1.368  -4.344  0.00  0.00    -0.107 A 
ATOM      5  C4  BZF d   1      -0.163   1.896  -3.788  0.00  0.00     0.055 A 
ATOM      6  C5  BZF d   1      -0.022   1.881  -2.437  0.00  0.00    -0.016 A 
ATOM      7  C6  BZF d   1      -0.993   1.353  -1.611  0.00  0.00     0.022 A 
ATOM      8  C7  BZF d   1      -2.129   0.813  -2.116  0.00  0.00     0.029 A 
ATOM      9  C7A BZF d   1      -2.259   0.797  -3.483  0.00  0.00     0.058 A 
ENDROOT
TORSDOF 0
ENDMDL
