MODEL 1
REMARK minimizedAffinity 13.5536547
REMARK minimizedRMSD -1
REMARK  0 active torsions:
REMARK  status: ('A' for Active; 'I' for Inactive)
ROOT
ATOM      1  O1  BZF d   1       1.732  -5.927   0.023  0.00  0.00    -0.204 OA
ATOM      2  C2  BZF d   1       2.666  -5.929   1.041  0.00  0.00     0.174 A 
ATOM      3  C3  BZF d   1       2.061  -5.901   2.246  0.00  0.00    -0.012 A 
ATOM      4  C3A BZF d   1       0.660  -5.973   1.965  0.00  0.00    -0.107 A 
ATOM      5  C4  BZF d   1      -0.455  -5.999   2.753  0.00  0.00     0.055 A 
ATOM      6  C5  BZF d   1      -1.680  -5.998   2.165  0.00  0.00    -0.016 A 
ATOM      7  C6  BZF d   1      -1.827  -5.965   0.793  0.00  0.00     0.022 A 
ATOM      8  C7  BZF d   1      -0.750  -5.943  -0.029  0.00  0.00     0.029 A 
ATOM      9  C7A BZF d   1       0.489  -5.978   0.562  0.00  0.00     0.058 A 
ENDROOT
TORSDOF 0
ENDMDL
