MODEL 1
REMARK minimizedAffinity 10.2522697
REMARK minimizedRMSD -1
REMARK  0 active torsions:
REMARK  status: ('A' for Active; 'I' for Inactive)
ROOT
ATOM      1  O1  BZF d   1       0.683  -5.751   0.806  0.00  0.00    -0.204 OA
ATOM      2  C2  BZF d   1       1.059  -5.928   2.124  0.00  0.00     0.174 A 
ATOM      3  C3  BZF d   1      -0.023  -6.000   2.925  0.00  0.00    -0.012 A 
ATOM      4  C3A BZF d   1      -1.149  -5.952   2.042  0.00  0.00    -0.107 A 
ATOM      5  C4  BZF d   1      -2.499  -6.000   2.239  0.00  0.00     0.055 A 
ATOM      6  C5  BZF d   1      -3.328  -5.855   1.172  0.00  0.00    -0.016 A 
ATOM      7  C6  BZF d   1      -2.841  -5.657  -0.103  0.00  0.00     0.022 A 
ATOM      8  C7  BZF d   1      -1.509  -5.607  -0.349  0.00  0.00     0.029 A 
ATOM      9  C7A BZF d   1      -0.669  -5.786   0.723  0.00  0.00     0.058 A 
ENDROOT
TORSDOF 0
ENDMDL
