MODEL 1
REMARK minimizedAffinity 6.11186457
REMARK minimizedRMSD -1
REMARK  0 active torsions:
REMARK  status: ('A' for Active; 'I' for Inactive)
ROOT
ATOM      1  O1  BZF d   1       1.208   4.380  -2.958  0.00  0.00    -0.204 OA
ATOM      2  C2  BZF d   1       1.495   5.012  -4.152  0.00  0.00     0.174 A 
ATOM      3  C3  BZF d   1       2.383   4.296  -4.872  0.00  0.00    -0.012 A 
ATOM      4  C3A BZF d   1       2.598   3.098  -4.119  0.00  0.00    -0.107 A 
ATOM      5  C4  BZF d   1       3.364   1.986  -4.323  0.00  0.00     0.055 A 
ATOM      6  C5  BZF d   1       3.407   1.028  -3.360  0.00  0.00    -0.016 A 
ATOM      7  C6  BZF d   1       2.703   1.152  -2.181  0.00  0.00     0.022 A 
ATOM      8  C7  BZF d   1       1.925   2.235  -1.935  0.00  0.00     0.029 A 
ATOM      9  C7A BZF d   1       1.853   3.189  -2.921  0.00  0.00     0.058 A 
ENDROOT
TORSDOF 0
ENDMDL
