MODEL 1
REMARK minimizedAffinity 17.5835648
REMARK minimizedRMSD -1
REMARK  0 active torsions:
REMARK  status: ('A' for Active; 'I' for Inactive)
ROOT
ATOM      1  O1  BZF d   1      -0.974  -5.688  -0.023  0.00  0.00    -0.204 OA
ATOM      2  C2  BZF d   1      -2.253  -5.523   0.473  0.00  0.00     0.174 A 
ATOM      3  C3  BZF d   1      -2.251  -5.548   1.821  0.00  0.00    -0.012 A 
ATOM      4  C3A BZF d   1      -0.873  -5.649   2.193  0.00  0.00    -0.107 A 
ATOM      5  C4  BZF d   1      -0.226  -5.700   3.395  0.00  0.00     0.055 A 
ATOM      6  C5  BZF d   1       1.122  -5.871   3.413  0.00  0.00    -0.016 A 
ATOM      7  C6  BZF d   1       1.853  -6.000   2.250  0.00  0.00     0.022 A 
ATOM      8  C7  BZF d   1       1.256  -5.950   1.034  0.00  0.00     0.029 A 
ATOM      9  C7A BZF d   1      -0.102  -5.744   1.012  0.00  0.00     0.058 A 
ENDROOT
TORSDOF 0
ENDMDL
