MODEL 1
REMARK minimizedAffinity 0.501506686
REMARK minimizedRMSD -1
REMARK  0 active torsions:
REMARK  status: ('A' for Active; 'I' for Inactive)
ROOT
ATOM      1  O1  BZF d   1       2.221   2.084  -3.537  0.00  0.00    -0.204 OA
ATOM      2  C2  BZF d   1       1.186   2.281  -2.643  0.00  0.00     0.174 A 
ATOM      3  C3  BZF d   1       0.906   1.143  -1.976  0.00  0.00    -0.012 A 
ATOM      4  C3A BZF d   1       1.884   0.198  -2.418  0.00  0.00    -0.107 A 
ATOM      5  C4  BZF d   1       2.137  -1.108  -2.106  0.00  0.00     0.055 A 
ATOM      6  C5  BZF d   1       3.122  -1.767  -2.770  0.00  0.00    -0.016 A 
ATOM      7  C6  BZF d   1       3.870  -1.155  -3.755  0.00  0.00     0.022 A 
ATOM      8  C7  BZF d   1       3.659   0.140  -4.096  0.00  0.00     0.029 A 
ATOM      9  C7A BZF d   1       2.686   0.819  -3.404  0.00  0.00     0.058 A 
ENDROOT
TORSDOF 0
ENDMDL
