MODEL 1
REMARK minimizedAffinity 5.88865662
REMARK minimizedRMSD -1
REMARK  0 active torsions:
REMARK  status: ('A' for Active; 'I' for Inactive)
ROOT
ATOM      1  O1  BZF d   1      -5.956  -0.336   5.240  0.00  0.00    -0.204 OA
ATOM      2  C2  BZF d   1      -5.909   0.847   5.952  0.00  0.00     0.174 A 
ATOM      3  C3  BZF d   1      -5.840   1.905   5.118  0.00  0.00    -0.012 A 
ATOM      4  C3A BZF d   1      -5.937   1.354   3.802  0.00  0.00    -0.107 A 
ATOM      5  C4  BZF d   1      -5.944   1.903   2.552  0.00  0.00     0.055 A 
ATOM      6  C5  BZF d   1      -5.978   1.083   1.469  0.00  0.00    -0.016 A 
ATOM      7  C6  BZF d   1      -6.000  -0.291   1.600  0.00  0.00     0.022 A 
ATOM      8  C7  BZF d   1      -5.999  -0.882   2.819  0.00  0.00     0.029 A 
ATOM      9  C7A BZF d   1      -5.998  -0.055   3.915  0.00  0.00     0.058 A 
ENDROOT
TORSDOF 0
ENDMDL
