MODEL 1
REMARK minimizedAffinity 6.04096127
REMARK minimizedRMSD -1
REMARK  0 active torsions:
REMARK  status: ('A' for Active; 'I' for Inactive)
ROOT
ATOM      1  O1  BZF d   1      -1.032   1.537  -2.619  0.00  0.00    -0.204 OA
ATOM      2  C2  BZF d   1      -1.689   0.491  -3.239  0.00  0.00     0.174 A 
ATOM      3  C3  BZF d   1      -0.826  -0.493  -3.560  0.00  0.00    -0.012 A 
ATOM      4  C3A BZF d   1       0.436  -0.075  -3.030  0.00  0.00    -0.107 A 
ATOM      5  C4  BZF d   1       1.681  -0.637  -3.014  0.00  0.00     0.055 A 
ATOM      6  C5  BZF d   1       2.715   0.064  -2.480  0.00  0.00    -0.016 A 
ATOM      7  C6  BZF d   1       2.542   1.329  -1.958  0.00  0.00     0.022 A 
ATOM      8  C7  BZF d   1       1.325   1.926  -1.946  0.00  0.00     0.029 A 
ATOM      9  C7A BZF d   1       0.271   1.207  -2.456  0.00  0.00     0.058 A 
ENDROOT
TORSDOF 0
ENDMDL
