MODEL 1
REMARK minimizedAffinity 9.32940769
REMARK minimizedRMSD -1
REMARK  0 active torsions:
REMARK  status: ('A' for Active; 'I' for Inactive)
ROOT
ATOM      1  O1  BZF d   1      -1.781   2.196  -3.113  0.00  0.00    -0.204 OA
ATOM      2  C2  BZF d   1      -2.525   1.781  -4.201  0.00  0.00     0.174 A 
ATOM      3  C3  BZF d   1      -3.091   0.580  -3.963  0.00  0.00    -0.012 A 
ATOM      4  C3A BZF d   1      -2.751   0.265  -2.610  0.00  0.00    -0.107 A 
ATOM      5  C4  BZF d   1      -3.036  -0.791  -1.791  0.00  0.00     0.055 A 
ATOM      6  C5  BZF d   1      -2.490  -0.828  -0.548  0.00  0.00    -0.016 A 
ATOM      7  C6  BZF d   1      -1.652   0.168  -0.092  0.00  0.00     0.022 A 
ATOM      8  C7  BZF d   1      -1.344   1.238  -0.865  0.00  0.00     0.029 A 
ATOM      9  C7A BZF d   1      -1.921   1.295  -2.111  0.00  0.00     0.058 A 
ENDROOT
TORSDOF 0
ENDMDL
