MODEL 1
REMARK minimizedAffinity -0.780839741
REMARK minimizedRMSD -1
REMARK  0 active torsions:
REMARK  status: ('A' for Active; 'I' for Inactive)
ROOT
ATOM      1  O1  BZF d   1       1.287  -1.189  -3.995  0.00  0.00    -0.204 OA
ATOM      2  C2  BZF d   1       2.580  -0.751  -3.786  0.00  0.00     0.174 A 
ATOM      3  C3  BZF d   1       2.590   0.543  -3.404  0.00  0.00    -0.012 A 
ATOM      4  C3A BZF d   1       1.213   0.911  -3.284  0.00  0.00    -0.107 A 
ATOM      5  C4  BZF d   1       0.578   2.064  -2.923  0.00  0.00     0.055 A 
ATOM      6  C5  BZF d   1      -0.779   2.116  -2.979  0.00  0.00    -0.016 A 
ATOM      7  C6  BZF d   1      -1.531   1.037  -3.395  0.00  0.00     0.022 A 
ATOM      8  C7  BZF d   1      -0.945  -0.130  -3.759  0.00  0.00     0.029 A 
ATOM      9  C7A BZF d   1       0.424  -0.196  -3.672  0.00  0.00     0.058 A 
ENDROOT
TORSDOF 0
ENDMDL
