MODEL 1
REMARK minimizedAffinity -2.87595296
REMARK minimizedRMSD -1
REMARK  0 active torsions:
REMARK  status: ('A' for Active; 'I' for Inactive)
ROOT
ATOM      1  O1  BZF d   1      -1.042  -0.399  -4.559  0.00  0.00    -0.204 OA
ATOM      2  C2  BZF d   1      -1.788   0.763  -4.553  0.00  0.00     0.174 A 
ATOM      3  C3  BZF d   1      -1.197   1.708  -3.795  0.00  0.00    -0.012 A 
ATOM      4  C3A BZF d   1       0.041   1.129  -3.370  0.00  0.00    -0.107 A 
ATOM      5  C4  BZF d   1       1.077   1.585  -2.606  0.00  0.00     0.055 A 
ATOM      6  C5  BZF d   1       2.105   0.744  -2.318  0.00  0.00    -0.016 A 
ATOM      7  C6  BZF d   1       2.127  -0.558  -2.774  0.00  0.00     0.022 A 
ATOM      8  C7  BZF d   1       1.125  -1.053  -3.539  0.00  0.00     0.029 A 
ATOM      9  C7A BZF d   1       0.100  -0.196  -3.859  0.00  0.00     0.058 A 
ENDROOT
TORSDOF 0
ENDMDL
