MODEL 1
REMARK minimizedAffinity -3.32382607
REMARK minimizedRMSD -1
REMARK  0 active torsions:
REMARK  status: ('A' for Active; 'I' for Inactive)
ROOT
ATOM      1  O1  BZF d   1       2.018  -1.151  -4.206  0.00  0.00    -0.204 OA
ATOM      2  C2  BZF d   1       3.320  -0.689  -4.196  0.00  0.00     0.174 A 
ATOM      3  C3  BZF d   1       3.371   0.589  -3.769  0.00  0.00    -0.012 A 
ATOM      4  C3A BZF d   1       2.026   0.918  -3.406  0.00  0.00    -0.107 A 
ATOM      5  C4  BZF d   1       1.440   2.041  -2.896  0.00  0.00     0.055 A 
ATOM      6  C5  BZF d   1       0.092   2.062  -2.724  0.00  0.00    -0.016 A 
ATOM      7  C6  BZF d   1      -0.699   0.981  -3.054  0.00  0.00     0.022 A 
ATOM      8  C7  BZF d   1      -0.162  -0.157  -3.558  0.00  0.00     0.029 A 
ATOM      9  C7A BZF d   1       1.203  -0.193  -3.702  0.00  0.00     0.058 A 
ENDROOT
TORSDOF 0
ENDMDL
