MODEL 1
REMARK minimizedAffinity 5.28245783
REMARK minimizedRMSD -1
REMARK  0 active torsions:
REMARK  status: ('A' for Active; 'I' for Inactive)
ROOT
ATOM      1  O1  BZF d   1      -3.148   2.053  -4.196  0.00  0.00    -0.204 OA
ATOM      2  C2  BZF d   1      -3.582   0.953  -4.911  0.00  0.00     0.174 A 
ATOM      3  C3  BZF d   1      -2.671  -0.040  -4.861  0.00  0.00    -0.012 A 
ATOM      4  C3A BZF d   1      -1.642   0.437  -3.990  0.00  0.00    -0.107 A 
ATOM      5  C4  BZF d   1      -0.473  -0.102  -3.533  0.00  0.00     0.055 A 
ATOM      6  C5  BZF d   1       0.342   0.654  -2.752  0.00  0.00    -0.016 A 
ATOM      7  C6  BZF d   1       0.023   1.952  -2.412  0.00  0.00     0.022 A 
ATOM      8  C7  BZF d   1      -1.127   2.529  -2.837  0.00  0.00     0.029 A 
ATOM      9  C7A BZF d   1      -1.969   1.757  -3.600  0.00  0.00     0.058 A 
ENDROOT
TORSDOF 0
ENDMDL
