MODEL 1
REMARK minimizedAffinity 13.9966326
REMARK minimizedRMSD -1
REMARK  0 active torsions:
REMARK  status: ('A' for Active; 'I' for Inactive)
ROOT
ATOM      1  O1  BZF d   1      -0.184  -5.908  -0.227  0.00  0.00    -0.204 OA
ATOM      2  C2  BZF d   1      -1.507  -5.915   0.169  0.00  0.00     0.174 A 
ATOM      3  C3  BZF d   1      -1.604  -6.000   1.512  0.00  0.00    -0.012 A 
ATOM      4  C3A BZF d   1      -0.256  -5.956   1.990  0.00  0.00    -0.107 A 
ATOM      5  C4  BZF d   1       0.299  -5.985   3.237  0.00  0.00     0.055 A 
ATOM      6  C5  BZF d   1       1.653  -5.999   3.357  0.00  0.00    -0.016 A 
ATOM      7  C6  BZF d   1       2.480  -5.990   2.253  0.00  0.00     0.022 A 
ATOM      8  C7  BZF d   1       1.975  -5.956   0.996  0.00  0.00     0.029 A 
ATOM      9  C7A BZF d   1       0.608  -5.908   0.871  0.00  0.00     0.058 A 
ENDROOT
TORSDOF 0
ENDMDL
