MODEL 1
REMARK minimizedAffinity 0.139687151
REMARK minimizedRMSD -1
REMARK  0 active torsions:
REMARK  status: ('A' for Active; 'I' for Inactive)
ROOT
ATOM      1  O1  BZF d   1      -0.811   2.575  -3.376  0.00  0.00    -0.204 OA
ATOM      2  C2  BZF d   1      -1.809   1.911  -4.064  0.00  0.00     0.174 A 
ATOM      3  C3  BZF d   1      -1.481   0.616  -4.249  0.00  0.00    -0.012 A 
ATOM      4  C3A BZF d   1      -0.241   0.439  -3.559  0.00  0.00    -0.107 A 
ATOM      5  C4  BZF d   1       0.581  -0.635  -3.365  0.00  0.00     0.055 A 
ATOM      6  C5  BZF d   1       1.755  -0.457  -2.704  0.00  0.00    -0.016 A 
ATOM      7  C6  BZF d   1       2.141   0.780  -2.230  0.00  0.00     0.022 A 
ATOM      8  C7  BZF d   1       1.357   1.873  -2.394  0.00  0.00     0.029 A 
ATOM      9  C7A BZF d   1       0.154   1.690  -3.032  0.00  0.00     0.058 A 
ENDROOT
TORSDOF 0
ENDMDL
