MODEL 1
REMARK minimizedAffinity 11.7024364
REMARK minimizedRMSD -1
REMARK  0 active torsions:
REMARK  status: ('A' for Active; 'I' for Inactive)
ROOT
ATOM      1  O1  BZF d   1      -1.475  -3.898   0.370  0.00  0.00    -0.204 OA
ATOM      2  C2  BZF d   1      -2.324  -4.989   0.381  0.00  0.00     0.174 A 
ATOM      3  C3  BZF d   1      -1.795  -6.000   1.100  0.00  0.00    -0.012 A 
ATOM      4  C3A BZF d   1      -0.579  -5.478   1.645  0.00  0.00    -0.107 A 
ATOM      5  C4  BZF d   1       0.385  -6.000   2.459  0.00  0.00     0.055 A 
ATOM      6  C5  BZF d   1       1.484  -5.253   2.745  0.00  0.00    -0.016 A 
ATOM      7  C6  BZF d   1       1.653  -3.984   2.231  0.00  0.00     0.022 A 
ATOM      8  C7  BZF d   1       0.721  -3.422   1.423  0.00  0.00     0.029 A 
ATOM      9  C7A BZF d   1      -0.405  -4.162   1.158  0.00  0.00     0.058 A 
ENDROOT
TORSDOF 0
ENDMDL
