MODEL 1
REMARK minimizedAffinity 2.7563498
REMARK minimizedRMSD -1
REMARK  0 active torsions:
REMARK  status: ('A' for Active; 'I' for Inactive)
ROOT
ATOM      1  O1  BZF d   1      -4.385   0.766   2.110  0.00  0.00    -0.204 OA
ATOM      2  C2  BZF d   1      -3.120   0.353   1.739  0.00  0.00     0.174 A 
ATOM      3  C3  BZF d   1      -2.450  -0.146   2.798  0.00  0.00    -0.012 A 
ATOM      4  C3A BZF d   1      -3.386  -0.123   3.880  0.00  0.00    -0.107 A 
ATOM      5  C4  BZF d   1      -3.317  -0.506   5.189  0.00  0.00     0.055 A 
ATOM      6  C5  BZF d   1      -4.384  -0.282   6.000  0.00  0.00    -0.016 A 
ATOM      7  C6  BZF d   1      -5.532   0.327   5.537  0.00  0.00     0.022 A 
ATOM      8  C7  BZF d   1      -5.649   0.720   4.245  0.00  0.00     0.029 A 
ATOM      9  C7A BZF d   1      -4.585   0.465   3.415  0.00  0.00     0.058 A 
ENDROOT
TORSDOF 0
ENDMDL
