MODEL 1
REMARK minimizedAffinity 8.79730988
REMARK minimizedRMSD -1
REMARK  0 active torsions:
REMARK  status: ('A' for Active; 'I' for Inactive)
ROOT
ATOM      1  O1  BZF d   1       1.657   2.512  -1.277  0.00  0.00    -0.204 OA
ATOM      2  C2  BZF d   1       2.389   1.546  -0.613  0.00  0.00     0.174 A 
ATOM      3  C3  BZF d   1       3.369   1.061  -1.402  0.00  0.00    -0.012 A 
ATOM      4  C3A BZF d   1       3.301   1.834  -2.604  0.00  0.00    -0.107 A 
ATOM      5  C4  BZF d   1       4.026   1.836  -3.761  0.00  0.00     0.055 A 
ATOM      6  C5  BZF d   1       3.656   2.667  -4.771  0.00  0.00    -0.016 A 
ATOM      7  C6  BZF d   1       2.565   3.504  -4.659  0.00  0.00     0.022 A 
ATOM      8  C7  BZF d   1       1.819   3.542  -3.529  0.00  0.00     0.029 A 
ATOM      9  C7A BZF d   1       2.210   2.727  -2.495  0.00  0.00     0.058 A 
ENDROOT
TORSDOF 0
ENDMDL
