MODEL 1
REMARK minimizedAffinity -2.49833488
REMARK minimizedRMSD -1
REMARK  0 active torsions:
REMARK  status: ('A' for Active; 'I' for Inactive)
ROOT
ATOM      1  C2' OXE d   1      -0.773   1.048   2.462  0.00  0.00     0.078 C 
ATOM      2  C1' OXE d   1       1.784   0.011   1.946  0.00  0.00     0.078 C 
ATOM      3  C1  OXE d   1       0.762  -0.051   0.838  0.00  0.00    -0.078 A 
ATOM      4  C2  OXE d   1      -0.500   0.416   1.114  0.00  0.00    -0.078 A 
ATOM      5  C3  OXE d   1      -1.464   0.432   0.111  0.00  0.00     0.003 A 
ATOM      6  C4  OXE d   1      -1.206  -0.164  -1.130  0.00  0.00    -0.002 A 
ATOM      7  C5  OXE d   1       0.061  -0.681  -1.419  0.00  0.00    -0.002 A 
ATOM      8  C6  OXE d   1       1.067  -0.594  -0.463  0.00  0.00     0.003 A 
ENDROOT
TORSDOF 0
ENDMDL
