MODEL 1
REMARK minimizedAffinity -4.79509401
REMARK minimizedRMSD -1
REMARK  0 active torsions:
REMARK  status: ('A' for Active; 'I' for Inactive)
ROOT
ATOM      1  C2' OXE d   1      -2.184   0.534   0.017  0.00  0.00     0.078 C 
ATOM      2  C1' OXE d   1      -1.007   1.531   2.362  0.00  0.00     0.078 C 
ATOM      3  C1  OXE d   1      -0.139   0.727   1.427  0.00  0.00    -0.078 A 
ATOM      4  C2  OXE d   1      -0.735   0.203   0.304  0.00  0.00    -0.078 A 
ATOM      5  C3  OXE d   1       0.033  -0.500  -0.619  0.00  0.00     0.003 A 
ATOM      6  C4  OXE d   1       1.369  -0.810  -0.341  0.00  0.00    -0.002 A 
ATOM      7  C5  OXE d   1       1.985  -0.320   0.816  0.00  0.00    -0.002 A 
ATOM      8  C6  OXE d   1       1.258   0.484   1.687  0.00  0.00     0.003 A 
ENDROOT
TORSDOF 0
ENDMDL
