MODEL 1
REMARK minimizedAffinity -4.12589073
REMARK minimizedRMSD -1
REMARK  0 active torsions:
REMARK  status: ('A' for Active; 'I' for Inactive)
ROOT
ATOM      1  C2' OXE d   1      -0.551   1.504   3.331  0.00  0.00     0.078 C 
ATOM      2  C1' OXE d   1       1.776   0.301   2.322  0.00  0.00     0.078 C 
ATOM      3  C1  OXE d   1       0.538   0.273   1.460  0.00  0.00    -0.078 A 
ATOM      4  C2  OXE d   1      -0.608   0.823   1.981  0.00  0.00    -0.078 A 
ATOM      5  C3  OXE d   1      -1.763   0.872   1.206  0.00  0.00     0.003 A 
ATOM      6  C4  OXE d   1      -1.810   0.230  -0.038  0.00  0.00    -0.002 A 
ATOM      7  C5  OXE d   1      -0.665  -0.370  -0.570  0.00  0.00    -0.002 A 
ATOM      8  C6  OXE d   1       0.526  -0.321   0.145  0.00  0.00     0.003 A 
ENDROOT
TORSDOF 0
ENDMDL
