MODEL 1
REMARK minimizedAffinity -1.41937172
REMARK minimizedRMSD -1
REMARK  0 active torsions:
REMARK  status: ('A' for Active; 'I' for Inactive)
ROOT
ATOM      1  C2' OXE d   1       1.880   1.200   0.878  0.00  0.00     0.078 C 
ATOM      2  C1' OXE d   1      -0.207   2.314   2.390  0.00  0.00     0.078 C 
ATOM      3  C1  OXE d   1      -0.520   1.109   1.539  0.00  0.00    -0.078 A 
ATOM      4  C2  OXE d   1       0.495   0.599   0.767  0.00  0.00    -0.078 A 
ATOM      5  C3  OXE d   1       0.274  -0.545   0.005  0.00  0.00     0.003 A 
ATOM      6  C4  OXE d   1      -1.012  -1.089  -0.100  0.00  0.00    -0.002 A 
ATOM      7  C5  OXE d   1      -2.070  -0.561   0.648  0.00  0.00    -0.002 A 
ATOM      8  C6  OXE d   1      -1.831   0.510   1.503  0.00  0.00     0.003 A 
ENDROOT
TORSDOF 0
ENDMDL
