MODEL 1
REMARK minimizedAffinity -1.4983027
REMARK minimizedRMSD -1
REMARK  0 active torsions:
REMARK  status: ('A' for Active; 'I' for Inactive)
ROOT
ATOM      1  C2' OXE d   1      -0.967   1.473   2.454  0.00  0.00     0.078 C 
ATOM      2  C1' OXE d   1       1.688   0.674   2.016  0.00  0.00     0.078 C 
ATOM      3  C1  OXE d   1       0.665   0.322   0.965  0.00  0.00    -0.078 A 
ATOM      4  C2  OXE d   1      -0.640   0.675   1.210  0.00  0.00    -0.078 A 
ATOM      5  C3  OXE d   1      -1.615   0.422   0.249  0.00  0.00     0.003 A 
ATOM      6  C4  OXE d   1      -1.306  -0.324  -0.894  0.00  0.00    -0.002 A 
ATOM      7  C5  OXE d   1       0.010  -0.729  -1.144  0.00  0.00    -0.002 A 
ATOM      8  C6  OXE d   1       1.012  -0.378  -0.247  0.00  0.00     0.003 A 
ENDROOT
TORSDOF 0
ENDMDL
