MODEL 1
REMARK minimizedAffinity 13.167717
REMARK minimizedRMSD -1
REMARK  0 active torsions:
REMARK  status: ('A' for Active; 'I' for Inactive)
ROOT
ATOM      1  N1  IND d   1       3.724  -1.717   0.226  0.00  0.00    -0.196 N 
ATOM      2  C2  IND d   1       2.642  -1.872  -0.595  0.00  0.00     0.054 A 
ATOM      3  C3  IND d   1       2.590  -0.868  -1.499  0.00  0.00    -0.031 A 
ATOM      4  C4  IND d   1       4.231   1.079  -1.877  0.00  0.00     0.051 A 
ATOM      5  C5  IND d   1       5.351   1.662  -1.352  0.00  0.00    -0.031 A 
ATOM      6  C6  IND d   1       6.000   1.135  -0.254  0.00  0.00     0.015 A 
ATOM      7  C7  IND d   1       5.558  -0.005   0.356  0.00  0.00    -0.016 A 
ATOM      8  C8  IND d   1       4.417  -0.595  -0.170  0.00  0.00    -0.047 A 
ATOM      9  C9  IND d   1       3.730  -0.041  -1.257  0.00  0.00    -0.096 A 
ATOM     10  HN1 IND d   1       3.935  -2.234   0.880  0.00  0.00     0.298 HD
ENDROOT
TORSDOF 0
ENDMDL
