MODEL 1
REMARK minimizedAffinity 10.1580858
REMARK minimizedRMSD -1
REMARK  0 active torsions:
REMARK  status: ('A' for Active; 'I' for Inactive)
ROOT
ATOM      1  N1  IND d   1       4.715   2.101  -1.132  0.00  0.00    -0.196 N 
ATOM      2  C2  IND d   1       5.997   1.672  -0.931  0.00  0.00     0.054 A 
ATOM      3  C3  IND d   1       6.000   0.404  -0.461  0.00  0.00    -0.031 A 
ATOM      4  C4  IND d   1       4.022  -1.190  -0.044  0.00  0.00     0.051 A 
ATOM      5  C5  IND d   1       2.656  -1.236  -0.048  0.00  0.00    -0.031 A 
ATOM      6  C6  IND d   1       1.891  -0.151  -0.423  0.00  0.00     0.015 A 
ATOM      7  C7  IND d   1       2.467   1.022  -0.822  0.00  0.00    -0.016 A 
ATOM      8  C8  IND d   1       3.853   1.075  -0.812  0.00  0.00    -0.047 A 
ATOM      9  C9  IND d   1       4.634  -0.009  -0.391  0.00  0.00    -0.096 A 
ATOM     10  HN1 IND d   1       4.485   2.882  -1.411  0.00  0.00     0.298 HD
ENDROOT
TORSDOF 0
ENDMDL
