MODEL 1
REMARK minimizedAffinity 4.49334908
REMARK minimizedRMSD -1
REMARK  0 active torsions:
REMARK  status: ('A' for Active; 'I' for Inactive)
ROOT
ATOM      1  N1  IND d   1       4.728   1.863  -0.601  0.00  0.00    -0.196 N 
ATOM      2  C2  IND d   1       5.999   1.379  -0.736  0.00  0.00     0.054 A 
ATOM      3  C3  IND d   1       5.987   0.028  -0.776  0.00  0.00    -0.031 A 
ATOM      4  C4  IND d   1       3.986  -1.591  -0.739  0.00  0.00     0.051 A 
ATOM      5  C5  IND d   1       2.628  -1.622  -0.588  0.00  0.00    -0.031 A 
ATOM      6  C6  IND d   1       1.885  -0.469  -0.434  0.00  0.00     0.015 A 
ATOM      7  C7  IND d   1       2.474   0.763  -0.436  0.00  0.00    -0.016 A 
ATOM      8  C8  IND d   1       3.854   0.798  -0.581  0.00  0.00    -0.047 A 
ATOM      9  C9  IND d   1       4.617  -0.371  -0.695  0.00  0.00    -0.096 A 
ATOM     10  HN1 IND d   1       4.510   2.692  -0.538  0.00  0.00     0.298 HD
ENDROOT
TORSDOF 0
ENDMDL
