MODEL 1
REMARK minimizedAffinity 8.15775681
REMARK minimizedRMSD -1
REMARK  0 active torsions:
REMARK  status: ('A' for Active; 'I' for Inactive)
ROOT
ATOM      1  N1  IND d   1       4.604   0.688  -1.983  0.00  0.00    -0.196 N 
ATOM      2  C2  IND d   1       4.345   1.074  -0.698  0.00  0.00     0.054 A 
ATOM      3  C3  IND d   1       3.669   0.104  -0.043  0.00  0.00    -0.031 A 
ATOM      4  C4  IND d   1       2.972  -2.237  -0.854  0.00  0.00     0.051 A 
ATOM      5  C5  IND d   1       2.956  -3.031  -1.967  0.00  0.00    -0.031 A 
ATOM      6  C6  IND d   1       3.502  -2.619  -3.165  0.00  0.00     0.015 A 
ATOM      7  C7  IND d   1       4.097  -1.396  -3.293  0.00  0.00    -0.016 A 
ATOM      8  C8  IND d   1       4.109  -0.584  -2.167  0.00  0.00    -0.047 A 
ATOM      9  C9  IND d   1       3.519  -0.980  -0.960  0.00  0.00    -0.096 A 
ATOM     10  HN1 IND d   1       5.009   1.161  -2.577  0.00  0.00     0.298 HD
ENDROOT
TORSDOF 0
ENDMDL
