MODEL 1
REMARK minimizedAffinity 10.5209637
REMARK minimizedRMSD -1
REMARK  0 active torsions:
REMARK  status: ('A' for Active; 'I' for Inactive)
ROOT
ATOM      1  N1  IND d   1       3.628  -1.391  -2.299  0.00  0.00    -0.196 N 
ATOM      2  C2  IND d   1       2.934  -1.902  -1.238  0.00  0.00     0.054 A 
ATOM      3  C3  IND d   1       3.177  -1.176  -0.123  0.00  0.00    -0.031 A 
ATOM      4  C4  IND d   1       4.601   0.949   0.166  0.00  0.00     0.051 A 
ATOM      5  C5  IND d   1       5.456   1.773  -0.511  0.00  0.00    -0.031 A 
ATOM      6  C6  IND d   1       5.750   1.582  -1.845  0.00  0.00     0.015 A 
ATOM      7  C7  IND d   1       5.187   0.562  -2.559  0.00  0.00    -0.016 A 
ATOM      8  C8  IND d   1       4.324  -0.281  -1.874  0.00  0.00    -0.047 A 
ATOM      9  C9  IND d   1       4.055  -0.117  -0.509  0.00  0.00    -0.096 A 
ATOM     10  HN1 IND d   1       3.630  -1.710  -3.098  0.00  0.00     0.298 HD
ENDROOT
TORSDOF 0
ENDMDL
