MODEL 1
REMARK minimizedAffinity 15.2118454
REMARK minimizedRMSD -1
REMARK  0 active torsions:
REMARK  status: ('A' for Active; 'I' for Inactive)
ROOT
ATOM      1  N1  IND d   1       2.714  -5.233   5.236  0.00  0.00    -0.196 N 
ATOM      2  C2  IND d   1       1.878  -6.000   6.000  0.00  0.00     0.054 A 
ATOM      3  C3  IND d   1       0.592  -5.631   5.805  0.00  0.00    -0.031 A 
ATOM      4  C4  IND d   1      -0.378  -3.865   4.203  0.00  0.00     0.051 A 
ATOM      5  C5  IND d   1      -0.005  -2.885   3.326  0.00  0.00    -0.031 A 
ATOM      6  C6  IND d   1       1.320  -2.634   3.034  0.00  0.00     0.015 A 
ATOM      7  C7  IND d   1       2.326  -3.365   3.601  0.00  0.00    -0.016 A 
ATOM      8  C8  IND d   1       1.951  -4.357   4.496  0.00  0.00    -0.047 A 
ATOM      9  C9  IND d   1       0.610  -4.587   4.829  0.00  0.00    -0.096 A 
ATOM     10  HN1 IND d   1       3.572  -5.289   5.220  0.00  0.00     0.298 HD
ENDROOT
TORSDOF 0
ENDMDL
