MODEL 1
REMARK minimizedAffinity 8.71014309
REMARK minimizedRMSD -1
REMARK  0 active torsions:
REMARK  status: ('A' for Active; 'I' for Inactive)
ROOT
ATOM      1  N1  IND d   1       5.994   4.635   0.087  0.00  0.00    -0.196 N 
ATOM      2  C2  IND d   1       5.998   5.301  -1.106  0.00  0.00     0.054 A 
ATOM      3  C3  IND d   1       5.638   4.470  -2.110  0.00  0.00    -0.031 A 
ATOM      4  C4  IND d   1       4.900   2.006  -2.008  0.00  0.00     0.051 A 
ATOM      5  C5  IND d   1       4.770   0.955  -1.144  0.00  0.00    -0.031 A 
ATOM      6  C6  IND d   1       5.045   1.080   0.203  0.00  0.00     0.015 A 
ATOM      7  C7  IND d   1       5.450   2.270   0.739  0.00  0.00    -0.016 A 
ATOM      8  C8  IND d   1       5.590   3.337  -0.136  0.00  0.00    -0.047 A 
ATOM      9  C9  IND d   1       5.353   3.205  -1.511  0.00  0.00    -0.096 A 
ATOM     10  HN1 IND d   1       6.207   4.970   0.850  0.00  0.00     0.298 HD
ENDROOT
TORSDOF 0
ENDMDL
