MODEL 1
REMARK minimizedAffinity 8.29661655
REMARK minimizedRMSD -1
REMARK  0 active torsions:
REMARK  status: ('A' for Active; 'I' for Inactive)
ROOT
ATOM      1  N1  IND d   1       5.250  -1.769  -3.846  0.00  0.00    -0.196 N 
ATOM      2  C2  IND d   1       4.267  -2.681  -4.111  0.00  0.00     0.054 A 
ATOM      3  C3  IND d   1       3.236  -2.524  -3.252  0.00  0.00    -0.031 A 
ATOM      4  C4  IND d   1       2.904  -0.770  -1.397  0.00  0.00     0.051 A 
ATOM      5  C5  IND d   1       3.545   0.252  -0.754  0.00  0.00    -0.031 A 
ATOM      6  C6  IND d   1       4.811   0.662  -1.117  0.00  0.00     0.015 A 
ATOM      7  C7  IND d   1       5.483   0.071  -2.150  0.00  0.00    -0.016 A 
ATOM      8  C8  IND d   1       4.838  -0.971  -2.801  0.00  0.00    -0.047 A 
ATOM      9  C9  IND d   1       3.570  -1.420  -2.409  0.00  0.00    -0.096 A 
ATOM     10  HN1 IND d   1       6.000  -1.704  -4.262  0.00  0.00     0.298 HD
ENDROOT
TORSDOF 0
ENDMDL
