MODEL 1
REMARK minimizedAffinity -3.55498123
REMARK minimizedRMSD -1
REMARK  1 active torsions:
REMARK  status: ('A' for Active; 'I' for Inactive)
REMARK    1  A    between atoms: C1_2  and  C2_3 
ROOT
ATOM      1  C2  UNL d   1       0.877   0.354   0.008  0.00  0.00    -0.073 A 
ATOM      2  C3  UNL d   1       0.506  -0.995   0.013  0.00  0.00    -0.002 A 
ATOM      3  C4  UNL d   1       1.454  -1.987  -0.242  0.00  0.00     0.004 A 
ATOM      4  C5  UNL d   1       2.781  -1.642  -0.496  0.00  0.00    -0.004 A 
ATOM      5  C6  UNL d   1       3.173  -0.299  -0.493  0.00  0.00    -0.075 A 
ATOM      6  C7  UNL d   1       4.597   0.089  -0.767  0.00  0.00     0.076 C 
ATOM      7  C8  UNL d   1       2.215   0.691  -0.240  0.00  0.00     0.001 A 
ENDROOT
BRANCH   1   8
ATOM      8  C1  UNL d   1      -0.142   1.429   0.288  0.00  0.00     0.053 C 
ATOM      9  C   UNL d   1      -1.557   0.874   0.339  0.00  0.00     0.018 C 
ENDBRANCH   1   8
TORSDOF 1
ENDMDL
