MODEL 1
REMARK minimizedAffinity 0.0139817158
REMARK minimizedRMSD -1
REMARK  1 active torsions:
REMARK  status: ('A' for Active; 'I' for Inactive)
REMARK    1  A    between atoms: C1_2  and  C2_3 
ROOT
ATOM      1  C2  UNL d   1       3.249  -0.589  -0.852  0.00  0.00    -0.073 A 
ATOM      2  C3  UNL d   1       2.748  -1.895  -0.908  0.00  0.00    -0.002 A 
ATOM      3  C4  UNL d   1       1.714  -2.290  -0.059  0.00  0.00     0.004 A 
ATOM      4  C5  UNL d   1       1.166  -1.384   0.849  0.00  0.00    -0.004 A 
ATOM      5  C6  UNL d   1       1.645  -0.072   0.912  0.00  0.00    -0.075 A 
ATOM      6  C7  UNL d   1       1.068   0.915   1.884  0.00  0.00     0.076 C 
ATOM      7  C8  UNL d   1       2.685   0.317   0.057  0.00  0.00     0.001 A 
ENDROOT
BRANCH   1   8
ATOM      8  C1  UNL d   1       4.361  -0.156  -1.772  0.00  0.00     0.053 C 
ATOM      9  C   UNL d   1       5.380   0.720  -1.061  0.00  0.00     0.018 C 
ENDBRANCH   1   8
TORSDOF 1
ENDMDL
