MODEL 1
REMARK minimizedAffinity 10.5095081
REMARK minimizedRMSD -1
REMARK  1 active torsions:
REMARK  status: ('A' for Active; 'I' for Inactive)
REMARK    1  A    between atoms: C1_2  and  C2_3 
ROOT
ATOM      1  C2  UNL d   1      -4.862   0.572  -2.056  0.00  0.00    -0.073 A 
ATOM      2  C3  UNL d   1      -5.977   1.310  -2.469  0.00  0.00    -0.002 A 
ATOM      3  C4  UNL d   1      -6.000   1.906  -3.731  0.00  0.00     0.004 A 
ATOM      4  C5  UNL d   1      -4.914   1.764  -4.594  0.00  0.00    -0.004 A 
ATOM      5  C6  UNL d   1      -3.795   1.020  -4.204  0.00  0.00    -0.075 A 
ATOM      6  C7  UNL d   1      -2.617   0.860  -5.120  0.00  0.00     0.076 C 
ATOM      7  C8  UNL d   1      -3.778   0.428  -2.934  0.00  0.00     0.001 A 
ENDROOT
BRANCH   1   8
ATOM      8  C1  UNL d   1      -4.835  -0.078  -0.697  0.00  0.00     0.053 C 
ATOM      9  C   UNL d   1      -4.749   0.946   0.423  0.00  0.00     0.018 C 
ENDBRANCH   1   8
TORSDOF 1
ENDMDL
