MODEL 1
REMARK minimizedAffinity 7.95480537
REMARK minimizedRMSD -1
REMARK  0 active torsions:
REMARK  status: ('A' for Active; 'I' for Inactive)
ROOT
ATOM      1  C2' OXE d   1       0.782   0.749  -1.560  0.00  0.00     0.078 C 
ATOM      2  C1' OXE d   1       2.189   0.201   0.808  0.00  0.00     0.078 C 
ATOM      3  C1  OXE d   1       2.735   1.271  -0.104  0.00  0.00    -0.078 A 
ATOM      4  C2  OXE d   1       2.067   1.500  -1.283  0.00  0.00    -0.078 A 
ATOM      5  C3  OXE d   1       2.498   2.514  -2.134  0.00  0.00     0.003 A 
ATOM      6  C4  OXE d   1       3.692   3.197  -1.875  0.00  0.00    -0.002 A 
ATOM      7  C5  OXE d   1       4.410   2.951  -0.700  0.00  0.00    -0.002 A 
ATOM      8  C6  OXE d   1       3.924   2.024   0.215  0.00  0.00     0.003 A 
ENDROOT
TORSDOF 0
ENDMDL
