MODEL 1
REMARK minimizedAffinity 13.3644791
REMARK minimizedRMSD -1
REMARK  0 active torsions:
REMARK  status: ('A' for Active; 'I' for Inactive)
ROOT
ATOM      1  C2' OXE d   1      -6.000   1.212  -2.280  0.00  0.00     0.078 C 
ATOM      2  C1' OXE d   1      -3.823  -0.305  -1.365  0.00  0.00     0.078 C 
ATOM      3  C1  OXE d   1      -4.156   0.965  -0.623  0.00  0.00    -0.078 A 
ATOM      4  C2  OXE d   1      -5.194   1.726  -1.106  0.00  0.00    -0.078 A 
ATOM      5  C3  OXE d   1      -5.578   2.879  -0.428  0.00  0.00     0.003 A 
ATOM      6  C4  OXE d   1      -4.821   3.352   0.651  0.00  0.00    -0.002 A 
ATOM      7  C5  OXE d   1      -3.736   2.613   1.135  0.00  0.00    -0.002 A 
ATOM      8  C6  OXE d   1      -3.417   1.399   0.537  0.00  0.00     0.003 A 
ENDROOT
TORSDOF 0
ENDMDL
