MODEL 1
REMARK minimizedAffinity 9.66027641
REMARK minimizedRMSD -1
REMARK  0 active torsions:
REMARK  status: ('A' for Active; 'I' for Inactive)
ROOT
ATOM      1  C2' OXE d   1       4.124   2.244  -1.894  0.00  0.00     0.078 C 
ATOM      2  C1' OXE d   1       4.187   2.242   0.912  0.00  0.00     0.078 C 
ATOM      3  C1  OXE d   1       3.539   1.068   0.223  0.00  0.00    -0.078 A 
ATOM      4  C2  OXE d   1       3.470   1.100  -1.150  0.00  0.00    -0.078 A 
ATOM      5  C3  OXE d   1       2.932   0.017  -1.838  0.00  0.00     0.003 A 
ATOM      6  C4  OXE d   1       2.321  -1.033  -1.142  0.00  0.00    -0.002 A 
ATOM      7  C5  OXE d   1       2.344  -1.066   0.257  0.00  0.00    -0.002 A 
ATOM      8  C6  OXE d   1       2.985  -0.046   0.951  0.00  0.00     0.003 A 
ENDROOT
TORSDOF 0
ENDMDL
