MODEL 1
REMARK minimizedAffinity 20.2775459
REMARK minimizedRMSD -1
REMARK  0 active torsions:
REMARK  status: ('A' for Active; 'I' for Inactive)
ROOT
ATOM      1  C2' OXE d   1       2.130  -1.087   0.810  0.00  0.00     0.078 C 
ATOM      2  C1' OXE d   1       1.134   0.109  -1.526  0.00  0.00     0.078 C 
ATOM      3  C1  OXE d   1       2.265   0.801  -0.808  0.00  0.00    -0.078 A 
ATOM      4  C2  OXE d   1       2.715   0.234   0.360  0.00  0.00    -0.078 A 
ATOM      5  C3  OXE d   1       3.793   0.802   1.032  0.00  0.00     0.003 A 
ATOM      6  C4  OXE d   1       4.322   2.029   0.614  0.00  0.00    -0.002 A 
ATOM      7  C5  OXE d   1       3.852   2.645  -0.551  0.00  0.00    -0.002 A 
ATOM      8  C6  OXE d   1       2.855   2.024  -1.295  0.00  0.00     0.003 A 
ENDROOT
TORSDOF 0
ENDMDL
