MODEL 1
REMARK minimizedAffinity 5.70957041
REMARK minimizedRMSD -1
REMARK  0 active torsions:
REMARK  status: ('A' for Active; 'I' for Inactive)
ROOT
ATOM      1  C2' OXE d   1       3.022  -1.514   1.110  0.00  0.00     0.078 C 
ATOM      2  C1' OXE d   1       1.502  -0.961  -1.184  0.00  0.00     0.078 C 
ATOM      3  C1  OXE d   1       2.605   0.001  -0.823  0.00  0.00    -0.078 A 
ATOM      4  C2  OXE d   1       3.313  -0.252   0.327  0.00  0.00    -0.078 A 
ATOM      5  C3  OXE d   1       4.378   0.574   0.677  0.00  0.00     0.003 A 
ATOM      6  C4  OXE d   1       4.634   1.745  -0.047  0.00  0.00    -0.002 A 
ATOM      7  C5  OXE d   1       3.899   2.042  -1.199  0.00  0.00    -0.002 A 
ATOM      8  C6  OXE d   1       2.911   1.161  -1.624  0.00  0.00     0.003 A 
ENDROOT
TORSDOF 0
ENDMDL
