MODEL 1
REMARK minimizedAffinity 10.687438
REMARK minimizedRMSD -1
REMARK  0 active torsions:
REMARK  status: ('A' for Active; 'I' for Inactive)
ROOT
ATOM      1  C2' OXE d   1      -2.374  -0.388  -2.293  0.00  0.00     0.078 C 
ATOM      2  C1' OXE d   1      -4.795  -0.157  -3.694  0.00  0.00     0.078 C 
ATOM      3  C1  OXE d   1      -4.807   0.141  -2.216  0.00  0.00    -0.078 A 
ATOM      4  C2  OXE d   1      -3.627  -0.020  -1.529  0.00  0.00    -0.078 A 
ATOM      5  C3  OXE d   1      -3.570   0.295  -0.175  0.00  0.00     0.003 A 
ATOM      6  C4  OXE d   1      -4.736   0.625   0.526  0.00  0.00    -0.002 A 
ATOM      7  C5  OXE d   1      -5.956   0.756  -0.146  0.00  0.00    -0.002 A 
ATOM      8  C6  OXE d   1      -6.000   0.559  -1.522  0.00  0.00     0.003 A 
ENDROOT
TORSDOF 0
ENDMDL
