MODEL 1
REMARK minimizedAffinity 4.01527452
REMARK minimizedRMSD -1
REMARK  1 active torsions:
REMARK  status: ('A' for Active; 'I' for Inactive)
REMARK    1  A    between atoms: C1_2  and  C2_3 
ROOT
ATOM      1  C2  UNL d   1      -3.478  -3.016   5.359  0.00  0.00    -0.073 A 
ATOM      2  C3  UNL d   1      -4.580  -3.722   5.855  0.00  0.00    -0.002 A 
ATOM      3  C4  UNL d   1      -5.833  -3.586   5.254  0.00  0.00     0.004 A 
ATOM      4  C5  UNL d   1      -5.995  -2.750   4.149  0.00  0.00    -0.004 A 
ATOM      5  C6  UNL d   1      -4.903  -2.046   3.632  0.00  0.00    -0.075 A 
ATOM      6  C7  UNL d   1      -5.061  -1.141   2.445  0.00  0.00     0.076 C 
ATOM      7  C8  UNL d   1      -3.649  -2.185   4.242  0.00  0.00     0.001 A 
ENDROOT
BRANCH   1   8
ATOM      8  C1  UNL d   1      -2.123  -3.164   6.000  0.00  0.00     0.053 C 
ATOM      9  C   UNL d   1      -1.346  -1.857   5.999  0.00  0.00     0.018 C 
ENDBRANCH   1   8
TORSDOF 1
ENDMDL
