MODEL 1
REMARK minimizedAffinity 12.3474493
REMARK minimizedRMSD -1
REMARK  1 active torsions:
REMARK  status: ('A' for Active; 'I' for Inactive)
REMARK    1  A    between atoms: C1_2  and  C2_3 
ROOT
ATOM      1  C2  UNL d   1      -0.968   2.558  -1.330  0.00  0.00    -0.073 A 
ATOM      2  C3  UNL d   1      -1.334   1.543  -0.438  0.00  0.00    -0.002 A 
ATOM      3  C4  UNL d   1      -0.618   1.351   0.744  0.00  0.00     0.004 A 
ATOM      4  C5  UNL d   1       0.466   2.174   1.050  0.00  0.00    -0.004 A 
ATOM      5  C6  UNL d   1       0.840   3.201   0.177  0.00  0.00    -0.075 A 
ATOM      6  C7  UNL d   1       2.005   4.093   0.491  0.00  0.00     0.076 C 
ATOM      7  C8  UNL d   1       0.118   3.386  -1.009  0.00  0.00     0.001 A 
ENDROOT
BRANCH   1   8
ATOM      8  C1  UNL d   1      -1.742   2.773  -2.604  0.00  0.00     0.053 C 
ATOM      9  C   UNL d   1      -3.097   2.084  -2.572  0.00  0.00     0.018 C 
ENDBRANCH   1   8
TORSDOF 1
ENDMDL
