MODEL 1
REMARK minimizedAffinity -0.965438068
REMARK minimizedRMSD -1
REMARK  1 active torsions:
REMARK  status: ('A' for Active; 'I' for Inactive)
REMARK    1  A    between atoms: C1_2  and  C2_3 
ROOT
ATOM      1  C2  UNL d   1      -0.919  -3.438  -5.971  0.00  0.00    -0.073 A 
ATOM      2  C3  UNL d   1      -1.644  -2.242  -6.000  0.00  0.00    -0.002 A 
ATOM      3  C4  UNL d   1      -3.040  -2.263  -5.996  0.00  0.00     0.004 A 
ATOM      4  C5  UNL d   1      -3.723  -3.478  -5.957  0.00  0.00    -0.004 A 
ATOM      5  C6  UNL d   1      -3.016  -4.684  -5.916  0.00  0.00    -0.075 A 
ATOM      6  C7  UNL d   1      -3.736  -6.000  -5.876  0.00  0.00     0.076 C 
ATOM      7  C8  UNL d   1      -1.615  -4.655  -5.923  0.00  0.00     0.001 A 
ENDROOT
BRANCH   1   8
ATOM      8  C1  UNL d   1       0.588  -3.420  -5.969  0.00  0.00     0.053 C 
ATOM      9  C   UNL d   1       1.160  -3.761  -4.602  0.00  0.00     0.018 C 
ENDBRANCH   1   8
TORSDOF 1
ENDMDL
