MODEL 1
REMARK minimizedAffinity 8.8676424
REMARK minimizedRMSD -1
REMARK  1 active torsions:
REMARK  status: ('A' for Active; 'I' for Inactive)
REMARK    1  A    between atoms: C1_2  and  C2_3 
ROOT
ATOM      1  C2  UNL d   1      -2.937  -4.463  -5.936  0.00  0.00    -0.073 A 
ATOM      2  C3  UNL d   1      -3.728  -3.308  -5.974  0.00  0.00    -0.002 A 
ATOM      3  C4  UNL d   1      -3.132  -2.047  -6.000  0.00  0.00     0.004 A 
ATOM      4  C5  UNL d   1      -1.743  -1.926  -5.995  0.00  0.00    -0.004 A 
ATOM      5  C6  UNL d   1      -0.935  -3.068  -5.970  0.00  0.00    -0.075 A 
ATOM      6  C7  UNL d   1       0.561  -2.955  -5.962  0.00  0.00     0.076 C 
ATOM      7  C8  UNL d   1      -1.541  -4.331  -5.941  0.00  0.00     0.001 A 
ENDROOT
BRANCH   1   8
ATOM      8  C1  UNL d   1      -3.576  -5.827  -5.914  0.00  0.00     0.053 C 
ATOM      9  C   UNL d   1      -5.093  -5.746  -5.853  0.00  0.00     0.018 C 
ENDBRANCH   1   8
TORSDOF 1
ENDMDL
