MODEL 1
REMARK minimizedAffinity 5.70863771
REMARK minimizedRMSD -1
REMARK  1 active torsions:
REMARK  status: ('A' for Active; 'I' for Inactive)
REMARK    1  A    between atoms: C1_2  and  C2_3 
ROOT
ATOM      1  C2  UNL d   1       0.057  -4.605  -3.480  0.00  0.00    -0.073 A 
ATOM      2  C3  UNL d   1       0.667  -3.751  -4.406  0.00  0.00    -0.002 A 
ATOM      3  C4  UNL d   1       0.087  -3.539  -5.657  0.00  0.00     0.004 A 
ATOM      4  C5  UNL d   1      -1.110  -4.171  -5.992  0.00  0.00    -0.004 A 
ATOM      5  C6  UNL d   1      -1.741  -5.019  -5.076  0.00  0.00    -0.075 A 
ATOM      6  C7  UNL d   1      -3.028  -5.708  -5.422  0.00  0.00     0.076 C 
ATOM      7  C8  UNL d   1      -1.151  -5.230  -3.823  0.00  0.00     0.001 A 
ENDROOT
BRANCH   1   8
ATOM      8  C1  UNL d   1       0.677  -4.833  -2.125  0.00  0.00     0.053 C 
ATOM      9  C   UNL d   1       1.690  -5.967  -2.145  0.00  0.00     0.018 C 
ENDBRANCH   1   8
TORSDOF 1
ENDMDL
