MODEL 1
REMARK minimizedAffinity 7.40745735
REMARK minimizedRMSD -1
REMARK  0 active torsions:
REMARK  status: ('A' for Active; 'I' for Inactive)
ROOT
ATOM      1  C   UNL d   1       1.131  -1.358   3.591  0.00  0.00    -0.002 A 
ATOM      2  C1  UNL d   1       1.750  -1.496   2.357  0.00  0.00     0.010 A 
ATOM      3  C2  UNL d   1       1.462  -0.613   1.315  0.00  0.00     0.041 A 
ATOM      4  C3  UNL d   1       0.533   0.423   1.537  0.00  0.00    -0.075 A 
ATOM      5  S   UNL d   1       0.025   1.623   0.408  0.00  0.00     0.015 SA
ATOM      6  C4  UNL d   1      -1.025   2.348   1.538  0.00  0.00     0.022 A 
ATOM      7  C5  UNL d   1      -1.001   1.703   2.752  0.00  0.00     0.026 A 
ATOM      8  C6  UNL d   1      -0.102   0.583   2.771  0.00  0.00    -0.082 A 
ATOM      9  C7  UNL d   1       0.211  -0.329   3.808  0.00  0.00     0.045 A 
ENDROOT
TORSDOF 0
ENDMDL
