MODEL 1
REMARK minimizedAffinity 9.06842232
REMARK minimizedRMSD -1
REMARK  0 active torsions:
REMARK  status: ('A' for Active; 'I' for Inactive)
ROOT
ATOM      1  C   UNL d   1       0.604  -4.697  -0.360  0.00  0.00    -0.002 A 
ATOM      2  C1  UNL d   1      -0.625  -4.608  -0.998  0.00  0.00     0.010 A 
ATOM      3  C2  UNL d   1      -1.184  -3.363  -1.291  0.00  0.00     0.041 A 
ATOM      4  C3  UNL d   1      -0.480  -2.197  -0.930  0.00  0.00    -0.075 A 
ATOM      5  S   UNL d   1      -0.970  -0.565  -1.189  0.00  0.00     0.015 SA
ATOM      6  C4  UNL d   1       0.441   0.053  -0.459  0.00  0.00     0.022 A 
ATOM      7  C5  UNL d   1       1.276  -0.948  -0.022  0.00  0.00     0.026 A 
ATOM      8  C6  UNL d   1       0.759  -2.261  -0.287  0.00  0.00    -0.082 A 
ATOM      9  C7  UNL d   1       1.299  -3.539  -0.003  0.00  0.00     0.045 A 
ENDROOT
TORSDOF 0
ENDMDL
