MODEL 1
REMARK minimizedAffinity 3.5790565
REMARK minimizedRMSD -1
REMARK  0 active torsions:
REMARK  status: ('A' for Active; 'I' for Inactive)
ROOT
ATOM      1  C   UNL d   1      -0.367   3.157   2.216  0.00  0.00    -0.002 A 
ATOM      2  C1  UNL d   1      -0.026   3.581   0.940  0.00  0.00     0.010 A 
ATOM      3  C2  UNL d   1       0.520   2.687   0.017  0.00  0.00     0.041 A 
ATOM      4  C3  UNL d   1       0.716   1.346   0.401  0.00  0.00    -0.075 A 
ATOM      5  S   UNL d   1       1.368   0.074  -0.563  0.00  0.00     0.015 SA
ATOM      6  C4  UNL d   1       1.208  -1.063   0.697  0.00  0.00     0.022 A 
ATOM      7  C5  UNL d   1       0.673  -0.502   1.832  0.00  0.00     0.026 A 
ATOM      8  C6  UNL d   1       0.380   0.895   1.680  0.00  0.00    -0.082 A 
ATOM      9  C7  UNL d   1      -0.170   1.826   2.594  0.00  0.00     0.045 A 
ENDROOT
TORSDOF 0
ENDMDL
