MODEL 1
REMARK minimizedAffinity 3.29012322
REMARK minimizedRMSD -1
REMARK  0 active torsions:
REMARK  status: ('A' for Active; 'I' for Inactive)
ROOT
ATOM      1  C   UNL d   1       1.400  -0.294   3.064  0.00  0.00    -0.002 A 
ATOM      2  C1  UNL d   1       1.204  -1.012   1.893  0.00  0.00     0.010 A 
ATOM      3  C2  UNL d   1       0.834  -0.362   0.714  0.00  0.00     0.041 A 
ATOM      4  C3  UNL d   1       0.666   1.036   0.731  0.00  0.00    -0.075 A 
ATOM      5  S   UNL d   1       0.219   2.045  -0.594  0.00  0.00     0.015 SA
ATOM      6  C4  UNL d   1       0.279   3.455   0.363  0.00  0.00     0.022 A 
ATOM      7  C5  UNL d   1       0.630   3.180   1.664  0.00  0.00     0.026 A 
ATOM      8  C6  UNL d   1       0.860   1.782   1.897  0.00  0.00    -0.082 A 
ATOM      9  C7  UNL d   1       1.232   1.094   3.076  0.00  0.00     0.045 A 
ENDROOT
TORSDOF 0
ENDMDL
