MODEL 1
REMARK minimizedAffinity 4.40047264
REMARK minimizedRMSD -1
REMARK  0 active torsions:
REMARK  status: ('A' for Active; 'I' for Inactive)
ROOT
ATOM      1  C4' PXY d   1       2.300  -2.603  -3.370  0.00  0.00     0.077 C 
ATOM      2  C1' PXY d   1       6.000   0.976  -6.000  0.00  0.00     0.077 C 
ATOM      3  C1  PXY d   1       5.037   0.027  -5.314  0.00  0.00    -0.082 A 
ATOM      4  C2  PXY d   1       3.785   0.403  -5.106  0.00  0.00     0.003 A 
ATOM      5  C3  PXY d   1       2.910  -0.430  -4.458  0.00  0.00     0.003 A 
ATOM      6  C4  PXY d   1       3.304  -1.681  -4.067  0.00  0.00    -0.082 A 
ATOM      7  C5  PXY d   1       4.576  -2.076  -4.286  0.00  0.00     0.003 A 
ATOM      8  C6  PXY d   1       5.461  -1.200  -4.908  0.00  0.00     0.003 A 
ENDROOT
TORSDOF 0
ENDMDL
