MODEL 1
REMARK minimizedAffinity 11.0142794
REMARK minimizedRMSD -1
REMARK  0 active torsions:
REMARK  status: ('A' for Active; 'I' for Inactive)
ROOT
ATOM      1  C4' PXY d   1       2.352  -5.494   3.323  0.00  0.00     0.077 C 
ATOM      2  C1' PXY d   1       0.635  -0.163   1.894  0.00  0.00     0.077 C 
ATOM      3  C1  PXY d   1       1.093  -1.556   2.278  0.00  0.00    -0.082 A 
ATOM      4  C2  PXY d   1       1.027  -2.534   1.390  0.00  0.00     0.003 A 
ATOM      5  C3  PXY d   1       1.407  -3.807   1.730  0.00  0.00     0.003 A 
ATOM      6  C4  PXY d   1       1.909  -4.070   2.976  0.00  0.00    -0.082 A 
ATOM      7  C5  PXY d   1       1.990  -3.075   3.885  0.00  0.00     0.003 A 
ATOM      8  C6  PXY d   1       1.561  -1.799   3.532  0.00  0.00     0.003 A 
ENDROOT
TORSDOF 0
ENDMDL
