MODEL 1
REMARK minimizedAffinity 10.988884
REMARK minimizedRMSD -1
REMARK  0 active torsions:
REMARK  status: ('A' for Active; 'I' for Inactive)
ROOT
ATOM      1  C4' PXY d   1       5.998  -1.570  -5.833  0.00  0.00     0.077 C 
ATOM      2  C1' PXY d   1       3.114   3.026  -3.841  0.00  0.00     0.077 C 
ATOM      3  C1  PXY d   1       3.870   1.826  -4.375  0.00  0.00    -0.082 A 
ATOM      4  C2  PXY d   1       3.794   0.669  -3.739  0.00  0.00     0.003 A 
ATOM      5  C3  PXY d   1       4.497  -0.419  -4.190  0.00  0.00     0.003 A 
ATOM      6  C4  PXY d   1       5.244  -0.334  -5.335  0.00  0.00    -0.082 A 
ATOM      7  C5  PXY d   1       5.318   0.841  -5.996  0.00  0.00     0.003 A 
ATOM      8  C6  PXY d   1       4.630   1.943  -5.498  0.00  0.00     0.003 A 
ENDROOT
TORSDOF 0
ENDMDL
