MODEL 1
REMARK minimizedAffinity 8.01566124
REMARK minimizedRMSD -1
REMARK  0 active torsions:
REMARK  status: ('A' for Active; 'I' for Inactive)
ROOT
ATOM      1  C4' PXY d   1       5.719   0.424  -5.997  0.00  0.00     0.077 C 
ATOM      2  C1' PXY d   1       3.255  -1.243  -1.040  0.00  0.00     0.077 C 
ATOM      3  C1  PXY d   1       3.913  -0.812  -2.336  0.00  0.00    -0.082 A 
ATOM      4  C2  PXY d   1       3.455   0.249  -2.980  0.00  0.00     0.003 A 
ATOM      5  C3  PXY d   1       4.017   0.634  -4.170  0.00  0.00     0.003 A 
ATOM      6  C4  PXY d   1       5.093  -0.043  -4.680  0.00  0.00    -0.082 A 
ATOM      7  C5  PXY d   1       5.572  -1.120  -4.023  0.00  0.00     0.003 A 
ATOM      8  C6  PXY d   1       4.961  -1.519  -2.838  0.00  0.00     0.003 A 
ENDROOT
TORSDOF 0
ENDMDL
