MODEL 1
REMARK minimizedAffinity 12.9533186
REMARK minimizedRMSD -1
REMARK  0 active torsions:
REMARK  status: ('A' for Active; 'I' for Inactive)
ROOT
ATOM      1  C4' PXY d   1      -2.733   1.844   0.361  0.00  0.00     0.077 C 
ATOM      2  C1' PXY d   1       1.893  -1.264   1.896  0.00  0.00     0.077 C 
ATOM      3  C1  PXY d   1       0.676  -0.458   1.486  0.00  0.00    -0.082 A 
ATOM      4  C2  PXY d   1       0.707   0.862   1.566  0.00  0.00     0.003 A 
ATOM      5  C3  PXY d   1      -0.395   1.604   1.230  0.00  0.00     0.003 A 
ATOM      6  C4  PXY d   1      -1.524   0.991   0.756  0.00  0.00    -0.082 A 
ATOM      7  C5  PXY d   1      -1.561  -0.355   0.661  0.00  0.00     0.003 A 
ATOM      8  C6  PXY d   1      -0.445  -1.092   1.047  0.00  0.00     0.003 A 
ENDROOT
TORSDOF 0
ENDMDL
