MODEL 1
REMARK minimizedAffinity -1.2773087
REMARK minimizedRMSD -1
REMARK  0 active torsions:
REMARK  status: ('A' for Active; 'I' for Inactive)
ROOT
ATOM      1  C4' PXY d   1       1.557  -1.287   1.406  0.00  0.00     0.077 C 
ATOM      2  C1' PXY d   1       5.697  -3.753   4.599  0.00  0.00     0.077 C 
ATOM      3  C1  PXY d   1       4.603  -3.114   3.767  0.00  0.00    -0.082 A 
ATOM      4  C2  PXY d   1       4.915  -2.491   2.642  0.00  0.00     0.003 A 
ATOM      5  C3  PXY d   1       3.942  -1.880   1.894  0.00  0.00     0.003 A 
ATOM      6  C4  PXY d   1       2.628  -1.954   2.273  0.00  0.00    -0.082 A 
ATOM      7  C5  PXY d   1       2.300  -2.598   3.413  0.00  0.00     0.003 A 
ATOM      8  C6  PXY d   1       3.308  -3.176   4.180  0.00  0.00     0.003 A 
ENDROOT
TORSDOF 0
ENDMDL
