MODEL 1
REMARK minimizedAffinity 4.4144125
REMARK minimizedRMSD -1
REMARK  0 active torsions:
REMARK  status: ('A' for Active; 'I' for Inactive)
ROOT
ATOM      1  C4' PXY d   1       4.128  -0.690  -0.373  0.00  0.00     0.077 C 
ATOM      2  C1' PXY d   1       5.450  -0.650  -6.000  0.00  0.00     0.077 C 
ATOM      3  C1  PXY d   1       5.094  -0.652  -4.526  0.00  0.00    -0.082 A 
ATOM      4  C2  PXY d   1       6.000  -1.019  -3.635  0.00  0.00     0.003 A 
ATOM      5  C3  PXY d   1       5.685  -1.057  -2.301  0.00  0.00     0.003 A 
ATOM      6  C4  PXY d   1       4.446  -0.664  -1.870  0.00  0.00    -0.082 A 
ATOM      7  C5  PXY d   1       3.519  -0.279  -2.773  0.00  0.00     0.003 A 
ATOM      8  C6  PXY d   1       3.846  -0.287  -4.126  0.00  0.00     0.003 A 
ENDROOT
TORSDOF 0
ENDMDL
