MODEL 1
REMARK minimizedAffinity 3.19715595
REMARK minimizedRMSD -1
REMARK  0 active torsions:
REMARK  status: ('A' for Active; 'I' for Inactive)
ROOT
ATOM      1  C4' PXY d   1       2.824  -2.857  -2.161  0.00  0.00     0.077 C 
ATOM      2  C1' PXY d   1       6.000   0.074  -6.000  0.00  0.00     0.077 C 
ATOM      3  C1  PXY d   1       5.174  -0.706  -4.996  0.00  0.00    -0.082 A 
ATOM      4  C2  PXY d   1       3.959  -0.286  -4.681  0.00  0.00     0.003 A 
ATOM      5  C3  PXY d   1       3.211  -0.960  -3.751  0.00  0.00     0.003 A 
ATOM      6  C4  PXY d   1       3.690  -2.107  -3.177  0.00  0.00    -0.082 A 
ATOM      7  C5  PXY d   1       4.924  -2.548  -3.501  0.00  0.00     0.003 A 
ATOM      8  C6  PXY d   1       5.684  -1.826  -4.416  0.00  0.00     0.003 A 
ENDROOT
TORSDOF 0
ENDMDL
