MODEL 1
REMARK minimizedAffinity 0.784643888
REMARK minimizedRMSD -1
REMARK  0 active torsions:
REMARK  status: ('A' for Active; 'I' for Inactive)
ROOT
ATOM      1  C4' PXY d   1       5.999  -2.634   4.125  0.00  0.00     0.077 C 
ATOM      2  C1' PXY d   1       0.541  -1.693   2.470  0.00  0.00     0.077 C 
ATOM      3  C1  PXY d   1       1.969  -1.939   2.917  0.00  0.00    -0.082 A 
ATOM      4  C2  PXY d   1       2.968  -1.662   2.095  0.00  0.00     0.003 A 
ATOM      5  C3  PXY d   1       4.264  -1.908   2.471  0.00  0.00     0.003 A 
ATOM      6  C4  PXY d   1       4.542  -2.393   3.720  0.00  0.00    -0.082 A 
ATOM      7  C5  PXY d   1       3.529  -2.668   4.569  0.00  0.00     0.003 A 
ATOM      8  C6  PXY d   1       2.219  -2.449   4.153  0.00  0.00     0.003 A 
ENDROOT
TORSDOF 0
ENDMDL
