MODEL 1
REMARK minimizedAffinity 0.941180885
REMARK minimizedRMSD -1
REMARK  0 active torsions:
REMARK  status: ('A' for Active; 'I' for Inactive)
ROOT
ATOM      1  C4' PXY d   1       2.583  -3.049  -2.604  0.00  0.00     0.077 C 
ATOM      2  C1' PXY d   1       4.935   0.995  -6.000  0.00  0.00     0.077 C 
ATOM      3  C1  PXY d   1       4.311  -0.057  -5.103  0.00  0.00    -0.082 A 
ATOM      4  C2  PXY d   1       4.941  -1.203  -4.903  0.00  0.00     0.003 A 
ATOM      5  C3  PXY d   1       4.376  -2.177  -4.121  0.00  0.00     0.003 A 
ATOM      6  C4  PXY d   1       3.179  -1.955  -3.494  0.00  0.00    -0.082 A 
ATOM      7  C5  PXY d   1       2.536  -0.784  -3.684  0.00  0.00     0.003 A 
ATOM      8  C6  PXY d   1       3.106   0.176  -4.515  0.00  0.00     0.003 A 
ENDROOT
TORSDOF 0
ENDMDL
