MODEL 1
REMARK minimizedAffinity 18.934269
REMARK minimizedRMSD -1
REMARK  0 active torsions:
REMARK  status: ('A' for Active; 'I' for Inactive)
ROOT
ATOM      1  C4' PXY d   1       4.996  -4.366   4.829  0.00  0.00     0.077 C 
ATOM      2  C1' PXY d   1      -0.543  -5.998   5.101  0.00  0.00     0.077 C 
ATOM      3  C1  PXY d   1       0.911  -5.572   5.042  0.00  0.00    -0.082 A 
ATOM      4  C2  PXY d   1       1.327  -4.800   4.051  0.00  0.00     0.003 A 
ATOM      5  C3  PXY d   1       2.645  -4.432   3.965  0.00  0.00     0.003 A 
ATOM      6  C4  PXY d   1       3.535  -4.813   4.933  0.00  0.00    -0.082 A 
ATOM      7  C5  PXY d   1       3.116  -5.592   5.953  0.00  0.00     0.003 A 
ATOM      8  C6  PXY d   1       1.783  -5.989   6.000  0.00  0.00     0.003 A 
ENDROOT
TORSDOF 0
ENDMDL
