MODEL 1
REMARK minimizedAffinity 5.9582386
REMARK minimizedRMSD -1
REMARK  0 active torsions:
REMARK  status: ('A' for Active; 'I' for Inactive)
ROOT
ATOM      1  C   UNL d   1       0.145   0.415   1.080  0.00  0.00     0.124 A 
ATOM      2  C1  UNL d   1      -0.853  -0.427   1.549  0.00  0.00     0.062 A 
ATOM      3  C2  UNL d   1      -1.995   0.103   2.142  0.00  0.00     0.162 A 
ATOM      4  C3  UNL d   1      -2.146   1.484   2.268  0.00  0.00    -0.034 A 
ATOM      5  C4  UNL d   1      -1.137   2.325   1.795  0.00  0.00     0.162 A 
ATOM      6  C5  UNL d   1       0.003   1.790   1.203  0.00  0.00     0.062 A 
ATOM      7  F   UNL d   1       0.966   2.606   0.751  0.00  0.00    -0.097 F 
ATOM      8  F1  UNL d   1      -1.249   3.658   1.901  0.00  0.00    -0.096 F 
ATOM      9  I   UNL d   1      -3.852   2.281   3.154  0.00  0.00    -0.060 I 
ATOM     10  F2  UNL d   1      -2.944  -0.734   2.586  0.00  0.00    -0.096 F 
ATOM     11  F3  UNL d   1      -0.717  -1.756   1.431  0.00  0.00    -0.097 F 
ATOM     12  F4  UNL d   1       1.244  -0.098   0.510  0.00  0.00    -0.092 F 
ENDROOT
TORSDOF 0
ENDMDL
