MODEL 1
REMARK minimizedAffinity 13.8461456
REMARK minimizedRMSD -1
REMARK  0 active torsions:
REMARK  status: ('A' for Active; 'I' for Inactive)
ROOT
ATOM      1  C   UNL d   1      -0.233   0.798   1.330  0.00  0.00     0.124 A 
ATOM      2  C1  UNL d   1      -0.407   2.162   1.522  0.00  0.00     0.062 A 
ATOM      3  C2  UNL d   1      -1.550   2.640   2.155  0.00  0.00     0.162 A 
ATOM      4  C3  UNL d   1      -2.530   1.753   2.602  0.00  0.00    -0.034 A 
ATOM      5  C4  UNL d   1      -2.349   0.383   2.404  0.00  0.00     0.162 A 
ATOM      6  C5  UNL d   1      -1.204  -0.090   1.771  0.00  0.00     0.062 A 
ATOM      7  F   UNL d   1      -1.037  -1.407   1.586  0.00  0.00    -0.097 F 
ATOM      8  F1  UNL d   1      -3.270  -0.498   2.821  0.00  0.00    -0.096 F 
ATOM      9  I   UNL d   1      -4.242   2.463   3.548  0.00  0.00    -0.060 I 
ATOM     10  F2  UNL d   1      -1.692   3.962   2.327  0.00  0.00    -0.096 F 
ATOM     11  F3  UNL d   1       0.529   3.022   1.096  0.00  0.00    -0.097 F 
ATOM     12  F4  UNL d   1       0.868   0.342   0.720  0.00  0.00    -0.092 F 
ENDROOT
TORSDOF 0
ENDMDL
