MODEL 1
REMARK minimizedAffinity -2.56268859
REMARK minimizedRMSD -1
REMARK  0 active torsions:
REMARK  status: ('A' for Active; 'I' for Inactive)
ROOT
ATOM      1  C   UNL d   1      -2.000  -0.348   2.142  0.00  0.00     0.124 A 
ATOM      2  C1  UNL d   1      -0.882  -0.811   1.462  0.00  0.00     0.062 A 
ATOM      3  C2  UNL d   1       0.121   0.074   1.080  0.00  0.00     0.162 A 
ATOM      4  C3  UNL d   1       0.013   1.432   1.378  0.00  0.00    -0.034 A 
ATOM      5  C4  UNL d   1      -1.115   1.891   2.061  0.00  0.00     0.162 A 
ATOM      6  C5  UNL d   1      -2.115   1.002   2.441  0.00  0.00     0.062 A 
ATOM      7  F   UNL d   1      -3.195   1.452   3.097  0.00  0.00    -0.097 F 
ATOM      8  F1  UNL d   1      -1.252   3.191   2.363  0.00  0.00    -0.096 F 
ATOM      9  I   UNL d   1       1.511   2.759   0.808  0.00  0.00    -0.060 I 
ATOM     10  F2  UNL d   1       1.191  -0.402   0.424  0.00  0.00    -0.096 F 
ATOM     11  F3  UNL d   1      -0.769  -2.115   1.172  0.00  0.00    -0.097 F 
ATOM     12  F4  UNL d   1      -2.965  -1.202   2.508  0.00  0.00    -0.092 F 
ENDROOT
TORSDOF 0
ENDMDL
