MODEL 1
REMARK minimizedAffinity 16.5693207
REMARK minimizedRMSD -1
REMARK  0 active torsions:
REMARK  status: ('A' for Active; 'I' for Inactive)
ROOT
ATOM      1  C   UNL d   1      -0.691   2.193   1.918  0.00  0.00     0.124 A 
ATOM      2  C1  UNL d   1      -0.617   0.864   2.311  0.00  0.00     0.062 A 
ATOM      3  C2  UNL d   1      -1.742   0.220   2.817  0.00  0.00     0.162 A 
ATOM      4  C3  UNL d   1      -2.953   0.903   2.931  0.00  0.00    -0.034 A 
ATOM      5  C4  UNL d   1      -3.020   2.240   2.535  0.00  0.00     0.162 A 
ATOM      6  C5  UNL d   1      -1.892   2.880   2.030  0.00  0.00     0.062 A 
ATOM      7  F   UNL d   1      -1.966   4.164   1.651  0.00  0.00    -0.097 F 
ATOM      8  F1  UNL d   1      -4.167   2.927   2.632  0.00  0.00    -0.096 F 
ATOM      9  I   UNL d   1      -4.638  -0.057   3.687  0.00  0.00    -0.060 I 
ATOM     10  F2  UNL d   1      -1.641  -1.065   3.189  0.00  0.00    -0.096 F 
ATOM     11  F3  UNL d   1       0.542   0.199   2.205  0.00  0.00    -0.097 F 
ATOM     12  F4  UNL d   1       0.393   2.811   1.433  0.00  0.00    -0.092 F 
ENDROOT
TORSDOF 0
ENDMDL
