MODEL 1
REMARK minimizedAffinity 11.7318478
REMARK minimizedRMSD -1
REMARK  0 active torsions:
REMARK  status: ('A' for Active; 'I' for Inactive)
ROOT
ATOM      1  C   UNL d   1       0.194   1.884   0.794  0.00  0.00     0.124 A 
ATOM      2  C1  UNL d   1      -0.783   2.565   1.505  0.00  0.00     0.062 A 
ATOM      3  C2  UNL d   1      -1.717   1.863   2.261  0.00  0.00     0.162 A 
ATOM      4  C3  UNL d   1      -1.678   0.469   2.310  0.00  0.00    -0.034 A 
ATOM      5  C4  UNL d   1      -0.692  -0.210   1.591  0.00  0.00     0.162 A 
ATOM      6  C5  UNL d   1       0.239   0.497   0.838  0.00  0.00     0.062 A 
ATOM      7  F   UNL d   1       1.183  -0.163   0.151  0.00  0.00    -0.097 F 
ATOM      8  F1  UNL d   1      -0.625  -1.549   1.617  0.00  0.00    -0.096 F 
ATOM      9  I   UNL d   1      -3.073  -0.585   3.439  0.00  0.00    -0.060 I 
ATOM     10  F2  UNL d   1      -2.651   2.547   2.939  0.00  0.00    -0.096 F 
ATOM     11  F3  UNL d   1      -0.829   3.905   1.464  0.00  0.00    -0.097 F 
ATOM     12  F4  UNL d   1       1.091   2.562   0.067  0.00  0.00    -0.092 F 
ENDROOT
TORSDOF 0
ENDMDL
