MODEL 1
REMARK minimizedAffinity 7.30256176
REMARK minimizedRMSD -1
REMARK  0 active torsions:
REMARK  status: ('A' for Active; 'I' for Inactive)
ROOT
ATOM      1  C   UNL d   1       0.155   1.628   1.109  0.00  0.00     0.124 A 
ATOM      2  C1  UNL d   1       0.190   0.255   1.311  0.00  0.00     0.062 A 
ATOM      3  C2  UNL d   1      -0.852  -0.381   1.979  0.00  0.00     0.162 A 
ATOM      4  C3  UNL d   1      -1.939   0.356   2.451  0.00  0.00    -0.034 A 
ATOM      5  C4  UNL d   1      -1.966   1.736   2.246  0.00  0.00     0.162 A 
ATOM      6  C5  UNL d   1      -0.922   2.367   1.577  0.00  0.00     0.062 A 
ATOM      7  F   UNL d   1      -0.957   3.693   1.384  0.00  0.00    -0.097 F 
ATOM      8  F1  UNL d   1      -2.995   2.475   2.687  0.00  0.00    -0.096 F 
ATOM      9  I   UNL d   1      -3.499  -0.591   3.452  0.00  0.00    -0.060 I 
ATOM     10  F2  UNL d   1      -0.793  -1.709   2.160  0.00  0.00    -0.096 F 
ATOM     11  F3  UNL d   1       1.230  -0.462   0.860  0.00  0.00    -0.097 F 
ATOM     12  F4  UNL d   1       1.160   2.237   0.466  0.00  0.00    -0.092 F 
ENDROOT
TORSDOF 0
ENDMDL
