MODEL 1
REMARK minimizedAffinity -2.29700541
REMARK minimizedRMSD -1
REMARK  0 active torsions:
REMARK  status: ('A' for Active; 'I' for Inactive)
ROOT
ATOM      1  C   UNL d   1      -2.216   1.152   1.610  0.00  0.00     0.124 A 
ATOM      2  C1  UNL d   1      -1.267   2.162   1.529  0.00  0.00     0.062 A 
ATOM      3  C2  UNL d   1       0.070   1.850   1.299  0.00  0.00     0.162 A 
ATOM      4  C3  UNL d   1       0.466   0.521   1.147  0.00  0.00    -0.034 A 
ATOM      5  C4  UNL d   1      -0.493  -0.489   1.232  0.00  0.00     0.162 A 
ATOM      6  C5  UNL d   1      -1.828  -0.172   1.461  0.00  0.00     0.062 A 
ATOM      7  F   UNL d   1      -2.743  -1.149   1.540  0.00  0.00    -0.097 F 
ATOM      8  F1  UNL d   1      -0.147  -1.777   1.091  0.00  0.00    -0.096 F 
ATOM      9  I   UNL d   1       2.464   0.051   0.804  0.00  0.00    -0.060 I 
ATOM     10  F2  UNL d   1       0.965   2.846   1.225  0.00  0.00    -0.096 F 
ATOM     11  F3  UNL d   1      -1.639   3.442   1.673  0.00  0.00    -0.097 F 
ATOM     12  F4  UNL d   1      -3.501   1.455   1.832  0.00  0.00    -0.092 F 
ENDROOT
TORSDOF 0
ENDMDL
