MODEL 1
REMARK minimizedAffinity 9.25009251
REMARK minimizedRMSD -1
REMARK  0 active torsions:
REMARK  status: ('A' for Active; 'I' for Inactive)
ROOT
ATOM      1  C   UNL d   1       0.238   1.237   0.744  0.00  0.00     0.124 A 
ATOM      2  C1  UNL d   1       0.456  -0.121   0.933  0.00  0.00     0.062 A 
ATOM      3  C2  UNL d   1      -0.318  -0.833   1.845  0.00  0.00     0.162 A 
ATOM      4  C3  UNL d   1      -1.318  -0.190   2.574  0.00  0.00    -0.034 A 
ATOM      5  C4  UNL d   1      -1.531   1.176   2.378  0.00  0.00     0.162 A 
ATOM      6  C5  UNL d   1      -0.755   1.884   1.466  0.00  0.00     0.062 A 
ATOM      7  F   UNL d   1      -0.967   3.195   1.284  0.00  0.00    -0.097 F 
ATOM      8  F1  UNL d   1      -2.484   1.826   3.062  0.00  0.00    -0.096 F 
ATOM      9  I   UNL d   1      -2.477  -1.252   3.938  0.00  0.00    -0.060 I 
ATOM     10  F2  UNL d   1      -0.086  -2.144   2.008  0.00  0.00    -0.096 F 
ATOM     11  F3  UNL d   1       1.415  -0.748   0.237  0.00  0.00    -0.097 F 
ATOM     12  F4  UNL d   1       0.984   1.920  -0.133  0.00  0.00    -0.092 F 
ENDROOT
TORSDOF 0
ENDMDL
