MODEL 1
REMARK minimizedAffinity 3.21542788
REMARK minimizedRMSD -1
REMARK  0 active torsions:
REMARK  status: ('A' for Active; 'I' for Inactive)
ROOT
ATOM      1  C   UNL d   1       2.230  -0.020   0.581  0.00  0.00     0.124 A 
ATOM      2  C1  UNL d   1       2.086   0.146   1.952  0.00  0.00     0.062 A 
ATOM      3  C2  UNL d   1       0.986   0.829   2.463  0.00  0.00     0.162 A 
ATOM      4  C3  UNL d   1       0.020   1.351   1.602  0.00  0.00    -0.034 A 
ATOM      5  C4  UNL d   1       0.172   1.181   0.225  0.00  0.00     0.162 A 
ATOM      6  C5  UNL d   1       1.273   0.498  -0.281  0.00  0.00     0.062 A 
ATOM      7  F   UNL d   1       1.410   0.339  -1.605  0.00  0.00    -0.097 F 
ATOM      8  F1  UNL d   1      -0.738   1.670  -0.630  0.00  0.00    -0.096 F 
ATOM      9  I   UNL d   1      -1.627   2.372   2.362  0.00  0.00    -0.060 I 
ATOM     10  F2  UNL d   1       0.872   0.974   3.791  0.00  0.00    -0.096 F 
ATOM     11  F3  UNL d   1       3.009  -0.352   2.786  0.00  0.00    -0.097 F 
ATOM     12  F4  UNL d   1       3.290  -0.676   0.092  0.00  0.00    -0.092 F 
ENDROOT
TORSDOF 0
ENDMDL
