MODEL 1
REMARK minimizedAffinity 14.4966879
REMARK minimizedRMSD -1
REMARK  0 active torsions:
REMARK  status: ('A' for Active; 'I' for Inactive)
ROOT
ATOM      1  C   UNL d   1      -3.968   3.657   3.083  0.00  0.00     0.124 A 
ATOM      2  C1  UNL d   1      -2.772   3.179   2.566  0.00  0.00     0.062 A 
ATOM      3  C2  UNL d   1      -2.443   3.410   1.233  0.00  0.00     0.162 A 
ATOM      4  C3  UNL d   1      -3.313   4.122   0.407  0.00  0.00    -0.034 A 
ATOM      5  C4  UNL d   1      -4.515   4.598   0.934  0.00  0.00     0.162 A 
ATOM      6  C5  UNL d   1      -4.838   4.365   2.266  0.00  0.00     0.062 A 
ATOM      7  F   UNL d   1      -5.995   4.827   2.764  0.00  0.00    -0.097 F 
ATOM      8  F1  UNL d   1      -5.374   5.287   0.167  0.00  0.00    -0.096 F 
ATOM      9  I   UNL d   1      -2.825   4.469  -1.586  0.00  0.00    -0.060 I 
ATOM     10  F2  UNL d   1      -1.280   2.937   0.761  0.00  0.00    -0.096 F 
ATOM     11  F3  UNL d   1      -1.930   2.494   3.353  0.00  0.00    -0.097 F 
ATOM     12  F4  UNL d   1      -4.282   3.433   4.365  0.00  0.00    -0.092 F 
ENDROOT
TORSDOF 0
ENDMDL
