MODEL 1
REMARK minimizedAffinity 0.381417453
REMARK minimizedRMSD -1
REMARK  0 active torsions:
REMARK  status: ('A' for Active; 'I' for Inactive)
ROOT
ATOM      1  C   UNL d   1      -1.652   0.619   1.787  0.00  0.00     0.124 A 
ATOM      2  C1  UNL d   1      -1.856   1.984   1.646  0.00  0.00     0.062 A 
ATOM      3  C2  UNL d   1      -0.816   2.807   1.223  0.00  0.00     0.162 A 
ATOM      4  C3  UNL d   1       0.437   2.266   0.936  0.00  0.00    -0.034 A 
ATOM      5  C4  UNL d   1       0.635   0.891   1.082  0.00  0.00     0.162 A 
ATOM      6  C5  UNL d   1      -0.408   0.074   1.505  0.00  0.00     0.062 A 
ATOM      7  F   UNL d   1      -0.209  -1.246   1.641  0.00  0.00    -0.097 F 
ATOM      8  F1  UNL d   1       1.827   0.338   0.815  0.00  0.00    -0.096 F 
ATOM      9  I   UNL d   1       1.995   3.492   0.303  0.00  0.00    -0.060 I 
ATOM     10  F2  UNL d   1      -1.041   4.123   1.095  0.00  0.00    -0.096 F 
ATOM     11  F3  UNL d   1      -3.057   2.514   1.919  0.00  0.00    -0.097 F 
ATOM     12  F4  UNL d   1      -2.655  -0.170   2.196  0.00  0.00    -0.092 F 
ENDROOT
TORSDOF 0
ENDMDL
