MODEL 1
REMARK minimizedAffinity 4.84669733
REMARK minimizedRMSD -1
REMARK  0 active torsions:
REMARK  status: ('A' for Active; 'I' for Inactive)
ROOT
ATOM      1  C   UNL d   1      -0.159   0.491   0.779  0.00  0.00     0.124 A 
ATOM      2  C1  UNL d   1      -1.200  -0.344   1.160  0.00  0.00     0.062 A 
ATOM      3  C2  UNL d   1      -2.249   0.152   1.929  0.00  0.00     0.162 A 
ATOM      4  C3  UNL d   1      -2.263   1.490   2.321  0.00  0.00    -0.034 A 
ATOM      5  C4  UNL d   1      -1.211   2.323   1.935  0.00  0.00     0.162 A 
ATOM      6  C5  UNL d   1      -0.165   1.823   1.167  0.00  0.00     0.062 A 
ATOM      7  F   UNL d   1       0.840   2.631   0.800  0.00  0.00    -0.097 F 
ATOM      8  F1  UNL d   1      -1.193   3.615   2.295  0.00  0.00    -0.096 F 
ATOM      9  I   UNL d   1      -3.830   2.236   3.471  0.00  0.00    -0.060 I 
ATOM     10  F2  UNL d   1      -3.243  -0.677   2.282  0.00  0.00    -0.096 F 
ATOM     11  F3  UNL d   1      -1.196  -1.632   0.788  0.00  0.00    -0.097 F 
ATOM     12  F4  UNL d   1       0.850   0.011   0.040  0.00  0.00    -0.092 F 
ENDROOT
TORSDOF 0
ENDMDL
