MODEL 1
REMARK minimizedAffinity 8.52061844
REMARK minimizedRMSD -1
REMARK  0 active torsions:
REMARK  status: ('A' for Active; 'I' for Inactive)
ROOT
ATOM      1  C   UNL d   1      -0.008   1.587   0.832  0.00  0.00     0.124 A 
ATOM      2  C1  UNL d   1       0.273   0.233   0.946  0.00  0.00     0.062 A 
ATOM      3  C2  UNL d   1      -0.635  -0.620   1.567  0.00  0.00     0.162 A 
ATOM      4  C3  UNL d   1      -1.833  -0.122   2.078  0.00  0.00    -0.034 A 
ATOM      5  C4  UNL d   1      -2.108   1.242   1.960  0.00  0.00     0.162 A 
ATOM      6  C5  UNL d   1      -1.198   2.091   1.339  0.00  0.00     0.062 A 
ATOM      7  F   UNL d   1      -1.471   3.399   1.229  0.00  0.00    -0.097 F 
ATOM      8  F1  UNL d   1      -3.251   1.755   2.440  0.00  0.00    -0.096 F 
ATOM      9  I   UNL d   1      -3.193  -1.394   3.008  0.00  0.00    -0.060 I 
ATOM     10  F2  UNL d   1      -0.337  -1.924   1.663  0.00  0.00    -0.096 F 
ATOM     11  F3  UNL d   1       1.422  -0.255   0.458  0.00  0.00    -0.097 F 
ATOM     12  F4  UNL d   1       0.867   2.406   0.234  0.00  0.00    -0.092 F 
ENDROOT
TORSDOF 0
ENDMDL
