MODEL 1
REMARK minimizedAffinity 12.7855206
REMARK minimizedRMSD -1
REMARK  0 active torsions:
REMARK  status: ('A' for Active; 'I' for Inactive)
ROOT
ATOM      1  C   UNL d   1      -3.206  -2.190  -3.143  0.00  0.00     0.124 A 
ATOM      2  C1  UNL d   1      -4.176  -2.339  -2.161  0.00  0.00     0.062 A 
ATOM      3  C2  UNL d   1      -4.131  -3.425  -1.292  0.00  0.00     0.162 A 
ATOM      4  C3  UNL d   1      -3.112  -4.371  -1.399  0.00  0.00    -0.034 A 
ATOM      5  C4  UNL d   1      -2.140  -4.215  -2.390  0.00  0.00     0.162 A 
ATOM      6  C5  UNL d   1      -2.189  -3.128  -3.256  0.00  0.00     0.062 A 
ATOM      7  F   UNL d   1      -1.251  -2.985  -4.204  0.00  0.00    -0.097 F 
ATOM      8  F1  UNL d   1      -1.146  -5.105  -2.521  0.00  0.00    -0.096 F 
ATOM      9  I   UNL d   1      -3.041  -5.996  -0.101  0.00  0.00    -0.060 I 
ATOM     10  F2  UNL d   1      -5.082  -3.544  -0.353  0.00  0.00    -0.096 F 
ATOM     11  F3  UNL d   1      -5.160  -1.436  -2.051  0.00  0.00    -0.097 F 
ATOM     12  F4  UNL d   1      -3.253  -1.145  -3.979  0.00  0.00    -0.092 F 
ENDROOT
TORSDOF 0
ENDMDL
