MODEL 1
REMARK minimizedAffinity 0.447455257
REMARK minimizedRMSD -1
REMARK  0 active torsions:
REMARK  status: ('A' for Active; 'I' for Inactive)
ROOT
ATOM      1  C   UNL d   1       0.397   0.296   0.967  0.00  0.00     0.124 A 
ATOM      2  C1  UNL d   1       0.280   1.665   1.164  0.00  0.00     0.062 A 
ATOM      3  C2  UNL d   1      -0.889   2.198   1.698  0.00  0.00     0.162 A 
ATOM      4  C3  UNL d   1      -1.952   1.361   2.040  0.00  0.00    -0.034 A 
ATOM      5  C4  UNL d   1      -1.827  -0.015   1.838  0.00  0.00     0.162 A 
ATOM      6  C5  UNL d   1      -0.656  -0.542   1.304  0.00  0.00     0.062 A 
ATOM      7  F   UNL d   1      -0.545  -1.865   1.115  0.00  0.00    -0.097 F 
ATOM      8  F1  UNL d   1      -2.829  -0.848   2.156  0.00  0.00    -0.096 F 
ATOM      9  I   UNL d   1      -3.702   2.154   2.838  0.00  0.00    -0.060 I 
ATOM     10  F2  UNL d   1      -0.975   3.524   1.877  0.00  0.00    -0.096 F 
ATOM     11  F3  UNL d   1       1.297   2.477   0.838  0.00  0.00    -0.097 F 
ATOM     12  F4  UNL d   1       1.524  -0.215   0.453  0.00  0.00    -0.092 F 
ENDROOT
TORSDOF 0
ENDMDL
