MODEL 1
REMARK minimizedAffinity 5.04714108
REMARK minimizedRMSD -1
REMARK  0 active torsions:
REMARK  status: ('A' for Active; 'I' for Inactive)
ROOT
ATOM      1  C   UNL d   1      -0.132  -0.167   1.034  0.00  0.00     0.124 A 
ATOM      2  C1  UNL d   1      -1.142  -0.916   1.621  0.00  0.00     0.062 A 
ATOM      3  C2  UNL d   1      -2.172  -0.284   2.312  0.00  0.00     0.162 A 
ATOM      4  C3  UNL d   1      -2.198   1.107   2.418  0.00  0.00    -0.034 A 
ATOM      5  C4  UNL d   1      -1.178   1.854   1.825  0.00  0.00     0.162 A 
ATOM      6  C5  UNL d   1      -0.151   1.217   1.136  0.00  0.00     0.062 A 
ATOM      7  F   UNL d   1       0.824   1.943   0.570  0.00  0.00    -0.097 F 
ATOM      8  F1  UNL d   1      -1.172   3.193   1.908  0.00  0.00    -0.096 F 
ATOM      9  I   UNL d   1      -3.736   2.057   3.449  0.00  0.00    -0.060 I 
ATOM     10  F2  UNL d   1      -3.135  -1.033   2.869  0.00  0.00    -0.096 F 
ATOM     11  F3  UNL d   1      -1.126  -2.253   1.525  0.00  0.00    -0.097 F 
ATOM     12  F4  UNL d   1       0.858  -0.778   0.371  0.00  0.00    -0.092 F 
ENDROOT
TORSDOF 0
ENDMDL
