MODEL 1
REMARK minimizedAffinity 2.54127932
REMARK minimizedRMSD -1
REMARK  0 active torsions:
REMARK  status: ('A' for Active; 'I' for Inactive)
ROOT
ATOM      1  C   UNL d   1      -1.657   1.651   1.871  0.00  0.00     0.124 A 
ATOM      2  C1  UNL d   1      -1.605   0.276   2.050  0.00  0.00     0.062 A 
ATOM      3  C2  UNL d   1      -0.396  -0.401   1.922  0.00  0.00     0.162 A 
ATOM      4  C3  UNL d   1       0.772   0.296   1.613  0.00  0.00    -0.034 A 
ATOM      5  C4  UNL d   1       0.712   1.679   1.434  0.00  0.00     0.162 A 
ATOM      6  C5  UNL d   1      -0.499   2.351   1.563  0.00  0.00     0.062 A 
ATOM      7  F   UNL d   1      -0.547   3.680   1.390  0.00  0.00    -0.097 F 
ATOM      8  F1  UNL d   1       1.816   2.380   1.136  0.00  0.00    -0.096 F 
ATOM      9  I   UNL d   1       2.582  -0.713   1.421  0.00  0.00    -0.060 I 
ATOM     10  F2  UNL d   1      -0.375  -1.731   2.101  0.00  0.00    -0.096 F 
ATOM     11  F3  UNL d   1      -2.722  -0.403   2.347  0.00  0.00    -0.097 F 
ATOM     12  F4  UNL d   1      -2.822   2.300   1.994  0.00  0.00    -0.092 F 
ENDROOT
TORSDOF 0
ENDMDL
