MODEL 1
REMARK minimizedAffinity -3.29453897
REMARK minimizedRMSD -1
REMARK  0 active torsions:
REMARK  status: ('A' for Active; 'I' for Inactive)
ROOT
ATOM      1  O1  BZF d   1      -1.032   1.242  -1.608  0.00  0.00    -0.204 OA
ATOM      2  C2  BZF d   1      -2.246   0.866  -1.066  0.00  0.00     0.174 A 
ATOM      3  C3  BZF d   1      -2.078   0.341   0.165  0.00  0.00    -0.012 A 
ATOM      4  C3A BZF d   1      -0.681   0.477   0.444  0.00  0.00    -0.107 A 
ATOM      5  C4  BZF d   1       0.097   0.154   1.519  0.00  0.00     0.055 A 
ATOM      6  C5  BZF d   1       1.440   0.351   1.445  0.00  0.00    -0.016 A 
ATOM      7  C6  BZF d   1       2.037   0.864   0.313  0.00  0.00     0.022 A 
ATOM      8  C7  BZF d   1       1.306   1.204  -0.777  0.00  0.00     0.029 A 
ATOM      9  C7A BZF d   1      -0.055   1.037  -0.693  0.00  0.00     0.058 A 
ENDROOT
TORSDOF 0
ENDMDL
