MODEL 1
REMARK minimizedAffinity -1.95687461
REMARK minimizedRMSD -1
REMARK  0 active torsions:
REMARK  status: ('A' for Active; 'I' for Inactive)
ROOT
ATOM      1  O1  BZF d   1      -0.513  -1.788  -0.409  0.00  0.00    -0.204 OA
ATOM      2  C2  BZF d   1       0.005  -0.980  -1.402  0.00  0.00     0.174 A 
ATOM      3  C3  BZF d   1       0.519   0.152  -0.879  0.00  0.00    -0.012 A 
ATOM      4  C3A BZF d   1       0.392   0.003   0.538  0.00  0.00    -0.107 A 
ATOM      5  C4  BZF d   1       0.737   0.790   1.600  0.00  0.00     0.055 A 
ATOM      6  C5  BZF d   1       0.408   0.387   2.855  0.00  0.00    -0.016 A 
ATOM      7  C6  BZF d   1      -0.270  -0.792   3.085  0.00  0.00     0.022 A 
ATOM      8  C7  BZF d   1      -0.629  -1.608   2.064  0.00  0.00     0.029 A 
ATOM      9  C7A BZF d   1      -0.269  -1.220   0.797  0.00  0.00     0.058 A 
ENDROOT
TORSDOF 0
ENDMDL
