MODEL 1
REMARK minimizedAffinity -4.43432474
REMARK minimizedRMSD -1
REMARK  0 active torsions:
REMARK  status: ('A' for Active; 'I' for Inactive)
ROOT
ATOM      1  O1  BZF d   1       1.096   1.197   0.277  0.00  0.00    -0.204 OA
ATOM      2  C2  BZF d   1       0.486   1.290  -0.959  0.00  0.00     0.174 A 
ATOM      3  C3  BZF d   1      -0.641   0.550  -0.993  0.00  0.00    -0.012 A 
ATOM      4  C3A BZF d   1      -0.791   0.031   0.332  0.00  0.00    -0.107 A 
ATOM      5  C4  BZF d   1      -1.727  -0.764   0.928  0.00  0.00     0.055 A 
ATOM      6  C5  BZF d   1      -1.542  -1.148   2.218  0.00  0.00    -0.016 A 
ATOM      7  C6  BZF d   1      -0.431  -0.761   2.939  0.00  0.00     0.022 A 
ATOM      8  C7  BZF d   1       0.522   0.031   2.392  0.00  0.00     0.029 A 
ATOM      9  C7A BZF d   1       0.322   0.448   1.098  0.00  0.00     0.058 A 
ENDROOT
TORSDOF 0
ENDMDL
