MODEL 1
REMARK minimizedAffinity -4.01898956
REMARK minimizedRMSD -1
REMARK  0 active torsions:
REMARK  status: ('A' for Active; 'I' for Inactive)
ROOT
ATOM      1  O1  BZF d   1       0.652  -1.077  -3.144  0.00  0.00    -0.204 OA
ATOM      2  C2  BZF d   1       0.814  -2.399  -3.510  0.00  0.00     0.174 A 
ATOM      3  C3  BZF d   1       2.020  -2.594  -4.081  0.00  0.00    -0.012 A 
ATOM      4  C3A BZF d   1       2.688  -1.332  -3.987  0.00  0.00    -0.107 A 
ATOM      5  C4  BZF d   1       3.926  -0.895  -4.365  0.00  0.00     0.055 A 
ATOM      6  C5  BZF d   1       4.242   0.416  -4.197  0.00  0.00    -0.016 A 
ATOM      7  C6  BZF d   1       3.346   1.317  -3.661  0.00  0.00     0.022 A 
ATOM      8  C7  BZF d   1       2.109   0.929  -3.266  0.00  0.00     0.029 A 
ATOM      9  C7A BZF d   1       1.797  -0.402  -3.404  0.00  0.00     0.058 A 
ENDROOT
TORSDOF 0
ENDMDL
