MODEL 1
REMARK minimizedAffinity -3.47096133
REMARK minimizedRMSD -1
REMARK  0 active torsions:
REMARK  status: ('A' for Active; 'I' for Inactive)
ROOT
ATOM      1  O1  BZF d   1      -0.877   1.665  -2.060  0.00  0.00    -0.204 OA
ATOM      2  C2  BZF d   1      -2.218   1.439  -1.818  0.00  0.00     0.174 A 
ATOM      3  C3  BZF d   1      -2.411   1.000  -0.558  0.00  0.00    -0.012 A 
ATOM      4  C3A BZF d   1      -1.118   1.037   0.055  0.00  0.00    -0.107 A 
ATOM      5  C4  BZF d   1      -0.663   0.733   1.306  0.00  0.00     0.055 A 
ATOM      6  C5  BZF d   1       0.670   0.807   1.560  0.00  0.00    -0.016 A 
ATOM      7  C6  BZF d   1       1.575   1.175   0.586  0.00  0.00     0.022 A 
ATOM      8  C7  BZF d   1       1.171   1.490  -0.668  0.00  0.00     0.029 A 
ATOM      9  C7A BZF d   1      -0.179   1.449  -0.919  0.00  0.00     0.058 A 
ENDROOT
TORSDOF 0
ENDMDL
