MODEL 1
REMARK minimizedAffinity -2.78342104
REMARK minimizedRMSD -1
REMARK  0 active torsions:
REMARK  status: ('A' for Active; 'I' for Inactive)
ROOT
ATOM      1  O1  BZF d   1      -1.118   0.517  -2.128  0.00  0.00    -0.204 OA
ATOM      2  C2  BZF d   1       0.110   0.742  -2.720  0.00  0.00     0.174 A 
ATOM      3  C3  BZF d   1       1.080   0.837  -1.788  0.00  0.00    -0.012 A 
ATOM      4  C3A BZF d   1       0.432   0.568  -0.541  0.00  0.00    -0.107 A 
ATOM      5  C4  BZF d   1       0.871   0.501   0.750  0.00  0.00     0.055 A 
ATOM      6  C5  BZF d   1      -0.031   0.290   1.744  0.00  0.00    -0.016 A 
ATOM      7  C6  BZF d   1      -1.378   0.148   1.484  0.00  0.00     0.022 A 
ATOM      8  C7  BZF d   1      -1.861   0.202   0.219  0.00  0.00     0.029 A 
ATOM      9  C7A BZF d   1      -0.948   0.382  -0.791  0.00  0.00     0.058 A 
ENDROOT
TORSDOF 0
ENDMDL
