MODEL 1
REMARK minimizedAffinity -2.01061511
REMARK minimizedRMSD -1
REMARK  0 active torsions:
REMARK  status: ('A' for Active; 'I' for Inactive)
ROOT
ATOM      1  O1  BZF d   1      -1.049  -0.662   2.251  0.00  0.00    -0.204 OA
ATOM      2  C2  BZF d   1      -0.363  -0.465   3.434  0.00  0.00     0.174 A 
ATOM      3  C3  BZF d   1       0.772   0.231   3.217  0.00  0.00    -0.012 A 
ATOM      4  C3A BZF d   1       0.750   0.564   1.826  0.00  0.00    -0.107 A 
ATOM      5  C4  BZF d   1       1.597   1.263   1.014  0.00  0.00     0.055 A 
ATOM      6  C5  BZF d   1       1.322   1.343  -0.314  0.00  0.00    -0.016 A 
ATOM      7  C6  BZF d   1       0.213   0.735  -0.865  0.00  0.00     0.022 A 
ATOM      8  C7  BZF d   1      -0.659   0.035  -0.099  0.00  0.00     0.029 A 
ATOM      9  C7A BZF d   1      -0.401  -0.021   1.249  0.00  0.00     0.058 A 
ENDROOT
TORSDOF 0
ENDMDL
