MODEL 1
REMARK minimizedAffinity 5.14018965
REMARK minimizedRMSD -1
REMARK  0 active torsions:
REMARK  status: ('A' for Active; 'I' for Inactive)
ROOT
ATOM      1  O1  BZF d   1       0.615  -0.315   3.794  0.00  0.00    -0.204 OA
ATOM      2  C2  BZF d   1      -0.474   0.332   3.240  0.00  0.00     0.174 A 
ATOM      3  C3  BZF d   1      -0.118   0.994   2.121  0.00  0.00    -0.012 A 
ATOM      4  C3A BZF d   1       1.260   0.670   1.913  0.00  0.00    -0.107 A 
ATOM      5  C4  BZF d   1       2.170   1.011   0.954  0.00  0.00     0.055 A 
ATOM      6  C5  BZF d   1       3.455   0.585   1.082  0.00  0.00    -0.016 A 
ATOM      7  C6  BZF d   1       3.863  -0.177   2.156  0.00  0.00     0.022 A 
ATOM      8  C7  BZF d   1       2.995  -0.545   3.129  0.00  0.00     0.029 A 
ATOM      9  C7A BZF d   1       1.689  -0.144   2.986  0.00  0.00     0.058 A 
ENDROOT
TORSDOF 0
ENDMDL
