MODEL 1
REMARK minimizedAffinity -1.73328567
REMARK minimizedRMSD -1
REMARK  0 active torsions:
REMARK  status: ('A' for Active; 'I' for Inactive)
ROOT
ATOM      1  O1  BZF d   1       1.027   0.424  -0.529  0.00  0.00    -0.204 OA
ATOM      2  C2  BZF d   1       0.273  -0.328  -1.408  0.00  0.00     0.174 A 
ATOM      3  C3  BZF d   1      -0.636  -1.071  -0.744  0.00  0.00    -0.012 A 
ATOM      4  C3A BZF d   1      -0.499  -0.694   0.629  0.00  0.00    -0.107 A 
ATOM      5  C4  BZF d   1      -1.137  -1.073   1.775  0.00  0.00     0.055 A 
ATOM      6  C5  BZF d   1      -0.715  -0.569   2.965  0.00  0.00    -0.016 A 
ATOM      7  C6  BZF d   1       0.345   0.311   3.045  0.00  0.00     0.022 A 
ATOM      8  C7  BZF d   1       1.006   0.720   1.935  0.00  0.00     0.029 A 
ATOM      9  C7A BZF d   1       0.560   0.238   0.729  0.00  0.00     0.058 A 
ENDROOT
TORSDOF 0
ENDMDL
