MODEL 1
REMARK minimizedAffinity -3.66265965
REMARK minimizedRMSD -1
REMARK  0 active torsions:
REMARK  status: ('A' for Active; 'I' for Inactive)
ROOT
ATOM      1  O1  BZF d   1       1.798  -0.032   2.885  0.00  0.00    -0.204 OA
ATOM      2  C2  BZF d   1       2.894   0.333   2.128  0.00  0.00     0.174 A 
ATOM      3  C3  BZF d   1       2.529   0.604   0.858  0.00  0.00    -0.012 A 
ATOM      4  C3A BZF d   1       1.103   0.486   0.842  0.00  0.00    -0.107 A 
ATOM      5  C4  BZF d   1       0.158   0.652  -0.129  0.00  0.00     0.055 A 
ATOM      6  C5  BZF d   1      -1.143   0.388   0.163  0.00  0.00    -0.016 A 
ATOM      7  C6  BZF d   1      -1.532  -0.047   1.413  0.00  0.00     0.022 A 
ATOM      8  C7  BZF d   1      -0.631  -0.221   2.411  0.00  0.00     0.029 A 
ATOM      9  C7A BZF d   1       0.680   0.076   2.128  0.00  0.00     0.058 A 
ENDROOT
TORSDOF 0
ENDMDL
