MODEL 1
REMARK minimizedAffinity -4.16822815
REMARK minimizedRMSD -1
REMARK  0 active torsions:
REMARK  status: ('A' for Active; 'I' for Inactive)
ROOT
ATOM      1  O1  BZF d   1      -1.228  -0.037   0.007  0.00  0.00    -0.204 OA
ATOM      2  C2  BZF d   1      -0.654   0.310  -1.200  0.00  0.00     0.174 A 
ATOM      3  C3  BZF d   1       0.682   0.444  -1.073  0.00  0.00    -0.012 A 
ATOM      4  C3A BZF d   1       0.971   0.073   0.278  0.00  0.00    -0.107 A 
ATOM      5  C4  BZF d   1       2.126  -0.013   1.002  0.00  0.00     0.055 A 
ATOM      6  C5  BZF d   1       2.056  -0.336   2.320  0.00  0.00    -0.016 A 
ATOM      7  C6  BZF d   1       0.851  -0.575   2.947  0.00  0.00     0.022 A 
ATOM      8  C7  BZF d   1      -0.321  -0.507   2.269  0.00  0.00     0.029 A 
ATOM      9  C7A BZF d   1      -0.252  -0.213   0.929  0.00  0.00     0.058 A 
ENDROOT
TORSDOF 0
ENDMDL
