MODEL 1
REMARK minimizedAffinity -5.51182318
REMARK minimizedRMSD -1
REMARK  0 active torsions:
REMARK  status: ('A' for Active; 'I' for Inactive)
ROOT
ATOM      1  O1  BZF d   1      -2.445   0.002   0.626  0.00  0.00    -0.204 OA
ATOM      2  C2  BZF d   1      -2.181   0.694  -0.540  0.00  0.00     0.174 A 
ATOM      3  C3  BZF d   1      -0.891   1.085  -0.583  0.00  0.00    -0.012 A 
ATOM      4  C3A BZF d   1      -0.290   0.527   0.589  0.00  0.00    -0.107 A 
ATOM      5  C4  BZF d   1       0.978   0.552   1.097  0.00  0.00     0.055 A 
ATOM      6  C5  BZF d   1       1.219  -0.030   2.300  0.00  0.00    -0.016 A 
ATOM      7  C6  BZF d   1       0.217  -0.641   3.025  0.00  0.00     0.022 A 
ATOM      8  C7  BZF d   1      -1.055  -0.695   2.561  0.00  0.00     0.029 A 
ATOM      9  C7A BZF d   1      -1.295  -0.137   1.329  0.00  0.00     0.058 A 
ENDROOT
TORSDOF 0
ENDMDL
