MODEL 1
REMARK minimizedAffinity -4.26412439
REMARK minimizedRMSD -1
REMARK  0 active torsions:
REMARK  status: ('A' for Active; 'I' for Inactive)
ROOT
ATOM      1  O1  BZF d   1      -0.847   0.142   1.987  0.00  0.00    -0.204 OA
ATOM      2  C2  BZF d   1       0.474   0.265   2.371  0.00  0.00     0.174 A 
ATOM      3  C3  BZF d   1       1.275   0.395   1.293  0.00  0.00    -0.012 A 
ATOM      4  C3A BZF d   1       0.390   0.442   0.170  0.00  0.00    -0.107 A 
ATOM      5  C4  BZF d   1       0.586   0.578  -1.174  0.00  0.00     0.055 A 
ATOM      6  C5  BZF d   1      -0.486   0.512  -2.008  0.00  0.00    -0.016 A 
ATOM      7  C6  BZF d   1      -1.764   0.307  -1.532  0.00  0.00     0.022 A 
ATOM      8  C7  BZF d   1      -2.009   0.172  -0.206  0.00  0.00     0.029 A 
ATOM      9  C7A BZF d   1      -0.932   0.271   0.642  0.00  0.00     0.058 A 
ENDROOT
TORSDOF 0
ENDMDL
