MODEL 1
REMARK minimizedAffinity -2.20548844
REMARK minimizedRMSD -1
REMARK  0 active torsions:
REMARK  status: ('A' for Active; 'I' for Inactive)
ROOT
ATOM      1  O1  BZF d   1      -1.877   0.835   0.531  0.00  0.00    -0.204 OA
ATOM      2  C2  BZF d   1      -1.691   0.637  -0.824  0.00  0.00     0.174 A 
ATOM      3  C3  BZF d   1      -0.401   0.350  -1.092  0.00  0.00    -0.012 A 
ATOM      4  C3A BZF d   1       0.243   0.280   0.184  0.00  0.00    -0.107 A 
ATOM      5  C4  BZF d   1       1.523   0.014   0.577  0.00  0.00     0.055 A 
ATOM      6  C5  BZF d   1       1.840   0.095   1.896  0.00  0.00    -0.016 A 
ATOM      7  C6  BZF d   1       0.904   0.445   2.847  0.00  0.00     0.022 A 
ATOM      8  C7  BZF d   1      -0.380   0.713   2.506  0.00  0.00     0.029 A 
ATOM      9  C7A BZF d   1      -0.711   0.599   1.178  0.00  0.00     0.058 A 
ENDROOT
TORSDOF 0
ENDMDL
