MODEL 1
REMARK minimizedAffinity -3.92936945
REMARK minimizedRMSD -1
REMARK  0 active torsions:
REMARK  status: ('A' for Active; 'I' for Inactive)
ROOT
ATOM      1  O1  BZF d   1       1.098   0.909  -0.197  0.00  0.00    -0.204 OA
ATOM      2  C2  BZF d   1       0.350   0.873  -1.358  0.00  0.00     0.174 A 
ATOM      3  C3  BZF d   1      -0.855   0.311  -1.133  0.00  0.00    -0.012 A 
ATOM      4  C3A BZF d   1      -0.896   0.057   0.274  0.00  0.00    -0.107 A 
ATOM      5  C4  BZF d   1      -1.839  -0.477   1.105  0.00  0.00     0.055 A 
ATOM      6  C5  BZF d   1      -1.538  -0.654   2.418  0.00  0.00    -0.016 A 
ATOM      7  C6  BZF d   1      -0.304  -0.313   2.933  0.00  0.00     0.022 A 
ATOM      8  C7  BZF d   1       0.662   0.225   2.149  0.00  0.00     0.029 A 
ATOM      9  C7A BZF d   1       0.349   0.435   0.828  0.00  0.00     0.058 A 
ENDROOT
TORSDOF 0
ENDMDL
