MODEL 1
REMARK minimizedAffinity 2.72382951
REMARK minimizedRMSD -1
REMARK  0 active torsions:
REMARK  status: ('A' for Active; 'I' for Inactive)
ROOT
ATOM      1  C   UNL d   1       0.156  -1.485  -0.010  0.00  0.00     0.023 A 
ATOM      2  C1  UNL d   1      -0.082  -2.779  -0.472  0.00  0.00     0.003 A 
ATOM      3  C2  UNL d   1       0.937  -3.733  -0.436  0.00  0.00     0.048 A 
ATOM      4  C3  UNL d   1       2.191  -3.386   0.065  0.00  0.00     0.023 A 
ATOM      5  C4  UNL d   1       2.434  -2.093   0.530  0.00  0.00     0.048 A 
ATOM      6  C5  UNL d   1       1.412  -1.142   0.491  0.00  0.00     0.003 A 
ATOM      7  I   UNL d   1       3.710  -4.805   0.120  0.00  0.00    -0.146 I 
ENDROOT
TORSDOF 0
ENDMDL
