MODEL 1
REMARK minimizedAffinity 0.992332041
REMARK minimizedRMSD -1
REMARK  0 active torsions:
REMARK  status: ('A' for Active; 'I' for Inactive)
ROOT
ATOM      1  C   UNL d   1      -0.682  -0.736   0.997  0.00  0.00     0.023 A 
ATOM      2  C1  UNL d   1      -0.976  -1.918   0.316  0.00  0.00     0.003 A 
ATOM      3  C2  UNL d   1       0.006  -2.898   0.160  0.00  0.00     0.048 A 
ATOM      4  C3  UNL d   1       1.280  -2.691   0.690  0.00  0.00     0.023 A 
ATOM      5  C4  UNL d   1       1.578  -1.511   1.373  0.00  0.00     0.048 A 
ATOM      6  C5  UNL d   1       0.593  -0.533   1.524  0.00  0.00     0.003 A 
ATOM      7  I   UNL d   1       2.743  -4.149   0.460  0.00  0.00    -0.146 I 
ENDROOT
TORSDOF 0
ENDMDL
