MODEL 1
REMARK minimizedAffinity -2.96720314
REMARK minimizedRMSD -1
REMARK  0 active torsions:
REMARK  status: ('A' for Active; 'I' for Inactive)
ROOT
ATOM      1  C   UNL d   1       3.777  -3.507  -0.154  0.00  0.00     0.023 A 
ATOM      2  C1  UNL d   1       3.634  -2.121  -0.088  0.00  0.00     0.003 A 
ATOM      3  C2  UNL d   1       2.369  -1.556   0.085  0.00  0.00     0.048 A 
ATOM      4  C3  UNL d   1       1.251  -2.383   0.192  0.00  0.00     0.023 A 
ATOM      5  C4  UNL d   1       1.390  -3.771   0.127  0.00  0.00     0.048 A 
ATOM      6  C5  UNL d   1       2.656  -4.331  -0.047  0.00  0.00     0.003 A 
ATOM      7  I   UNL d   1      -0.633  -1.545   0.450  0.00  0.00    -0.146 I 
ENDROOT
TORSDOF 0
ENDMDL
