MODEL 1
REMARK minimizedAffinity 2.18120742
REMARK minimizedRMSD -1
REMARK  0 active torsions:
REMARK  status: ('A' for Active; 'I' for Inactive)
ROOT
ATOM      1  C   UNL d   1      -0.371  -2.045   0.895  0.00  0.00     0.023 A 
ATOM      2  C1  UNL d   1       0.105  -0.832   1.393  0.00  0.00     0.003 A 
ATOM      3  C2  UNL d   1       1.480  -0.601   1.473  0.00  0.00     0.048 A 
ATOM      4  C3  UNL d   1       2.373  -1.586   1.053  0.00  0.00     0.023 A 
ATOM      5  C4  UNL d   1       1.901  -2.801   0.553  0.00  0.00     0.048 A 
ATOM      6  C5  UNL d   1       0.526  -3.028   0.475  0.00  0.00     0.003 A 
ATOM      7  I   UNL d   1       4.420  -1.244   1.172  0.00  0.00    -0.146 I 
ENDROOT
TORSDOF 0
ENDMDL
