MODEL 1
REMARK minimizedAffinity -2.02534699
REMARK minimizedRMSD -1
REMARK  0 active torsions:
REMARK  status: ('A' for Active; 'I' for Inactive)
ROOT
ATOM      1  C   UNL d   1      -0.020  -0.962   0.483  0.00  0.00     0.023 A 
ATOM      2  C1  UNL d   1       1.328  -0.622   0.361  0.00  0.00     0.003 A 
ATOM      3  C2  UNL d   1       2.280  -1.615   0.124  0.00  0.00     0.048 A 
ATOM      4  C3  UNL d   1       1.878  -2.946   0.010  0.00  0.00     0.023 A 
ATOM      5  C4  UNL d   1       0.531  -3.290   0.130  0.00  0.00     0.048 A 
ATOM      6  C5  UNL d   1      -0.418  -2.294   0.368  0.00  0.00     0.003 A 
ATOM      7  I   UNL d   1       3.294  -4.426  -0.343  0.00  0.00    -0.146 I 
ENDROOT
TORSDOF 0
ENDMDL
