MODEL 1
REMARK minimizedAffinity 2.69622588
REMARK minimizedRMSD -1
REMARK  0 active torsions:
REMARK  status: ('A' for Active; 'I' for Inactive)
ROOT
ATOM      1  C   UNL d   1       4.382  -0.968   1.330  0.00  0.00     0.023 A 
ATOM      2  C1  UNL d   1       3.629  -0.542   2.424  0.00  0.00     0.003 A 
ATOM      3  C2  UNL d   1       2.238  -0.474   2.331  0.00  0.00     0.048 A 
ATOM      4  C3  UNL d   1       1.605  -0.834   1.141  0.00  0.00     0.023 A 
ATOM      5  C4  UNL d   1       2.355  -1.261   0.044  0.00  0.00     0.048 A 
ATOM      6  C5  UNL d   1       3.746  -1.327   0.141  0.00  0.00     0.003 A 
ATOM      7  I   UNL d   1      -0.466  -0.733   1.001  0.00  0.00    -0.146 I 
ENDROOT
TORSDOF 0
ENDMDL
