MODEL 1
REMARK minimizedAffinity -0.542482197
REMARK minimizedRMSD -1
REMARK  0 active torsions:
REMARK  status: ('A' for Active; 'I' for Inactive)
ROOT
ATOM      1  C   UNL d   1      -0.662  -1.600   0.846  0.00  0.00     0.023 A 
ATOM      2  C1  UNL d   1      -0.877  -2.878   0.329  0.00  0.00     0.003 A 
ATOM      3  C2  UNL d   1       0.208  -3.717   0.066  0.00  0.00     0.048 A 
ATOM      4  C3  UNL d   1       1.504  -3.273   0.323  0.00  0.00     0.023 A 
ATOM      5  C4  UNL d   1       1.724  -1.995   0.841  0.00  0.00     0.048 A 
ATOM      6  C5  UNL d   1       0.636  -1.159   1.101  0.00  0.00     0.003 A 
ATOM      7  I   UNL d   1       3.120  -4.520  -0.067  0.00  0.00    -0.146 I 
ENDROOT
TORSDOF 0
ENDMDL
