MODEL 1
REMARK minimizedAffinity 0.965346634
REMARK minimizedRMSD -1
REMARK  0 active torsions:
REMARK  status: ('A' for Active; 'I' for Inactive)
ROOT
ATOM      1  C   UNL d   1       2.620  -3.557  -0.387  0.00  0.00     0.023 A 
ATOM      2  C1  UNL d   1       1.385  -4.134  -0.093  0.00  0.00     0.003 A 
ATOM      3  C2  UNL d   1       0.350  -3.349   0.421  0.00  0.00     0.048 A 
ATOM      4  C3  UNL d   1       0.557  -1.987   0.636  0.00  0.00     0.023 A 
ATOM      5  C4  UNL d   1       1.791  -1.405   0.342  0.00  0.00     0.048 A 
ATOM      6  C5  UNL d   1       2.823  -2.194  -0.171  0.00  0.00     0.003 A 
ATOM      7  I   UNL d   1      -0.981  -0.817   1.399  0.00  0.00    -0.146 I 
ENDROOT
TORSDOF 0
ENDMDL
