MODEL 1
REMARK minimizedAffinity -2.40279651
REMARK minimizedRMSD -1
REMARK  0 active torsions:
REMARK  status: ('A' for Active; 'I' for Inactive)
ROOT
ATOM      1  C   UNL d   1       0.029  -1.171   0.653  0.00  0.00     0.023 A 
ATOM      2  C1  UNL d   1      -0.339  -2.501   0.448  0.00  0.00     0.003 A 
ATOM      3  C2  UNL d   1       0.640  -3.471   0.219  0.00  0.00     0.048 A 
ATOM      4  C3  UNL d   1       1.985  -3.104   0.199  0.00  0.00     0.023 A 
ATOM      5  C4  UNL d   1       2.358  -1.775   0.404  0.00  0.00     0.048 A 
ATOM      6  C5  UNL d   1       1.376  -0.809   0.631  0.00  0.00     0.003 A 
ATOM      7  I   UNL d   1       3.444  -4.545  -0.141  0.00  0.00    -0.146 I 
ENDROOT
TORSDOF 0
ENDMDL
