MODEL 1
REMARK minimizedAffinity -2.84746909
REMARK minimizedRMSD -1
REMARK  0 active torsions:
REMARK  status: ('A' for Active; 'I' for Inactive)
ROOT
ATOM      1  C   UNL d   1      -0.391  -0.060   0.651  0.00  0.00     0.023 A 
ATOM      2  C1  UNL d   1       0.937  -0.056   1.079  0.00  0.00     0.003 A 
ATOM      3  C2  UNL d   1       1.722  -1.201   0.933  0.00  0.00     0.048 A 
ATOM      4  C3  UNL d   1       1.174  -2.347   0.359  0.00  0.00     0.023 A 
ATOM      5  C4  UNL d   1      -0.154  -2.356  -0.071  0.00  0.00     0.048 A 
ATOM      6  C5  UNL d   1      -0.936  -1.209   0.077  0.00  0.00     0.003 A 
ATOM      7  I   UNL d   1       2.341  -4.053   0.141  0.00  0.00    -0.146 I 
ENDROOT
TORSDOF 0
ENDMDL
