MODEL 1
REMARK minimizedAffinity -3.27375865
REMARK minimizedRMSD -1
REMARK  0 active torsions:
REMARK  status: ('A' for Active; 'I' for Inactive)
ROOT
ATOM      1  C   UNL d   1      -0.386  -3.468   0.199  0.00  0.00     0.023 A 
ATOM      2  C1  UNL d   1       0.943  -3.859   0.032  0.00  0.00     0.003 A 
ATOM      3  C2  UNL d   1       1.975  -2.955   0.292  0.00  0.00     0.048 A 
ATOM      4  C3  UNL d   1       1.672  -1.663   0.720  0.00  0.00     0.023 A 
ATOM      5  C4  UNL d   1       0.344  -1.268   0.889  0.00  0.00     0.048 A 
ATOM      6  C5  UNL d   1      -0.685  -2.175   0.627  0.00  0.00     0.003 A 
ATOM      7  I   UNL d   1       3.207  -0.317   1.108  0.00  0.00    -0.146 I 
ENDROOT
TORSDOF 0
ENDMDL
