MODEL 1
REMARK minimizedAffinity 0.658657312
REMARK minimizedRMSD -1
REMARK  0 active torsions:
REMARK  status: ('A' for Active; 'I' for Inactive)
ROOT
ATOM      1  C   UNL d   1       1.654  -2.173   0.098  0.00  0.00     0.023 A 
ATOM      2  C1  UNL d   1       1.142  -3.464   0.224  0.00  0.00     0.003 A 
ATOM      3  C2  UNL d   1       2.002  -4.564   0.189  0.00  0.00     0.048 A 
ATOM      4  C3  UNL d   1       3.373  -4.365   0.028  0.00  0.00     0.023 A 
ATOM      5  C4  UNL d   1       3.890  -3.074  -0.097  0.00  0.00     0.048 A 
ATOM      6  C5  UNL d   1       3.026  -1.978  -0.062  0.00  0.00     0.003 A 
ATOM      7  I   UNL d   1       4.655  -6.000  -0.025  0.00  0.00    -0.146 I 
ENDROOT
TORSDOF 0
ENDMDL
