MODEL 1
REMARK minimizedAffinity 9.15978241
REMARK minimizedRMSD -1
REMARK  0 active torsions:
REMARK  status: ('A' for Active; 'I' for Inactive)
ROOT
ATOM      1  N1  IND d   1      -1.524   0.653   2.302  0.00  0.00    -0.196 N 
ATOM      2  C2  IND d   1      -2.832   1.031   2.177  0.00  0.00     0.054 A 
ATOM      3  C3  IND d   1      -3.596  -0.028   1.825  0.00  0.00    -0.031 A 
ATOM      4  C4  IND d   1      -2.925  -2.492   1.499  0.00  0.00     0.051 A 
ATOM      5  C5  IND d   1      -1.835  -3.317   1.469  0.00  0.00    -0.031 A 
ATOM      6  C6  IND d   1      -0.561  -2.851   1.722  0.00  0.00     0.015 A 
ATOM      7  C7  IND d   1      -0.329  -1.540   2.028  0.00  0.00    -0.016 A 
ATOM      8  C8  IND d   1      -1.432  -0.698   2.053  0.00  0.00    -0.047 A 
ATOM      9  C9  IND d   1      -2.722  -1.156   1.755  0.00  0.00    -0.096 A 
ATOM     10  HN1 IND d   1      -0.869   1.173   2.502  0.00  0.00     0.298 HD
ENDROOT
TORSDOF 0
ENDMDL
