MODEL 1
REMARK minimizedAffinity -0.553545535
REMARK minimizedRMSD -1
REMARK  0 active torsions:
REMARK  status: ('A' for Active; 'I' for Inactive)
ROOT
ATOM      1  N1  IND d   1       1.319   0.902   0.674  0.00  0.00    -0.196 N 
ATOM      2  C2  IND d   1       0.752  -0.151   1.335  0.00  0.00     0.054 A 
ATOM      3  C3  IND d   1       1.019  -1.310   0.693  0.00  0.00    -0.031 A 
ATOM      4  C4  IND d   1       2.453  -1.723  -1.405  0.00  0.00     0.051 A 
ATOM      5  C5  IND d   1       3.148  -1.066  -2.382  0.00  0.00    -0.031 A 
ATOM      6  C6  IND d   1       3.273   0.308  -2.389  0.00  0.00     0.015 A 
ATOM      7  C7  IND d   1       2.716   1.079  -1.408  0.00  0.00    -0.016 A 
ATOM      8  C8  IND d   1       2.004   0.416  -0.419  0.00  0.00    -0.047 A 
ATOM      9  C9  IND d   1       1.837  -0.975  -0.430  0.00  0.00    -0.096 A 
ATOM     10  HN1 IND d   1       1.259   1.729   0.901  0.00  0.00     0.298 HD
ENDROOT
TORSDOF 0
ENDMDL
