MODEL 1
REMARK minimizedAffinity 7.06429195
REMARK minimizedRMSD -1
REMARK  0 active torsions:
REMARK  status: ('A' for Active; 'I' for Inactive)
ROOT
ATOM      1  N1  IND d   1       3.258  -2.281  -1.149  0.00  0.00    -0.196 N 
ATOM      2  C2  IND d   1       2.348  -2.193  -0.132  0.00  0.00     0.054 A 
ATOM      3  C3  IND d   1       2.141  -0.900   0.204  0.00  0.00    -0.031 A 
ATOM      4  C4  IND d   1       3.111   1.239  -0.850  0.00  0.00     0.051 A 
ATOM      5  C5  IND d   1       4.013   1.666  -1.783  0.00  0.00    -0.031 A 
ATOM      6  C6  IND d   1       4.722   0.782  -2.570  0.00  0.00     0.015 A 
ATOM      7  C7  IND d   1       4.546  -0.568  -2.461  0.00  0.00    -0.016 A 
ATOM      8  C8  IND d   1       3.636  -1.006  -1.510  0.00  0.00    -0.047 A 
ATOM      9  C9  IND d   1       2.945  -0.115  -0.678  0.00  0.00    -0.096 A 
ATOM     10  HN1 IND d   1       3.545  -3.009  -1.503  0.00  0.00     0.298 HD
ENDROOT
TORSDOF 0
ENDMDL
