MODEL 1
REMARK minimizedAffinity -4.07114124
REMARK minimizedRMSD -1
REMARK  0 active torsions:
REMARK  status: ('A' for Active; 'I' for Inactive)
ROOT
ATOM      1  N1  IND d   1      -4.134   2.639  -4.124  0.00  0.00    -0.196 N 
ATOM      2  C2  IND d   1      -5.184   2.771  -3.259  0.00  0.00     0.054 A 
ATOM      3  C3  IND d   1      -4.811   3.483  -2.172  0.00  0.00    -0.031 A 
ATOM      4  C4  IND d   1      -2.558   4.613  -1.650  0.00  0.00     0.051 A 
ATOM      5  C5  IND d   1      -1.282   4.740  -2.123  0.00  0.00    -0.031 A 
ATOM      6  C6  IND d   1      -0.884   4.164  -3.312  0.00  0.00     0.015 A 
ATOM      7  C7  IND d   1      -1.754   3.446  -4.082  0.00  0.00    -0.016 A 
ATOM      8  C8  IND d   1      -3.049   3.308  -3.602  0.00  0.00    -0.047 A 
ATOM      9  C9  IND d   1      -3.447   3.855  -2.375  0.00  0.00    -0.096 A 
ATOM     10  HN1 IND d   1      -4.148   2.210  -4.869  0.00  0.00     0.298 HD
ENDROOT
TORSDOF 0
ENDMDL
