MODEL 1
REMARK minimizedAffinity 1.08754718
REMARK minimizedRMSD -1
REMARK  0 active torsions:
REMARK  status: ('A' for Active; 'I' for Inactive)
ROOT
ATOM      1  N1  IND d   1      -5.572   2.646  -4.129  0.00  0.00    -0.196 N 
ATOM      2  C2  IND d   1      -6.000   2.357  -2.864  0.00  0.00     0.054 A 
ATOM      3  C3  IND d   1      -5.006   2.568  -1.971  0.00  0.00    -0.031 A 
ATOM      4  C4  IND d   1      -2.631   3.484  -2.355  0.00  0.00     0.051 A 
ATOM      5  C5  IND d   1      -1.768   3.857  -3.347  0.00  0.00    -0.031 A 
ATOM      6  C6  IND d   1      -2.136   3.847  -4.676  0.00  0.00     0.015 A 
ATOM      7  C7  IND d   1      -3.392   3.474  -5.065  0.00  0.00    -0.016 A 
ATOM      8  C8  IND d   1      -4.269   3.088  -4.061  0.00  0.00    -0.047 A 
ATOM      9  C9  IND d   1      -3.887   3.055  -2.714  0.00  0.00    -0.096 A 
ATOM     10  HN1 IND d   1      -6.038   2.565  -4.847  0.00  0.00     0.298 HD
ENDROOT
TORSDOF 0
ENDMDL
