MODEL 1
REMARK minimizedAffinity 5.83847618
REMARK minimizedRMSD -1
REMARK  0 active torsions:
REMARK  status: ('A' for Active; 'I' for Inactive)
ROOT
ATOM      1  N1  IND d   1       3.065  -0.217  -1.659  0.00  0.00    -0.196 N 
ATOM      2  C2  IND d   1       3.109  -1.486  -2.167  0.00  0.00     0.054 A 
ATOM      3  C3  IND d   1       2.282  -2.299  -1.473  0.00  0.00    -0.031 A 
ATOM      4  C4  IND d   1       0.685  -1.738   0.467  0.00  0.00     0.051 A 
ATOM      5  C5  IND d   1       0.320  -0.720   1.302  0.00  0.00    -0.031 A 
ATOM      6  C6  IND d   1       0.861   0.545   1.189  0.00  0.00     0.015 A 
ATOM      7  C7  IND d   1       1.782   0.842   0.224  0.00  0.00    -0.016 A 
ATOM      8  C8  IND d   1       2.160  -0.192  -0.621  0.00  0.00    -0.047 A 
ATOM      9  C9  IND d   1       1.646  -1.488  -0.483  0.00  0.00    -0.096 A 
ATOM     10  HN1 IND d   1       3.525   0.453  -1.941  0.00  0.00     0.298 HD
ENDROOT
TORSDOF 0
ENDMDL
