MODEL 1
REMARK minimizedAffinity 0.220763892
REMARK minimizedRMSD -1
REMARK  0 active torsions:
REMARK  status: ('A' for Active; 'I' for Inactive)
ROOT
ATOM      1  N1  IND d   1       1.117   2.107   0.511  0.00  0.00    -0.196 N 
ATOM      2  C2  IND d   1       1.736   2.822  -0.476  0.00  0.00     0.054 A 
ATOM      3  C3  IND d   1       2.372   1.990  -1.330  0.00  0.00    -0.031 A 
ATOM      4  C4  IND d   1       2.446  -0.584  -1.358  0.00  0.00     0.051 A 
ATOM      5  C5  IND d   1       2.062  -1.680  -0.638  0.00  0.00    -0.031 A 
ATOM      6  C6  IND d   1       1.325  -1.568   0.524  0.00  0.00     0.015 A 
ATOM      7  C7  IND d   1       0.934  -0.350   1.005  0.00  0.00    -0.016 A 
ATOM      8  C8  IND d   1       1.329   0.765   0.280  0.00  0.00    -0.047 A 
ATOM      9  C9  IND d   1       2.113   0.660  -0.876  0.00  0.00    -0.096 A 
ATOM     10  HN1 IND d   1       0.670   2.439   1.166  0.00  0.00     0.298 HD
ENDROOT
TORSDOF 0
ENDMDL
