MODEL 1
REMARK minimizedAffinity 8.01037979
REMARK minimizedRMSD -1
REMARK  0 active torsions:
REMARK  status: ('A' for Active; 'I' for Inactive)
ROOT
ATOM      1  N1  IND d   1       2.602   1.256  -1.140  0.00  0.00    -0.196 N 
ATOM      2  C2  IND d   1       1.983   2.196  -0.364  0.00  0.00     0.054 A 
ATOM      3  C3  IND d   1       1.253   1.600   0.605  0.00  0.00    -0.031 A 
ATOM      4  C4  IND d   1       1.012  -0.901   1.166  0.00  0.00     0.051 A 
ATOM      5  C5  IND d   1       1.359  -2.144   0.716  0.00  0.00    -0.031 A 
ATOM      6  C6  IND d   1       2.157  -2.321  -0.396  0.00  0.00     0.015 A 
ATOM      7  C7  IND d   1       2.649  -1.256  -1.096  0.00  0.00    -0.016 A 
ATOM      8  C8  IND d   1       2.292   0.008  -0.647  0.00  0.00    -0.047 A 
ATOM      9  C9  IND d   1       1.448   0.192   0.456  0.00  0.00    -0.096 A 
ATOM     10  HN1 IND d   1       3.101   1.418  -1.821  0.00  0.00     0.298 HD
ENDROOT
TORSDOF 0
ENDMDL
