MODEL 1
REMARK minimizedAffinity 0.0519930348
REMARK minimizedRMSD -1
REMARK  0 active torsions:
REMARK  status: ('A' for Active; 'I' for Inactive)
ROOT
ATOM      1  N1  IND d   1       0.742   0.715   0.998  0.00  0.00    -0.196 N 
ATOM      2  C2  IND d   1       0.269  -0.396   1.639  0.00  0.00     0.054 A 
ATOM      3  C3  IND d   1       0.853  -1.509   1.143  0.00  0.00    -0.031 A 
ATOM      4  C4  IND d   1       2.686  -1.735  -0.651  0.00  0.00     0.051 A 
ATOM      5  C5  IND d   1       3.409  -1.002  -1.550  0.00  0.00    -0.031 A 
ATOM      6  C6  IND d   1       3.280   0.369  -1.645  0.00  0.00     0.015 A 
ATOM      7  C7  IND d   1       2.427   1.062  -0.834  0.00  0.00    -0.016 A 
ATOM      8  C8  IND d   1       1.685   0.320   0.075  0.00  0.00    -0.047 A 
ATOM      9  C9  IND d   1       1.781  -1.075   0.147  0.00  0.00    -0.096 A 
ATOM     10  HN1 IND d   1       0.492   1.524   1.146  0.00  0.00     0.298 HD
ENDROOT
TORSDOF 0
ENDMDL
