MODEL 1
REMARK minimizedAffinity -1.32105982
REMARK minimizedRMSD -1
REMARK  0 active torsions:
REMARK  status: ('A' for Active; 'I' for Inactive)
ROOT
ATOM      1  N1  IND d   1       1.970  -0.283   1.331  0.00  0.00    -0.196 N 
ATOM      2  C2  IND d   1       2.308  -1.117   0.303  0.00  0.00     0.054 A 
ATOM      3  C3  IND d   1       1.281  -1.948   0.014  0.00  0.00    -0.031 A 
ATOM      4  C4  IND d   1      -1.081  -2.044   1.033  0.00  0.00     0.051 A 
ATOM      5  C5  IND d   1      -1.848  -1.504   2.027  0.00  0.00    -0.031 A 
ATOM      6  C6  IND d   1      -1.373  -0.508   2.855  0.00  0.00     0.015 A 
ATOM      7  C7  IND d   1      -0.112  -0.004   2.712  0.00  0.00    -0.016 A 
ATOM      8  C8  IND d   1       0.673  -0.554   1.708  0.00  0.00    -0.047 A 
ATOM      9  C9  IND d   1       0.211  -1.595   0.892  0.00  0.00    -0.096 A 
ATOM     10  HN1 IND d   1       2.481   0.312   1.684  0.00  0.00     0.298 HD
ENDROOT
TORSDOF 0
ENDMDL
