MODEL 1
REMARK minimizedAffinity -1.33508468
REMARK minimizedRMSD -1
REMARK  0 active torsions:
REMARK  status: ('A' for Active; 'I' for Inactive)
ROOT
ATOM      1  N1  IND d   1       0.100   0.450   1.758  0.00  0.00    -0.196 N 
ATOM      2  C2  IND d   1      -0.613  -0.711   1.865  0.00  0.00     0.054 A 
ATOM      3  C3  IND d   1      -0.187  -1.611   0.950  0.00  0.00    -0.031 A 
ATOM      4  C4  IND d   1       1.735  -1.426  -0.753  0.00  0.00     0.051 A 
ATOM      5  C5  IND d   1       2.652  -0.544  -1.250  0.00  0.00    -0.031 A 
ATOM      6  C6  IND d   1       2.770   0.740  -0.758  0.00  0.00     0.015 A 
ATOM      7  C7  IND d   1       1.979   1.188   0.262  0.00  0.00    -0.016 A 
ATOM      8  C8  IND d   1       1.041   0.297   0.764  0.00  0.00    -0.047 A 
ATOM      9  C9  IND d   1       0.888  -0.993   0.241  0.00  0.00    -0.096 A 
ATOM     10  HN1 IND d   1      -0.019   1.158   2.232  0.00  0.00     0.298 HD
ENDROOT
TORSDOF 0
ENDMDL
