MODEL 1
REMARK minimizedAffinity 3.25532365
REMARK minimizedRMSD -1
REMARK  0 active torsions:
REMARK  status: ('A' for Active; 'I' for Inactive)
ROOT
ATOM      1  N1  IND d   1      -2.316   5.167  -2.549  0.00  0.00    -0.196 N 
ATOM      2  C2  IND d   1      -1.354   5.999  -2.047  0.00  0.00     0.054 A 
ATOM      3  C3  IND d   1      -0.130   5.444  -2.193  0.00  0.00    -0.031 A 
ATOM      4  C4  IND d   1       0.538   3.226  -3.316  0.00  0.00     0.051 A 
ATOM      5  C5  IND d   1       0.005   2.106  -3.889  0.00  0.00    -0.031 A 
ATOM      6  C6  IND d   1      -1.356   1.946  -4.050  0.00  0.00     0.015 A 
ATOM      7  C7  IND d   1      -2.238   2.911  -3.653  0.00  0.00    -0.016 A 
ATOM      8  C8  IND d   1      -1.701   4.047  -3.064  0.00  0.00    -0.047 A 
ATOM      9  C9  IND d   1      -0.323   4.196  -2.859  0.00  0.00    -0.096 A 
ATOM     10  HN1 IND d   1      -3.162   5.317  -2.543  0.00  0.00     0.298 HD
ENDROOT
TORSDOF 0
ENDMDL
