MODEL 1
REMARK minimizedAffinity -1.35626197
REMARK minimizedRMSD -1
REMARK  0 active torsions:
REMARK  status: ('A' for Active; 'I' for Inactive)
ROOT
ATOM      1  N1  IND d   1       0.889  -2.493   1.244  0.00  0.00    -0.196 N 
ATOM      2  C2  IND d   1       0.082  -1.977   2.219  0.00  0.00     0.054 A 
ATOM      3  C3  IND d   1       0.032  -0.629   2.124  0.00  0.00    -0.031 A 
ATOM      4  C4  IND d   1       1.114   0.928   0.382  0.00  0.00     0.051 A 
ATOM      5  C5  IND d   1       1.971   0.924  -0.682  0.00  0.00    -0.031 A 
ATOM      6  C6  IND d   1       2.520  -0.244  -1.170  0.00  0.00     0.015 A 
ATOM      7  C7  IND d   1       2.223  -1.457  -0.617  0.00  0.00    -0.016 A 
ATOM      8  C8  IND d   1       1.358  -1.456   0.468  0.00  0.00    -0.047 A 
ATOM      9  C9  IND d   1       0.831  -0.269   0.995  0.00  0.00    -0.096 A 
ATOM     10  HN1 IND d   1       1.073  -3.326   1.134  0.00  0.00     0.298 HD
ENDROOT
TORSDOF 0
ENDMDL
