MODEL 1
REMARK minimizedAffinity -2.60715771
REMARK minimizedRMSD -1
REMARK  0 active torsions:
REMARK  status: ('A' for Active; 'I' for Inactive)
ROOT
ATOM      1  N1  IND d   1       3.288   0.548  -1.918  0.00  0.00    -0.196 N 
ATOM      2  C2  IND d   1       3.801  -0.683  -2.220  0.00  0.00     0.054 A 
ATOM      3  C3  IND d   1       3.199  -1.638  -1.477  0.00  0.00    -0.031 A 
ATOM      4  C4  IND d   1       1.277  -1.421   0.221  0.00  0.00     0.051 A 
ATOM      5  C5  IND d   1       0.502  -0.493   0.858  0.00  0.00    -0.031 A 
ATOM      6  C6  IND d   1       0.617   0.857   0.595  0.00  0.00     0.015 A 
ATOM      7  C7  IND d   1       1.507   1.330  -0.328  0.00  0.00    -0.016 A 
ATOM      8  C8  IND d   1       2.300   0.391  -0.971  0.00  0.00    -0.047 A 
ATOM      9  C9  IND d   1       2.218  -0.977  -0.678  0.00  0.00    -0.096 A 
ATOM     10  HN1 IND d   1       3.540   1.295  -2.262  0.00  0.00     0.298 HD
ENDROOT
TORSDOF 0
ENDMDL
