MODEL 1
REMARK minimizedAffinity -1.62839079
REMARK minimizedRMSD -1
REMARK  0 active torsions:
REMARK  status: ('A' for Active; 'I' for Inactive)
ROOT
ATOM      1  N1  IND d   1       2.102  -2.468  -0.950  0.00  0.00    -0.196 N 
ATOM      2  C2  IND d   1       3.056  -1.557  -1.309  0.00  0.00     0.054 A 
ATOM      3  C3  IND d   1       2.868  -0.394  -0.647  0.00  0.00    -0.031 A 
ATOM      4  C4  IND d   1       1.122   0.203   1.148  0.00  0.00     0.051 A 
ATOM      5  C5  IND d   1       0.016  -0.291   1.782  0.00  0.00    -0.031 A 
ATOM      6  C6  IND d   1      -0.458  -1.563   1.534  0.00  0.00     0.015 A 
ATOM      7  C7  IND d   1       0.165  -2.396   0.649  0.00  0.00    -0.016 A 
ATOM      8  C8  IND d   1       1.283  -1.895  -0.002  0.00  0.00    -0.047 A 
ATOM      9  C9  IND d   1       1.744  -0.590   0.213  0.00  0.00    -0.096 A 
ATOM     10  HN1 IND d   1       2.027  -3.266  -1.263  0.00  0.00     0.298 HD
ENDROOT
TORSDOF 0
ENDMDL
