MODEL 1
REMARK minimizedAffinity 2.3346436
REMARK minimizedRMSD -1
REMARK  0 active torsions:
REMARK  status: ('A' for Active; 'I' for Inactive)
ROOT
ATOM      1  N1  IND d   1       1.597  -2.344  -0.192  0.00  0.00    -0.196 N 
ATOM      2  C2  IND d   1       0.807  -1.775   0.768  0.00  0.00     0.054 A 
ATOM      3  C3  IND d   1       1.045  -0.447   0.847  0.00  0.00    -0.031 A 
ATOM      4  C4  IND d   1       2.612   1.021  -0.572  0.00  0.00     0.051 A 
ATOM      5  C5  IND d   1       3.566   0.948  -1.549  0.00  0.00    -0.031 A 
ATOM      6  C6  IND d   1       3.916  -0.250  -2.137  0.00  0.00     0.015 A 
ATOM      7  C7  IND d   1       3.316  -1.423  -1.777  0.00  0.00    -0.016 A 
ATOM      8  C8  IND d   1       2.353  -1.353  -0.780  0.00  0.00    -0.047 A 
ATOM      9  C9  IND d   1       2.023  -0.147  -0.150  0.00  0.00    -0.096 A 
ATOM     10  HN1 IND d   1       1.618  -3.179  -0.395  0.00  0.00     0.298 HD
ENDROOT
TORSDOF 0
ENDMDL
