MODEL 1
REMARK minimizedAffinity -1.07876801
REMARK minimizedRMSD -1
REMARK  0 active torsions:
REMARK  status: ('A' for Active; 'I' for Inactive)
ROOT
ATOM      1  N1  IND d   1       2.775  -1.739  -1.259  0.00  0.00    -0.196 N 
ATOM      2  C2  IND d   1       3.180  -0.681  -2.025  0.00  0.00     0.054 A 
ATOM      3  C3  IND d   1       2.628   0.467  -1.572  0.00  0.00    -0.031 A 
ATOM      4  C4  IND d   1       1.113   0.857   0.472  0.00  0.00     0.051 A 
ATOM      5  C5  IND d   1       0.441   0.191   1.458  0.00  0.00    -0.031 A 
ATOM      6  C6  IND d   1       0.517  -1.181   1.593  0.00  0.00     0.015 A 
ATOM      7  C7  IND d   1       1.279  -1.939   0.750  0.00  0.00    -0.016 A 
ATOM      8  C8  IND d   1       1.957  -1.266  -0.257  0.00  0.00    -0.047 A 
ATOM      9  C9  IND d   1       1.850   0.121  -0.425  0.00  0.00    -0.096 A 
ATOM     10  HN1 IND d   1       2.993  -2.561  -1.383  0.00  0.00     0.298 HD
ENDROOT
TORSDOF 0
ENDMDL
