MODEL 1
REMARK minimizedAffinity -0.612204552
REMARK minimizedRMSD -1
REMARK  0 active torsions:
REMARK  status: ('A' for Active; 'I' for Inactive)
ROOT
ATOM      1  N1  IND d   1       0.492   0.500   1.590  0.00  0.00    -0.196 N 
ATOM      2  C2  IND d   1       0.010  -0.760   1.814  0.00  0.00     0.054 A 
ATOM      3  C3  IND d   1       0.544  -1.632   0.929  0.00  0.00    -0.031 A 
ATOM      4  C4  IND d   1       2.305  -1.229  -0.904  0.00  0.00     0.051 A 
ATOM      5  C5  IND d   1       3.018  -0.234  -1.514  0.00  0.00    -0.031 A 
ATOM      6  C6  IND d   1       2.925   1.082  -1.109  0.00  0.00     0.015 A 
ATOM      7  C7  IND d   1       2.121   1.453  -0.068  0.00  0.00    -0.016 A 
ATOM      8  C8  IND d   1       1.391   0.446   0.548  0.00  0.00    -0.047 A 
ATOM      9  C9  IND d   1       1.448  -0.884   0.114  0.00  0.00    -0.096 A 
ATOM     10  HN1 IND d   1       0.271   1.206   2.028  0.00  0.00     0.298 HD
ENDROOT
TORSDOF 0
ENDMDL
