MODEL 1
REMARK minimizedAffinity -1.83703399
REMARK minimizedRMSD -1
REMARK  0 active torsions:
REMARK  status: ('A' for Active; 'I' for Inactive)
ROOT
ATOM      1  N1  IND d   1       3.238  -0.121  -1.825  0.00  0.00    -0.196 N 
ATOM      2  C2  IND d   1       3.199  -1.455  -2.120  0.00  0.00     0.054 A 
ATOM      3  C3  IND d   1       2.369  -2.102  -1.272  0.00  0.00    -0.031 A 
ATOM      4  C4  IND d   1       0.892  -1.152   0.611  0.00  0.00     0.051 A 
ATOM      5  C5  IND d   1       0.614   0.005   1.282  0.00  0.00    -0.031 A 
ATOM      6  C6  IND d   1       1.206   1.204   0.944  0.00  0.00     0.015 A 
ATOM      7  C7  IND d   1       2.094   1.293  -0.091  0.00  0.00    -0.016 A 
ATOM      8  C8  IND d   1       2.384   0.119  -0.770  0.00  0.00    -0.047 A 
ATOM      9  C9  IND d   1       1.818  -1.109  -0.404  0.00  0.00    -0.096 A 
ATOM     10  HN1 IND d   1       3.715   0.469  -2.229  0.00  0.00     0.298 HD
ENDROOT
TORSDOF 0
ENDMDL
