MODEL 1
REMARK minimizedAffinity -1.93634355
REMARK minimizedRMSD -1
REMARK  0 active torsions:
REMARK  status: ('A' for Active; 'I' for Inactive)
ROOT
ATOM      1  C   UNL d   1      -2.242   2.983  -6.000  0.00  0.00     0.172 C 
ATOM      2  N   UNL d   1      -3.255   4.012  -5.992  0.00  0.00    -0.070 N 
ATOM      3  C1  UNL d   1      -3.023   5.361  -5.996  0.00  0.00    -0.004 A 
ATOM      4  C2  UNL d   1      -4.244   6.000  -5.986  0.00  0.00    -0.047 A 
ATOM      5  C3  UNL d   1      -5.245   4.999  -5.975  0.00  0.00    -0.047 A 
ATOM      6  C4  UNL d   1      -4.605   3.778  -5.979  0.00  0.00    -0.004 A 
ENDROOT
TORSDOF 0
ENDMDL
