MODEL 1
REMARK minimizedAffinity 2.71295619
REMARK minimizedRMSD -1
REMARK  0 active torsions:
REMARK  status: ('A' for Active; 'I' for Inactive)
ROOT
ATOM      1  C   UNL d   1      -0.740   3.129   1.250  0.00  0.00     0.172 C 
ATOM      2  N   UNL d   1      -0.511   1.724   1.004  0.00  0.00    -0.070 N 
ATOM      3  C1  UNL d   1      -1.465   0.743   1.037  0.00  0.00    -0.004 A 
ATOM      4  C2  UNL d   1      -0.848  -0.455   0.749  0.00  0.00    -0.047 A 
ATOM      5  C3  UNL d   1       0.525  -0.184   0.537  0.00  0.00    -0.047 A 
ATOM      6  C4  UNL d   1       0.705   1.173   0.701  0.00  0.00    -0.004 A 
ENDROOT
TORSDOF 0
ENDMDL
