MODEL 1
REMARK minimizedAffinity 3.21752071
REMARK minimizedRMSD -1
REMARK  0 active torsions:
REMARK  status: ('A' for Active; 'I' for Inactive)
ROOT
ATOM      1  C   UNL d   1      -0.713   2.932  -5.998  0.00  0.00     0.172 C 
ATOM      2  N   UNL d   1      -2.033   3.516  -5.998  0.00  0.00    -0.070 N 
ATOM      3  C1  UNL d   1      -3.213   2.821  -5.998  0.00  0.00    -0.004 A 
ATOM      4  C2  UNL d   1      -4.243   3.738  -5.998  0.00  0.00    -0.047 A 
ATOM      5  C3  UNL d   1      -3.661   5.028  -5.998  0.00  0.00    -0.047 A 
ATOM      6  C4  UNL d   1      -2.292   4.861  -5.999  0.00  0.00    -0.004 A 
ENDROOT
TORSDOF 0
ENDMDL
