MODEL 1
REMARK minimizedAffinity -1.2975837
REMARK minimizedRMSD -1
REMARK  0 active torsions:
REMARK  status: ('A' for Active; 'I' for Inactive)
ROOT
ATOM      1  C   UNL d   1      -5.269   4.098  -5.996  0.00  0.00     0.172 C 
ATOM      2  N   UNL d   1      -3.841   4.310  -5.990  0.00  0.00    -0.070 N 
ATOM      3  C1  UNL d   1      -3.215   5.528  -5.990  0.00  0.00    -0.004 A 
ATOM      4  C2  UNL d   1      -1.855   5.304  -5.983  0.00  0.00    -0.047 A 
ATOM      5  C3  UNL d   1      -1.657   3.903  -5.979  0.00  0.00    -0.047 A 
ATOM      6  C4  UNL d   1      -2.903   3.312  -5.983  0.00  0.00    -0.004 A 
ENDROOT
TORSDOF 0
ENDMDL
