MODEL 1
REMARK minimizedAffinity 0.0884033889
REMARK minimizedRMSD -1
REMARK  0 active torsions:
REMARK  status: ('A' for Active; 'I' for Inactive)
ROOT
ATOM      1  C   UNL d   1       0.216   3.439  -5.981  0.00  0.00     0.172 C 
ATOM      2  N   UNL d   1       1.561   3.488  -5.456  0.00  0.00    -0.070 N 
ATOM      3  C1  UNL d   1       2.605   4.187  -5.999  0.00  0.00    -0.004 A 
ATOM      4  C2  UNL d   1       3.712   3.977  -5.206  0.00  0.00    -0.047 A 
ATOM      5  C3  UNL d   1       3.320   3.121  -4.150  0.00  0.00    -0.047 A 
ATOM      6  C4  UNL d   1       1.983   2.833  -4.329  0.00  0.00    -0.004 A 
ENDROOT
TORSDOF 0
ENDMDL
