MODEL 1
REMARK minimizedAffinity -3.04781175
REMARK minimizedRMSD -1
REMARK  0 active torsions:
REMARK  status: ('A' for Active; 'I' for Inactive)
ROOT
ATOM      1  C   UNL d   1      -1.863   5.550  -4.515  0.00  0.00     0.172 C 
ATOM      2  N   UNL d   1      -3.115   5.055  -5.036  0.00  0.00    -0.070 N 
ATOM      3  C1  UNL d   1      -3.350   3.777  -5.469  0.00  0.00    -0.004 A 
ATOM      4  C2  UNL d   1      -4.662   3.708  -5.888  0.00  0.00    -0.047 A 
ATOM      5  C3  UNL d   1      -5.234   4.988  -5.701  0.00  0.00    -0.047 A 
ATOM      6  C4  UNL d   1      -4.255   5.803  -5.173  0.00  0.00    -0.004 A 
ENDROOT
TORSDOF 0
ENDMDL
