MODEL 1
REMARK minimizedAffinity 3.08895159
REMARK minimizedRMSD -1
REMARK  0 active torsions:
REMARK  status: ('A' for Active; 'I' for Inactive)
ROOT
ATOM      1  C   UNL d   1       1.617   0.546  -6.000  0.00  0.00     0.172 C 
ATOM      2  N   UNL d   1       2.309   1.058  -4.841  0.00  0.00    -0.070 N 
ATOM      3  C1  UNL d   1       2.781   2.335  -4.691  0.00  0.00    -0.004 A 
ATOM      4  C2  UNL d   1       3.377   2.422  -3.451  0.00  0.00    -0.047 A 
ATOM      5  C3  UNL d   1       3.259   1.154  -2.835  0.00  0.00    -0.047 A 
ATOM      6  C4  UNL d   1       2.594   0.328  -3.717  0.00  0.00    -0.004 A 
ENDROOT
TORSDOF 0
ENDMDL
