MODEL 1
REMARK minimizedAffinity 1.3447876
REMARK minimizedRMSD -1
REMARK  0 active torsions:
REMARK  status: ('A' for Active; 'I' for Inactive)
ROOT
ATOM      1  C   UNL d   1      -1.201  -2.834  -2.171  0.00  0.00     0.172 C 
ATOM      2  N   UNL d   1      -0.523  -1.967  -1.237  0.00  0.00    -0.070 N 
ATOM      3  C1  UNL d   1      -1.024  -1.539  -0.036  0.00  0.00    -0.004 A 
ATOM      4  C2  UNL d   1      -0.074  -0.732   0.554  0.00  0.00    -0.047 A 
ATOM      5  C3  UNL d   1       1.035  -0.673  -0.323  0.00  0.00    -0.047 A 
ATOM      6  C4  UNL d   1       0.731  -1.446  -1.423  0.00  0.00    -0.004 A 
ENDROOT
TORSDOF 0
ENDMDL
