MODEL 1
REMARK minimizedAffinity -1.43540037
REMARK minimizedRMSD -1
REMARK  0 active torsions:
REMARK  status: ('A' for Active; 'I' for Inactive)
ROOT
ATOM      1  C   UNL d   1       2.568   3.104   2.256  0.00  0.00     0.172 C 
ATOM      2  N   UNL d   1       1.503   2.554   1.451  0.00  0.00    -0.070 N 
ATOM      3  C1  UNL d   1       1.595   1.440   0.659  0.00  0.00    -0.004 A 
ATOM      4  C2  UNL d   1       0.369   1.247   0.059  0.00  0.00    -0.047 A 
ATOM      5  C3  UNL d   1      -0.488   2.281   0.505  0.00  0.00    -0.047 A 
ATOM      6  C4  UNL d   1       0.240   3.075   1.366  0.00  0.00    -0.004 A 
ENDROOT
TORSDOF 0
ENDMDL
