MODEL 1
REMARK minimizedAffinity -2.18052745
REMARK minimizedRMSD -1
REMARK  0 active torsions:
REMARK  status: ('A' for Active; 'I' for Inactive)
ROOT
ATOM      1  C   UNL d   1      -2.020   2.983  -5.994  0.00  0.00     0.172 C 
ATOM      2  N   UNL d   1      -3.077   3.967  -5.982  0.00  0.00    -0.070 N 
ATOM      3  C1  UNL d   1      -2.903   5.325  -5.952  0.00  0.00    -0.004 A 
ATOM      4  C2  UNL d   1      -4.151   5.910  -5.951  0.00  0.00    -0.047 A 
ATOM      5  C3  UNL d   1      -5.108   4.867  -5.980  0.00  0.00    -0.047 A 
ATOM      6  C4  UNL d   1      -4.415   3.675  -5.999  0.00  0.00    -0.004 A 
ENDROOT
TORSDOF 0
ENDMDL
