MODEL 1
REMARK minimizedAffinity 1.39098644
REMARK minimizedRMSD -1
REMARK  0 active torsions:
REMARK  status: ('A' for Active; 'I' for Inactive)
ROOT
ATOM      1  C   UNL d   1      -2.703   5.927  -5.676  0.00  0.00     0.172 C 
ATOM      2  N   UNL d   1      -3.804   5.000  -5.788  0.00  0.00    -0.070 N 
ATOM      3  C1  UNL d   1      -5.123   5.340  -5.927  0.00  0.00    -0.004 A 
ATOM      4  C2  UNL d   1      -5.855   4.175  -6.000  0.00  0.00    -0.047 A 
ATOM      5  C3  UNL d   1      -4.944   3.096  -5.901  0.00  0.00    -0.047 A 
ATOM      6  C4  UNL d   1      -3.681   3.635  -5.771  0.00  0.00    -0.004 A 
ENDROOT
TORSDOF 0
ENDMDL
