MODEL 1
REMARK minimizedAffinity -0.510475457
REMARK minimizedRMSD -1
REMARK  0 active torsions:
REMARK  status: ('A' for Active; 'I' for Inactive)
ROOT
ATOM      1  C   UNL d   1      -2.451   3.066  -6.000  0.00  0.00     0.172 C 
ATOM      2  N   UNL d   1      -3.631   3.897  -5.999  0.00  0.00    -0.070 N 
ATOM      3  C1  UNL d   1      -3.643   5.266  -5.999  0.00  0.00    -0.004 A 
ATOM      4  C2  UNL d   1      -4.959   5.677  -5.999  0.00  0.00    -0.047 A 
ATOM      5  C3  UNL d   1      -5.765   4.514  -5.999  0.00  0.00    -0.047 A 
ATOM      6  C4  UNL d   1      -4.918   3.427  -5.999  0.00  0.00    -0.004 A 
ENDROOT
TORSDOF 0
ENDMDL
