MODEL 1
REMARK minimizedAffinity -2.07748699
REMARK minimizedRMSD -1
REMARK  0 active torsions:
REMARK  status: ('A' for Active; 'I' for Inactive)
ROOT
ATOM      1  C   UNL d   1      -1.526   5.953  -5.954  0.00  0.00     0.172 C 
ATOM      2  N   UNL d   1      -2.710   5.127  -5.972  0.00  0.00    -0.070 N 
ATOM      3  C1  UNL d   1      -2.728   3.758  -5.981  0.00  0.00    -0.004 A 
ATOM      4  C2  UNL d   1      -4.046   3.353  -5.997  0.00  0.00    -0.047 A 
ATOM      5  C3  UNL d   1      -4.847   4.520  -5.999  0.00  0.00    -0.047 A 
ATOM      6  C4  UNL d   1      -3.995   5.603  -5.983  0.00  0.00    -0.004 A 
ENDROOT
TORSDOF 0
ENDMDL
