MODEL 1
REMARK minimizedAffinity 2.40381837
REMARK minimizedRMSD -1
REMARK  0 active torsions:
REMARK  status: ('A' for Active; 'I' for Inactive)
ROOT
ATOM      1  C   UNL d   1      -1.869   2.618   1.124  0.00  0.00     0.172 C 
ATOM      2  N   UNL d   1      -0.855   2.878   2.119  0.00  0.00    -0.070 N 
ATOM      3  C1  UNL d   1      -1.082   3.095   3.452  0.00  0.00    -0.004 A 
ATOM      4  C2  UNL d   1       0.137   3.302   4.059  0.00  0.00    -0.047 A 
ATOM      5  C3  UNL d   1       1.132   3.207   3.056  0.00  0.00    -0.047 A 
ATOM      6  C4  UNL d   1       0.489   2.944   1.865  0.00  0.00    -0.004 A 
ENDROOT
TORSDOF 0
ENDMDL
