MODEL 1
REMARK minimizedAffinity -1.84639931
REMARK minimizedRMSD -1
REMARK  1 active torsions:
REMARK  status: ('A' for Active; 'I' for Inactive)
REMARK    1  A    between atoms: C1_2  and  C2_3 
ROOT
ATOM      1  C2  UNL d   1      -0.250  -1.004   1.098  0.00  0.00    -0.076 A 
ATOM      2  C3  UNL d   1      -0.622  -2.163   0.397  0.00  0.00     0.004 A 
ATOM      3  C4  UNL d   1       0.333  -2.959  -0.233  0.00  0.00    -0.003 A 
ATOM      4  C5  UNL d   1       1.677  -2.608  -0.170  0.00  0.00     0.000 A 
ATOM      5  C6  UNL d   1       2.067  -1.470   0.536  0.00  0.00     0.000 A 
ATOM      6  C7  UNL d   1       1.117  -0.666   1.190  0.00  0.00    -0.073 A 
ATOM      7  C8  UNL d   1       1.592   0.552   1.933  0.00  0.00     0.078 C 
ENDROOT
BRANCH   1   8
ATOM      8  C1  UNL d   1      -1.334  -0.165   1.738  0.00  0.00     0.053 C 
ATOM      9  C   UNL d   1      -1.984   0.796   0.755  0.00  0.00     0.018 C 
ENDBRANCH   1   8
TORSDOF 1
ENDMDL
