MODEL 1
REMARK minimizedAffinity -0.415406048
REMARK minimizedRMSD -1
REMARK  1 active torsions:
REMARK  status: ('A' for Active; 'I' for Inactive)
REMARK    1  A    between atoms: C1_2  and  C2_3 
ROOT
ATOM      1  C2  UNL d   1       4.462   3.515  -0.629  0.00  0.00    -0.076 A 
ATOM      2  C3  UNL d   1       5.386   4.222  -1.418  0.00  0.00     0.004 A 
ATOM      3  C4  UNL d   1       5.976   5.396  -0.953  0.00  0.00    -0.003 A 
ATOM      4  C5  UNL d   1       5.653   5.881   0.310  0.00  0.00     0.000 A 
ATOM      5  C6  UNL d   1       4.752   5.183   1.113  0.00  0.00     0.000 A 
ATOM      6  C7  UNL d   1       4.160   3.989   0.665  0.00  0.00    -0.073 A 
ATOM      7  C8  UNL d   1       3.190   3.280   1.571  0.00  0.00     0.078 C 
ENDROOT
BRANCH   1   8
ATOM      8  C1  UNL d   1       3.833   2.263  -1.198  0.00  0.00     0.053 C 
ATOM      9  C   UNL d   1       4.176   2.053  -2.664  0.00  0.00     0.018 C 
ENDBRANCH   1   8
TORSDOF 1
ENDMDL
