MODEL 1
REMARK minimizedAffinity -3.71163368
REMARK minimizedRMSD -1
REMARK  1 active torsions:
REMARK  status: ('A' for Active; 'I' for Inactive)
REMARK    1  A    between atoms: C1_2  and  C2_3 
ROOT
ATOM      1  C2  UNL d   1       0.281  -0.671   0.685  0.00  0.00    -0.076 A 
ATOM      2  C3  UNL d   1      -0.234   0.610   0.952  0.00  0.00     0.004 A 
ATOM      3  C4  UNL d   1      -1.251   0.794   1.886  0.00  0.00    -0.003 A 
ATOM      4  C5  UNL d   1      -1.771  -0.299   2.570  0.00  0.00     0.000 A 
ATOM      5  C6  UNL d   1      -1.260  -1.575   2.331  0.00  0.00     0.000 A 
ATOM      6  C7  UNL d   1      -0.223  -1.776   1.404  0.00  0.00    -0.073 A 
ATOM      7  C8  UNL d   1       0.285  -3.174   1.182  0.00  0.00     0.078 C 
ENDROOT
BRANCH   1   8
ATOM      8  C1  UNL d   1       1.365  -0.813  -0.359  0.00  0.00     0.053 C 
ATOM      9  C   UNL d   1       2.711  -1.185   0.246  0.00  0.00     0.018 C 
ENDBRANCH   1   8
TORSDOF 1
ENDMDL
