MODEL 1
REMARK minimizedAffinity 0.752750039
REMARK minimizedRMSD -1
REMARK  1 active torsions:
REMARK  status: ('A' for Active; 'I' for Inactive)
REMARK    1  A    between atoms: C1_2  and  C2_3 
ROOT
ATOM      1  C2  UNL d   1       0.448  -1.091   0.860  0.00  0.00    -0.076 A 
ATOM      2  C3  UNL d   1      -0.684  -1.043   0.028  0.00  0.00     0.004 A 
ATOM      3  C4  UNL d   1      -1.824  -0.335   0.406  0.00  0.00    -0.003 A 
ATOM      4  C5  UNL d   1      -1.849   0.338   1.623  0.00  0.00     0.000 A 
ATOM      5  C6  UNL d   1      -0.728   0.316   2.453  0.00  0.00     0.000 A 
ATOM      6  C7  UNL d   1       0.434  -0.380   2.079  0.00  0.00    -0.073 A 
ATOM      7  C8  UNL d   1       1.611  -0.375   3.015  0.00  0.00     0.078 C 
ENDROOT
BRANCH   1   8
ATOM      8  C1  UNL d   1       1.644  -1.898   0.409  0.00  0.00     0.053 C 
ATOM      9  C   UNL d   1       1.253  -3.253  -0.160  0.00  0.00     0.018 C 
ENDBRANCH   1   8
TORSDOF 1
ENDMDL
