MODEL 1
REMARK minimizedAffinity -2.51732779
REMARK minimizedRMSD -1
REMARK  1 active torsions:
REMARK  status: ('A' for Active; 'I' for Inactive)
REMARK    1  A    between atoms: C1_2  and  C2_3 
ROOT
ATOM      1  C2  UNL d   1       0.849  -0.781   0.791  0.00  0.00    -0.076 A 
ATOM      2  C3  UNL d   1       0.043   0.220   1.359  0.00  0.00     0.004 A 
ATOM      3  C4  UNL d   1      -1.254  -0.059   1.788  0.00  0.00    -0.003 A 
ATOM      4  C5  UNL d   1      -1.765  -1.345   1.655  0.00  0.00     0.000 A 
ATOM      5  C6  UNL d   1      -0.974  -2.355   1.110  0.00  0.00     0.000 A 
ATOM      6  C7  UNL d   1       0.341  -2.094   0.688  0.00  0.00    -0.073 A 
ATOM      7  C8  UNL d   1       1.148  -3.220   0.101  0.00  0.00     0.078 C 
ENDROOT
BRANCH   1   8
ATOM      8  C1  UNL d   1       2.237  -0.413   0.319  0.00  0.00     0.053 C 
ATOM      9  C   UNL d   1       3.011   0.387   1.355  0.00  0.00     0.018 C 
ENDBRANCH   1   8
TORSDOF 1
ENDMDL
