MODEL 1
REMARK minimizedAffinity 0.438864946
REMARK minimizedRMSD -1
REMARK  1 active torsions:
REMARK  status: ('A' for Active; 'I' for Inactive)
REMARK    1  A    between atoms: C1_2  and  C2_3 
ROOT
ATOM      1  C2  UNL d   1       0.407  -1.866  -0.116  0.00  0.00    -0.076 A 
ATOM      2  C3  UNL d   1      -0.806  -1.382   0.404  0.00  0.00     0.004 A 
ATOM      3  C4  UNL d   1      -0.822  -0.435   1.426  0.00  0.00    -0.003 A 
ATOM      4  C5  UNL d   1       0.376   0.044   1.946  0.00  0.00     0.000 A 
ATOM      5  C6  UNL d   1       1.589  -0.413   1.431  0.00  0.00     0.000 A 
ATOM      6  C7  UNL d   1       1.622  -1.355   0.389  0.00  0.00    -0.073 A 
ATOM      7  C8  UNL d   1       2.958  -1.817  -0.125  0.00  0.00     0.078 C 
ENDROOT
BRANCH   1   8
ATOM      8  C1  UNL d   1       0.361  -2.913  -1.206  0.00  0.00     0.053 C 
ATOM      9  C   UNL d   1       0.326  -2.303  -2.598  0.00  0.00     0.018 C 
ENDBRANCH   1   8
TORSDOF 1
ENDMDL
