MODEL 1
REMARK minimizedAffinity 2.96971273
REMARK minimizedRMSD -1
REMARK  1 active torsions:
REMARK  status: ('A' for Active; 'I' for Inactive)
REMARK    1  A    between atoms: C1_2  and  C2_3 
ROOT
ATOM      1  C2  UNL d   1      -0.442  -0.368   1.005  0.00  0.00    -0.076 A 
ATOM      2  C3  UNL d   1      -0.860  -1.057  -0.146  0.00  0.00     0.004 A 
ATOM      3  C4  UNL d   1      -0.007  -1.944  -0.801  0.00  0.00    -0.003 A 
ATOM      4  C5  UNL d   1       1.277  -2.158  -0.314  0.00  0.00     0.000 A 
ATOM      5  C6  UNL d   1       1.703  -1.496   0.838  0.00  0.00     0.000 A 
ATOM      6  C7  UNL d   1       0.850  -0.611   1.519  0.00  0.00    -0.073 A 
ATOM      7  C8  UNL d   1       1.363   0.080   2.753  0.00  0.00     0.078 C 
ENDROOT
BRANCH   1   8
ATOM      8  C1  UNL d   1      -1.401   0.602   1.657  0.00  0.00     0.053 C 
ATOM      9  C   UNL d   1      -2.619   0.888   0.792  0.00  0.00     0.018 C 
ENDBRANCH   1   8
TORSDOF 1
ENDMDL
