MODEL 1
REMARK minimizedAffinity 0.245472193
REMARK minimizedRMSD -1
REMARK  1 active torsions:
REMARK  status: ('A' for Active; 'I' for Inactive)
REMARK    1  A    between atoms: C1_2  and  C2_3 
ROOT
ATOM      1  C2  UNL d   1       0.521  -2.067   0.595  0.00  0.00    -0.076 A 
ATOM      2  C3  UNL d   1       0.633  -3.194  -0.237  0.00  0.00     0.004 A 
ATOM      3  C4  UNL d   1       1.865  -3.574  -0.768  0.00  0.00    -0.003 A 
ATOM      4  C5  UNL d   1       3.004  -2.832  -0.475  0.00  0.00     0.000 A 
ATOM      5  C6  UNL d   1       2.914  -1.721   0.362  0.00  0.00     0.000 A 
ATOM      6  C7  UNL d   1       1.682  -1.334   0.919  0.00  0.00    -0.073 A 
ATOM      7  C8  UNL d   1       1.642  -0.124   1.811  0.00  0.00     0.078 C 
ENDROOT
BRANCH   1   8
ATOM      8  C1  UNL d   1      -0.846  -1.688   1.120  0.00  0.00     0.053 C 
ATOM      9  C   UNL d   1      -1.452  -0.511   0.371  0.00  0.00     0.018 C 
ENDBRANCH   1   8
TORSDOF 1
ENDMDL
