MODEL 1
REMARK minimizedAffinity -2.81261921
REMARK minimizedRMSD -1
REMARK  1 active torsions:
REMARK  status: ('A' for Active; 'I' for Inactive)
REMARK    1  A    between atoms: C1_2  and  C2_3 
ROOT
ATOM      1  C2  UNL d   1       0.271  -1.149   1.611  0.00  0.00    -0.076 A 
ATOM      2  C3  UNL d   1       1.228  -1.438   2.599  0.00  0.00     0.004 A 
ATOM      3  C4  UNL d   1       1.060  -0.998   3.911  0.00  0.00    -0.003 A 
ATOM      4  C5  UNL d   1      -0.068  -0.263   4.256  0.00  0.00     0.000 A 
ATOM      5  C6  UNL d   1      -1.037   0.018   3.293  0.00  0.00     0.000 A 
ATOM      6  C7  UNL d   1      -0.890  -0.432   1.969  0.00  0.00    -0.073 A 
ATOM      7  C8  UNL d   1      -1.963  -0.095   0.970  0.00  0.00     0.078 C 
ENDROOT
BRANCH   1   8
ATOM      8  C1  UNL d   1       0.520  -1.629   0.199  0.00  0.00     0.053 C 
ATOM      9  C   UNL d   1       0.128  -3.085   0.000  0.00  0.00     0.018 C 
ENDBRANCH   1   8
TORSDOF 1
ENDMDL
