MODEL 1
REMARK minimizedAffinity -1.08571339
REMARK minimizedRMSD -1
REMARK  1 active torsions:
REMARK  status: ('A' for Active; 'I' for Inactive)
REMARK    1  A    between atoms: C1_2  and  C2_3 
ROOT
ATOM      1  C2  UNL d   1       0.624  -2.392   0.054  0.00  0.00    -0.076 A 
ATOM      2  C3  UNL d   1      -0.650  -2.686   0.570  0.00  0.00     0.004 A 
ATOM      3  C4  UNL d   1      -1.377  -1.729   1.276  0.00  0.00    -0.003 A 
ATOM      4  C5  UNL d   1      -0.841  -0.461   1.477  0.00  0.00     0.000 A 
ATOM      5  C6  UNL d   1       0.414  -0.147   0.957  0.00  0.00     0.000 A 
ATOM      6  C7  UNL d   1       1.153  -1.095   0.229  0.00  0.00    -0.073 A 
ATOM      7  C8  UNL d   1       2.504  -0.703  -0.303  0.00  0.00     0.078 C 
ENDROOT
BRANCH   1   8
ATOM      8  C1  UNL d   1       1.377  -3.478  -0.680  0.00  0.00     0.053 C 
ATOM      9  C   UNL d   1       0.652  -3.946  -1.932  0.00  0.00     0.018 C 
ENDBRANCH   1   8
TORSDOF 1
ENDMDL
