MODEL 1
REMARK minimizedAffinity 4.07381916
REMARK minimizedRMSD -1
REMARK  1 active torsions:
REMARK  status: ('A' for Active; 'I' for Inactive)
REMARK    1  A    between atoms: C1_2  and  C2_3 
ROOT
ATOM      1  C2  UNL d   1       0.652  -1.422   0.728  0.00  0.00    -0.076 A 
ATOM      2  C3  UNL d   1      -0.691  -1.573   0.340  0.00  0.00     0.004 A 
ATOM      3  C4  UNL d   1      -1.706  -0.861   0.977  0.00  0.00    -0.003 A 
ATOM      4  C5  UNL d   1      -1.395   0.014   2.012  0.00  0.00     0.000 A 
ATOM      5  C6  UNL d   1      -0.067   0.190   2.398  0.00  0.00     0.000 A 
ATOM      6  C7  UNL d   1       0.970  -0.508   1.756  0.00  0.00    -0.073 A 
ATOM      7  C8  UNL d   1       2.385  -0.285   2.217  0.00  0.00     0.078 C 
ENDROOT
BRANCH   1   8
ATOM      8  C1  UNL d   1       1.707  -2.241   0.020  0.00  0.00     0.053 C 
ATOM      9  C   UNL d   1       1.163  -3.558  -0.511  0.00  0.00     0.018 C 
ENDBRANCH   1   8
TORSDOF 1
ENDMDL
