MODEL 1
REMARK minimizedAffinity 0.967498899
REMARK minimizedRMSD -1
REMARK  1 active torsions:
REMARK  status: ('A' for Active; 'I' for Inactive)
REMARK    1  A    between atoms: C1_2  and  C2_3 
ROOT
ATOM      1  C2  UNL d   1       1.603  -1.618   0.279  0.00  0.00    -0.076 A 
ATOM      2  C3  UNL d   1       1.588  -0.582   1.229  0.00  0.00     0.004 A 
ATOM      3  C4  UNL d   1       0.386  -0.020   1.658  0.00  0.00    -0.003 A 
ATOM      4  C5  UNL d   1      -0.819  -0.485   1.144  0.00  0.00     0.000 A 
ATOM      5  C6  UNL d   1      -0.823  -1.523   0.213  0.00  0.00     0.000 A 
ATOM      6  C7  UNL d   1       0.378  -2.112  -0.218  0.00  0.00    -0.073 A 
ATOM      7  C8  UNL d   1       0.315  -3.225  -1.228  0.00  0.00     0.078 C 
ENDROOT
BRANCH   1   8
ATOM      8  C1  UNL d   1       2.938  -2.170  -0.169  0.00  0.00     0.053 C 
ATOM      9  C   UNL d   1       2.958  -3.690  -0.199  0.00  0.00     0.018 C 
ENDBRANCH   1   8
TORSDOF 1
ENDMDL
