MODEL 1
REMARK minimizedAffinity 8.94642544
REMARK minimizedRMSD -1
REMARK  1 active torsions:
REMARK  status: ('A' for Active; 'I' for Inactive)
REMARK    1  A    between atoms: C1_2  and  C2_3 
ROOT
ATOM      1  C2  UNL d   1       0.477  -0.960   1.466  0.00  0.00    -0.076 A 
ATOM      2  C3  UNL d   1      -0.164  -0.744   2.699  0.00  0.00     0.004 A 
ATOM      3  C4  UNL d   1       0.556  -0.336   3.820  0.00  0.00    -0.003 A 
ATOM      4  C5  UNL d   1       1.929  -0.134   3.727  0.00  0.00     0.000 A 
ATOM      5  C6  UNL d   1       2.578  -0.326   2.508  0.00  0.00     0.000 A 
ATOM      6  C7  UNL d   1       1.865  -0.723   1.364  0.00  0.00    -0.073 A 
ATOM      7  C8  UNL d   1       2.617  -0.921   0.076  0.00  0.00     0.078 C 
ENDROOT
BRANCH   1   8
ATOM      8  C1  UNL d   1      -0.351  -1.429   0.292  0.00  0.00     0.053 C 
ATOM      9  C   UNL d   1      -0.367  -2.944   0.159  0.00  0.00     0.018 C 
ENDBRANCH   1   8
TORSDOF 1
ENDMDL
