MODEL 1
REMARK minimizedAffinity 4.42923546
REMARK minimizedRMSD -1
REMARK  1 active torsions:
REMARK  status: ('A' for Active; 'I' for Inactive)
REMARK    1  A    between atoms: C1_2  and  C2_3 
ROOT
ATOM      1  C2  UNL d   1       1.457  -1.173  -0.576  0.00  0.00    -0.076 A 
ATOM      2  C3  UNL d   1       0.944  -1.956  -1.625  0.00  0.00     0.004 A 
ATOM      3  C4  UNL d   1      -0.196  -2.737  -1.446  0.00  0.00    -0.003 A 
ATOM      4  C5  UNL d   1      -0.843  -2.746  -0.215  0.00  0.00     0.000 A 
ATOM      5  C6  UNL d   1      -0.359  -1.962   0.831  0.00  0.00     0.000 A 
ATOM      6  C7  UNL d   1       0.781  -1.157   0.662  0.00  0.00    -0.073 A 
ATOM      7  C8  UNL d   1       1.263  -0.335   1.826  0.00  0.00     0.078 C 
ENDROOT
BRANCH   1   8
ATOM      8  C1  UNL d   1       2.713  -0.367  -0.821  0.00  0.00     0.053 C 
ATOM      9  C   UNL d   1       2.696   0.346  -2.164  0.00  0.00     0.018 C 
ENDBRANCH   1   8
TORSDOF 1
ENDMDL
