MODEL 1
REMARK minimizedAffinity 2.89764428
REMARK minimizedRMSD -1
REMARK  1 active torsions:
REMARK  status: ('A' for Active; 'I' for Inactive)
REMARK    1  A    between atoms: C1_2  and  C2_3 
ROOT
ATOM      1  C2  UNL d   1       1.442   4.385  -3.711  0.00  0.00    -0.076 A 
ATOM      2  C3  UNL d   1       2.218   3.383  -3.104  0.00  0.00     0.004 A 
ATOM      3  C4  UNL d   1       3.366   2.891  -3.723  0.00  0.00    -0.003 A 
ATOM      4  C5  UNL d   1       3.756   3.393  -4.960  0.00  0.00     0.000 A 
ATOM      5  C6  UNL d   1       3.007   4.400  -5.568  0.00  0.00     0.000 A 
ATOM      6  C7  UNL d   1       1.856   4.919  -4.950  0.00  0.00    -0.073 A 
ATOM      7  C8  UNL d   1       1.083   5.999  -5.654  0.00  0.00     0.078 C 
ENDROOT
BRANCH   1   8
ATOM      8  C1  UNL d   1       0.192   4.861  -3.004  0.00  0.00     0.053 C 
ATOM      9  C   UNL d   1      -0.498   5.997  -3.743  0.00  0.00     0.018 C 
ENDBRANCH   1   8
TORSDOF 1
ENDMDL
