MODEL 1
REMARK minimizedAffinity -3.92863059
REMARK minimizedRMSD -1
REMARK  1 active torsions:
REMARK  status: ('A' for Active; 'I' for Inactive)
REMARK    1  A    between atoms: C1_2  and  C2_3 
ROOT
ATOM      1  C2  UNL d   1       1.575   0.653   0.494  0.00  0.00    -0.076 A 
ATOM      2  C3  UNL d   1       0.953  -0.606   0.572  0.00  0.00     0.004 A 
ATOM      3  C4  UNL d   1      -0.391  -0.763   0.241  0.00  0.00    -0.003 A 
ATOM      4  C5  UNL d   1      -1.136   0.335  -0.174  0.00  0.00     0.000 A 
ATOM      5  C6  UNL d   1      -0.532   1.588  -0.274  0.00  0.00     0.000 A 
ATOM      6  C7  UNL d   1       0.827   1.761   0.041  0.00  0.00    -0.073 A 
ATOM      7  C8  UNL d   1       1.427   3.135  -0.079  0.00  0.00     0.078 C 
ENDROOT
BRANCH   1   8
ATOM      8  C1  UNL d   1       3.029   0.768   0.892  0.00  0.00     0.053 C 
ATOM      9  C   UNL d   1       3.879  -0.359   0.325  0.00  0.00     0.018 C 
ENDBRANCH   1   8
TORSDOF 1
ENDMDL
