MODEL 1
REMARK minimizedAffinity -3.78454733
REMARK minimizedRMSD -1
REMARK  1 active torsions:
REMARK  status: ('A' for Active; 'I' for Inactive)
REMARK    1  A    between atoms: C1_2  and  C2_3 
ROOT
ATOM      1  C2  UNL d   1       2.306   0.280   2.097  0.00  0.00    -0.076 A 
ATOM      2  C3  UNL d   1       2.430   1.495   2.793  0.00  0.00     0.004 A 
ATOM      3  C4  UNL d   1       2.396   1.531   4.186  0.00  0.00    -0.003 A 
ATOM      4  C5  UNL d   1       2.238   0.352   4.906  0.00  0.00     0.000 A 
ATOM      5  C6  UNL d   1       2.131  -0.864   4.233  0.00  0.00     0.000 A 
ATOM      6  C7  UNL d   1       2.180  -0.920   2.830  0.00  0.00    -0.073 A 
ATOM      7  C8  UNL d   1       2.054  -2.259   2.156  0.00  0.00     0.078 C 
ENDROOT
BRANCH   1   8
ATOM      8  C1  UNL d   1       2.323   0.306   0.586  0.00  0.00     0.053 C 
ATOM      9  C   UNL d   1       1.371   1.342   0.010  0.00  0.00     0.018 C 
ENDBRANCH   1   8
TORSDOF 1
ENDMDL
