MODEL 1
REMARK minimizedAffinity -3.45028234
REMARK minimizedRMSD -1
REMARK  1 active torsions:
REMARK  status: ('A' for Active; 'I' for Inactive)
REMARK    1  A    between atoms: C1_2  and  C2_3 
ROOT
ATOM      1  C2  UNL d   1      -0.016   0.146   0.198  0.00  0.00    -0.076 A 
ATOM      2  C3  UNL d   1       0.485   1.411  -0.156  0.00  0.00     0.004 A 
ATOM      3  C4  UNL d   1       1.799   1.771   0.141  0.00  0.00    -0.003 A 
ATOM      4  C5  UNL d   1       2.633   0.871   0.795  0.00  0.00     0.000 A 
ATOM      5  C6  UNL d   1       2.158  -0.394   1.137  0.00  0.00     0.000 A 
ATOM      6  C7  UNL d   1       0.842  -0.779   0.831  0.00  0.00    -0.073 A 
ATOM      7  C8  UNL d   1       0.380  -2.154   1.229  0.00  0.00     0.078 C 
ENDROOT
BRANCH   1   8
ATOM      8  C1  UNL d   1      -1.457  -0.178  -0.125  0.00  0.00     0.053 C 
ATOM      9  C   UNL d   1      -1.910   0.429  -1.443  0.00  0.00     0.018 C 
ENDBRANCH   1   8
TORSDOF 1
ENDMDL
