MODEL 1
REMARK minimizedAffinity -2.51910472
REMARK minimizedRMSD -1
REMARK  1 active torsions:
REMARK  status: ('A' for Active; 'I' for Inactive)
REMARK    1  A    between atoms: C1_2  and  C2_3 
ROOT
ATOM      1  C2  UNL d   1      -1.000  -0.148   0.179  0.00  0.00    -0.076 A 
ATOM      2  C3  UNL d   1      -0.734  -1.494   0.483  0.00  0.00     0.004 A 
ATOM      3  C4  UNL d   1       0.550  -1.911   0.833  0.00  0.00    -0.003 A 
ATOM      4  C5  UNL d   1       1.588  -0.987   0.884  0.00  0.00     0.000 A 
ATOM      5  C6  UNL d   1       1.339   0.355   0.602  0.00  0.00     0.000 A 
ATOM      6  C7  UNL d   1       0.047   0.795   0.264  0.00  0.00    -0.073 A 
ATOM      7  C8  UNL d   1      -0.163   2.253  -0.036  0.00  0.00     0.078 C 
ENDROOT
BRANCH   1   8
ATOM      8  C1  UNL d   1      -2.405   0.241  -0.220  0.00  0.00     0.053 C 
ATOM      9  C   UNL d   1      -2.747  -0.185  -1.640  0.00  0.00     0.018 C 
ENDBRANCH   1   8
TORSDOF 1
ENDMDL
