MODEL 1
REMARK minimizedAffinity 0.576843739
REMARK minimizedRMSD -1
REMARK  1 active torsions:
REMARK  status: ('A' for Active; 'I' for Inactive)
REMARK    1  A    between atoms: C1_2  and  C2_3 
ROOT
ATOM      1  C2  UNL d   1      -0.917   0.010  -0.560  0.00  0.00    -0.076 A 
ATOM      2  C3  UNL d   1       0.190   0.732  -1.039  0.00  0.00     0.004 A 
ATOM      3  C4  UNL d   1       1.380   0.783  -0.316  0.00  0.00    -0.003 A 
ATOM      4  C5  UNL d   1       1.484   0.112   0.897  0.00  0.00     0.000 A 
ATOM      5  C6  UNL d   1       0.402  -0.624   1.379  0.00  0.00     0.000 A 
ATOM      6  C7  UNL d   1      -0.800  -0.699   0.654  0.00  0.00    -0.073 A 
ATOM      7  C8  UNL d   1      -1.937  -1.503   1.224  0.00  0.00     0.078 C 
ENDROOT
BRANCH   1   8
ATOM      8  C1  UNL d   1      -2.191   0.013  -1.375  0.00  0.00     0.053 C 
ATOM      9  C   UNL d   1      -2.079  -0.830  -2.636  0.00  0.00     0.018 C 
ENDBRANCH   1   8
TORSDOF 1
ENDMDL
