MODEL 1
REMARK minimizedAffinity 2.56839108
REMARK minimizedRMSD -1
REMARK  1 active torsions:
REMARK  status: ('A' for Active; 'I' for Inactive)
REMARK    1  A    between atoms: C1_2  and  C2_3 
ROOT
ATOM      1  C2  UNL d   1       1.688   0.909   1.742  0.00  0.00    -0.076 A 
ATOM      2  C3  UNL d   1       2.631  -0.128   1.850  0.00  0.00     0.004 A 
ATOM      3  C4  UNL d   1       2.373  -1.391   1.319  0.00  0.00    -0.003 A 
ATOM      4  C5  UNL d   1       1.168  -1.637   0.671  0.00  0.00     0.000 A 
ATOM      5  C6  UNL d   1       0.228  -0.615   0.540  0.00  0.00     0.000 A 
ATOM      6  C7  UNL d   1       0.479   0.668   1.055  0.00  0.00    -0.073 A 
ATOM      7  C8  UNL d   1      -0.573   1.731   0.891  0.00  0.00     0.078 C 
ENDROOT
BRANCH   1   8
ATOM      8  C1  UNL d   1       2.012   2.249   2.362  0.00  0.00     0.053 C 
ATOM      9  C   UNL d   1       2.660   2.117   3.731  0.00  0.00     0.018 C 
ENDBRANCH   1   8
TORSDOF 1
ENDMDL
