MODEL 1
REMARK minimizedAffinity -0.241461307
REMARK minimizedRMSD -1
REMARK  0 active torsions:
REMARK  status: ('A' for Active; 'I' for Inactive)
ROOT
ATOM      1  N1  IND d   1       0.004  -1.604  -2.235  0.00  0.00    -0.196 N 
ATOM      2  C2  IND d   1       0.607  -0.446  -2.638  0.00  0.00     0.054 A 
ATOM      3  C3  IND d   1       0.525   0.490  -1.666  0.00  0.00    -0.031 A 
ATOM      4  C4  IND d   1      -0.464   0.304   0.703  0.00  0.00     0.051 A 
ATOM      5  C5  IND d   1      -1.160  -0.546   1.517  0.00  0.00    -0.031 A 
ATOM      6  C6  IND d   1      -1.507  -1.819   1.114  0.00  0.00     0.015 A 
ATOM      7  C7  IND d   1      -1.161  -2.295  -0.119  0.00  0.00    -0.016 A 
ATOM      8  C8  IND d   1      -0.461  -1.433  -0.950  0.00  0.00    -0.047 A 
ATOM      9  C9  IND d   1      -0.143  -0.125  -0.563  0.00  0.00    -0.096 A 
ATOM     10  HN1 IND d   1      -0.073  -2.320  -2.706  0.00  0.00     0.298 HD
ENDROOT
TORSDOF 0
ENDMDL
