MODEL 1
REMARK minimizedAffinity -3.86396909
REMARK minimizedRMSD -1
REMARK  0 active torsions:
REMARK  status: ('A' for Active; 'I' for Inactive)
ROOT
ATOM      1  N1  IND d   1       0.238   0.429   0.049  0.00  0.00    -0.196 N 
ATOM      2  C2  IND d   1      -0.555   0.808   1.095  0.00  0.00     0.054 A 
ATOM      3  C3  IND d   1      -1.243  -0.254   1.573  0.00  0.00    -0.031 A 
ATOM      4  C4  IND d   1      -1.144  -2.724   0.854  0.00  0.00     0.051 A 
ATOM      5  C5  IND d   1      -0.592  -3.552  -0.082  0.00  0.00    -0.031 A 
ATOM      6  C6  IND d   1       0.285  -3.087  -1.041  0.00  0.00     0.015 A 
ATOM      7  C7  IND d   1       0.653  -1.772  -1.092  0.00  0.00    -0.016 A 
ATOM      8  C8  IND d   1       0.089  -0.927  -0.146  0.00  0.00    -0.047 A 
ATOM      9  C9  IND d   1      -0.834  -1.385   0.802  0.00  0.00    -0.096 A 
ATOM     10  HN1 IND d   1       0.746   0.949  -0.410  0.00  0.00     0.298 HD
ENDROOT
TORSDOF 0
ENDMDL
