MODEL 1
REMARK minimizedAffinity -2.26724291
REMARK minimizedRMSD -1
REMARK  0 active torsions:
REMARK  status: ('A' for Active; 'I' for Inactive)
ROOT
ATOM      1  N1  IND d   1      -0.738  -2.889  -1.936  0.00  0.00    -0.196 N 
ATOM      2  C2  IND d   1      -0.085  -1.906  -2.626  0.00  0.00     0.054 A 
ATOM      3  C3  IND d   1       0.042  -0.799  -1.860  0.00  0.00    -0.031 A 
ATOM      4  C4  IND d   1      -0.658  -0.415   0.587  0.00  0.00     0.051 A 
ATOM      5  C5  IND d   1      -1.322  -1.008   1.624  0.00  0.00    -0.031 A 
ATOM      6  C6  IND d   1      -1.833  -2.286   1.526  0.00  0.00     0.015 A 
ATOM      7  C7  IND d   1      -1.689  -3.026   0.386  0.00  0.00    -0.016 A 
ATOM      8  C8  IND d   1      -1.021  -2.423  -0.671  0.00  0.00    -0.047 A 
ATOM      9  C9  IND d   1      -0.537  -1.111  -0.592  0.00  0.00    -0.096 A 
ATOM     10  HN1 IND d   1      -0.938  -3.668  -2.241  0.00  0.00     0.298 HD
ENDROOT
TORSDOF 0
ENDMDL
