MODEL 1
REMARK minimizedAffinity -5.45024014
REMARK minimizedRMSD -1
REMARK  0 active torsions:
REMARK  status: ('A' for Active; 'I' for Inactive)
ROOT
ATOM      1  N1  IND d   1      -1.718   0.317   0.642  0.00  0.00    -0.196 N 
ATOM      2  C2  IND d   1      -0.938   1.344   0.186  0.00  0.00     0.054 A 
ATOM      3  C3  IND d   1       0.291   0.890  -0.145  0.00  0.00    -0.031 A 
ATOM      4  C4  IND d   1       1.209  -1.516  -0.117  0.00  0.00     0.051 A 
ATOM      5  C5  IND d   1       0.881  -2.789   0.256  0.00  0.00    -0.031 A 
ATOM      6  C6  IND d   1      -0.356  -3.099   0.784  0.00  0.00     0.015 A 
ATOM      7  C7  IND d   1      -1.319  -2.144   0.950  0.00  0.00    -0.016 A 
ATOM      8  C8  IND d   1      -0.987  -0.849   0.579  0.00  0.00    -0.047 A 
ATOM      9  C9  IND d   1       0.281  -0.521   0.082  0.00  0.00    -0.096 A 
ATOM     10  HN1 IND d   1      -2.528   0.388   0.921  0.00  0.00     0.298 HD
ENDROOT
TORSDOF 0
ENDMDL
