MODEL 1
REMARK minimizedAffinity -4.08887291
REMARK minimizedRMSD -1
REMARK  0 active torsions:
REMARK  status: ('A' for Active; 'I' for Inactive)
ROOT
ATOM      1  N1  IND d   1       1.646  -0.414  -0.340  0.00  0.00    -0.196 N 
ATOM      2  C2  IND d   1       1.185   0.868  -0.233  0.00  0.00     0.054 A 
ATOM      3  C3  IND d   1      -0.115   0.870   0.139  0.00  0.00    -0.031 A 
ATOM      4  C4  IND d   1      -1.652  -1.110   0.724  0.00  0.00     0.051 A 
ATOM      5  C5  IND d   1      -1.691  -2.476   0.738  0.00  0.00    -0.031 A 
ATOM      6  C6  IND d   1      -0.596  -3.240   0.389  0.00  0.00     0.015 A 
ATOM      7  C7  IND d   1       0.587  -2.664   0.023  0.00  0.00    -0.016 A 
ATOM      8  C8  IND d   1       0.628  -1.277  -0.000  0.00  0.00    -0.047 A 
ATOM      9  C9  IND d   1      -0.493  -0.496   0.312  0.00  0.00    -0.096 A 
ATOM     10  HN1 IND d   1       2.440  -0.643  -0.580  0.00  0.00     0.298 HD
ENDROOT
TORSDOF 0
ENDMDL
