MODEL 1
REMARK minimizedAffinity -4.60959291
REMARK minimizedRMSD -1
REMARK  0 active torsions:
REMARK  status: ('A' for Active; 'I' for Inactive)
ROOT
ATOM      1  N1  IND d   1       1.005  -0.104  -0.877  0.00  0.00    -0.196 N 
ATOM      2  C2  IND d   1       0.596   1.157  -0.543  0.00  0.00     0.054 A 
ATOM      3  C3  IND d   1      -0.509   1.103   0.234  0.00  0.00    -0.031 A 
ATOM      4  C4  IND d   1      -1.754  -0.949   1.166  0.00  0.00     0.051 A 
ATOM      5  C5  IND d   1      -1.776  -2.314   1.106  0.00  0.00    -0.031 A 
ATOM      6  C6  IND d   1      -0.852  -3.027   0.369  0.00  0.00     0.015 A 
ATOM      7  C7  IND d   1       0.140  -2.399  -0.329  0.00  0.00    -0.016 A 
ATOM      8  C8  IND d   1       0.161  -1.012  -0.276  0.00  0.00    -0.047 A 
ATOM      9  C9  IND d   1      -0.799  -0.282   0.435  0.00  0.00    -0.096 A 
ATOM     10  HN1 IND d   1       1.677  -0.297  -1.378  0.00  0.00     0.298 HD
ENDROOT
TORSDOF 0
ENDMDL
