MODEL 1
REMARK minimizedAffinity -3.17516375
REMARK minimizedRMSD -1
REMARK  0 active torsions:
REMARK  status: ('A' for Active; 'I' for Inactive)
ROOT
ATOM      1  N1  IND d   1       0.921   1.828  -0.090  0.00  0.00    -0.196 N 
ATOM      2  C2  IND d   1       0.747   1.774   1.265  0.00  0.00     0.054 A 
ATOM      3  C3  IND d   1       0.436   0.516   1.650  0.00  0.00    -0.031 A 
ATOM      4  C4  IND d   1       0.258  -1.629   0.237  0.00  0.00     0.051 A 
ATOM      5  C5  IND d   1       0.296  -2.075  -1.054  0.00  0.00    -0.031 A 
ATOM      6  C6  IND d   1       0.552  -1.225  -2.111  0.00  0.00     0.015 A 
ATOM      7  C7  IND d   1       0.792   0.105  -1.914  0.00  0.00    -0.016 A 
ATOM      8  C8  IND d   1       0.747   0.562  -0.605  0.00  0.00    -0.047 A 
ATOM      9  C9  IND d   1       0.446  -0.287   0.468  0.00  0.00    -0.096 A 
ATOM     10  HN1 IND d   1       1.107   2.534  -0.544  0.00  0.00     0.298 HD
ENDROOT
TORSDOF 0
ENDMDL
