MODEL 1
REMARK minimizedAffinity -4.77643156
REMARK minimizedRMSD -1
REMARK  0 active torsions:
REMARK  status: ('A' for Active; 'I' for Inactive)
ROOT
ATOM      1  N1  IND d   1      -1.853  -2.594   2.153  0.00  0.00    -0.196 N 
ATOM      2  C2  IND d   1      -2.061  -1.477   2.913  0.00  0.00     0.054 A 
ATOM      3  C3  IND d   1      -1.371  -0.430   2.409  0.00  0.00    -0.031 A 
ATOM      4  C4  IND d   1       0.082  -0.297   0.288  0.00  0.00     0.051 A 
ATOM      5  C5  IND d   1       0.600  -1.069  -0.713  0.00  0.00    -0.031 A 
ATOM      6  C6  IND d   1       0.319  -2.417  -0.813  0.00  0.00     0.015 A 
ATOM      7  C7  IND d   1      -0.503  -3.042   0.081  0.00  0.00    -0.016 A 
ATOM      8  C8  IND d   1      -1.025  -2.262   1.103  0.00  0.00    -0.047 A 
ATOM      9  C9  IND d   1      -0.710  -0.903   1.235  0.00  0.00    -0.096 A 
ATOM     10  HN1 IND d   1      -2.183  -3.374   2.305  0.00  0.00     0.298 HD
ENDROOT
TORSDOF 0
ENDMDL
