MODEL 1
REMARK minimizedAffinity -1.76913416
REMARK minimizedRMSD -1
REMARK  0 active torsions:
REMARK  status: ('A' for Active; 'I' for Inactive)
ROOT
ATOM      1  N1  IND d   1       0.538   5.155   2.848  0.00  0.00    -0.196 N 
ATOM      2  C2  IND d   1      -0.801   5.035   3.100  0.00  0.00     0.054 A 
ATOM      3  C3  IND d   1      -1.364   4.153   2.244  0.00  0.00    -0.031 A 
ATOM      4  C4  IND d   1      -0.259   2.716   0.416  0.00  0.00     0.051 A 
ATOM      5  C5  IND d   1       0.935   2.504  -0.213  0.00  0.00    -0.031 A 
ATOM      6  C6  IND d   1       2.082   3.177   0.155  0.00  0.00     0.015 A 
ATOM      7  C7  IND d   1       2.080   4.082   1.179  0.00  0.00    -0.016 A 
ATOM      8  C8  IND d   1       0.867   4.304   1.815  0.00  0.00    -0.047 A 
ATOM      9  C9  IND d   1      -0.310   3.656   1.417  0.00  0.00    -0.096 A 
ATOM     10  HN1 IND d   1       1.082   5.674   3.264  0.00  0.00     0.298 HD
ENDROOT
TORSDOF 0
ENDMDL
