MODEL 1
REMARK minimizedAffinity -4.39500666
REMARK minimizedRMSD -1
REMARK  0 active torsions:
REMARK  status: ('A' for Active; 'I' for Inactive)
ROOT
ATOM      1  N1  IND d   1      -0.155   0.857   0.280  0.00  0.00    -0.196 N 
ATOM      2  C2  IND d   1       0.871   0.850  -0.624  0.00  0.00     0.054 A 
ATOM      3  C3  IND d   1       1.272  -0.417  -0.871  0.00  0.00    -0.031 A 
ATOM      4  C4  IND d   1       0.319  -2.637   0.019  0.00  0.00     0.051 A 
ATOM      5  C5  IND d   1      -0.598  -3.140   0.898  0.00  0.00    -0.031 A 
ATOM      6  C6  IND d   1      -1.433  -2.320   1.629  0.00  0.00     0.015 A 
ATOM      7  C7  IND d   1      -1.390  -0.961   1.499  0.00  0.00    -0.016 A 
ATOM      8  C8  IND d   1      -0.455  -0.446   0.612  0.00  0.00    -0.047 A 
ATOM      9  C9  IND d   1       0.424  -1.271  -0.101  0.00  0.00    -0.096 A 
ATOM     10  HN1 IND d   1      -0.547   1.557   0.589  0.00  0.00     0.298 HD
ENDROOT
TORSDOF 0
ENDMDL
