MODEL 1
REMARK minimizedAffinity -4.09325266
REMARK minimizedRMSD -1
REMARK  0 active torsions:
REMARK  status: ('A' for Active; 'I' for Inactive)
ROOT
ATOM      1  N1  IND d   1      -1.703  -2.452   0.749  0.00  0.00    -0.196 N 
ATOM      2  C2  IND d   1      -0.746  -3.429   0.755  0.00  0.00     0.054 A 
ATOM      3  C3  IND d   1       0.479  -2.888   0.567  0.00  0.00    -0.031 A 
ATOM      4  C4  IND d   1       1.157  -0.416   0.327  0.00  0.00     0.051 A 
ATOM      5  C5  IND d   1       0.629   0.840   0.222  0.00  0.00    -0.031 A 
ATOM      6  C6  IND d   1      -0.730   1.068   0.292  0.00  0.00     0.015 A 
ATOM      7  C7  IND d   1      -1.615   0.045   0.481  0.00  0.00    -0.016 A 
ATOM      8  C8  IND d   1      -1.084  -1.233   0.581  0.00  0.00    -0.047 A 
ATOM      9  C9  IND d   1       0.291  -1.476   0.468  0.00  0.00    -0.096 A 
ATOM     10  HN1 IND d   1      -2.549  -2.578   0.835  0.00  0.00     0.298 HD
ENDROOT
TORSDOF 0
ENDMDL
