MODEL 1
REMARK minimizedAffinity -4.58859587
REMARK minimizedRMSD -1
REMARK  0 active torsions:
REMARK  status: ('A' for Active; 'I' for Inactive)
ROOT
ATOM      1  N1  IND d   1       0.035  -0.418  -2.087  0.00  0.00    -0.196 N 
ATOM      2  C2  IND d   1       0.294  -1.631  -2.663  0.00  0.00     0.054 A 
ATOM      3  C3  IND d   1      -0.100  -2.633  -1.846  0.00  0.00    -0.031 A 
ATOM      4  C4  IND d   1      -1.288  -2.513   0.435  0.00  0.00     0.051 A 
ATOM      5  C5  IND d   1      -1.704  -1.626   1.387  0.00  0.00    -0.031 A 
ATOM      6  C6  IND d   1      -1.561  -0.263   1.226  0.00  0.00     0.015 A 
ATOM      7  C7  IND d   1      -1.005   0.266   0.096  0.00  0.00    -0.016 A 
ATOM      8  C8  IND d   1      -0.575  -0.632  -0.870  0.00  0.00    -0.047 A 
ATOM      9  C9  IND d   1      -0.678  -2.018  -0.694  0.00  0.00    -0.096 A 
ATOM     10  HN1 IND d   1       0.221   0.349  -2.428  0.00  0.00     0.298 HD
ENDROOT
TORSDOF 0
ENDMDL
