MODEL 1
REMARK minimizedAffinity -3.32783556
REMARK minimizedRMSD -1
REMARK  0 active torsions:
REMARK  status: ('A' for Active; 'I' for Inactive)
ROOT
ATOM      1  N1  IND d   1      -1.789  -0.131   1.052  0.00  0.00    -0.196 N 
ATOM      2  C2  IND d   1      -2.535  -0.927   1.876  0.00  0.00     0.054 A 
ATOM      3  C3  IND d   1      -2.016  -2.175   1.919  0.00  0.00    -0.031 A 
ATOM      4  C4  IND d   1       0.107  -3.104   0.798  0.00  0.00     0.051 A 
ATOM      5  C5  IND d   1       1.098  -2.765  -0.080  0.00  0.00    -0.031 A 
ATOM      6  C6  IND d   1       1.180  -1.504  -0.635  0.00  0.00     0.015 A 
ATOM      7  C7  IND d   1       0.277  -0.527  -0.322  0.00  0.00    -0.016 A 
ATOM      8  C8  IND d   1      -0.735  -0.870   0.564  0.00  0.00    -0.047 A 
ATOM      9  C9  IND d   1      -0.848  -2.161   1.097  0.00  0.00    -0.096 A 
ATOM     10  HN1 IND d   1      -1.952   0.694   0.869  0.00  0.00     0.298 HD
ENDROOT
TORSDOF 0
ENDMDL
