MODEL 1
REMARK minimizedAffinity -2.4782567
REMARK minimizedRMSD -1
REMARK  0 active torsions:
REMARK  status: ('A' for Active; 'I' for Inactive)
ROOT
ATOM      1  N1  IND d   1       1.666  -0.451  -0.194  0.00  0.00    -0.196 N 
ATOM      2  C2  IND d   1       1.313   0.853   0.013  0.00  0.00     0.054 A 
ATOM      3  C3  IND d   1       0.051   0.929   0.491  0.00  0.00    -0.031 A 
ATOM      4  C4  IND d   1      -1.582  -0.965   1.105  0.00  0.00     0.051 A 
ATOM      5  C5  IND d   1      -1.723  -2.323   1.056  0.00  0.00    -0.031 A 
ATOM      6  C6  IND d   1      -0.721  -3.144   0.581  0.00  0.00     0.015 A 
ATOM      7  C7  IND d   1       0.470  -2.635   0.146  0.00  0.00    -0.016 A 
ATOM      8  C8  IND d   1       0.615  -1.256   0.187  0.00  0.00    -0.047 A 
ATOM      9  C9  IND d   1      -0.415  -0.415   0.628  0.00  0.00    -0.096 A 
ATOM     10  HN1 IND d   1       2.418  -0.724  -0.510  0.00  0.00     0.298 HD
ENDROOT
TORSDOF 0
ENDMDL
