MODEL 1
REMARK minimizedAffinity -4.83710098
REMARK minimizedRMSD -1
REMARK  0 active torsions:
REMARK  status: ('A' for Active; 'I' for Inactive)
ROOT
ATOM      1  N1  IND d   1      -0.661   0.793   0.613  0.00  0.00    -0.196 N 
ATOM      2  C2  IND d   1      -0.190   1.637  -0.354  0.00  0.00     0.054 A 
ATOM      3  C3  IND d   1       0.508   0.945  -1.283  0.00  0.00    -0.031 A 
ATOM      4  C4  IND d   1       0.918  -1.589  -1.469  0.00  0.00     0.051 A 
ATOM      5  C5  IND d   1       0.717  -2.765  -0.802  0.00  0.00    -0.031 A 
ATOM      6  C6  IND d   1       0.030  -2.816   0.394  0.00  0.00     0.015 A 
ATOM      7  C7  IND d   1      -0.494  -1.690   0.964  0.00  0.00    -0.016 A 
ATOM      8  C8  IND d   1      -0.285  -0.493   0.292  0.00  0.00    -0.047 A 
ATOM      9  C9  IND d   1       0.448  -0.429  -0.900  0.00  0.00    -0.096 A 
ATOM     10  HN1 IND d   1      -1.115   1.026   1.305  0.00  0.00     0.298 HD
ENDROOT
TORSDOF 0
ENDMDL
