MODEL 1
REMARK minimizedAffinity -3.55629754
REMARK minimizedRMSD -1
REMARK  0 active torsions:
REMARK  status: ('A' for Active; 'I' for Inactive)
ROOT
ATOM      1  N1  IND d   1      -0.406  -0.465   2.009  0.00  0.00    -0.196 N 
ATOM      2  C2  IND d   1      -0.993  -1.652   1.670  0.00  0.00     0.054 A 
ATOM      3  C3  IND d   1      -1.107  -1.753   0.326  0.00  0.00    -0.031 A 
ATOM      4  C4  IND d   1      -0.303  -0.137  -1.510  0.00  0.00     0.051 A 
ATOM      5  C5  IND d   1       0.257   1.096  -1.689  0.00  0.00    -0.031 A 
ATOM      6  C6  IND d   1       0.635   1.887  -0.623  0.00  0.00     0.015 A 
ATOM      7  C7  IND d   1       0.477   1.467   0.667  0.00  0.00    -0.016 A 
ATOM      8  C8  IND d   1      -0.099   0.218   0.853  0.00  0.00    -0.047 A 
ATOM      9  C9  IND d   1      -0.523  -0.571  -0.223  0.00  0.00    -0.096 A 
ATOM     10  HN1 IND d   1      -0.254  -0.191   2.810  0.00  0.00     0.298 HD
ENDROOT
TORSDOF 0
ENDMDL
