MODEL 1
REMARK minimizedAffinity 7.13813257
REMARK minimizedRMSD -1
REMARK  0 active torsions:
REMARK  status: ('A' for Active; 'I' for Inactive)
ROOT
ATOM      1  C   UNL d   1       1.823  -1.710  -0.024  0.00  0.00     0.077 C 
ATOM      2  C1  UNL d   1       0.751  -1.565   1.014  0.00  0.00    -0.074 A 
ATOM      3  C2  UNL d   1       1.012  -1.837   2.361  0.00  0.00    -0.005 A 
ATOM      4  C3  UNL d   1       0.007  -1.688   3.317  0.00  0.00     0.006 A 
ATOM      5  C4  UNL d   1      -1.267  -1.266   2.936  0.00  0.00    -0.005 A 
ATOM      6  C5  UNL d   1      -1.547  -0.988   1.594  0.00  0.00    -0.074 A 
ATOM      7  C6  UNL d   1      -2.909  -0.524   1.170  0.00  0.00     0.077 C 
ATOM      8  C7  UNL d   1      -0.530  -1.133   0.641  0.00  0.00    -0.001 A 
ENDROOT
TORSDOF 0
ENDMDL
