MODEL 1
REMARK minimizedAffinity 3.54869032
REMARK minimizedRMSD -1
REMARK  0 active torsions:
REMARK  status: ('A' for Active; 'I' for Inactive)
ROOT
ATOM      1  C   UNL d   1      -1.112  -0.512  -1.610  0.00  0.00     0.077 C 
ATOM      2  C1  UNL d   1      -1.137   0.746  -2.425  0.00  0.00    -0.074 A 
ATOM      3  C2  UNL d   1      -1.510   1.967  -1.853  0.00  0.00    -0.005 A 
ATOM      4  C3  UNL d   1      -1.519   3.131  -2.621  0.00  0.00     0.006 A 
ATOM      5  C4  UNL d   1      -1.154   3.087  -3.967  0.00  0.00    -0.005 A 
ATOM      6  C5  UNL d   1      -0.777   1.876  -4.557  0.00  0.00    -0.074 A 
ATOM      7  C6  UNL d   1      -0.373   1.813  -6.000  0.00  0.00     0.077 C 
ATOM      8  C7  UNL d   1      -0.764   0.712  -3.776  0.00  0.00    -0.001 A 
ENDROOT
TORSDOF 0
ENDMDL
