MODEL 1
REMARK minimizedAffinity 11.2332458
REMARK minimizedRMSD -1
REMARK  0 active torsions:
REMARK  status: ('A' for Active; 'I' for Inactive)
ROOT
ATOM      1  C   UNL d   1       2.752  -5.143   1.618  0.00  0.00     0.077 C 
ATOM      2  C1  UNL d   1       2.171  -3.769   1.464  0.00  0.00    -0.074 A 
ATOM      3  C2  UNL d   1       2.599  -2.918   0.440  0.00  0.00    -0.005 A 
ATOM      4  C3  UNL d   1       2.042  -1.646   0.304  0.00  0.00     0.006 A 
ATOM      5  C4  UNL d   1       1.054  -1.213   1.189  0.00  0.00    -0.005 A 
ATOM      6  C5  UNL d   1       0.613  -2.051   2.219  0.00  0.00    -0.074 A 
ATOM      7  C6  UNL d   1      -0.456  -1.605   3.172  0.00  0.00     0.077 C 
ATOM      8  C7  UNL d   1       1.172  -3.330   2.344  0.00  0.00    -0.001 A 
ENDROOT
TORSDOF 0
ENDMDL
