MODEL 1
REMARK minimizedAffinity 9.67292786
REMARK minimizedRMSD -1
REMARK  0 active torsions:
REMARK  status: ('A' for Active; 'I' for Inactive)
ROOT
ATOM      1  C   UNL d   1      -3.374   0.860   1.898  0.00  0.00     0.077 C 
ATOM      2  C1  UNL d   1      -2.303   0.037   2.549  0.00  0.00    -0.074 A 
ATOM      3  C2  UNL d   1      -1.036   0.573   2.799  0.00  0.00    -0.005 A 
ATOM      4  C3  UNL d   1      -0.053  -0.201   3.414  0.00  0.00     0.006 A 
ATOM      5  C4  UNL d   1      -0.326  -1.519   3.784  0.00  0.00    -0.005 A 
ATOM      6  C5  UNL d   1      -1.587  -2.073   3.543  0.00  0.00    -0.074 A 
ATOM      7  C6  UNL d   1      -1.900  -3.484   3.943  0.00  0.00     0.077 C 
ATOM      8  C7  UNL d   1      -2.572  -1.285   2.931  0.00  0.00    -0.001 A 
ENDROOT
TORSDOF 0
ENDMDL
