MODEL 1
REMARK minimizedAffinity 2.7795856
REMARK minimizedRMSD -1
REMARK  0 active torsions:
REMARK  status: ('A' for Active; 'I' for Inactive)
ROOT
ATOM      1  C   UNL d   1       2.596  -5.229   1.916  0.00  0.00     0.077 C 
ATOM      2  C1  UNL d   1       1.998  -3.860   1.783  0.00  0.00    -0.074 A 
ATOM      3  C2  UNL d   1       2.492  -2.948   0.845  0.00  0.00    -0.005 A 
ATOM      4  C3  UNL d   1       1.919  -1.682   0.726  0.00  0.00     0.006 A 
ATOM      5  C4  UNL d   1       0.849  -1.316   1.542  0.00  0.00    -0.005 A 
ATOM      6  C5  UNL d   1       0.341  -2.214   2.486  0.00  0.00    -0.074 A 
ATOM      7  C6  UNL d   1      -0.815  -1.840   3.364  0.00  0.00     0.077 C 
ATOM      8  C7  UNL d   1       0.917  -3.487   2.594  0.00  0.00    -0.001 A 
ENDROOT
TORSDOF 0
ENDMDL
