MODEL 1
REMARK minimizedAffinity 9.9212656
REMARK minimizedRMSD -1
REMARK  0 active torsions:
REMARK  status: ('A' for Active; 'I' for Inactive)
ROOT
ATOM      1  C   UNL d   1       0.924  -1.489   1.091  0.00  0.00     0.077 C 
ATOM      2  C1  UNL d   1       1.624  -2.706   1.618  0.00  0.00    -0.074 A 
ATOM      3  C2  UNL d   1       1.454  -3.953   1.008  0.00  0.00    -0.005 A 
ATOM      4  C3  UNL d   1       2.119  -5.075   1.503  0.00  0.00     0.006 A 
ATOM      5  C4  UNL d   1       2.959  -4.961   2.612  0.00  0.00    -0.005 A 
ATOM      6  C5  UNL d   1       3.142  -3.722   3.234  0.00  0.00    -0.074 A 
ATOM      7  C6  UNL d   1       4.048  -3.580   4.421  0.00  0.00     0.077 C 
ATOM      8  C7  UNL d   1       2.476  -2.598   2.726  0.00  0.00    -0.001 A 
ENDROOT
TORSDOF 0
ENDMDL
