MODEL 1
REMARK minimizedAffinity 5.95625496
REMARK minimizedRMSD -1
REMARK  0 active torsions:
REMARK  status: ('A' for Active; 'I' for Inactive)
ROOT
ATOM      1  C   UNL d   1       4.099  -4.672   4.984  0.00  0.00     0.077 C 
ATOM      2  C1  UNL d   1       3.256  -4.132   3.867  0.00  0.00    -0.074 A 
ATOM      3  C2  UNL d   1       3.384  -4.629   2.565  0.00  0.00    -0.005 A 
ATOM      4  C3  UNL d   1       2.586  -4.124   1.539  0.00  0.00     0.006 A 
ATOM      5  C4  UNL d   1       1.654  -3.119   1.802  0.00  0.00    -0.005 A 
ATOM      6  C5  UNL d   1       1.512  -2.611   3.097  0.00  0.00    -0.074 A 
ATOM      7  C6  UNL d   1       0.509  -1.537   3.400  0.00  0.00     0.077 C 
ATOM      8  C7  UNL d   1       2.313  -3.128   4.125  0.00  0.00    -0.001 A 
ENDROOT
TORSDOF 0
ENDMDL
