MODEL 1
REMARK minimizedAffinity 2.30181432
REMARK minimizedRMSD -1
REMARK  0 active torsions:
REMARK  status: ('A' for Active; 'I' for Inactive)
ROOT
ATOM      1  C   UNL d   1      -0.458  -1.347   3.561  0.00  0.00     0.077 C 
ATOM      2  C1  UNL d   1       0.459  -1.894   2.508  0.00  0.00    -0.074 A 
ATOM      3  C2  UNL d   1       1.265  -3.008   2.765  0.00  0.00    -0.005 A 
ATOM      4  C3  UNL d   1       2.107  -3.510   1.773  0.00  0.00     0.006 A 
ATOM      5  C4  UNL d   1       2.152  -2.905   0.516  0.00  0.00    -0.005 A 
ATOM      6  C5  UNL d   1       1.352  -1.791   0.241  0.00  0.00    -0.074 A 
ATOM      7  C6  UNL d   1       1.381  -1.135  -1.107  0.00  0.00     0.077 C 
ATOM      8  C7  UNL d   1       0.504  -1.296   1.241  0.00  0.00    -0.001 A 
ENDROOT
TORSDOF 0
ENDMDL
