MODEL 1
REMARK minimizedAffinity 7.60218573
REMARK minimizedRMSD -1
REMARK  0 active torsions:
REMARK  status: ('A' for Active; 'I' for Inactive)
ROOT
ATOM      1  C   UNL d   1       3.020  -4.222   0.560  0.00  0.00     0.077 C 
ATOM      2  C1  UNL d   1       2.601  -3.161   1.534  0.00  0.00    -0.074 A 
ATOM      3  C2  UNL d   1       1.556  -2.282   1.233  0.00  0.00    -0.005 A 
ATOM      4  C3  UNL d   1       1.171  -1.306   2.152  0.00  0.00     0.006 A 
ATOM      5  C4  UNL d   1       1.825  -1.200   3.380  0.00  0.00    -0.005 A 
ATOM      6  C5  UNL d   1       2.872  -2.071   3.698  0.00  0.00    -0.074 A 
ATOM      7  C6  UNL d   1       3.580  -1.977   5.017  0.00  0.00     0.077 C 
ATOM      8  C7  UNL d   1       3.248  -3.053   2.772  0.00  0.00    -0.001 A 
ENDROOT
TORSDOF 0
ENDMDL
