MODEL 1
REMARK minimizedAffinity 6.58123589
REMARK minimizedRMSD -1
REMARK  0 active torsions:
REMARK  status: ('A' for Active; 'I' for Inactive)
ROOT
ATOM      1  C4' PXY d   1       3.417  -3.470  -0.371  0.00  0.00     0.077 C 
ATOM      2  C1' PXY d   1      -1.635  -2.292   2.179  0.00  0.00     0.077 C 
ATOM      3  C1  PXY d   1      -0.307  -2.589   1.511  0.00  0.00    -0.082 A 
ATOM      4  C2  PXY d   1      -0.192  -3.647   0.726  0.00  0.00     0.003 A 
ATOM      5  C3  PXY d   1       1.011  -3.948   0.139  0.00  0.00     0.003 A 
ATOM      6  C4  PXY d   1       2.092  -3.127   0.316  0.00  0.00    -0.082 A 
ATOM      7  C5  PXY d   1       1.980  -2.039   1.108  0.00  0.00     0.003 A 
ATOM      8  C6  PXY d   1       0.762  -1.774   1.727  0.00  0.00     0.003 A 
ENDROOT
TORSDOF 0
ENDMDL
