MODEL 1
REMARK minimizedAffinity 8.07598019
REMARK minimizedRMSD -1
REMARK  0 active torsions:
REMARK  status: ('A' for Active; 'I' for Inactive)
ROOT
ATOM      1  C4' PXY d   1      -1.154   3.772  -4.866  0.00  0.00     0.077 C 
ATOM      2  C1' PXY d   1      -4.123   1.998  -0.235  0.00  0.00     0.077 C 
ATOM      3  C1  PXY d   1      -3.348   2.453  -1.456  0.00  0.00    -0.082 A 
ATOM      4  C2  PXY d   1      -2.314   3.265  -1.310  0.00  0.00     0.003 A 
ATOM      5  C3  PXY d   1      -1.622   3.711  -2.406  0.00  0.00     0.003 A 
ATOM      6  C4  PXY d   1      -1.959   3.280  -3.661  0.00  0.00    -0.082 A 
ATOM      7  C5  PXY d   1      -3.007   2.443  -3.818  0.00  0.00     0.003 A 
ATOM      8  C6  PXY d   1      -3.722   2.034  -2.696  0.00  0.00     0.003 A 
ENDROOT
TORSDOF 0
ENDMDL
