MODEL 1
REMARK minimizedAffinity 12.0240784
REMARK minimizedRMSD -1
REMARK  0 active torsions:
REMARK  status: ('A' for Active; 'I' for Inactive)
ROOT
ATOM      1  C4' PXY d   1       6.000  -4.642   0.338  0.00  0.00     0.077 C 
ATOM      2  C1' PXY d   1       0.497  -2.874   0.270  0.00  0.00     0.077 C 
ATOM      3  C1  PXY d   1       1.941  -3.332   0.300  0.00  0.00    -0.082 A 
ATOM      4  C2  PXY d   1       2.582  -3.551  -0.837  0.00  0.00     0.003 A 
ATOM      5  C3  PXY d   1       3.878  -3.996  -0.828  0.00  0.00     0.003 A 
ATOM      6  C4  PXY d   1       4.543  -4.169   0.356  0.00  0.00    -0.082 A 
ATOM      7  C5  PXY d   1       3.900  -3.938   1.520  0.00  0.00     0.003 A 
ATOM      8  C6  PXY d   1       2.571  -3.526   1.490  0.00  0.00     0.003 A 
ENDROOT
TORSDOF 0
ENDMDL
