MODEL 1
REMARK minimizedAffinity 8.51582909
REMARK minimizedRMSD -1
REMARK  0 active torsions:
REMARK  status: ('A' for Active; 'I' for Inactive)
ROOT
ATOM      1  C4' PXY d   1       1.124   3.424  -6.000  0.00  0.00     0.077 C 
ATOM      2  C1' PXY d   1      -3.696   2.550  -2.930  0.00  0.00     0.077 C 
ATOM      3  C1  PXY d   1      -2.426   2.770  -3.728  0.00  0.00    -0.082 A 
ATOM      4  C2  PXY d   1      -2.193   3.952  -4.275  0.00  0.00     0.003 A 
ATOM      5  C3  PXY d   1      -1.065   4.158  -5.027  0.00  0.00     0.003 A 
ATOM      6  C4  PXY d   1      -0.140   3.160  -5.177  0.00  0.00    -0.082 A 
ATOM      7  C5  PXY d   1      -0.366   1.954  -4.614  0.00  0.00     0.003 A 
ATOM      8  C6  PXY d   1      -1.536   1.752  -3.888  0.00  0.00     0.003 A 
ENDROOT
TORSDOF 0
ENDMDL
