MODEL 1
REMARK minimizedAffinity 3.83074379
REMARK minimizedRMSD -1
REMARK  0 active torsions:
REMARK  status: ('A' for Active; 'I' for Inactive)
ROOT
ATOM      1  C4' PXY d   1       0.114   3.782  -5.997  0.00  0.00     0.077 C 
ATOM      2  C1' PXY d   1      -4.346   2.529  -2.540  0.00  0.00     0.077 C 
ATOM      3  C1  PXY d   1      -3.185   2.863  -3.455  0.00  0.00    -0.082 A 
ATOM      4  C2  PXY d   1      -2.083   2.132  -3.407  0.00  0.00     0.003 A 
ATOM      5  C3  PXY d   1      -1.011   2.441  -4.205  0.00  0.00     0.003 A 
ATOM      6  C4  PXY d   1      -1.087   3.475  -5.099  0.00  0.00    -0.082 A 
ATOM      7  C5  PXY d   1      -2.212   4.219  -5.161  0.00  0.00     0.003 A 
ATOM      8  C6  PXY d   1      -3.274   3.915  -4.313  0.00  0.00     0.003 A 
ENDROOT
TORSDOF 0
ENDMDL
