MODEL 1
REMARK minimizedAffinity 3.0150063
REMARK minimizedRMSD -1
REMARK  0 active torsions:
REMARK  status: ('A' for Active; 'I' for Inactive)
ROOT
ATOM      1  C4' PXY d   1       1.978   3.080  -5.989  0.00  0.00     0.077 C 
ATOM      2  C1' PXY d   1      -1.879  -0.363  -3.403  0.00  0.00     0.077 C 
ATOM      3  C1  PXY d   1      -0.877   0.547  -4.086  0.00  0.00    -0.082 A 
ATOM      4  C2  PXY d   1       0.345   0.104  -4.335  0.00  0.00     0.003 A 
ATOM      5  C3  PXY d   1       1.273   0.924  -4.923  0.00  0.00     0.003 A 
ATOM      6  C4  PXY d   1       0.931   2.193  -5.309  0.00  0.00    -0.082 A 
ATOM      7  C5  PXY d   1      -0.317   2.648  -5.069  0.00  0.00     0.003 A 
ATOM      8  C6  PXY d   1      -1.232   1.813  -4.434  0.00  0.00     0.003 A 
ENDROOT
TORSDOF 0
ENDMDL
