MODEL 1
REMARK minimizedAffinity 7.47947884
REMARK minimizedRMSD -1
REMARK  1 active torsions:
REMARK  status: ('A' for Active; 'I' for Inactive)
REMARK    1  A    between atoms: C3_4  and  O_7 
ROOT
ATOM      1  C   UNL d   1      -0.756  -0.763   5.999  0.00  0.00    -0.033 A 
ATOM      2  C1  UNL d   1      -1.437  -1.135   4.838  0.00  0.00     0.039 A 
ATOM      3  C2  UNL d   1      -0.816  -1.017   3.593  0.00  0.00    -0.080 A 
ATOM      4  C3  UNL d   1       0.485  -0.527   3.523  0.00  0.00     0.150 A 
ATOM      5  C4  UNL d   1       1.171  -0.158   4.675  0.00  0.00    -0.007 A 
ATOM      6  C5  UNL d   1       0.549  -0.276   5.917  0.00  0.00     0.039 A 
ENDROOT
BRANCH   4   7
ATOM      7  O   UNL d   1       1.131  -0.389   2.330  0.00  0.00    -0.526 OA
ATOM      8  H5  UNL d   1       0.524  -0.656   1.619  0.00  0.00     0.418 HD
ENDBRANCH   4   7
TORSDOF 1
ENDMDL
