MODEL 1
REMARK minimizedAffinity 9.75710201
REMARK minimizedRMSD -1
REMARK  1 active torsions:
REMARK  status: ('A' for Active; 'I' for Inactive)
REMARK    1  A    between atoms: C3_4  and  O_7 
ROOT
ATOM      1  C   UNL d   1      -3.308  -2.794   3.491  0.00  0.00    -0.033 A 
ATOM      2  C1  UNL d   1      -4.396  -2.475   2.676  0.00  0.00     0.039 A 
ATOM      3  C2  UNL d   1      -4.572  -3.130   1.455  0.00  0.00    -0.080 A 
ATOM      4  C3  UNL d   1      -3.655  -4.101   1.062  0.00  0.00     0.150 A 
ATOM      5  C4  UNL d   1      -2.570  -4.425   1.871  0.00  0.00    -0.007 A 
ATOM      6  C5  UNL d   1      -2.396  -3.770   3.089  0.00  0.00     0.039 A 
ENDROOT
BRANCH   4   7
ATOM      7  O   UNL d   1      -3.782  -4.763  -0.122  0.00  0.00    -0.526 OA
ATOM      8  H5  UNL d   1      -4.560  -4.414  -0.588  0.00  0.00     0.418 HD
ENDBRANCH   4   7
TORSDOF 1
ENDMDL
