MODEL 1
REMARK minimizedAffinity 1.127226
REMARK minimizedRMSD -1
REMARK  1 active torsions:
REMARK  status: ('A' for Active; 'I' for Inactive)
REMARK    1  A    between atoms: C3_4  and  O_7 
ROOT
ATOM      1  C   UNL d   1       0.381  -6.000  -4.036  0.00  0.00    -0.033 A 
ATOM      2  C1  UNL d   1       1.054  -6.000  -5.260  0.00  0.00     0.039 A 
ATOM      3  C2  UNL d   1       1.971  -4.988  -5.554  0.00  0.00    -0.080 A 
ATOM      4  C3  UNL d   1       2.206  -3.986  -4.618  0.00  0.00     0.150 A 
ATOM      5  C4  UNL d   1       1.543  -3.982  -3.395  0.00  0.00    -0.007 A 
ATOM      6  C5  UNL d   1       0.627  -4.992  -3.103  0.00  0.00     0.039 A 
ENDROOT
BRANCH   4   7
ATOM      7  O   UNL d   1       3.088  -2.975  -4.862  0.00  0.00    -0.526 OA
ATOM      8  H5  UNL d   1       3.450  -3.092  -5.757  0.00  0.00     0.418 HD
ENDBRANCH   4   7
TORSDOF 1
ENDMDL
