MODEL 1
REMARK minimizedAffinity 0.652444363
REMARK minimizedRMSD -1
REMARK  1 active torsions:
REMARK  status: ('A' for Active; 'I' for Inactive)
REMARK    1  A    between atoms: C3_4  and  O_7 
ROOT
ATOM      1  C   UNL d   1       2.355  -5.997  -5.129  0.00  0.00    -0.033 A 
ATOM      2  C1  UNL d   1       2.333  -5.984  -3.733  0.00  0.00     0.039 A 
ATOM      3  C2  UNL d   1       1.353  -5.257  -3.055  0.00  0.00    -0.080 A 
ATOM      4  C3  UNL d   1       0.401  -4.549  -3.783  0.00  0.00     0.150 A 
ATOM      5  C4  UNL d   1       0.414  -4.561  -5.174  0.00  0.00    -0.007 A 
ATOM      6  C5  UNL d   1       1.394  -5.286  -5.849  0.00  0.00     0.039 A 
ENDROOT
BRANCH   4   7
ATOM      7  O   UNL d   1      -0.573  -3.822  -3.165  0.00  0.00    -0.526 OA
ATOM      8  H5  UNL d   1      -0.440  -3.883  -2.205  0.00  0.00     0.418 HD
ENDBRANCH   4   7
TORSDOF 1
ENDMDL
