MODEL 1
REMARK minimizedAffinity 9.63504314
REMARK minimizedRMSD -1
REMARK  1 active torsions:
REMARK  status: ('A' for Active; 'I' for Inactive)
REMARK    1  A    between atoms: C3_4  and  O_7 
ROOT
ATOM      1  C   UNL d   1      -0.183   2.564  -1.117  0.00  0.00    -0.033 A 
ATOM      2  C1  UNL d   1       1.132   2.919  -1.423  0.00  0.00     0.039 A 
ATOM      3  C2  UNL d   1       1.694   4.070  -0.869  0.00  0.00    -0.080 A 
ATOM      4  C3  UNL d   1       0.931   4.857  -0.009  0.00  0.00     0.150 A 
ATOM      5  C4  UNL d   1      -0.378   4.507   0.303  0.00  0.00    -0.007 A 
ATOM      6  C5  UNL d   1      -0.938   3.358  -0.252  0.00  0.00     0.039 A 
ENDROOT
BRANCH   4   7
ATOM      7  O   UNL d   1       1.435   5.992   0.553  0.00  0.00    -0.526 OA
ATOM      8  H5  UNL d   1       2.340   6.123   0.224  0.00  0.00     0.418 HD
ENDBRANCH   4   7
TORSDOF 1
ENDMDL
