MODEL 1
REMARK minimizedAffinity 1.23755014
REMARK minimizedRMSD -1
REMARK  1 active torsions:
REMARK  status: ('A' for Active; 'I' for Inactive)
REMARK    1  A    between atoms: C3_4  and  O_7 
ROOT
ATOM      1  C   UNL d   1      -1.097  -1.893   5.411  0.00  0.00    -0.033 A 
ATOM      2  C1  UNL d   1      -1.393  -2.696   4.307  0.00  0.00     0.039 A 
ATOM      3  C2  UNL d   1      -0.662  -2.559   3.126  0.00  0.00    -0.080 A 
ATOM      4  C3  UNL d   1       0.361  -1.618   3.061  0.00  0.00     0.150 A 
ATOM      5  C4  UNL d   1       0.665  -0.817   4.157  0.00  0.00    -0.007 A 
ATOM      6  C5  UNL d   1      -0.067  -0.955   5.336  0.00  0.00     0.039 A 
ENDROOT
BRANCH   4   7
ATOM      7  O   UNL d   1       1.099  -1.444   1.927  0.00  0.00    -0.526 OA
ATOM      8  H5  UNL d   1       0.759  -2.045   1.244  0.00  0.00     0.418 HD
ENDBRANCH   4   7
TORSDOF 1
ENDMDL
