MODEL 1
REMARK minimizedAffinity 4.45402193
REMARK minimizedRMSD -1
REMARK  1 active torsions:
REMARK  status: ('A' for Active; 'I' for Inactive)
REMARK    1  A    between atoms: C3_4  and  O_7 
ROOT
ATOM      1  C   UNL d   1       1.358  -0.499   1.671  0.00  0.00    -0.033 A 
ATOM      2  C1  UNL d   1       1.364  -1.856   1.345  0.00  0.00     0.039 A 
ATOM      3  C2  UNL d   1       2.452  -2.408   0.666  0.00  0.00    -0.080 A 
ATOM      4  C3  UNL d   1       3.526  -1.592   0.319  0.00  0.00     0.150 A 
ATOM      5  C4  UNL d   1       3.528  -0.240   0.644  0.00  0.00    -0.007 A 
ATOM      6  C5  UNL d   1       2.440   0.309   1.321  0.00  0.00     0.039 A 
ENDROOT
BRANCH   4   7
ATOM      7  O   UNL d   1       4.608  -2.084  -0.349  0.00  0.00    -0.526 OA
ATOM      8  H5  UNL d   1       4.455  -3.027  -0.531  0.00  0.00     0.418 HD
ENDBRANCH   4   7
TORSDOF 1
ENDMDL
