MODEL 1
REMARK minimizedAffinity 9.86524773
REMARK minimizedRMSD -1
REMARK  1 active torsions:
REMARK  status: ('A' for Active; 'I' for Inactive)
REMARK    1  A    between atoms: C3_4  and  O_7 
ROOT
ATOM      1  C   UNL d   1       1.487  -3.010   1.375  0.00  0.00    -0.033 A 
ATOM      2  C1  UNL d   1       2.009  -1.758   1.706  0.00  0.00     0.039 A 
ATOM      3  C2  UNL d   1       3.096  -1.243   0.998  0.00  0.00    -0.080 A 
ATOM      4  C3  UNL d   1       3.651  -1.989  -0.038  0.00  0.00     0.150 A 
ATOM      5  C4  UNL d   1       3.135  -3.235  -0.376  0.00  0.00    -0.007 A 
ATOM      6  C5  UNL d   1       2.049  -3.748   0.333  0.00  0.00     0.039 A 
ENDROOT
BRANCH   4   7
ATOM      7  O   UNL d   1       4.716  -1.530  -0.755  0.00  0.00    -0.526 OA
ATOM      8  H5  UNL d   1       4.984  -0.670  -0.392  0.00  0.00     0.418 HD
ENDBRANCH   4   7
TORSDOF 1
ENDMDL
