MODEL 1
REMARK minimizedAffinity 1.94800723
REMARK minimizedRMSD -1
REMARK  1 active torsions:
REMARK  status: ('A' for Active; 'I' for Inactive)
REMARK    1  A    between atoms: C3_4  and  O_7 
ROOT
ATOM      1  C   UNL d   1      -4.882  -4.877   4.107  0.00  0.00    -0.033 A 
ATOM      2  C1  UNL d   1      -5.272  -6.000   3.375  0.00  0.00     0.039 A 
ATOM      3  C2  UNL d   1      -5.291  -5.954   1.980  0.00  0.00    -0.080 A 
ATOM      4  C3  UNL d   1      -4.917  -4.782   1.329  0.00  0.00     0.150 A 
ATOM      5  C4  UNL d   1      -4.523  -3.661   2.052  0.00  0.00    -0.007 A 
ATOM      6  C5  UNL d   1      -4.505  -3.707   3.445  0.00  0.00     0.039 A 
ENDROOT
BRANCH   4   7
ATOM      7  O   UNL d   1      -4.924  -4.688  -0.031  0.00  0.00    -0.526 OA
ATOM      8  H5  UNL d   1      -5.245  -5.530  -0.396  0.00  0.00     0.418 HD
ENDBRANCH   4   7
TORSDOF 1
ENDMDL
