MODEL 1
REMARK minimizedAffinity -4.95261002
REMARK minimizedRMSD -1
REMARK  1 active torsions:
REMARK  status: ('A' for Active; 'I' for Inactive)
REMARK    1  A    between atoms: C3_4  and  O_7 
ROOT
ATOM      1  C   UNL d   1       0.641  -0.696   2.508  0.00  0.00    -0.033 A 
ATOM      2  C1  UNL d   1      -0.195  -1.796   2.309  0.00  0.00     0.039 A 
ATOM      3  C2  UNL d   1       0.317  -2.975   1.765  0.00  0.00    -0.080 A 
ATOM      4  C3  UNL d   1       1.665  -3.041   1.424  0.00  0.00     0.150 A 
ATOM      5  C4  UNL d   1       2.505  -1.950   1.622  0.00  0.00    -0.007 A 
ATOM      6  C5  UNL d   1       1.991  -0.773   2.165  0.00  0.00     0.039 A 
ENDROOT
BRANCH   4   7
ATOM      7  O   UNL d   1       2.210  -4.169   0.885  0.00  0.00    -0.526 OA
ATOM      8  H5  UNL d   1       1.506  -4.830   0.779  0.00  0.00     0.418 HD
ENDBRANCH   4   7
TORSDOF 1
ENDMDL
