MODEL 1
REMARK minimizedAffinity 11.9950266
REMARK minimizedRMSD -1
REMARK  1 active torsions:
REMARK  status: ('A' for Active; 'I' for Inactive)
REMARK    1  A    between atoms: C3_4  and  O_7 
ROOT
ATOM      1  C   UNL d   1       0.988  -0.118   1.188  0.00  0.00    -0.033 A 
ATOM      2  C1  UNL d   1       2.311  -0.557   1.262  0.00  0.00     0.039 A 
ATOM      3  C2  UNL d   1       2.617  -1.900   1.037  0.00  0.00    -0.080 A 
ATOM      4  C3  UNL d   1       1.592  -2.794   0.738  0.00  0.00     0.150 A 
ATOM      5  C4  UNL d   1       0.272  -2.363   0.658  0.00  0.00    -0.007 A 
ATOM      6  C5  UNL d   1      -0.032  -1.021   0.884  0.00  0.00     0.039 A 
ENDROOT
BRANCH   4   7
ATOM      7  O   UNL d   1       1.842  -4.115   0.515  0.00  0.00    -0.526 OA
ATOM      8  H5  UNL d   1       2.793  -4.273   0.631  0.00  0.00     0.418 HD
ENDBRANCH   4   7
TORSDOF 1
ENDMDL
