MODEL 1
REMARK minimizedAffinity 6.58129168
REMARK minimizedRMSD -1
REMARK  1 active torsions:
REMARK  status: ('A' for Active; 'I' for Inactive)
REMARK    1  A    between atoms: C3_4  and  O_7 
ROOT
ATOM      1  C   UNL d   1       4.532  -2.806  -5.975  0.00  0.00    -0.033 A 
ATOM      2  C1  UNL d   1       3.776  -1.896  -5.233  0.00  0.00     0.039 A 
ATOM      3  C2  UNL d   1       4.130  -1.605  -3.914  0.00  0.00    -0.080 A 
ATOM      4  C3  UNL d   1       5.240  -2.228  -3.350  0.00  0.00     0.150 A 
ATOM      5  C4  UNL d   1       6.000  -3.132  -4.085  0.00  0.00    -0.007 A 
ATOM      6  C5  UNL d   1       5.645  -3.422  -5.402  0.00  0.00     0.039 A 
ENDROOT
BRANCH   4   7
ATOM      7  O   UNL d   1       5.621  -1.978  -2.065  0.00  0.00    -0.526 OA
ATOM      8  H5  UNL d   1       4.987  -1.356  -1.672  0.00  0.00     0.418 HD
ENDBRANCH   4   7
TORSDOF 1
ENDMDL
