MODEL 1
REMARK minimizedAffinity 10.2592754
REMARK minimizedRMSD -1
REMARK  1 active torsions:
REMARK  status: ('A' for Active; 'I' for Inactive)
REMARK    1  A    between atoms: C3_4  and  O_7 
ROOT
ATOM      1  C   UNL d   1       2.982   0.485   2.240  0.00  0.00    -0.033 A 
ATOM      2  C1  UNL d   1       3.371   1.365   1.228  0.00  0.00     0.039 A 
ATOM      3  C2  UNL d   1       3.795   0.868  -0.007  0.00  0.00    -0.080 A 
ATOM      4  C3  UNL d   1       3.824  -0.508  -0.216  0.00  0.00     0.150 A 
ATOM      5  C4  UNL d   1       3.434  -1.390   0.787  0.00  0.00    -0.007 A 
ATOM      6  C5  UNL d   1       3.012  -0.892   2.019  0.00  0.00     0.039 A 
ENDROOT
BRANCH   4   7
ATOM      7  O   UNL d   1       4.234  -1.040  -1.402  0.00  0.00    -0.526 OA
ATOM      8  H5  UNL d   1       4.500  -0.313  -1.990  0.00  0.00     0.418 HD
ENDBRANCH   4   7
TORSDOF 1
ENDMDL
