MODEL 1
REMARK minimizedAffinity 11.5138321
REMARK minimizedRMSD -1
REMARK  1 active torsions:
REMARK  status: ('A' for Active; 'I' for Inactive)
REMARK    1  A    between atoms: C3_4  and  O_7 
ROOT
ATOM      1  C   UNL d   1      -1.264   4.394  -4.685  0.00  0.00    -0.033 A 
ATOM      2  C1  UNL d   1      -1.504   3.827  -3.432  0.00  0.00     0.039 A 
ATOM      3  C2  UNL d   1      -2.760   3.296  -3.133  0.00  0.00    -0.080 A 
ATOM      4  C3  UNL d   1      -3.766   3.336  -4.095  0.00  0.00     0.150 A 
ATOM      5  C4  UNL d   1      -3.532   3.896  -5.347  0.00  0.00    -0.007 A 
ATOM      6  C5  UNL d   1      -2.278   4.427  -5.643  0.00  0.00     0.039 A 
ENDROOT
BRANCH   4   7
ATOM      7  O   UNL d   1      -5.009   2.835  -3.848  0.00  0.00    -0.526 OA
ATOM      8  H5  UNL d   1      -5.032   2.507  -2.934  0.00  0.00     0.418 HD
ENDBRANCH   4   7
TORSDOF 1
ENDMDL
