MODEL 1
REMARK minimizedAffinity 7.33457184
REMARK minimizedRMSD -1
REMARK  1 active torsions:
REMARK  status: ('A' for Active; 'I' for Inactive)
REMARK    1  A    between atoms: C3_4  and  O_7 
ROOT
ATOM      1  C   UNL d   1       0.063   5.334  -0.843  0.00  0.00    -0.033 A 
ATOM      2  C1  UNL d   1      -0.031   3.983  -1.184  0.00  0.00     0.039 A 
ATOM      3  C2  UNL d   1       0.723   3.033  -0.493  0.00  0.00    -0.080 A 
ATOM      4  C3  UNL d   1       1.566   3.445   0.536  0.00  0.00     0.150 A 
ATOM      5  C4  UNL d   1       1.662   4.789   0.883  0.00  0.00    -0.007 A 
ATOM      6  C5  UNL d   1       0.908   5.736   0.191  0.00  0.00     0.039 A 
ENDROOT
BRANCH   4   7
ATOM      7  O   UNL d   1       2.325   2.555   1.236  0.00  0.00    -0.526 OA
ATOM      8  H5  UNL d   1       2.178   1.668   0.867  0.00  0.00     0.418 HD
ENDBRANCH   4   7
TORSDOF 1
ENDMDL
