MODEL 1
REMARK minimizedAffinity 13.4726639
REMARK minimizedRMSD -1
REMARK  1 active torsions:
REMARK  status: ('A' for Active; 'I' for Inactive)
REMARK    1  A    between atoms: C1_2  and  C2_3 
ROOT
ATOM      1  C2  UNL d   1       0.166  -0.347  -1.523  0.00  0.00    -0.081 A 
ATOM      2  C3  UNL d   1      -0.374   0.774  -0.881  0.00  0.00     0.006 A 
ATOM      3  C4  UNL d   1      -1.693   0.759  -0.419  0.00  0.00     0.002 A 
ATOM      4  C5  UNL d   1      -2.489  -0.380  -0.584  0.00  0.00    -0.080 A 
ATOM      5  C6  UNL d   1      -3.896  -0.420  -0.066  0.00  0.00     0.076 C 
ATOM      6  C7  UNL d   1      -1.954  -1.493  -1.241  0.00  0.00     0.002 A 
ATOM      7  C8  UNL d   1      -0.637  -1.478  -1.703  0.00  0.00     0.006 A 
ENDROOT
BRANCH   1   8
ATOM      8  C1  UNL d   1       1.608  -0.356  -1.964  0.00  0.00     0.054 C 
ATOM      9  C   UNL d   1       2.476  -1.152  -1.000  0.00  0.00     0.018 C 
ENDBRANCH   1   8
TORSDOF 1
ENDMDL
