MODEL 1
REMARK minimizedAffinity 4.64339638
REMARK minimizedRMSD -1
REMARK  1 active torsions:
REMARK  status: ('A' for Active; 'I' for Inactive)
REMARK    1  A    between atoms: C1_2  and  C2_3 
ROOT
ATOM      1  C2  UNL d   1      -0.638   2.611  -1.476  0.00  0.00    -0.081 A 
ATOM      2  C3  UNL d   1      -1.952   2.834  -1.904  0.00  0.00     0.006 A 
ATOM      3  C4  UNL d   1      -2.761   1.764  -2.294  0.00  0.00     0.002 A 
ATOM      4  C5  UNL d   1      -2.273   0.454  -2.256  0.00  0.00    -0.080 A 
ATOM      5  C6  UNL d   1      -3.140  -0.706  -2.643  0.00  0.00     0.076 C 
ATOM      6  C7  UNL d   1      -0.954   0.233  -1.845  0.00  0.00     0.002 A 
ATOM      7  C8  UNL d   1      -0.144   1.302  -1.455  0.00  0.00     0.006 A 
ENDROOT
BRANCH   1   8
ATOM      8  C1  UNL d   1       0.215   3.756  -0.993  0.00  0.00     0.054 C 
ATOM      9  C   UNL d   1       0.298   3.782   0.527  0.00  0.00     0.018 C 
ENDBRANCH   1   8
TORSDOF 1
ENDMDL
