MODEL 1
REMARK minimizedAffinity 4.64142323
REMARK minimizedRMSD -1
REMARK  1 active torsions:
REMARK  status: ('A' for Active; 'I' for Inactive)
REMARK    1  A    between atoms: C1_2  and  C2_3 
ROOT
ATOM      1  C2  UNL d   1       4.475  -3.326  -0.820  0.00  0.00    -0.081 A 
ATOM      2  C3  UNL d   1       3.320  -3.095  -1.577  0.00  0.00     0.006 A 
ATOM      3  C4  UNL d   1       3.382  -2.346  -2.754  0.00  0.00     0.002 A 
ATOM      4  C5  UNL d   1       4.601  -1.823  -3.199  0.00  0.00    -0.080 A 
ATOM      5  C6  UNL d   1       4.687  -1.043  -4.477  0.00  0.00     0.076 C 
ATOM      6  C7  UNL d   1       5.752  -2.038  -2.435  0.00  0.00     0.002 A 
ATOM      7  C8  UNL d   1       5.691  -2.786  -1.257  0.00  0.00     0.006 A 
ENDROOT
BRANCH   1   8
ATOM      8  C1  UNL d   1       4.423  -4.187   0.415  0.00  0.00     0.054 C 
ATOM      9  C   UNL d   1       5.570  -5.187   0.442  0.00  0.00     0.018 C 
ENDBRANCH   1   8
TORSDOF 1
ENDMDL
