MODEL 1
REMARK minimizedAffinity 2.79610133
REMARK minimizedRMSD -1
REMARK  1 active torsions:
REMARK  status: ('A' for Active; 'I' for Inactive)
REMARK    1  A    between atoms: C1_2  and  C2_3 
ROOT
ATOM      1  C2  UNL d   1       4.031  -2.576  -1.052  0.00  0.00    -0.081 A 
ATOM      2  C3  UNL d   1       3.561  -2.477  -2.367  0.00  0.00     0.006 A 
ATOM      3  C4  UNL d   1       3.950  -3.411  -3.330  0.00  0.00     0.002 A 
ATOM      4  C5  UNL d   1       4.807  -4.464  -2.992  0.00  0.00    -0.080 A 
ATOM      5  C6  UNL d   1       5.207  -5.491  -4.009  0.00  0.00     0.076 C 
ATOM      6  C7  UNL d   1       5.290  -4.553  -1.682  0.00  0.00     0.002 A 
ATOM      7  C8  UNL d   1       4.902  -3.618  -0.719  0.00  0.00     0.006 A 
ENDROOT
BRANCH   1   8
ATOM      8  C1  UNL d   1       3.563  -1.607   0.004  0.00  0.00     0.054 C 
ATOM      9  C   UNL d   1       2.156  -1.943   0.478  0.00  0.00     0.018 C 
ENDBRANCH   1   8
TORSDOF 1
ENDMDL
