MODEL 1
REMARK minimizedAffinity 6.11364698
REMARK minimizedRMSD -1
REMARK  1 active torsions:
REMARK  status: ('A' for Active; 'I' for Inactive)
REMARK    1  A    between atoms: C1_2  and  C2_3 
ROOT
ATOM      1  C2  UNL d   1       0.311   3.271   0.360  0.00  0.00    -0.081 A 
ATOM      2  C3  UNL d   1      -0.711   2.780   1.182  0.00  0.00     0.006 A 
ATOM      3  C4  UNL d   1      -0.453   2.451   2.514  0.00  0.00     0.002 A 
ATOM      4  C5  UNL d   1       0.829   2.614   3.050  0.00  0.00    -0.080 A 
ATOM      5  C6  UNL d   1       1.113   2.293   4.487  0.00  0.00     0.076 C 
ATOM      6  C7  UNL d   1       1.855   3.088   2.225  0.00  0.00     0.002 A 
ATOM      7  C8  UNL d   1       1.597   3.417   0.892  0.00  0.00     0.006 A 
ENDROOT
BRANCH   1   8
ATOM      8  C1  UNL d   1       0.021   3.688  -1.059  0.00  0.00     0.054 C 
ATOM      9  C   UNL d   1      -0.585   5.083  -1.112  0.00  0.00     0.018 C 
ENDBRANCH   1   8
TORSDOF 1
ENDMDL
