MODEL 1
REMARK minimizedAffinity 8.60791206
REMARK minimizedRMSD -1
REMARK  1 active torsions:
REMARK  status: ('A' for Active; 'I' for Inactive)
REMARK    1  A    between atoms: C1_2  and  C2_3 
ROOT
ATOM      1  C2  UNL d   1      -1.203   1.682  -0.552  0.00  0.00    -0.081 A 
ATOM      2  C3  UNL d   1      -0.252   2.666  -0.851  0.00  0.00     0.006 A 
ATOM      3  C4  UNL d   1       0.520   3.236   0.164  0.00  0.00     0.002 A 
ATOM      4  C5  UNL d   1       0.359   2.828   1.492  0.00  0.00    -0.080 A 
ATOM      5  C6  UNL d   1       1.202   3.411   2.588  0.00  0.00     0.076 C 
ATOM      6  C7  UNL d   1      -0.604   1.858   1.793  0.00  0.00     0.002 A 
ATOM      7  C8  UNL d   1      -1.376   1.288   0.779  0.00  0.00     0.006 A 
ENDROOT
BRANCH   1   8
ATOM      8  C1  UNL d   1      -1.991   1.019  -1.653  0.00  0.00     0.054 C 
ATOM      9  C   UNL d   1      -3.306   0.457  -1.131  0.00  0.00     0.018 C 
ENDBRANCH   1   8
TORSDOF 1
ENDMDL
