MODEL 1
REMARK minimizedAffinity 0.890622199
REMARK minimizedRMSD -1
REMARK  1 active torsions:
REMARK  status: ('A' for Active; 'I' for Inactive)
REMARK    1  A    between atoms: C1_2  and  C2_3 
ROOT
ATOM      1  C2  UNL d   1       4.277  -3.778  -2.944  0.00  0.00    -0.081 A 
ATOM      2  C3  UNL d   1       4.814  -3.105  -1.839  0.00  0.00     0.006 A 
ATOM      3  C4  UNL d   1       5.351  -3.821  -0.766  0.00  0.00     0.002 A 
ATOM      4  C5  UNL d   1       5.367  -5.220  -0.784  0.00  0.00    -0.080 A 
ATOM      5  C6  UNL d   1       5.968  -6.000   0.348  0.00  0.00     0.076 C 
ATOM      6  C7  UNL d   1       4.816  -5.892  -1.879  0.00  0.00     0.002 A 
ATOM      7  C8  UNL d   1       4.278  -5.177  -2.952  0.00  0.00     0.006 A 
ENDROOT
BRANCH   1   8
ATOM      8  C1  UNL d   1       3.757  -3.009  -4.131  0.00  0.00     0.054 C 
ATOM      9  C   UNL d   1       4.153  -1.541  -4.056  0.00  0.00     0.018 C 
ENDBRANCH   1   8
TORSDOF 1
ENDMDL
