MODEL 1
REMARK minimizedAffinity 8.5863266
REMARK minimizedRMSD -1
REMARK  1 active torsions:
REMARK  status: ('A' for Active; 'I' for Inactive)
REMARK    1  A    between atoms: C1_2  and  C2_3 
ROOT
ATOM      1  C2  UNL d   1      -3.013   1.847  -1.978  0.00  0.00    -0.081 A 
ATOM      2  C3  UNL d   1      -1.776   1.627  -1.361  0.00  0.00     0.006 A 
ATOM      3  C4  UNL d   1      -0.827   2.651  -1.291  0.00  0.00     0.002 A 
ATOM      4  C5  UNL d   1      -1.104   3.912  -1.828  0.00  0.00    -0.080 A 
ATOM      5  C6  UNL d   1      -0.106   5.029  -1.732  0.00  0.00     0.076 C 
ATOM      6  C7  UNL d   1      -2.333   4.127  -2.460  0.00  0.00     0.002 A 
ATOM      7  C8  UNL d   1      -3.281   3.104  -2.531  0.00  0.00     0.006 A 
ENDROOT
BRANCH   1   8
ATOM      8  C1  UNL d   1      -4.062   0.765  -1.998  0.00  0.00     0.054 C 
ATOM      9  C   UNL d   1      -3.892  -0.193  -0.828  0.00  0.00     0.018 C 
ENDBRANCH   1   8
TORSDOF 1
ENDMDL
