MODEL 1
REMARK minimizedAffinity 7.85286999
REMARK minimizedRMSD -1
REMARK  2 active torsions:
REMARK  status: ('A' for Active; 'I' for Inactive)
REMARK    1  A    between atoms: C1_2  and  C2_3 
REMARK    2  A    between atoms: C2_3  and  C3_4 
ROOT
ATOM      1  C3  UNL d   1       1.952  -0.120   0.015  0.00  0.00    -0.075 A 
ATOM      2  C4  UNL d   1       1.421  -0.055  -1.281  0.00  0.00     0.002 A 
ATOM      3  C5  UNL d   1       1.496  -1.158  -2.133  0.00  0.00     0.002 A 
ATOM      4  C6  UNL d   1       2.110  -2.333  -1.704  0.00  0.00    -0.004 A 
ATOM      5  C7  UNL d   1       2.655  -2.402  -0.424  0.00  0.00     0.002 A 
ATOM      6  C8  UNL d   1       2.578  -1.302   0.432  0.00  0.00     0.002 A 
ENDROOT
BRANCH   1   7
ATOM      7  C2  UNL d   1       1.848   1.060   0.952  0.00  0.00     0.056 C 
BRANCH   7   8
ATOM      8  C1  UNL d   1       0.457   1.250   1.565  0.00  0.00     0.007 C 
ATOM      9  C   UNL d   1       0.466   1.242   3.088  0.00  0.00     0.009 C 
ENDBRANCH   7   8
ENDBRANCH   1   7
TORSDOF 2
ENDMDL
