MODEL 1
REMARK minimizedAffinity 15.9762478
REMARK minimizedRMSD -1
REMARK  2 active torsions:
REMARK  status: ('A' for Active; 'I' for Inactive)
REMARK    1  A    between atoms: C1_2  and  C2_3 
REMARK    2  A    between atoms: C2_3  and  C3_4 
ROOT
ATOM      1  C3  UNL d   1       1.437   0.671   1.178  0.00  0.00    -0.075 A 
ATOM      2  C4  UNL d   1       2.474   1.615   1.173  0.00  0.00     0.002 A 
ATOM      3  C5  UNL d   1       3.346   1.704   0.087  0.00  0.00     0.002 A 
ATOM      4  C6  UNL d   1       3.199   0.845  -1.000  0.00  0.00    -0.004 A 
ATOM      5  C7  UNL d   1       2.183  -0.108  -0.997  0.00  0.00     0.002 A 
ATOM      6  C8  UNL d   1       1.307  -0.196   0.086  0.00  0.00     0.002 A 
ENDROOT
BRANCH   1   7
ATOM      7  C2  UNL d   1       0.472   0.589   2.337  0.00  0.00     0.056 C 
BRANCH   7   8
ATOM      8  C1  UNL d   1      -0.410   1.831   2.502  0.00  0.00     0.007 C 
ATOM      9  C   UNL d   1      -1.893   1.544   2.304  0.00  0.00     0.009 C 
ENDBRANCH   7   8
ENDBRANCH   1   7
TORSDOF 2
ENDMDL
