MODEL 1
REMARK minimizedAffinity 18.9803886
REMARK minimizedRMSD -1
REMARK  2 active torsions:
REMARK  status: ('A' for Active; 'I' for Inactive)
REMARK    1  A    between atoms: C1_2  and  C2_3 
REMARK    2  A    between atoms: C2_3  and  C3_4 
ROOT
ATOM      1  C3  UNL d   1       2.571  -2.257  -0.719  0.00  0.00    -0.075 A 
ATOM      2  C4  UNL d   1       1.629  -2.424  -1.745  0.00  0.00     0.002 A 
ATOM      3  C5  UNL d   1       1.111  -1.317  -2.418  0.00  0.00     0.002 A 
ATOM      4  C6  UNL d   1       1.520  -0.032  -2.069  0.00  0.00    -0.004 A 
ATOM      5  C7  UNL d   1       2.442   0.146  -1.040  0.00  0.00     0.002 A 
ATOM      6  C8  UNL d   1       2.965  -0.960  -0.368  0.00  0.00     0.002 A 
ENDROOT
BRANCH   1   7
ATOM      7  C2  UNL d   1       3.157  -3.453  -0.007  0.00  0.00     0.056 C 
BRANCH   7   8
ATOM      8  C1  UNL d   1       2.246  -4.685  -0.001  0.00  0.00     0.007 C 
ATOM      9  C   UNL d   1       3.014  -6.000  -0.014  0.00  0.00     0.009 C 
ENDBRANCH   7   8
ENDBRANCH   1   7
TORSDOF 2
ENDMDL
