MODEL 1
REMARK minimizedAffinity -1.78996027
REMARK minimizedRMSD -1
REMARK  2 active torsions:
REMARK  status: ('A' for Active; 'I' for Inactive)
REMARK    1  A    between atoms: C1_2  and  C2_3 
REMARK    2  A    between atoms: C2_3  and  C3_4 
ROOT
ATOM      1  C3  UNL d   1       2.947  -2.373  -0.556  0.00  0.00    -0.075 A 
ATOM      2  C4  UNL d   1       2.476  -2.519  -1.869  0.00  0.00     0.002 A 
ATOM      3  C5  UNL d   1       1.935  -1.430  -2.553  0.00  0.00     0.002 A 
ATOM      4  C6  UNL d   1       1.848  -0.186  -1.930  0.00  0.00    -0.004 A 
ATOM      5  C7  UNL d   1       2.297  -0.034  -0.620  0.00  0.00     0.002 A 
ATOM      6  C8  UNL d   1       2.843  -1.121   0.064  0.00  0.00     0.002 A 
ENDROOT
BRANCH   1   7
ATOM      7  C2  UNL d   1       3.560  -3.541   0.178  0.00  0.00     0.056 C 
BRANCH   7   8
ATOM      8  C1  UNL d   1       4.991  -3.289   0.666  0.00  0.00     0.007 C 
ATOM      9  C   UNL d   1       5.977  -4.358   0.215  0.00  0.00     0.009 C 
ENDBRANCH   7   8
ENDBRANCH   1   7
TORSDOF 2
ENDMDL
