MODEL 1
REMARK minimizedAffinity 22.5590382
REMARK minimizedRMSD -1
REMARK  2 active torsions:
REMARK  status: ('A' for Active; 'I' for Inactive)
REMARK    1  A    between atoms: C1_2  and  C2_3 
REMARK    2  A    between atoms: C2_3  and  C3_4 
ROOT
ATOM      1  C3  UNL d   1       0.652   0.928   2.166  0.00  0.00    -0.075 A 
ATOM      2  C4  UNL d   1       1.613   1.756   2.764  0.00  0.00     0.002 A 
ATOM      3  C5  UNL d   1       2.819   2.025   2.116  0.00  0.00     0.002 A 
ATOM      4  C6  UNL d   1       3.084   1.461   0.870  0.00  0.00    -0.004 A 
ATOM      5  C7  UNL d   1       2.144   0.623   0.274  0.00  0.00     0.002 A 
ATOM      6  C8  UNL d   1       0.935   0.357   0.918  0.00  0.00     0.002 A 
ENDROOT
BRANCH   1   7
ATOM      7  C2  UNL d   1      -0.667   0.657   2.848  0.00  0.00     0.056 C 
BRANCH   7   8
ATOM      8  C1  UNL d   1      -1.882   1.218   2.102  0.00  0.00     0.007 C 
ATOM      9  C   UNL d   1      -3.199   0.965   2.822  0.00  0.00     0.009 C 
ENDBRANCH   7   8
ENDBRANCH   1   7
TORSDOF 2
ENDMDL
