MODEL 1
REMARK minimizedAffinity 15.7070789
REMARK minimizedRMSD -1
REMARK  2 active torsions:
REMARK  status: ('A' for Active; 'I' for Inactive)
REMARK    1  A    between atoms: C1_2  and  C2_3 
REMARK    2  A    between atoms: C2_3  and  C3_4 
ROOT
ATOM      1  C3  UNL d   1       2.361   2.154  -2.136  0.00  0.00    -0.075 A 
ATOM      2  C4  UNL d   1       2.855   1.322  -1.121  0.00  0.00     0.002 A 
ATOM      3  C5  UNL d   1       3.159   1.844   0.137  0.00  0.00     0.002 A 
ATOM      4  C6  UNL d   1       2.982   3.202   0.392  0.00  0.00    -0.004 A 
ATOM      5  C7  UNL d   1       2.508   4.041  -0.614  0.00  0.00     0.002 A 
ATOM      6  C8  UNL d   1       2.199   3.521  -1.872  0.00  0.00     0.002 A 
ENDROOT
BRANCH   1   7
ATOM      7  C2  UNL d   1       2.003   1.591  -3.491  0.00  0.00     0.056 C 
BRANCH   7   8
ATOM      8  C1  UNL d   1       1.891   0.063  -3.521  0.00  0.00     0.007 C 
ATOM      9  C   UNL d   1       2.372  -0.549  -4.830  0.00  0.00     0.009 C 
ENDBRANCH   7   8
ENDBRANCH   1   7
TORSDOF 2
ENDMDL
