MODEL 1
REMARK minimizedAffinity 11.6094503
REMARK minimizedRMSD -1
REMARK  2 active torsions:
REMARK  status: ('A' for Active; 'I' for Inactive)
REMARK    1  A    between atoms: C1_2  and  C2_3 
REMARK    2  A    between atoms: C2_3  and  C3_4 
ROOT
ATOM      1  C3  UNL d   1      -1.999   1.432   2.413  0.00  0.00    -0.075 A 
ATOM      2  C4  UNL d   1      -1.480   0.727   1.318  0.00  0.00     0.002 A 
ATOM      3  C5  UNL d   1      -0.105   0.696   1.083  0.00  0.00     0.002 A 
ATOM      4  C6  UNL d   1       0.766   1.376   1.931  0.00  0.00    -0.004 A 
ATOM      5  C7  UNL d   1       0.259   2.094   3.013  0.00  0.00     0.002 A 
ATOM      6  C8  UNL d   1      -1.116   2.123   3.253  0.00  0.00     0.002 A 
ENDROOT
BRANCH   1   7
ATOM      7  C2  UNL d   1      -3.483   1.445   2.690  0.00  0.00     0.056 C 
BRANCH   7   8
ATOM      8  C1  UNL d   1      -3.919   2.504   3.709  0.00  0.00     0.007 C 
ATOM      9  C   UNL d   1      -5.340   3.002   3.486  0.00  0.00     0.009 C 
ENDBRANCH   7   8
ENDBRANCH   1   7
TORSDOF 2
ENDMDL
