MODEL 1
REMARK minimizedAffinity 12.7300243
REMARK minimizedRMSD -1
REMARK  2 active torsions:
REMARK  status: ('A' for Active; 'I' for Inactive)
REMARK    1  A    between atoms: C1_2  and  C2_3 
REMARK    2  A    between atoms: C2_3  and  C3_4 
ROOT
ATOM      1  C3  UNL d   1      -1.965   1.372   2.626  0.00  0.00    -0.075 A 
ATOM      2  C4  UNL d   1      -1.084   0.390   3.101  0.00  0.00     0.002 A 
ATOM      3  C5  UNL d   1       0.297   0.571   3.007  0.00  0.00     0.002 A 
ATOM      4  C6  UNL d   1       0.812   1.729   2.429  0.00  0.00    -0.004 A 
ATOM      5  C7  UNL d   1      -0.054   2.704   1.939  0.00  0.00     0.002 A 
ATOM      6  C8  UNL d   1      -1.435   2.527   2.036  0.00  0.00     0.002 A 
ENDROOT
BRANCH   1   7
ATOM      7  C2  UNL d   1      -3.459   1.195   2.751  0.00  0.00     0.056 C 
BRANCH   7   8
ATOM      8  C1  UNL d   1      -4.079   1.948   3.933  0.00  0.00     0.007 C 
ATOM      9  C   UNL d   1      -5.431   2.568   3.607  0.00  0.00     0.009 C 
ENDBRANCH   7   8
ENDBRANCH   1   7
TORSDOF 2
ENDMDL
