MODEL 1
REMARK minimizedAffinity 10.0660391
REMARK minimizedRMSD -1
REMARK  2 active torsions:
REMARK  status: ('A' for Active; 'I' for Inactive)
REMARK    1  A    between atoms: C1_2  and  C2_3 
REMARK    2  A    between atoms: C2_3  and  C3_4 
ROOT
ATOM      1  C3  UNL d   1       2.644   0.345  -0.145  0.00  0.00    -0.075 A 
ATOM      2  C4  UNL d   1       1.931   0.928  -1.204  0.00  0.00     0.002 A 
ATOM      3  C5  UNL d   1       1.504   0.152  -2.282  0.00  0.00     0.002 A 
ATOM      4  C6  UNL d   1       1.793  -1.210  -2.322  0.00  0.00    -0.004 A 
ATOM      5  C7  UNL d   1       2.515  -1.796  -1.284  0.00  0.00     0.002 A 
ATOM      6  C8  UNL d   1       2.939  -1.023  -0.202  0.00  0.00     0.002 A 
ENDROOT
BRANCH   1   7
ATOM      7  C2  UNL d   1       3.082   1.173   1.039  0.00  0.00     0.056 C 
BRANCH   7   8
ATOM      8  C1  UNL d   1       1.968   2.031   1.648  0.00  0.00     0.007 C 
ATOM      9  C   UNL d   1       1.048   1.249   2.576  0.00  0.00     0.009 C 
ENDBRANCH   7   8
ENDBRANCH   1   7
TORSDOF 2
ENDMDL
