MODEL 1
REMARK minimizedAffinity 12.1342888
REMARK minimizedRMSD -1
REMARK  2 active torsions:
REMARK  status: ('A' for Active; 'I' for Inactive)
REMARK    1  A    between atoms: C1_2  and  C2_3 
REMARK    2  A    between atoms: C2_3  and  C3_4 
ROOT
ATOM      1  C3  UNL d   1       0.149   5.926  -2.214  0.00  0.00    -0.075 A 
ATOM      2  C4  UNL d   1       1.517   5.967  -2.520  0.00  0.00     0.002 A 
ATOM      3  C5  UNL d   1       2.470   5.995  -1.503  0.00  0.00     0.002 A 
ATOM      4  C6  UNL d   1       2.070   5.993  -0.168  0.00  0.00    -0.004 A 
ATOM      5  C7  UNL d   1       0.713   5.970   0.148  0.00  0.00     0.002 A 
ATOM      6  C8  UNL d   1      -0.243   5.937  -0.868  0.00  0.00     0.002 A 
ENDROOT
BRANCH   1   7
ATOM      7  C2  UNL d   1      -0.888   5.866  -3.310  0.00  0.00     0.056 C 
BRANCH   7   8
ATOM      8  C1  UNL d   1      -1.671   4.549  -3.357  0.00  0.00     0.007 C 
ATOM      9  C   UNL d   1      -1.894   4.033  -4.772  0.00  0.00     0.009 C 
ENDBRANCH   7   8
ENDBRANCH   1   7
TORSDOF 2
ENDMDL
