MODEL 1
REMARK minimizedAffinity 11.492487
REMARK minimizedRMSD -1
REMARK  2 active torsions:
REMARK  status: ('A' for Active; 'I' for Inactive)
REMARK    1  A    between atoms: C1_2  and  C2_3 
REMARK    2  A    between atoms: C2_3  and  C3_4 
ROOT
ATOM      1  C3  UNL d   1      -3.228   1.623   3.851  0.00  0.00    -0.075 A 
ATOM      2  C4  UNL d   1      -4.421   2.164   3.350  0.00  0.00     0.002 A 
ATOM      3  C5  UNL d   1      -5.236   2.954   4.162  0.00  0.00     0.002 A 
ATOM      4  C6  UNL d   1      -4.875   3.203   5.484  0.00  0.00    -0.004 A 
ATOM      5  C7  UNL d   1      -3.700   2.657   5.997  0.00  0.00     0.002 A 
ATOM      6  C8  UNL d   1      -2.881   1.870   5.186  0.00  0.00     0.002 A 
ENDROOT
BRANCH   1   7
ATOM      7  C2  UNL d   1      -2.326   0.792   2.969  0.00  0.00     0.056 C 
BRANCH   7   8
ATOM      8  C1  UNL d   1      -1.249   1.601   2.239  0.00  0.00     0.007 C 
ATOM      9  C   UNL d   1       0.167   1.241   2.668  0.00  0.00     0.009 C 
ENDBRANCH   7   8
ENDBRANCH   1   7
TORSDOF 2
ENDMDL
