MODEL 1
REMARK minimizedAffinity 9.69928551
REMARK minimizedRMSD -1
REMARK  2 active torsions:
REMARK  status: ('A' for Active; 'I' for Inactive)
REMARK    1  A    between atoms: C1_2  and  C2_3 
REMARK    2  A    between atoms: C2_3  and  C3_4 
ROOT
ATOM      1  C3  UNL d   1       0.726   0.902   1.419  0.00  0.00    -0.075 A 
ATOM      2  C4  UNL d   1       0.595   0.047   0.316  0.00  0.00     0.002 A 
ATOM      3  C5  UNL d   1       1.678  -0.186  -0.533  0.00  0.00     0.002 A 
ATOM      4  C6  UNL d   1       2.900   0.439  -0.295  0.00  0.00    -0.004 A 
ATOM      5  C7  UNL d   1       3.037   1.304   0.788  0.00  0.00     0.002 A 
ATOM      6  C8  UNL d   1       1.956   1.536   1.641  0.00  0.00     0.002 A 
ENDROOT
BRANCH   1   7
ATOM      7  C2  UNL d   1      -0.434   1.136   2.358  0.00  0.00     0.056 C 
BRANCH   7   8
ATOM      8  C1  UNL d   1      -1.807   1.076   1.680  0.00  0.00     0.007 C 
ATOM      9  C   UNL d   1      -2.959   0.950   2.668  0.00  0.00     0.009 C 
ENDBRANCH   7   8
ENDBRANCH   1   7
TORSDOF 2
ENDMDL
