MODEL 1
REMARK minimizedAffinity 14.0871639
REMARK minimizedRMSD -1
REMARK  2 active torsions:
REMARK  status: ('A' for Active; 'I' for Inactive)
REMARK    1  A    between atoms: C1_2  and  C2_3 
REMARK    2  A    between atoms: C2_3  and  C3_4 
ROOT
ATOM      1  C3  UNL d   1      -2.589   4.139  -5.132  0.00  0.00    -0.075 A 
ATOM      2  C4  UNL d   1      -2.353   4.036  -3.754  0.00  0.00     0.002 A 
ATOM      3  C5  UNL d   1      -1.494   3.057  -3.253  0.00  0.00     0.002 A 
ATOM      4  C6  UNL d   1      -0.869   2.164  -4.121  0.00  0.00    -0.004 A 
ATOM      5  C7  UNL d   1      -1.109   2.247  -5.491  0.00  0.00     0.002 A 
ATOM      6  C8  UNL d   1      -1.965   3.227  -5.995  0.00  0.00     0.002 A 
ENDROOT
BRANCH   1   7
ATOM      7  C2  UNL d   1      -3.494   5.214  -5.683  0.00  0.00     0.056 C 
BRANCH   7   8
ATOM      8  C1  UNL d   1      -4.953   4.775  -5.853  0.00  0.00     0.007 C 
ATOM      9  C   UNL d   1      -5.927   5.943  -5.922  0.00  0.00     0.009 C 
ENDBRANCH   7   8
ENDBRANCH   1   7
TORSDOF 2
ENDMDL
