MODEL 1
REMARK minimizedAffinity -4.49827385
REMARK minimizedRMSD -1
REMARK  0 active torsions:
REMARK  status: ('A' for Active; 'I' for Inactive)
ROOT
ATOM      1  C   UNL d   1       1.123  -2.688  -0.693  0.00  0.00     0.020 A 
ATOM      2  C1  UNL d   1       1.903  -2.092  -1.683  0.00  0.00     0.020 A 
ATOM      3  C2  UNL d   1       1.935  -0.701  -1.803  0.00  0.00     0.034 A 
ATOM      4  C3  UNL d   1       1.185   0.098  -0.931  0.00  0.00     0.017 A 
ATOM      5  C4  UNL d   1       0.403  -0.502   0.062  0.00  0.00     0.017 A 
ATOM      6  C5  UNL d   1       0.375  -1.895   0.177  0.00  0.00     0.034 A 
ATOM      7 Cl   UNL d   1      -0.548   0.418   1.174  0.00  0.00    -0.070 Cl
ATOM      8 Cl1  UNL d   1       1.272   1.812  -1.137  0.00  0.00    -0.070 Cl
ENDROOT
TORSDOF 0
ENDMDL
