MODEL 1
REMARK minimizedAffinity -4.07585812
REMARK minimizedRMSD -1
REMARK  0 active torsions:
REMARK  status: ('A' for Active; 'I' for Inactive)
ROOT
ATOM      1  C   UNL d   1       2.445  -0.669  -1.501  0.00  0.00     0.020 A 
ATOM      2  C1  UNL d   1       2.047   0.638  -1.221  0.00  0.00     0.020 A 
ATOM      3  C2  UNL d   1       0.877   0.871  -0.495  0.00  0.00     0.034 A 
ATOM      4  C3  UNL d   1       0.101  -0.203  -0.046  0.00  0.00     0.017 A 
ATOM      5  C4  UNL d   1       0.501  -1.515  -0.328  0.00  0.00     0.017 A 
ATOM      6  C5  UNL d   1       1.673  -1.743  -1.055  0.00  0.00     0.034 A 
ATOM      7 Cl   UNL d   1      -0.405  -2.892   0.192  0.00  0.00    -0.070 Cl
ATOM      8 Cl1  UNL d   1      -1.333   0.159   0.846  0.00  0.00    -0.070 Cl
ENDROOT
TORSDOF 0
ENDMDL
