MODEL 1
REMARK minimizedAffinity -4.80386543
REMARK minimizedRMSD -1
REMARK  0 active torsions:
REMARK  status: ('A' for Active; 'I' for Inactive)
ROOT
ATOM      1  C   UNL d   1      -0.790  -0.498  -0.011  0.00  0.00     0.020 A 
ATOM      2  C1  UNL d   1      -0.079  -1.689  -0.144  0.00  0.00     0.020 A 
ATOM      3  C2  UNL d   1       1.228  -1.671  -0.637  0.00  0.00     0.034 A 
ATOM      4  C3  UNL d   1       1.827  -0.458  -0.999  0.00  0.00     0.017 A 
ATOM      5  C4  UNL d   1       1.112   0.737  -0.864  0.00  0.00     0.017 A 
ATOM      6  C5  UNL d   1      -0.196   0.713  -0.370  0.00  0.00     0.034 A 
ATOM      7 Cl   UNL d   1       1.784   2.272  -1.290  0.00  0.00    -0.070 Cl
ATOM      8 Cl1  UNL d   1       3.446  -0.510  -1.600  0.00  0.00    -0.070 Cl
ENDROOT
TORSDOF 0
ENDMDL
