MODEL 1
REMARK minimizedAffinity 0.495179564
REMARK minimizedRMSD -1
REMARK  0 active torsions:
REMARK  status: ('A' for Active; 'I' for Inactive)
ROOT
ATOM      1  C   UNL d   1      -0.002   0.081   2.202  0.00  0.00     0.020 A 
ATOM      2  C1  UNL d   1       0.914  -0.966   2.112  0.00  0.00     0.020 A 
ATOM      3  C2  UNL d   1       1.485  -1.291   0.879  0.00  0.00     0.034 A 
ATOM      4  C3  UNL d   1       1.140  -0.567  -0.268  0.00  0.00     0.017 A 
ATOM      5  C4  UNL d   1       0.220   0.483  -0.177  0.00  0.00     0.017 A 
ATOM      6  C5  UNL d   1      -0.349   0.804   1.060  0.00  0.00     0.034 A 
ATOM      7 Cl   UNL d   1      -0.255   1.421  -1.549  0.00  0.00    -0.070 Cl
ATOM      8 Cl1  UNL d   1       1.885  -1.023  -1.759  0.00  0.00    -0.070 Cl
ENDROOT
TORSDOF 0
ENDMDL
