MODEL 1
REMARK minimizedAffinity -3.34676957
REMARK minimizedRMSD -1
REMARK  0 active torsions:
REMARK  status: ('A' for Active; 'I' for Inactive)
ROOT
ATOM      1  C   UNL d   1      -0.698   0.811   1.194  0.00  0.00     0.020 A 
ATOM      2  C1  UNL d   1       0.545   1.290   0.780  0.00  0.00     0.020 A 
ATOM      3  C2  UNL d   1       1.343   0.519  -0.068  0.00  0.00     0.034 A 
ATOM      4  C3  UNL d   1       0.900  -0.735  -0.504  0.00  0.00     0.017 A 
ATOM      5  C4  UNL d   1      -0.347  -1.215  -0.088  0.00  0.00     0.017 A 
ATOM      6  C5  UNL d   1      -1.143  -0.439   0.760  0.00  0.00     0.034 A 
ATOM      7 Cl   UNL d   1      -0.962  -2.752  -0.585  0.00  0.00    -0.070 Cl
ATOM      8 Cl1  UNL d   1       1.939  -1.634  -1.552  0.00  0.00    -0.070 Cl
ENDROOT
TORSDOF 0
ENDMDL
