MODEL 1
REMARK minimizedAffinity -3.86175728
REMARK minimizedRMSD -1
REMARK  0 active torsions:
REMARK  status: ('A' for Active; 'I' for Inactive)
ROOT
ATOM      1  C   UNL d   1      -0.069   1.344  -0.433  0.00  0.00     0.020 A 
ATOM      2  C1  UNL d   1      -0.915   0.287  -0.104  0.00  0.00     0.020 A 
ATOM      3  C2  UNL d   1      -0.426  -1.021  -0.089  0.00  0.00     0.034 A 
ATOM      4  C3  UNL d   1       0.914  -1.275  -0.405  0.00  0.00     0.017 A 
ATOM      5  C4  UNL d   1       1.763  -0.213  -0.736  0.00  0.00     0.017 A 
ATOM      6  C5  UNL d   1       1.268   1.095  -0.749  0.00  0.00     0.034 A 
ATOM      7 Cl   UNL d   1       3.428  -0.447  -1.137  0.00  0.00    -0.070 Cl
ATOM      8 Cl1  UNL d   1       1.451  -2.917  -0.367  0.00  0.00    -0.070 Cl
ENDROOT
TORSDOF 0
ENDMDL
