MODEL 1
REMARK minimizedAffinity -4.92007589
REMARK minimizedRMSD -1
REMARK  0 active torsions:
REMARK  status: ('A' for Active; 'I' for Inactive)
ROOT
ATOM      1  C   UNL d   1       2.638   0.421  -1.319  0.00  0.00     0.020 A 
ATOM      2  C1  UNL d   1       2.648  -0.823  -1.949  0.00  0.00     0.020 A 
ATOM      3  C2  UNL d   1       1.687  -1.781  -1.618  0.00  0.00     0.034 A 
ATOM      4  C3  UNL d   1       0.712  -1.496  -0.655  0.00  0.00     0.017 A 
ATOM      5  C4  UNL d   1       0.703  -0.247  -0.024  0.00  0.00     0.017 A 
ATOM      6  C5  UNL d   1       1.668   0.708  -0.359  0.00  0.00     0.034 A 
ATOM      7 Cl   UNL d   1      -0.468   0.178   1.174  0.00  0.00    -0.070 Cl
ATOM      8 Cl1  UNL d   1      -0.445  -2.727  -0.295  0.00  0.00    -0.070 Cl
ENDROOT
TORSDOF 0
ENDMDL
