MODEL 1
REMARK minimizedAffinity -1.9694519
REMARK minimizedRMSD -1
REMARK  0 active torsions:
REMARK  status: ('A' for Active; 'I' for Inactive)
ROOT
ATOM      1  C   UNL d   1      -0.483  -0.452   1.367  0.00  0.00     0.020 A 
ATOM      2  C1  UNL d   1      -1.298   0.621   1.009  0.00  0.00     0.020 A 
ATOM      3  C2  UNL d   1      -0.954   1.426  -0.079  0.00  0.00     0.034 A 
ATOM      4  C3  UNL d   1       0.207   1.160  -0.813  0.00  0.00     0.017 A 
ATOM      5  C4  UNL d   1       1.025   0.083  -0.453  0.00  0.00     0.017 A 
ATOM      6  C5  UNL d   1       0.676  -0.720   0.638  0.00  0.00     0.034 A 
ATOM      7 Cl   UNL d   1       2.474  -0.308  -1.310  0.00  0.00    -0.070 Cl
ATOM      8 Cl1  UNL d   1       0.571   2.197  -2.146  0.00  0.00    -0.070 Cl
ENDROOT
TORSDOF 0
ENDMDL
