MODEL 1
REMARK minimizedAffinity -5.23493767
REMARK minimizedRMSD -1
REMARK  0 active torsions:
REMARK  status: ('A' for Active; 'I' for Inactive)
ROOT
ATOM      1  C   UNL d   1      -0.052   2.063  -1.182  0.00  0.00     0.020 A 
ATOM      2  C1  UNL d   1      -1.164   1.308  -0.812  0.00  0.00     0.020 A 
ATOM      3  C2  UNL d   1      -0.998  -0.002  -0.356  0.00  0.00     0.034 A 
ATOM      4  C3  UNL d   1       0.283  -0.559  -0.267  0.00  0.00     0.017 A 
ATOM      5  C4  UNL d   1       1.398   0.200  -0.639  0.00  0.00     0.017 A 
ATOM      6  C5  UNL d   1       1.227   1.510  -1.095  0.00  0.00     0.034 A 
ATOM      7 Cl   UNL d   1       3.010  -0.419  -0.557  0.00  0.00    -0.070 Cl
ATOM      8 Cl1  UNL d   1       0.414  -2.184   0.306  0.00  0.00    -0.070 Cl
ENDROOT
TORSDOF 0
ENDMDL
