MODEL 1
REMARK minimizedAffinity -3.88941932
REMARK minimizedRMSD -1
REMARK  0 active torsions:
REMARK  status: ('A' for Active; 'I' for Inactive)
ROOT
ATOM      1  C   UNL d   1       2.984  -0.634  -1.434  0.00  0.00     0.020 A 
ATOM      2  C1  UNL d   1       2.561   0.694  -1.438  0.00  0.00     0.020 A 
ATOM      3  C2  UNL d   1       1.351   1.044  -0.834  0.00  0.00     0.034 A 
ATOM      4  C3  UNL d   1       0.561   0.064  -0.222  0.00  0.00     0.017 A 
ATOM      5  C4  UNL d   1       0.986  -1.270  -0.219  0.00  0.00     0.017 A 
ATOM      6  C5  UNL d   1       2.198  -1.614  -0.826  0.00  0.00     0.034 A 
ATOM      7 Cl   UNL d   1       0.065  -2.535   0.515  0.00  0.00    -0.070 Cl
ATOM      8 Cl1  UNL d   1      -0.923   0.567   0.506  0.00  0.00    -0.070 Cl
ENDROOT
TORSDOF 0
ENDMDL
