MODEL 1
REMARK minimizedAffinity -4.01348352
REMARK minimizedRMSD -1
REMARK  0 active torsions:
REMARK  status: ('A' for Active; 'I' for Inactive)
ROOT
ATOM      1  C   UNL d   1      -0.743   0.054   0.329  0.00  0.00     0.020 A 
ATOM      2  C1  UNL d   1      -1.782  -0.673  -0.251  0.00  0.00     0.020 A 
ATOM      3  C2  UNL d   1      -2.940  -0.941   0.482  0.00  0.00     0.034 A 
ATOM      4  C3  UNL d   1      -3.062  -0.482   1.798  0.00  0.00     0.017 A 
ATOM      5  C4  UNL d   1      -2.018   0.248   2.379  0.00  0.00     0.017 A 
ATOM      6  C5  UNL d   1      -0.861   0.513   1.641  0.00  0.00     0.034 A 
ATOM      7 Cl   UNL d   1      -2.096   0.848   3.998  0.00  0.00    -0.070 Cl
ATOM      8 Cl1  UNL d   1      -4.522  -0.849   2.645  0.00  0.00    -0.070 Cl
ENDROOT
TORSDOF 0
ENDMDL
