MODEL 1
REMARK minimizedAffinity -2.92536783
REMARK minimizedRMSD -1
REMARK  0 active torsions:
REMARK  status: ('A' for Active; 'I' for Inactive)
ROOT
ATOM      1  C   UNL d   1      -0.545  -1.911  -0.265  0.00  0.00     0.020 A 
ATOM      2  C1  UNL d   1      -1.328  -0.760  -0.192  0.00  0.00     0.020 A 
ATOM      3  C2  UNL d   1      -0.745   0.495  -0.384  0.00  0.00     0.034 A 
ATOM      4  C3  UNL d   1       0.625   0.601  -0.651  0.00  0.00     0.017 A 
ATOM      5  C4  UNL d   1       1.410  -0.556  -0.724  0.00  0.00     0.017 A 
ATOM      6  C5  UNL d   1       0.821  -1.809  -0.531  0.00  0.00     0.034 A 
ATOM      7 Cl   UNL d   1       3.107  -0.504  -1.050  0.00  0.00    -0.070 Cl
ATOM      8 Cl1  UNL d   1       1.279   2.184  -0.878  0.00  0.00    -0.070 Cl
ENDROOT
TORSDOF 0
ENDMDL
