MODEL 1
REMARK minimizedAffinity -4.15754986
REMARK minimizedRMSD -1
REMARK  0 active torsions:
REMARK  status: ('A' for Active; 'I' for Inactive)
ROOT
ATOM      1  C   UNL d   1       2.217  -1.654  -1.799  0.00  0.00     0.020 A 
ATOM      2  C1  UNL d   1       1.864  -2.278  -0.603  0.00  0.00     0.020 A 
ATOM      3  C2  UNL d   1       0.903  -1.700   0.229  0.00  0.00     0.034 A 
ATOM      4  C3  UNL d   1       0.291  -0.494  -0.134  0.00  0.00     0.017 A 
ATOM      5  C4  UNL d   1       0.646   0.131  -1.334  0.00  0.00     0.017 A 
ATOM      6  C5  UNL d   1       1.609  -0.452  -2.163  0.00  0.00     0.034 A 
ATOM      7 Cl   UNL d   1      -0.064   1.620  -1.849  0.00  0.00    -0.070 Cl
ATOM      8 Cl1  UNL d   1      -0.889   0.164   0.943  0.00  0.00    -0.070 Cl
ENDROOT
TORSDOF 0
ENDMDL
