MODEL 1
REMARK minimizedAffinity -4.07273102
REMARK minimizedRMSD -1
REMARK  0 active torsions:
REMARK  status: ('A' for Active; 'I' for Inactive)
ROOT
ATOM      1  C   UNL d   1       1.596  -1.920  -0.376  0.00  0.00     0.020 A 
ATOM      2  C1  UNL d   1       2.475  -1.201  -1.186  0.00  0.00     0.020 A 
ATOM      3  C2  UNL d   1       2.161   0.104  -1.570  0.00  0.00     0.034 A 
ATOM      4  C3  UNL d   1       0.966   0.695  -1.145  0.00  0.00     0.017 A 
ATOM      5  C4  UNL d   1       0.084  -0.027  -0.332  0.00  0.00     0.017 A 
ATOM      6  C5  UNL d   1       0.403  -1.334   0.050  0.00  0.00     0.034 A 
ATOM      7 Cl   UNL d   1      -1.409   0.634   0.232  0.00  0.00    -0.070 Cl
ATOM      8 Cl1  UNL d   1       0.642   2.313  -1.658  0.00  0.00    -0.070 Cl
ENDROOT
TORSDOF 0
ENDMDL
