MODEL 1
REMARK minimizedAffinity -5.07161283
REMARK minimizedRMSD -1
REMARK  0 active torsions:
REMARK  status: ('A' for Active; 'I' for Inactive)
ROOT
ATOM      1  C   UNL d   1       2.635  -0.976  -0.907  0.00  0.00     0.020 A 
ATOM      2  C1  UNL d   1       2.330   0.361  -0.654  0.00  0.00     0.020 A 
ATOM      3  C2  UNL d   1       1.006   0.743  -0.425  0.00  0.00     0.034 A 
ATOM      4  C3  UNL d   1      -0.016  -0.212  -0.449  0.00  0.00     0.017 A 
ATOM      5  C4  UNL d   1       0.291  -1.554  -0.703  0.00  0.00     0.017 A 
ATOM      6  C5  UNL d   1       1.618  -1.931  -0.931  0.00  0.00     0.034 A 
ATOM      7 Cl   UNL d   1      -0.916  -2.789  -0.748  0.00  0.00    -0.070 Cl
ATOM      8 Cl1  UNL d   1      -1.630   0.331  -0.157  0.00  0.00    -0.070 Cl
ENDROOT
TORSDOF 0
ENDMDL
