MODEL 1
REMARK minimizedAffinity -4.80582476
REMARK minimizedRMSD -1
REMARK  0 active torsions:
REMARK  status: ('A' for Active; 'I' for Inactive)
ROOT
ATOM      1  C   UNL d   1      -0.535   1.276  -0.867  0.00  0.00     0.020 A 
ATOM      2  C1  UNL d   1      -1.407   0.277  -0.438  0.00  0.00     0.020 A 
ATOM      3  C2  UNL d   1      -0.939  -1.025  -0.247  0.00  0.00     0.034 A 
ATOM      4  C3  UNL d   1       0.406  -1.330  -0.485  0.00  0.00     0.017 A 
ATOM      5  C4  UNL d   1       1.281  -0.326  -0.916  0.00  0.00     0.017 A 
ATOM      6  C5  UNL d   1       0.806   0.975  -1.105  0.00  0.00     0.034 A 
ATOM      7 Cl   UNL d   1       2.954  -0.627  -1.231  0.00  0.00    -0.070 Cl
ATOM      8 Cl1  UNL d   1       0.918  -2.961  -0.229  0.00  0.00    -0.070 Cl
ENDROOT
TORSDOF 0
ENDMDL
