MODEL 1
REMARK minimizedAffinity -4.63658381
REMARK minimizedRMSD -1
REMARK  0 active torsions:
REMARK  status: ('A' for Active; 'I' for Inactive)
ROOT
ATOM      1  C   UNL d   1       0.326   2.179  -0.814  0.00  0.00     0.020 A 
ATOM      2  C1  UNL d   1      -0.794   1.521  -0.308  0.00  0.00     0.020 A 
ATOM      3  C2  UNL d   1      -0.739   0.151  -0.043  0.00  0.00     0.034 A 
ATOM      4  C3  UNL d   1       0.438  -0.566  -0.285  0.00  0.00     0.017 A 
ATOM      5  C4  UNL d   1       1.562   0.095  -0.793  0.00  0.00     0.017 A 
ATOM      6  C5  UNL d   1       1.502   1.467  -1.056  0.00  0.00     0.034 A 
ATOM      7 Cl   UNL d   1       3.051  -0.722  -1.117  0.00  0.00    -0.070 Cl
ATOM      8 Cl1  UNL d   1       0.435  -2.257   0.066  0.00  0.00    -0.070 Cl
ENDROOT
TORSDOF 0
ENDMDL
