MODEL 1
REMARK minimizedAffinity -4.17965746
REMARK minimizedRMSD -1
REMARK  0 active torsions:
REMARK  status: ('A' for Active; 'I' for Inactive)
ROOT
ATOM      1  C   UNL d   1       2.869  -1.091  -2.141  0.00  0.00     0.020 A 
ATOM      2  C1  UNL d   1       2.158  -1.812  -1.183  0.00  0.00     0.020 A 
ATOM      3  C2  UNL d   1       1.005  -1.268  -0.613  0.00  0.00     0.034 A 
ATOM      4  C3  UNL d   1       0.560   0.001  -1.001  0.00  0.00     0.017 A 
ATOM      5  C4  UNL d   1       1.274   0.724  -1.963  0.00  0.00     0.017 A 
ATOM      6  C5  UNL d   1       2.428   0.174  -2.531  0.00  0.00     0.034 A 
ATOM      7 Cl   UNL d   1       0.786   2.295  -2.492  0.00  0.00    -0.070 Cl
ATOM      8 Cl1  UNL d   1      -0.874   0.611  -0.255  0.00  0.00    -0.070 Cl
ENDROOT
TORSDOF 0
ENDMDL
