MODEL 1
REMARK minimizedAffinity -3.18985391
REMARK minimizedRMSD -1
REMARK  2 active torsions:
REMARK  status: ('A' for Active; 'I' for Inactive)
REMARK    1  A    between atoms: C1_2  and  C2_3 
REMARK    2  A    between atoms: C2_3  and  C3_4 
ROOT
ATOM      1  C3  UNL d   1       0.486   1.474  -0.207  0.00  0.00    -0.075 A 
ATOM      2  C4  UNL d   1       1.581   1.373   0.663  0.00  0.00     0.002 A 
ATOM      3  C5  UNL d   1       2.228   0.151   0.850  0.00  0.00     0.002 A 
ATOM      4  C6  UNL d   1       1.782  -0.986   0.179  0.00  0.00    -0.004 A 
ATOM      5  C7  UNL d   1       0.685  -0.901  -0.675  0.00  0.00     0.002 A 
ATOM      6  C8  UNL d   1       0.039   0.321  -0.868  0.00  0.00     0.002 A 
ENDROOT
BRANCH   1   7
ATOM      7  C2  UNL d   1      -0.200   2.799  -0.436  0.00  0.00     0.056 C 
BRANCH   7   8
ATOM      8  C1  UNL d   1       0.201   3.491  -1.744  0.00  0.00     0.007 C 
ATOM      9  C   UNL d   1      -0.875   3.412  -2.819  0.00  0.00     0.009 C 
ENDBRANCH   7   8
ENDBRANCH   1   7
TORSDOF 2
ENDMDL
