MODEL 1
REMARK minimizedAffinity -0.0428437889
REMARK minimizedRMSD -1
REMARK  2 active torsions:
REMARK  status: ('A' for Active; 'I' for Inactive)
REMARK    1  A    between atoms: C1_2  and  C2_3 
REMARK    2  A    between atoms: C2_3  and  C3_4 
ROOT
ATOM      1  C3  UNL d   1      -1.068  -0.476   0.373  0.00  0.00    -0.075 A 
ATOM      2  C4  UNL d   1       0.193  -0.055  -0.075  0.00  0.00     0.002 A 
ATOM      3  C5  UNL d   1       1.326  -0.250   0.716  0.00  0.00     0.002 A 
ATOM      4  C6  UNL d   1       1.213  -0.856   1.965  0.00  0.00    -0.004 A 
ATOM      5  C7  UNL d   1      -0.037  -1.263   2.427  0.00  0.00     0.002 A 
ATOM      6  C8  UNL d   1      -1.172  -1.073   1.636  0.00  0.00     0.002 A 
ENDROOT
BRANCH   1   7
ATOM      7  C2  UNL d   1      -2.294  -0.295  -0.490  0.00  0.00     0.056 C 
BRANCH   7   8
ATOM      8  C1  UNL d   1      -3.272  -1.474  -0.439  0.00  0.00     0.007 C 
ATOM      9  C   UNL d   1      -3.683  -1.972  -1.818  0.00  0.00     0.009 C 
ENDBRANCH   7   8
ENDBRANCH   1   7
TORSDOF 2
ENDMDL
