MODEL 1
REMARK minimizedAffinity -1.22779882
REMARK minimizedRMSD -1
REMARK  2 active torsions:
REMARK  status: ('A' for Active; 'I' for Inactive)
REMARK    1  A    between atoms: C1_2  and  C2_3 
REMARK    2  A    between atoms: C2_3  and  C3_4 
ROOT
ATOM      1  C3  UNL d   1      -0.395   0.271  -1.223  0.00  0.00    -0.075 A 
ATOM      2  C4  UNL d   1       0.782  -0.291  -1.738  0.00  0.00     0.002 A 
ATOM      3  C5  UNL d   1       1.843  -0.610  -0.890  0.00  0.00     0.002 A 
ATOM      4  C6  UNL d   1       1.746  -0.364   0.477  0.00  0.00    -0.004 A 
ATOM      5  C7  UNL d   1       0.587   0.210   0.997  0.00  0.00     0.002 A 
ATOM      6  C8  UNL d   1      -0.478   0.526   0.152  0.00  0.00     0.002 A 
ENDROOT
BRANCH   1   7
ATOM      7  C2  UNL d   1      -1.559   0.592  -2.131  0.00  0.00     0.056 C 
BRANCH   7   8
ATOM      8  C1  UNL d   1      -1.651   2.070  -2.527  0.00  0.00     0.007 C 
ATOM      9  C   UNL d   1      -3.080   2.596  -2.553  0.00  0.00     0.009 C 
ENDBRANCH   7   8
ENDBRANCH   1   7
TORSDOF 2
ENDMDL
