MODEL 1
REMARK minimizedAffinity -2.43161821
REMARK minimizedRMSD -1
REMARK  2 active torsions:
REMARK  status: ('A' for Active; 'I' for Inactive)
REMARK    1  A    between atoms: C1_2  and  C2_3 
REMARK    2  A    between atoms: C2_3  and  C3_4 
ROOT
ATOM      1  C3  UNL d   1      -0.101   1.682  -0.820  0.00  0.00    -0.075 A 
ATOM      2  C4  UNL d   1       0.051   3.030  -0.463  0.00  0.00     0.002 A 
ATOM      3  C5  UNL d   1      -0.108   4.037  -1.416  0.00  0.00     0.002 A 
ATOM      4  C6  UNL d   1      -0.410   3.710  -2.736  0.00  0.00    -0.004 A 
ATOM      5  C7  UNL d   1      -0.547   2.373  -3.105  0.00  0.00     0.002 A 
ATOM      6  C8  UNL d   1      -0.393   1.364  -2.153  0.00  0.00     0.002 A 
ENDROOT
BRANCH   1   7
ATOM      7  C2  UNL d   1       0.041   0.590   0.213  0.00  0.00     0.056 C 
BRANCH   7   8
ATOM      8  C1  UNL d   1       0.431  -0.773  -0.371  0.00  0.00     0.007 C 
ATOM      9  C   UNL d   1       1.535  -1.468   0.415  0.00  0.00     0.009 C 
ENDBRANCH   7   8
ENDBRANCH   1   7
TORSDOF 2
ENDMDL
