MODEL 1
REMARK minimizedAffinity -5.8245244
REMARK minimizedRMSD -1
REMARK  2 active torsions:
REMARK  status: ('A' for Active; 'I' for Inactive)
REMARK    1  A    between atoms: C1_2  and  C2_3 
REMARK    2  A    between atoms: C2_3  and  C3_4 
ROOT
ATOM      1  C3  UNL d   1      -1.566  -0.573   1.178  0.00  0.00    -0.075 A 
ATOM      2  C4  UNL d   1      -0.706  -0.566   2.286  0.00  0.00     0.002 A 
ATOM      3  C5  UNL d   1       0.635  -0.213   2.139  0.00  0.00     0.002 A 
ATOM      4  C6  UNL d   1       1.136   0.127   0.884  0.00  0.00    -0.004 A 
ATOM      5  C7  UNL d   1       0.295   0.107  -0.226  0.00  0.00     0.002 A 
ATOM      6  C8  UNL d   1      -1.049  -0.242  -0.082  0.00  0.00     0.002 A 
ENDROOT
BRANCH   1   7
ATOM      7  C2  UNL d   1      -3.026  -0.926   1.335  0.00  0.00     0.056 C 
BRANCH   7   8
ATOM      8  C1  UNL d   1      -3.599  -1.744   0.172  0.00  0.00     0.007 C 
ATOM      9  C   UNL d   1      -5.050  -2.153   0.384  0.00  0.00     0.009 C 
ENDBRANCH   7   8
ENDBRANCH   1   7
TORSDOF 2
ENDMDL
