MODEL 1
REMARK minimizedAffinity -4.08125496
REMARK minimizedRMSD -1
REMARK  2 active torsions:
REMARK  status: ('A' for Active; 'I' for Inactive)
REMARK    1  A    between atoms: C1_2  and  C2_3 
REMARK    2  A    between atoms: C2_3  and  C3_4 
ROOT
ATOM      1  C3  UNL d   1       0.031  -0.089  -0.041  0.00  0.00    -0.075 A 
ATOM      2  C4  UNL d   1       0.671  -0.675  -1.143  0.00  0.00     0.002 A 
ATOM      3  C5  UNL d   1       1.973  -1.163  -1.029  0.00  0.00     0.002 A 
ATOM      4  C6  UNL d   1       2.654  -1.062   0.182  0.00  0.00    -0.004 A 
ATOM      5  C7  UNL d   1       2.034  -0.467   1.278  0.00  0.00     0.002 A 
ATOM      6  C8  UNL d   1       0.730   0.018   1.168  0.00  0.00     0.002 A 
ENDROOT
BRANCH   1   7
ATOM      7  C2  UNL d   1      -1.389   0.414  -0.150  0.00  0.00     0.056 C 
BRANCH   7   8
ATOM      8  C1  UNL d   1      -2.448  -0.617   0.253  0.00  0.00     0.007 C 
ATOM      9  C   UNL d   1      -3.211  -1.190  -0.934  0.00  0.00     0.009 C 
ENDBRANCH   7   8
ENDBRANCH   1   7
TORSDOF 2
ENDMDL
