MODEL 1
REMARK minimizedAffinity 2.51874065
REMARK minimizedRMSD -1
REMARK  2 active torsions:
REMARK  status: ('A' for Active; 'I' for Inactive)
REMARK    1  A    between atoms: C1_2  and  C2_3 
REMARK    2  A    between atoms: C2_3  and  C3_4 
ROOT
ATOM      1  C3  UNL d   1      -2.015  -0.529  -0.549  0.00  0.00    -0.075 A 
ATOM      2  C4  UNL d   1      -2.950  -0.911   0.423  0.00  0.00     0.002 A 
ATOM      3  C5  UNL d   1      -4.079  -1.650   0.069  0.00  0.00     0.002 A 
ATOM      4  C6  UNL d   1      -4.293  -2.007  -1.261  0.00  0.00    -0.004 A 
ATOM      5  C7  UNL d   1      -3.378  -1.619  -2.238  0.00  0.00     0.002 A 
ATOM      6  C8  UNL d   1      -2.246  -0.883  -1.885  0.00  0.00     0.002 A 
ENDROOT
BRANCH   1   7
ATOM      7  C2  UNL d   1      -0.776   0.245  -0.168  0.00  0.00     0.056 C 
BRANCH   7   8
ATOM      8  C1  UNL d   1       0.506  -0.258  -0.840  0.00  0.00     0.007 C 
ATOM      9  C   UNL d   1       1.596  -0.636   0.154  0.00  0.00     0.009 C 
ENDBRANCH   7   8
ENDBRANCH   1   7
TORSDOF 2
ENDMDL
