MODEL 1
REMARK minimizedAffinity 0.229419857
REMARK minimizedRMSD -1
REMARK  2 active torsions:
REMARK  status: ('A' for Active; 'I' for Inactive)
REMARK    1  A    between atoms: C1_2  and  C2_3 
REMARK    2  A    between atoms: C2_3  and  C3_4 
ROOT
ATOM      1  C3  UNL d   1       0.890  -0.995   1.117  0.00  0.00    -0.075 A 
ATOM      2  C4  UNL d   1      -0.157  -0.203   0.622  0.00  0.00     0.002 A 
ATOM      3  C5  UNL d   1      -0.169   0.202  -0.713  0.00  0.00     0.002 A 
ATOM      4  C6  UNL d   1       0.868  -0.170  -1.566  0.00  0.00    -0.004 A 
ATOM      5  C7  UNL d   1       1.922  -0.942  -1.081  0.00  0.00     0.002 A 
ATOM      6  C8  UNL d   1       1.934  -1.352   0.253  0.00  0.00     0.002 A 
ENDROOT
BRANCH   1   7
ATOM      7  C2  UNL d   1       0.894  -1.461   2.553  0.00  0.00     0.056 C 
BRANCH   7   8
ATOM      8  C1  UNL d   1      -0.393  -2.175   2.980  0.00  0.00     0.007 C 
ATOM      9  C   UNL d   1      -0.201  -3.667   3.218  0.00  0.00     0.009 C 
ENDBRANCH   7   8
ENDBRANCH   1   7
TORSDOF 2
ENDMDL
