MODEL 1
REMARK minimizedAffinity -3.50760245
REMARK minimizedRMSD -1
REMARK  2 active torsions:
REMARK  status: ('A' for Active; 'I' for Inactive)
REMARK    1  A    between atoms: C1_2  and  C2_3 
REMARK    2  A    between atoms: C2_3  and  C3_4 
ROOT
ATOM      1  C3  UNL d   1      -0.075   1.098  -2.276  0.00  0.00    -0.075 A 
ATOM      2  C4  UNL d   1       1.077   1.626  -2.878  0.00  0.00     0.002 A 
ATOM      3  C5  UNL d   1       1.102   2.950  -3.317  0.00  0.00     0.002 A 
ATOM      4  C6  UNL d   1      -0.024   3.757  -3.171  0.00  0.00    -0.004 A 
ATOM      5  C7  UNL d   1      -1.178   3.238  -2.589  0.00  0.00     0.002 A 
ATOM      6  C8  UNL d   1      -1.205   1.915  -2.144  0.00  0.00     0.002 A 
ENDROOT
BRANCH   1   7
ATOM      7  C2  UNL d   1      -0.099  -0.325  -1.771  0.00  0.00     0.056 C 
BRANCH   7   8
ATOM      8  C1  UNL d   1       1.181  -0.751  -1.044  0.00  0.00     0.007 C 
ATOM      9  C   UNL d   1       1.226  -0.297   0.409  0.00  0.00     0.009 C 
ENDBRANCH   7   8
ENDBRANCH   1   7
TORSDOF 2
ENDMDL
