MODEL 1
REMARK minimizedAffinity -2.56341743
REMARK minimizedRMSD -1
REMARK  2 active torsions:
REMARK  status: ('A' for Active; 'I' for Inactive)
REMARK    1  A    between atoms: C1_2  and  C2_3 
REMARK    2  A    between atoms: C2_3  and  C3_4 
ROOT
ATOM      1  C3  UNL d   1      -0.039   0.528  -0.308  0.00  0.00    -0.075 A 
ATOM      2  C4  UNL d   1       1.349   0.353  -0.215  0.00  0.00     0.002 A 
ATOM      3  C5  UNL d   1       1.909  -0.301   0.883  0.00  0.00     0.002 A 
ATOM      4  C6  UNL d   1       1.091  -0.778   1.905  0.00  0.00    -0.004 A 
ATOM      5  C7  UNL d   1      -0.288  -0.595   1.831  0.00  0.00     0.002 A 
ATOM      6  C8  UNL d   1      -0.851   0.055   0.731  0.00  0.00     0.002 A 
ENDROOT
BRANCH   1   7
ATOM      7  C2  UNL d   1      -0.654   1.208  -1.508  0.00  0.00     0.056 C 
BRANCH   7   8
ATOM      8  C1  UNL d   1       0.297   2.161  -2.240  0.00  0.00     0.007 C 
ATOM      9  C   UNL d   1      -0.369   3.461  -2.670  0.00  0.00     0.009 C 
ENDBRANCH   7   8
ENDBRANCH   1   7
TORSDOF 2
ENDMDL
