MODEL 1
REMARK minimizedAffinity -3.95134115
REMARK minimizedRMSD -1
REMARK  1 active torsions:
REMARK  status: ('A' for Active; 'I' for Inactive)
REMARK    1  A    between atoms: C3_4  and  O_7 
ROOT
ATOM      1  C   UNL d   1       0.789   3.313   0.299  0.00  0.00    -0.033 A 
ATOM      2  C1  UNL d   1      -0.479   2.737   0.207  0.00  0.00     0.039 A 
ATOM      3  C2  UNL d   1      -0.615   1.348   0.165  0.00  0.00    -0.080 A 
ATOM      4  C3  UNL d   1       0.524   0.548   0.217  0.00  0.00     0.150 A 
ATOM      5  C4  UNL d   1       1.790   1.116   0.312  0.00  0.00    -0.007 A 
ATOM      6  C5  UNL d   1       1.924   2.503   0.353  0.00  0.00     0.039 A 
ENDROOT
BRANCH   4   7
ATOM      7  O   UNL d   1       0.442  -0.812   0.174  0.00  0.00    -0.526 OA
ATOM      8  H5  UNL d   1      -0.493  -1.061   0.079  0.00  0.00     0.418 HD
ENDBRANCH   4   7
TORSDOF 1
ENDMDL
