MODEL 1
REMARK minimizedAffinity -5.03272438
REMARK minimizedRMSD -1
REMARK  1 active torsions:
REMARK  status: ('A' for Active; 'I' for Inactive)
REMARK    1  A    between atoms: C3_4  and  O_7 
ROOT
ATOM      1  C   UNL d   1      -0.579  -0.447   0.543  0.00  0.00    -0.033 A 
ATOM      2  C1  UNL d   1       0.687  -0.104   0.066  0.00  0.00     0.039 A 
ATOM      3  C2  UNL d   1       0.972   1.220  -0.276  0.00  0.00    -0.080 A 
ATOM      4  C3  UNL d   1      -0.017   2.189  -0.135  0.00  0.00     0.150 A 
ATOM      5  C4  UNL d   1      -1.280   1.856   0.343  0.00  0.00    -0.007 A 
ATOM      6  C5  UNL d   1      -1.562   0.533   0.683  0.00  0.00     0.039 A 
ENDROOT
BRANCH   4   7
ATOM      7  O   UNL d   1       0.212   3.493  -0.461  0.00  0.00    -0.526 OA
ATOM      8  H5  UNL d   1       1.118   3.570  -0.804  0.00  0.00     0.418 HD
ENDBRANCH   4   7
TORSDOF 1
ENDMDL
