MODEL 1
REMARK minimizedAffinity -5.36198425
REMARK minimizedRMSD -1
REMARK  1 active torsions:
REMARK  status: ('A' for Active; 'I' for Inactive)
REMARK    1  A    between atoms: C3_4  and  O_7 
ROOT
ATOM      1  C   UNL d   1      -0.108  -0.385   0.187  0.00  0.00    -0.033 A 
ATOM      2  C1  UNL d   1       1.042   0.097  -0.441  0.00  0.00     0.039 A 
ATOM      3  C2  UNL d   1       1.143   1.450  -0.772  0.00  0.00    -0.080 A 
ATOM      4  C3  UNL d   1       0.090   2.308  -0.468  0.00  0.00     0.150 A 
ATOM      5  C4  UNL d   1      -1.057   1.835   0.161  0.00  0.00    -0.007 A 
ATOM      6  C5  UNL d   1      -1.156   0.484   0.490  0.00  0.00     0.039 A 
ENDROOT
BRANCH   4   7
ATOM      7  O   UNL d   1       0.140   3.636  -0.776  0.00  0.00    -0.526 OA
ATOM      8  H5  UNL d   1       0.979   3.814  -1.233  0.00  0.00     0.418 HD
ENDBRANCH   4   7
TORSDOF 1
ENDMDL
