MODEL 1
REMARK minimizedAffinity -4.85605621
REMARK minimizedRMSD -1
REMARK  1 active torsions:
REMARK  status: ('A' for Active; 'I' for Inactive)
REMARK    1  A    between atoms: C3_4  and  O_7 
ROOT
ATOM      1  C   UNL d   1      -0.275   3.271  -0.086  0.00  0.00    -0.033 A 
ATOM      2  C1  UNL d   1      -1.321   2.488   0.407  0.00  0.00     0.039 A 
ATOM      3  C2  UNL d   1      -1.189   1.099   0.461  0.00  0.00    -0.080 A 
ATOM      4  C3  UNL d   1      -0.008   0.507   0.021  0.00  0.00     0.150 A 
ATOM      5  C4  UNL d   1       1.039   1.281  -0.467  0.00  0.00    -0.007 A 
ATOM      6  C5  UNL d   1       0.905   2.668  -0.521  0.00  0.00     0.039 A 
ENDROOT
BRANCH   4   7
ATOM      7  O   UNL d   1       0.165  -0.845   0.050  0.00  0.00    -0.526 OA
ATOM      8  H5  UNL d   1      -0.652  -1.253   0.385  0.00  0.00     0.418 HD
ENDBRANCH   4   7
TORSDOF 1
ENDMDL
