MODEL 1
REMARK minimizedAffinity -5.0352478
REMARK minimizedRMSD -1
REMARK  1 active torsions:
REMARK  status: ('A' for Active; 'I' for Inactive)
REMARK    1  A    between atoms: C3_4  and  O_7 
ROOT
ATOM      1  C   UNL d   1       0.434   2.969  -0.028  0.00  0.00    -0.033 A 
ATOM      2  C1  UNL d   1      -0.802   2.512   0.435  0.00  0.00     0.039 A 
ATOM      3  C2  UNL d   1      -1.068   1.143   0.484  0.00  0.00    -0.080 A 
ATOM      4  C3  UNL d   1      -0.091   0.242   0.069  0.00  0.00     0.150 A 
ATOM      5  C4  UNL d   1       1.143   0.690  -0.390  0.00  0.00    -0.007 A 
ATOM      6  C5  UNL d   1       1.407   2.058  -0.439  0.00  0.00     0.039 A 
ENDROOT
BRANCH   4   7
ATOM      7  O   UNL d   1      -0.307  -1.104   0.094  0.00  0.00    -0.526 OA
ATOM      8  H5  UNL d   1      -1.213  -1.265   0.407  0.00  0.00     0.418 HD
ENDBRANCH   4   7
TORSDOF 1
ENDMDL
