MODEL 1
REMARK minimizedAffinity -4.01784611
REMARK minimizedRMSD -1
REMARK  1 active torsions:
REMARK  status: ('A' for Active; 'I' for Inactive)
REMARK    1  A    between atoms: C3_4  and  O_7 
ROOT
ATOM      1  C   UNL d   1      -0.353  -0.295  -0.242  0.00  0.00    -0.033 A 
ATOM      2  C1  UNL d   1       0.886   0.313  -0.455  0.00  0.00     0.039 A 
ATOM      3  C2  UNL d   1       0.985   1.705  -0.492  0.00  0.00    -0.080 A 
ATOM      4  C3  UNL d   1      -0.160   2.476  -0.314  0.00  0.00     0.150 A 
ATOM      5  C4  UNL d   1      -1.397   1.877  -0.098  0.00  0.00    -0.007 A 
ATOM      6  C5  UNL d   1      -1.494   0.487  -0.063  0.00  0.00     0.039 A 
ENDROOT
BRANCH   4   7
ATOM      7  O   UNL d   1      -0.114   3.838  -0.347  0.00  0.00    -0.526 OA
ATOM      8  H5  UNL d   1       0.801   4.111  -0.533  0.00  0.00     0.418 HD
ENDBRANCH   4   7
TORSDOF 1
ENDMDL
