MODEL 1
REMARK minimizedAffinity -2.41274667
REMARK minimizedRMSD -1
REMARK  1 active torsions:
REMARK  status: ('A' for Active; 'I' for Inactive)
REMARK    1  A    between atoms: C3_4  and  O_7 
ROOT
ATOM      1  C   UNL d   1       0.619   3.439   0.429  0.00  0.00    -0.033 A 
ATOM      2  C1  UNL d   1       1.532   2.675  -0.301  0.00  0.00     0.039 A 
ATOM      3  C2  UNL d   1       1.250   1.340  -0.596  0.00  0.00    -0.080 A 
ATOM      4  C3  UNL d   1       0.053   0.781  -0.156  0.00  0.00     0.150 A 
ATOM      5  C4  UNL d   1      -0.863   1.537   0.568  0.00  0.00    -0.007 A 
ATOM      6  C5  UNL d   1      -0.579   2.870   0.862  0.00  0.00     0.039 A 
ENDROOT
BRANCH   4   7
ATOM      7  O   UNL d   1      -0.264  -0.519  -0.415  0.00  0.00    -0.526 OA
ATOM      8  H5  UNL d   1       0.475  -0.926  -0.898  0.00  0.00     0.418 HD
ENDBRANCH   4   7
TORSDOF 1
ENDMDL
