MODEL 1
REMARK minimizedAffinity -3.12168694
REMARK minimizedRMSD -1
REMARK  1 active torsions:
REMARK  status: ('A' for Active; 'I' for Inactive)
REMARK    1  A    between atoms: C3_4  and  O_7 
ROOT
ATOM      1  C   UNL d   1       0.389  -0.870   0.396  0.00  0.00    -0.033 A 
ATOM      2  C1  UNL d   1      -0.970  -0.595   0.568  0.00  0.00     0.039 A 
ATOM      3  C2  UNL d   1      -1.408   0.726   0.676  0.00  0.00    -0.080 A 
ATOM      4  C3  UNL d   1      -0.480   1.762   0.609  0.00  0.00     0.150 A 
ATOM      5  C4  UNL d   1       0.874   1.495   0.434  0.00  0.00    -0.007 A 
ATOM      6  C5  UNL d   1       1.310   0.175   0.328  0.00  0.00     0.039 A 
ENDROOT
BRANCH   4   7
ATOM      7  O   UNL d   1      -0.860   3.067   0.713  0.00  0.00    -0.526 OA
ATOM      8  H5  UNL d   1      -1.821   3.097   0.860  0.00  0.00     0.418 HD
ENDBRANCH   4   7
TORSDOF 1
ENDMDL
