MODEL 1
REMARK minimizedAffinity -0.45235154
REMARK minimizedRMSD -1
REMARK  1 active torsions:
REMARK  status: ('A' for Active; 'I' for Inactive)
REMARK    1  A    between atoms: C3_4  and  O_7 
ROOT
ATOM      1  C   UNL d   1      -1.736  -3.908  -2.035  0.00  0.00    -0.033 A 
ATOM      2  C1  UNL d   1      -0.713  -4.032  -1.094  0.00  0.00     0.039 A 
ATOM      3  C2  UNL d   1      -0.219  -2.900  -0.443  0.00  0.00    -0.080 A 
ATOM      4  C3  UNL d   1      -0.757  -1.651  -0.741  0.00  0.00     0.150 A 
ATOM      5  C4  UNL d   1      -1.780  -1.520  -1.675  0.00  0.00    -0.007 A 
ATOM      6  C5  UNL d   1      -2.271  -2.652  -2.324  0.00  0.00     0.039 A 
ENDROOT
BRANCH   4   7
ATOM      7  O   UNL d   1      -0.304  -0.517  -0.136  0.00  0.00    -0.526 OA
ATOM      8  H5  UNL d   1       0.422  -0.757   0.463  0.00  0.00     0.418 HD
ENDBRANCH   4   7
TORSDOF 1
ENDMDL
