MODEL 1
REMARK minimizedAffinity -4.21962881
REMARK minimizedRMSD -1
REMARK  1 active torsions:
REMARK  status: ('A' for Active; 'I' for Inactive)
REMARK    1  A    between atoms: C3_4  and  O_7 
ROOT
ATOM      1  C   UNL d   1      -0.344  -0.531   0.464  0.00  0.00    -0.033 A 
ATOM      2  C1  UNL d   1       0.827   0.003  -0.077  0.00  0.00     0.039 A 
ATOM      3  C2  UNL d   1       0.903   1.365  -0.376  0.00  0.00    -0.080 A 
ATOM      4  C3  UNL d   1      -0.197   2.181  -0.128  0.00  0.00     0.150 A 
ATOM      5  C4  UNL d   1      -1.366   1.656   0.415  0.00  0.00    -0.007 A 
ATOM      6  C5  UNL d   1      -1.440   0.296   0.712  0.00  0.00     0.039 A 
ENDROOT
BRANCH   4   7
ATOM      7  O   UNL d   1      -0.172   3.515  -0.407  0.00  0.00    -0.526 OA
ATOM      8  H5  UNL d   1       0.688   3.730  -0.804  0.00  0.00     0.418 HD
ENDBRANCH   4   7
TORSDOF 1
ENDMDL
