MODEL 1
REMARK minimizedAffinity -4.09543419
REMARK minimizedRMSD -1
REMARK  1 active torsions:
REMARK  status: ('A' for Active; 'I' for Inactive)
REMARK    1  A    between atoms: C3_4  and  O_7 
ROOT
ATOM      1  C   UNL d   1       0.650  -0.653   0.179  0.00  0.00    -0.033 A 
ATOM      2  C1  UNL d   1      -0.681  -0.234   0.211  0.00  0.00     0.039 A 
ATOM      3  C2  UNL d   1      -0.990   1.124   0.107  0.00  0.00    -0.080 A 
ATOM      4  C3  UNL d   1       0.040   2.050  -0.029  0.00  0.00     0.150 A 
ATOM      5  C4  UNL d   1       1.368   1.639  -0.065  0.00  0.00    -0.007 A 
ATOM      6  C5  UNL d   1       1.675   0.283   0.040  0.00  0.00     0.039 A 
ENDROOT
BRANCH   4   7
ATOM      7  O   UNL d   1      -0.212   3.386  -0.129  0.00  0.00    -0.526 OA
ATOM      8  H5  UNL d   1      -1.171   3.525  -0.060  0.00  0.00     0.418 HD
ENDBRANCH   4   7
TORSDOF 1
ENDMDL
