MODEL 1
REMARK minimizedAffinity 9.42120552
REMARK minimizedRMSD -1
REMARK  1 active torsions:
REMARK  status: ('A' for Active; 'I' for Inactive)
REMARK    1  A    between atoms: C3_4  and  O_7 
ROOT
ATOM      1  C   UNL d   1       1.113  -5.666  -2.283  0.00  0.00    -0.033 A 
ATOM      2  C1  UNL d   1       1.226  -4.483  -3.017  0.00  0.00     0.039 A 
ATOM      3  C2  UNL d   1       2.164  -3.517  -2.647  0.00  0.00    -0.080 A 
ATOM      4  C3  UNL d   1       2.982  -3.746  -1.544  0.00  0.00     0.150 A 
ATOM      5  C4  UNL d   1       2.878  -4.924  -0.811  0.00  0.00    -0.007 A 
ATOM      6  C5  UNL d   1       1.940  -5.887  -1.182  0.00  0.00     0.039 A 
ENDROOT
BRANCH   4   7
ATOM      7  O   UNL d   1       3.909  -2.831  -1.142  0.00  0.00    -0.526 OA
ATOM      8  H5  UNL d   1       3.848  -2.055  -1.724  0.00  0.00     0.418 HD
ENDBRANCH   4   7
TORSDOF 1
ENDMDL
