MODEL 1
REMARK minimizedAffinity -4.01353788
REMARK minimizedRMSD -1
REMARK  1 active torsions:
REMARK  status: ('A' for Active; 'I' for Inactive)
REMARK    1  A    between atoms: C3_4  and  O_7 
ROOT
ATOM      1  C   UNL d   1      -0.294   0.046   0.168  0.00  0.00    -0.033 A 
ATOM      2  C1  UNL d   1       0.829   0.518  -0.515  0.00  0.00     0.039 A 
ATOM      3  C2  UNL d   1       0.968   1.883  -0.773  0.00  0.00    -0.080 A 
ATOM      4  C3  UNL d   1      -0.020   2.764  -0.343  0.00  0.00     0.150 A 
ATOM      5  C4  UNL d   1      -1.139   2.301   0.342  0.00  0.00    -0.007 A 
ATOM      6  C5  UNL d   1      -1.277   0.937   0.598  0.00  0.00     0.039 A 
ENDROOT
BRANCH   4   7
ATOM      7  O   UNL d   1       0.069   4.104  -0.576  0.00  0.00    -0.526 OA
ATOM      8  H5  UNL d   1       0.880   4.275  -1.083  0.00  0.00     0.418 HD
ENDBRANCH   4   7
TORSDOF 1
ENDMDL
