MODEL 1
REMARK minimizedAffinity 1.79310143
REMARK minimizedRMSD -1
REMARK  0 active torsions:
REMARK  status: ('A' for Active; 'I' for Inactive)
ROOT
ATOM      1  C   UNL d   1       4.525  -1.393   0.427  0.00  0.00     0.023 A 
ATOM      2  C1  UNL d   1       5.679  -1.887  -0.180  0.00  0.00     0.003 A 
ATOM      3  C2  UNL d   1       5.595  -2.956  -1.075  0.00  0.00     0.048 A 
ATOM      4  C3  UNL d   1       4.354  -3.526  -1.358  0.00  0.00     0.023 A 
ATOM      5  C4  UNL d   1       3.197  -3.034  -0.752  0.00  0.00     0.048 A 
ATOM      6  C5  UNL d   1       3.285  -1.965   0.142  0.00  0.00     0.003 A 
ATOM      7  I   UNL d   1       4.227  -5.117  -2.689  0.00  0.00    -0.146 I 
ENDROOT
TORSDOF 0
ENDMDL
