MODEL 1
REMARK minimizedAffinity 1.10197103
REMARK minimizedRMSD -1
REMARK  0 active torsions:
REMARK  status: ('A' for Active; 'I' for Inactive)
ROOT
ATOM      1  C   UNL d   1       4.509  -6.000  -1.287  0.00  0.00     0.023 A 
ATOM      2  C1  UNL d   1       3.528  -5.907  -2.275  0.00  0.00     0.003 A 
ATOM      3  C2  UNL d   1       3.424  -4.751  -3.051  0.00  0.00     0.048 A 
ATOM      4  C3  UNL d   1       4.305  -3.691  -2.834  0.00  0.00     0.023 A 
ATOM      5  C4  UNL d   1       5.288  -3.780  -1.848  0.00  0.00     0.048 A 
ATOM      6  C5  UNL d   1       5.387  -4.938  -1.074  0.00  0.00     0.003 A 
ATOM      7  I   UNL d   1       4.152  -1.970  -3.988  0.00  0.00    -0.146 I 
ENDROOT
TORSDOF 0
ENDMDL
