MODEL 1
REMARK minimizedAffinity 0.999443173
REMARK minimizedRMSD -1
REMARK  0 active torsions:
REMARK  status: ('A' for Active; 'I' for Inactive)
ROOT
ATOM      1  C   UNL d   1       4.116  -2.422  -1.092  0.00  0.00     0.023 A 
ATOM      2  C1  UNL d   1       4.991  -3.465  -0.789  0.00  0.00     0.003 A 
ATOM      3  C2  UNL d   1       5.199  -4.493  -1.711  0.00  0.00     0.048 A 
ATOM      4  C3  UNL d   1       4.530  -4.471  -2.934  0.00  0.00     0.023 A 
ATOM      5  C4  UNL d   1       3.653  -3.428  -3.241  0.00  0.00     0.048 A 
ATOM      6  C5  UNL d   1       3.448  -2.403  -2.316  0.00  0.00     0.003 A 
ATOM      7  I   UNL d   1       4.838  -5.999  -4.308  0.00  0.00    -0.146 I 
ENDROOT
TORSDOF 0
ENDMDL
