MODEL 1
REMARK minimizedAffinity 8.37979889
REMARK minimizedRMSD -1
REMARK  0 active torsions:
REMARK  status: ('A' for Active; 'I' for Inactive)
ROOT
ATOM      1  C   UNL d   1      -0.425   3.986  -2.216  0.00  0.00     0.023 A 
ATOM      2  C1  UNL d   1      -0.721   2.622  -2.224  0.00  0.00     0.003 A 
ATOM      3  C2  UNL d   1      -0.524   1.857  -1.072  0.00  0.00     0.048 A 
ATOM      4  C3  UNL d   1      -0.034   2.462   0.084  0.00  0.00     0.023 A 
ATOM      5  C4  UNL d   1       0.262   3.826   0.097  0.00  0.00     0.048 A 
ATOM      6  C5  UNL d   1       0.066   4.587  -1.057  0.00  0.00     0.003 A 
ATOM      7  I   UNL d   1       0.259   1.326   1.800  0.00  0.00    -0.146 I 
ENDROOT
TORSDOF 0
ENDMDL
