MODEL 1
REMARK minimizedAffinity 10.9226198
REMARK minimizedRMSD -1
REMARK  1 active torsions:
REMARK  status: ('A' for Active; 'I' for Inactive)
REMARK    1  A    between atoms: C1_2  and  C2_3 
ROOT
ATOM      1  C2  UNL d   1      -2.638   1.989  -1.653  0.00  0.00    -0.073 A 
ATOM      2  C3  UNL d   1      -3.919   1.954  -1.091  0.00  0.00    -0.002 A 
ATOM      3  C4  UNL d   1      -4.750   0.852  -1.298  0.00  0.00     0.004 A 
ATOM      4  C5  UNL d   1      -4.307  -0.228  -2.061  0.00  0.00    -0.004 A 
ATOM      5  C6  UNL d   1      -3.026  -0.217  -2.622  0.00  0.00    -0.075 A 
ATOM      6  C7  UNL d   1      -2.536  -1.370  -3.448  0.00  0.00     0.076 C 
ATOM      7  C8  UNL d   1      -2.198   0.894  -2.412  0.00  0.00     0.001 A 
ENDROOT
BRANCH   1   8
ATOM      8  C1  UNL d   1      -1.734   3.173  -1.428  0.00  0.00     0.053 C 
ATOM      9  C   UNL d   1      -2.178   4.389  -2.226  0.00  0.00     0.018 C 
ENDBRANCH   1   8
TORSDOF 1
ENDMDL
