MODEL 1
REMARK minimizedAffinity 6.65526772
REMARK minimizedRMSD -1
REMARK  1 active torsions:
REMARK  status: ('A' for Active; 'I' for Inactive)
REMARK    1  A    between atoms: C1_2  and  C2_3 
ROOT
ATOM      1  C2  UNL d   1      -5.027   2.580  -4.075  0.00  0.00    -0.073 A 
ATOM      2  C3  UNL d   1      -6.000   2.979  -4.999  0.00  0.00    -0.002 A 
ATOM      3  C4  UNL d   1      -5.903   4.218  -5.634  0.00  0.00     0.004 A 
ATOM      4  C5  UNL d   1      -4.831   5.066  -5.357  0.00  0.00    -0.004 A 
ATOM      5  C6  UNL d   1      -3.843   4.681  -4.446  0.00  0.00    -0.075 A 
ATOM      6  C7  UNL d   1      -2.685   5.583  -4.136  0.00  0.00     0.076 C 
ATOM      7  C8  UNL d   1      -3.948   3.436  -3.810  0.00  0.00     0.001 A 
ENDROOT
BRANCH   1   8
ATOM      8  C1  UNL d   1      -5.124   1.241  -3.392  0.00  0.00     0.053 C 
ATOM      9  C   UNL d   1      -3.820   0.851  -2.713  0.00  0.00     0.018 C 
ENDBRANCH   1   8
TORSDOF 1
ENDMDL
