MODEL 1
REMARK minimizedAffinity 1.97854686
REMARK minimizedRMSD -1
REMARK  1 active torsions:
REMARK  status: ('A' for Active; 'I' for Inactive)
REMARK    1  A    between atoms: C1_2  and  C2_3 
ROOT
ATOM      1  C2  UNL d   1       0.878  -0.537  -1.608  0.00  0.00    -0.073 A 
ATOM      2  C3  UNL d   1       1.404  -1.406  -0.646  0.00  0.00    -0.002 A 
ATOM      3  C4  UNL d   1       1.680  -0.948   0.643  0.00  0.00     0.004 A 
ATOM      4  C5  UNL d   1       1.427   0.381   0.984  0.00  0.00    -0.004 A 
ATOM      5  C6  UNL d   1       0.890   1.262   0.040  0.00  0.00    -0.075 A 
ATOM      6  C7  UNL d   1       0.614   2.695   0.391  0.00  0.00     0.076 C 
ATOM      7  C8  UNL d   1       0.618   0.795  -1.253  0.00  0.00     0.001 A 
ENDROOT
BRANCH   1   8
ATOM      8  C1  UNL d   1       0.572  -1.029  -2.999  0.00  0.00     0.053 C 
ATOM      9  C   UNL d   1       0.311  -2.527  -3.029  0.00  0.00     0.018 C 
ENDBRANCH   1   8
TORSDOF 1
ENDMDL
