MODEL 1
REMARK minimizedAffinity 6.02342653
REMARK minimizedRMSD -1
REMARK  1 active torsions:
REMARK  status: ('A' for Active; 'I' for Inactive)
REMARK    1  A    between atoms: C1_2  and  C2_3 
ROOT
ATOM      1  C2  UNL d   1       4.500  -3.245  -1.355  0.00  0.00    -0.073 A 
ATOM      2  C3  UNL d   1       4.135  -4.309  -0.522  0.00  0.00    -0.002 A 
ATOM      3  C4  UNL d   1       4.288  -5.627  -0.955  0.00  0.00     0.004 A 
ATOM      4  C5  UNL d   1       4.814  -5.894  -2.219  0.00  0.00    -0.004 A 
ATOM      5  C6  UNL d   1       5.195  -4.845  -3.061  0.00  0.00    -0.075 A 
ATOM      6  C7  UNL d   1       5.759  -5.116  -4.425  0.00  0.00     0.076 C 
ATOM      7  C8  UNL d   1       5.035  -3.524  -2.621  0.00  0.00     0.001 A 
ENDROOT
BRANCH   1   8
ATOM      8  C1  UNL d   1       4.342  -1.820  -0.890  0.00  0.00     0.053 C 
ATOM      9  C   UNL d   1       2.883  -1.447  -0.681  0.00  0.00     0.018 C 
ENDBRANCH   1   8
TORSDOF 1
ENDMDL
