MODEL 1
REMARK minimizedAffinity 7.20302153
REMARK minimizedRMSD -1
REMARK  1 active torsions:
REMARK  status: ('A' for Active; 'I' for Inactive)
REMARK    1  A    between atoms: C1_2  and  C2_3 
ROOT
ATOM      1  C2  UNL d   1       1.474   4.656  -0.330  0.00  0.00    -0.073 A 
ATOM      2  C3  UNL d   1       1.273   4.444   1.038  0.00  0.00    -0.002 A 
ATOM      3  C4  UNL d   1       0.805   3.213   1.500  0.00  0.00     0.004 A 
ATOM      4  C5  UNL d   1       0.538   2.182   0.600  0.00  0.00    -0.004 A 
ATOM      5  C6  UNL d   1       0.744   2.370  -0.771  0.00  0.00    -0.075 A 
ATOM      6  C7  UNL d   1       0.460   1.271  -1.752  0.00  0.00     0.076 C 
ATOM      7  C8  UNL d   1       1.212   3.610  -1.227  0.00  0.00     0.001 A 
ENDROOT
BRANCH   1   8
ATOM      8  C1  UNL d   1       1.986   5.981  -0.833  0.00  0.00     0.053 C 
ATOM      9  C   UNL d   1       2.135   5.998  -2.346  0.00  0.00     0.018 C 
ENDBRANCH   1   8
TORSDOF 1
ENDMDL
