MODEL 1
REMARK minimizedAffinity -3.90085411
REMARK minimizedRMSD -1
REMARK  1 active torsions:
REMARK  status: ('A' for Active; 'I' for Inactive)
REMARK    1  A    between atoms: C1_2  and  C2_3 
ROOT
ATOM      1  C2  UNL d   1       5.104  -4.322  -4.764  0.00  0.00    -0.081 A 
ATOM      2  C3  UNL d   1       5.994  -3.420  -4.169  0.00  0.00     0.006 A 
ATOM      3  C4  UNL d   1       5.940  -2.060  -4.483  0.00  0.00     0.002 A 
ATOM      4  C5  UNL d   1       4.991  -1.578  -5.391  0.00  0.00    -0.080 A 
ATOM      5  C6  UNL d   1       4.902  -0.116  -5.714  0.00  0.00     0.076 C 
ATOM      6  C7  UNL d   1       4.113  -2.482  -5.999  0.00  0.00     0.002 A 
ATOM      7  C8  UNL d   1       4.167  -3.842  -5.686  0.00  0.00     0.006 A 
ENDROOT
BRANCH   1   8
ATOM      8  C1  UNL d   1       5.117  -5.779  -4.379  0.00  0.00     0.054 C 
ATOM      9  C   UNL d   1       4.453  -6.000  -3.027  0.00  0.00     0.018 C 
ENDBRANCH   1   8
TORSDOF 1
ENDMDL
