MODEL 1
REMARK minimizedAffinity -3.57125354
REMARK minimizedRMSD -1
REMARK  1 active torsions:
REMARK  status: ('A' for Active; 'I' for Inactive)
REMARK    1  A    between atoms: C1_2  and  C2_3 
ROOT
ATOM      1  C2  UNL d   1       4.885  -4.128  -5.109  0.00  0.00    -0.081 A 
ATOM      2  C3  UNL d   1       5.994  -3.321  -4.824  0.00  0.00     0.006 A 
ATOM      3  C4  UNL d   1       5.971  -1.956  -5.120  0.00  0.00     0.002 A 
ATOM      4  C5  UNL d   1       4.838  -1.374  -5.698  0.00  0.00    -0.080 A 
ATOM      5  C6  UNL d   1       4.788   0.096  -5.993  0.00  0.00     0.076 C 
ATOM      6  C7  UNL d   1       3.737  -2.183  -5.999  0.00  0.00     0.002 A 
ATOM      7  C8  UNL d   1       3.759  -3.548  -5.704  0.00  0.00     0.006 A 
ENDROOT
BRANCH   1   8
ATOM      8  C1  UNL d   1       4.883  -5.587  -4.732  0.00  0.00     0.054 C 
ATOM      9  C   UNL d   1       5.947  -5.891  -3.687  0.00  0.00     0.018 C 
ENDBRANCH   1   8
TORSDOF 1
ENDMDL
