MODEL 1
REMARK minimizedAffinity -2.58353949
REMARK minimizedRMSD -1
REMARK  1 active torsions:
REMARK  status: ('A' for Active; 'I' for Inactive)
REMARK    1  A    between atoms: C1_2  and  C2_3 
ROOT
ATOM      1  C2  UNL d   1       4.106  -4.427  -4.934  0.00  0.00    -0.081 A 
ATOM      2  C3  UNL d   1       5.395  -4.413  -5.481  0.00  0.00     0.006 A 
ATOM      3  C4  UNL d   1       6.000  -3.205  -5.838  0.00  0.00     0.002 A 
ATOM      4  C5  UNL d   1       5.329  -1.992  -5.648  0.00  0.00    -0.080 A 
ATOM      5  C6  UNL d   1       5.979  -0.686  -5.999  0.00  0.00     0.076 C 
ATOM      6  C7  UNL d   1       4.035  -2.007  -5.117  0.00  0.00     0.002 A 
ATOM      7  C8  UNL d   1       3.430  -3.214  -4.761  0.00  0.00     0.006 A 
ENDROOT
BRANCH   1   8
ATOM      8  C1  UNL d   1       3.477  -5.722  -4.488  0.00  0.00     0.054 C 
ATOM      9  C   UNL d   1       3.765  -6.000  -3.019  0.00  0.00     0.018 C 
ENDBRANCH   1   8
TORSDOF 1
ENDMDL
