MODEL 1
REMARK minimizedAffinity 1.00320148
REMARK minimizedRMSD -1
REMARK  1 active torsions:
REMARK  status: ('A' for Active; 'I' for Inactive)
REMARK    1  A    between atoms: C1_2  and  C2_3 
ROOT
ATOM      1  C2  UNL d   1       5.210  -3.739  -4.922  0.00  0.00    -0.081 A 
ATOM      2  C3  UNL d   1       4.051  -3.360  -5.611  0.00  0.00     0.006 A 
ATOM      3  C4  UNL d   1       3.695  -2.013  -5.711  0.00  0.00     0.002 A 
ATOM      4  C5  UNL d   1       4.496  -1.022  -5.133  0.00  0.00    -0.080 A 
ATOM      5  C6  UNL d   1       4.142   0.430  -5.260  0.00  0.00     0.076 C 
ATOM      6  C7  UNL d   1       5.644  -1.402  -4.430  0.00  0.00     0.002 A 
ATOM      7  C8  UNL d   1       6.000  -2.749  -4.328  0.00  0.00     0.006 A 
ENDROOT
BRANCH   1   8
ATOM      8  C1  UNL d   1       5.630  -5.185  -4.867  0.00  0.00     0.054 C 
ATOM      9  C   UNL d   1       4.957  -5.999  -5.962  0.00  0.00     0.018 C 
ENDBRANCH   1   8
TORSDOF 1
ENDMDL
