MODEL 1
REMARK minimizedAffinity -4.35810471
REMARK minimizedRMSD -1
REMARK  1 active torsions:
REMARK  status: ('A' for Active; 'I' for Inactive)
REMARK    1  A    between atoms: C1_2  and  C2_3 
ROOT
ATOM      1  C2  UNL d   1       4.902  -4.208  -5.124  0.00  0.00    -0.081 A 
ATOM      2  C3  UNL d   1       3.650  -3.609  -4.942  0.00  0.00     0.006 A 
ATOM      3  C4  UNL d   1       3.479  -2.242  -5.175  0.00  0.00     0.002 A 
ATOM      4  C5  UNL d   1       4.553  -1.455  -5.602  0.00  0.00    -0.080 A 
ATOM      5  C6  UNL d   1       4.375   0.008  -5.885  0.00  0.00     0.076 C 
ATOM      6  C7  UNL d   1       5.808  -2.050  -5.767  0.00  0.00     0.002 A 
ATOM      7  C8  UNL d   1       5.981  -3.416  -5.534  0.00  0.00     0.006 A 
ENDROOT
BRANCH   1   8
ATOM      8  C1  UNL d   1       5.076  -5.694  -4.936  0.00  0.00     0.054 C 
ATOM      9  C   UNL d   1       5.967  -6.000  -3.741  0.00  0.00     0.018 C 
ENDBRANCH   1   8
TORSDOF 1
ENDMDL
