MODEL 1
REMARK minimizedAffinity -2.09540415
REMARK minimizedRMSD -1
REMARK  1 active torsions:
REMARK  status: ('A' for Active; 'I' for Inactive)
REMARK    1  A    between atoms: C1_2  and  C2_3 
ROOT
ATOM      1  C2  UNL d   1       4.889  -4.571  -4.457  0.00  0.00    -0.081 A 
ATOM      2  C3  UNL d   1       4.058  -4.351  -5.562  0.00  0.00     0.006 A 
ATOM      3  C4  UNL d   1       3.708  -3.052  -5.938  0.00  0.00     0.002 A 
ATOM      4  C5  UNL d   1       4.190  -1.952  -5.221  0.00  0.00    -0.080 A 
ATOM      5  C6  UNL d   1       3.847  -0.551  -5.633  0.00  0.00     0.076 C 
ATOM      6  C7  UNL d   1       5.007  -2.172  -4.107  0.00  0.00     0.002 A 
ATOM      7  C8  UNL d   1       5.356  -3.470  -3.730  0.00  0.00     0.006 A 
ENDROOT
BRANCH   1   8
ATOM      8  C1  UNL d   1       5.320  -5.967  -4.088  0.00  0.00     0.054 C 
ATOM      9  C   UNL d   1       6.000  -5.995  -2.726  0.00  0.00     0.018 C 
ENDBRANCH   1   8
TORSDOF 1
ENDMDL
