MODEL 1
REMARK minimizedAffinity -4.87965441
REMARK minimizedRMSD -1
REMARK  1 active torsions:
REMARK  status: ('A' for Active; 'I' for Inactive)
REMARK    1  A    between atoms: C1_2  and  C2_3 
ROOT
ATOM      1  C2  UNL d   1      -0.117   0.014   0.795  0.00  0.00    -0.076 A 
ATOM      2  C3  UNL d   1       1.256  -0.289   0.813  0.00  0.00     0.004 A 
ATOM      3  C4  UNL d   1       1.839  -0.911   1.915  0.00  0.00    -0.003 A 
ATOM      4  C5  UNL d   1       1.059  -1.240   3.019  0.00  0.00     0.000 A 
ATOM      5  C6  UNL d   1      -0.308  -0.962   3.011  0.00  0.00     0.000 A 
ATOM      6  C7  UNL d   1      -0.915  -0.351   1.901  0.00  0.00    -0.073 A 
ATOM      7  C8  UNL d   1      -2.391  -0.069   1.949  0.00  0.00     0.078 C 
ENDROOT
BRANCH   1   8
ATOM      8  C1  UNL d   1      -0.689   0.714  -0.417  0.00  0.00     0.053 C 
ATOM      9  C   UNL d   1      -0.317   0.021  -1.719  0.00  0.00     0.018 C 
ENDBRANCH   1   8
TORSDOF 1
ENDMDL
