MODEL 1
REMARK minimizedAffinity -3.58675432
REMARK minimizedRMSD -1
REMARK  1 active torsions:
REMARK  status: ('A' for Active; 'I' for Inactive)
REMARK    1  A    between atoms: C1_2  and  C2_3 
ROOT
ATOM      1  C2  UNL d   1      -0.157   0.193  -0.145  0.00  0.00    -0.076 A 
ATOM      2  C3  UNL d   1      -1.182   0.633   0.711  0.00  0.00     0.004 A 
ATOM      3  C4  UNL d   1      -1.278   0.159   2.018  0.00  0.00    -0.003 A 
ATOM      4  C5  UNL d   1      -0.351  -0.762   2.491  0.00  0.00     0.000 A 
ATOM      5  C6  UNL d   1       0.683  -1.197   1.662  0.00  0.00     0.000 A 
ATOM      6  C7  UNL d   1       0.804  -0.717   0.347  0.00  0.00    -0.073 A 
ATOM      7  C8  UNL d   1       1.934  -1.224  -0.506  0.00  0.00     0.078 C 
ENDROOT
BRANCH   1   8
ATOM      8  C1  UNL d   1      -0.119   0.721  -1.561  0.00  0.00     0.053 C 
ATOM      9  C   UNL d   1      -0.613   2.155  -1.662  0.00  0.00     0.018 C 
ENDBRANCH   1   8
TORSDOF 1
ENDMDL
