MODEL 1
REMARK minimizedAffinity -5.15721941
REMARK minimizedRMSD -1
REMARK  1 active torsions:
REMARK  status: ('A' for Active; 'I' for Inactive)
REMARK    1  A    between atoms: C1_2  and  C2_3 
ROOT
ATOM      1  C2  UNL d   1       1.019  -0.671   0.716  0.00  0.00    -0.076 A 
ATOM      2  C3  UNL d   1      -0.031  -0.340   1.590  0.00  0.00     0.004 A 
ATOM      3  C4  UNL d   1      -0.137  -0.939   2.844  0.00  0.00    -0.003 A 
ATOM      4  C5  UNL d   1       0.806  -1.879   3.245  0.00  0.00     0.000 A 
ATOM      5  C6  UNL d   1       1.864  -2.207   2.398  0.00  0.00     0.000 A 
ATOM      6  C7  UNL d   1       1.994  -1.600   1.137  0.00  0.00    -0.073 A 
ATOM      7  C8  UNL d   1       3.152  -1.996   0.262  0.00  0.00     0.078 C 
ENDROOT
BRANCH   1   8
ATOM      8  C1  UNL d   1       1.067  -0.009  -0.643  0.00  0.00     0.053 C 
ATOM      9  C   UNL d   1      -0.315   0.356  -1.162  0.00  0.00     0.018 C 
ENDBRANCH   1   8
TORSDOF 1
ENDMDL
