MODEL 1
REMARK minimizedAffinity -3.83138585
REMARK minimizedRMSD -1
REMARK  1 active torsions:
REMARK  status: ('A' for Active; 'I' for Inactive)
REMARK    1  A    between atoms: C1_2  and  C2_3 
ROOT
ATOM      1  C2  UNL d   1       0.591  -0.611   0.814  0.00  0.00    -0.076 A 
ATOM      2  C3  UNL d   1       1.623  -0.816  -0.118  0.00  0.00     0.004 A 
ATOM      3  C4  UNL d   1       2.736  -1.592   0.202  0.00  0.00    -0.003 A 
ATOM      4  C5  UNL d   1       2.834  -2.177   1.460  0.00  0.00     0.000 A 
ATOM      5  C6  UNL d   1       1.811  -1.999   2.391  0.00  0.00     0.000 A 
ATOM      6  C7  UNL d   1       0.675  -1.233   2.078  0.00  0.00    -0.073 A 
ATOM      7  C8  UNL d   1      -0.396  -1.069   3.122  0.00  0.00     0.078 C 
ENDROOT
BRANCH   1   8
ATOM      8  C1  UNL d   1      -0.578   0.263   0.420  0.00  0.00     0.053 C 
ATOM      9  C   UNL d   1      -0.891   0.182  -1.067  0.00  0.00     0.018 C 
ENDBRANCH   1   8
TORSDOF 1
ENDMDL
