MODEL 1
REMARK minimizedAffinity -2.21967936
REMARK minimizedRMSD -1
REMARK  1 active torsions:
REMARK  status: ('A' for Active; 'I' for Inactive)
REMARK    1  A    between atoms: C1_2  and  C2_3 
ROOT
ATOM      1  C2  UNL d   1      -0.391  -0.744   1.391  0.00  0.00    -0.076 A 
ATOM      2  C3  UNL d   1       0.700  -0.557   0.524  0.00  0.00     0.004 A 
ATOM      3  C4  UNL d   1       0.516  -0.055  -0.763  0.00  0.00    -0.003 A 
ATOM      4  C5  UNL d   1      -0.762   0.269  -1.205  0.00  0.00     0.000 A 
ATOM      5  C6  UNL d   1      -1.854   0.106  -0.352  0.00  0.00     0.000 A 
ATOM      6  C7  UNL d   1      -1.683  -0.384   0.954  0.00  0.00    -0.073 A 
ATOM      7  C8  UNL d   1      -2.897  -0.545   1.829  0.00  0.00     0.078 C 
ENDROOT
BRANCH   1   8
ATOM      8  C1  UNL d   1      -0.133  -1.318   2.766  0.00  0.00     0.053 C 
ATOM      9  C   UNL d   1       1.046  -2.278   2.785  0.00  0.00     0.018 C 
ENDBRANCH   1   8
TORSDOF 1
ENDMDL
