MODEL 1
REMARK minimizedAffinity -0.925195158
REMARK minimizedRMSD -1
REMARK  0 active torsions:
REMARK  status: ('A' for Active; 'I' for Inactive)
ROOT
ATOM      1  C   UNL d   1      -5.988   1.182   2.314  0.00  0.00     0.078 C 
ATOM      2  C1  UNL d   1      -5.852   1.950   3.595  0.00  0.00    -0.077 A 
ATOM      3  C2  UNL d   1      -5.997   3.343   3.620  0.00  0.00    -0.001 A 
ATOM      4  C3  UNL d   1      -5.857   4.046   4.817  0.00  0.00     0.003 A 
ATOM      5  C4  UNL d   1      -5.572   3.365   5.999  0.00  0.00    -0.005 A 
ATOM      6  C5  UNL d   1      -5.424   1.979   5.984  0.00  0.00     0.003 A 
ATOM      7  C6  UNL d   1      -5.562   1.275   4.787  0.00  0.00    -0.001 A 
ENDROOT
TORSDOF 0
ENDMDL
