MODEL 1
REMARK minimizedAffinity 3.60115433
REMARK minimizedRMSD -1
REMARK  0 active torsions:
REMARK  status: ('A' for Active; 'I' for Inactive)
ROOT
ATOM      1  C   UNL d   1       4.216   2.516   0.529  0.00  0.00     0.078 C 
ATOM      2  C1  UNL d   1       3.147   1.481   0.719  0.00  0.00    -0.077 A 
ATOM      3  C2  UNL d   1       3.193   0.586   1.795  0.00  0.00    -0.001 A 
ATOM      4  C3  UNL d   1       2.197  -0.378   1.954  0.00  0.00     0.003 A 
ATOM      5  C4  UNL d   1       1.148  -0.457   1.040  0.00  0.00    -0.005 A 
ATOM      6  C5  UNL d   1       1.094   0.428  -0.034  0.00  0.00     0.003 A 
ATOM      7  C6  UNL d   1       2.090   1.393  -0.195  0.00  0.00    -0.001 A 
ENDROOT
TORSDOF 0
ENDMDL
