MODEL 1
REMARK minimizedAffinity 0.674121737
REMARK minimizedRMSD -1
REMARK  0 active torsions:
REMARK  status: ('A' for Active; 'I' for Inactive)
ROOT
ATOM      1  C   UNL d   1       0.283   1.427   3.493  0.00  0.00     0.078 C 
ATOM      2  C1  UNL d   1      -0.717   1.045   2.442  0.00  0.00    -0.077 A 
ATOM      3  C2  UNL d   1      -0.398   0.110   1.449  0.00  0.00    -0.001 A 
ATOM      4  C3  UNL d   1      -1.335  -0.228   0.472  0.00  0.00     0.003 A 
ATOM      5  C4  UNL d   1      -2.596   0.364   0.476  0.00  0.00    -0.005 A 
ATOM      6  C5  UNL d   1      -2.922   1.296   1.459  0.00  0.00     0.003 A 
ATOM      7  C6  UNL d   1      -1.986   1.636   2.437  0.00  0.00    -0.001 A 
ENDROOT
TORSDOF 0
ENDMDL
