MODEL 1
REMARK minimizedAffinity 7.15230465
REMARK minimizedRMSD -1
REMARK  0 active torsions:
REMARK  status: ('A' for Active; 'I' for Inactive)
ROOT
ATOM      1  C   UNL d   1      -2.864   1.750   2.550  0.00  0.00     0.078 C 
ATOM      2  C1  UNL d   1      -1.531   1.188   2.155  0.00  0.00    -0.077 A 
ATOM      3  C2  UNL d   1      -1.431  -0.068   1.544  0.00  0.00    -0.001 A 
ATOM      4  C3  UNL d   1      -0.183  -0.583   1.191  0.00  0.00     0.003 A 
ATOM      5  C4  UNL d   1       0.975   0.150   1.445  0.00  0.00    -0.005 A 
ATOM      6  C5  UNL d   1       0.885   1.400   2.054  0.00  0.00     0.003 A 
ATOM      7  C6  UNL d   1      -0.362   1.917   2.408  0.00  0.00    -0.001 A 
ENDROOT
TORSDOF 0
ENDMDL
