MODEL 1
REMARK minimizedAffinity 0.34642598
REMARK minimizedRMSD -1
REMARK  0 active torsions:
REMARK  status: ('A' for Active; 'I' for Inactive)
ROOT
ATOM      1  C   UNL d   1      -0.000  -0.246   1.264  0.00  0.00     0.078 C 
ATOM      2  C1  UNL d   1      -1.368   0.343   1.439  0.00  0.00    -0.077 A 
ATOM      3  C2  UNL d   1      -1.801   0.805   2.688  0.00  0.00    -0.001 A 
ATOM      4  C3  UNL d   1      -3.080   1.343   2.837  0.00  0.00     0.003 A 
ATOM      5  C4  UNL d   1      -3.938   1.422   1.742  0.00  0.00    -0.005 A 
ATOM      6  C5  UNL d   1      -3.517   0.964   0.496  0.00  0.00     0.003 A 
ATOM      7  C6  UNL d   1      -2.238   0.426   0.344  0.00  0.00    -0.001 A 
ENDROOT
TORSDOF 0
ENDMDL
