MODEL 1
REMARK minimizedAffinity 2.92368627
REMARK minimizedRMSD -1
REMARK  0 active torsions:
REMARK  status: ('A' for Active; 'I' for Inactive)
ROOT
ATOM      1  C   UNL d   1      -3.346   1.283   1.726  0.00  0.00     0.078 C 
ATOM      2  C1  UNL d   1      -1.938   0.795   1.553  0.00  0.00    -0.077 A 
ATOM      3  C2  UNL d   1      -1.411  -0.197   2.387  0.00  0.00    -0.001 A 
ATOM      4  C3  UNL d   1      -0.096  -0.634   2.221  0.00  0.00     0.003 A 
ATOM      5  C4  UNL d   1       0.703  -0.084   1.220  0.00  0.00    -0.005 A 
ATOM      6  C5  UNL d   1       0.187   0.906   0.386  0.00  0.00     0.003 A 
ATOM      7  C6  UNL d   1      -1.127   1.344   0.551  0.00  0.00    -0.001 A 
ENDROOT
TORSDOF 0
ENDMDL
