MODEL 1
REMARK minimizedAffinity 12.5789804
REMARK minimizedRMSD -1
REMARK  0 active torsions:
REMARK  status: ('A' for Active; 'I' for Inactive)
ROOT
ATOM      1  C   UNL d   1       5.999  -0.940   3.305  0.00  0.00     0.078 C 
ATOM      2  C1  UNL d   1       5.153  -0.359   2.212  0.00  0.00    -0.077 A 
ATOM      3  C2  UNL d   1       5.658   0.626   1.355  0.00  0.00    -0.001 A 
ATOM      4  C3  UNL d   1       4.856   1.165   0.348  0.00  0.00     0.003 A 
ATOM      5  C4  UNL d   1       3.543   0.725   0.188  0.00  0.00    -0.005 A 
ATOM      6  C5  UNL d   1       3.031  -0.254   1.037  0.00  0.00     0.003 A 
ATOM      7  C6  UNL d   1       3.832  -0.793   2.045  0.00  0.00    -0.001 A 
ENDROOT
TORSDOF 0
ENDMDL
