MODEL 1
REMARK minimizedAffinity 2.67253041
REMARK minimizedRMSD -1
REMARK  0 active torsions:
REMARK  status: ('A' for Active; 'I' for Inactive)
ROOT
ATOM      1  C   UNL d   1      -2.123  -1.565  -0.319  0.00  0.00     0.078 C 
ATOM      2  C1  UNL d   1      -2.397  -0.359   0.530  0.00  0.00    -0.077 A 
ATOM      3  C2  UNL d   1      -1.354   0.332   1.158  0.00  0.00    -0.001 A 
ATOM      4  C3  UNL d   1      -1.625   1.447   1.953  0.00  0.00     0.003 A 
ATOM      5  C4  UNL d   1      -2.938   1.879   2.129  0.00  0.00    -0.005 A 
ATOM      6  C5  UNL d   1      -3.982   1.196   1.510  0.00  0.00     0.003 A 
ATOM      7  C6  UNL d   1      -3.714   0.081   0.714  0.00  0.00    -0.001 A 
ENDROOT
TORSDOF 0
ENDMDL
