MODEL 1
REMARK minimizedAffinity 1.06473041
REMARK minimizedRMSD -1
REMARK  0 active torsions:
REMARK  status: ('A' for Active; 'I' for Inactive)
ROOT
ATOM      1  C   UNL d   1      -1.247  -0.447   0.569  0.00  0.00     0.078 C 
ATOM      2  C1  UNL d   1      -0.990   0.595   1.617  0.00  0.00    -0.077 A 
ATOM      3  C2  UNL d   1      -2.040   1.136   2.369  0.00  0.00    -0.001 A 
ATOM      4  C3  UNL d   1      -1.787   2.112   3.334  0.00  0.00     0.003 A 
ATOM      5  C4  UNL d   1      -0.485   2.557   3.555  0.00  0.00    -0.005 A 
ATOM      6  C5  UNL d   1       0.566   2.026   2.810  0.00  0.00     0.003 A 
ATOM      7  C6  UNL d   1       0.315   1.050   1.844  0.00  0.00    -0.001 A 
ENDROOT
TORSDOF 0
ENDMDL
