MODEL 1
REMARK minimizedAffinity 1.11393058
REMARK minimizedRMSD -1
REMARK  0 active torsions:
REMARK  status: ('A' for Active; 'I' for Inactive)
ROOT
ATOM      1  C   UNL d   1       0.741   2.433   3.729  0.00  0.00     0.078 C 
ATOM      2  C1  UNL d   1      -0.213   1.793   2.765  0.00  0.00    -0.077 A 
ATOM      3  C2  UNL d   1       0.232   0.851   1.829  0.00  0.00    -0.001 A 
ATOM      4  C3  UNL d   1      -0.666   0.270   0.931  0.00  0.00     0.003 A 
ATOM      5  C4  UNL d   1      -2.013   0.626   0.959  0.00  0.00    -0.005 A 
ATOM      6  C5  UNL d   1      -2.464   1.564   1.886  0.00  0.00     0.003 A 
ATOM      7  C6  UNL d   1      -1.568   2.146   2.784  0.00  0.00    -0.001 A 
ENDROOT
TORSDOF 0
ENDMDL
