MODEL 1
REMARK minimizedAffinity -0.52298224
REMARK minimizedRMSD -1
REMARK  0 active torsions:
REMARK  status: ('A' for Active; 'I' for Inactive)
ROOT
ATOM      1  C   UNL d   1       0.538   2.300   3.514  0.00  0.00     0.078 C 
ATOM      2  C1  UNL d   1      -0.523   1.653   2.675  0.00  0.00    -0.077 A 
ATOM      3  C2  UNL d   1      -0.187   0.882   1.555  0.00  0.00    -0.001 A 
ATOM      4  C3  UNL d   1      -1.186   0.294   0.778  0.00  0.00     0.003 A 
ATOM      5  C4  UNL d   1      -2.527   0.470   1.111  0.00  0.00    -0.005 A 
ATOM      6  C5  UNL d   1      -2.871   1.237   2.223  0.00  0.00     0.003 A 
ATOM      7  C6  UNL d   1      -1.874   1.827   3.001  0.00  0.00    -0.001 A 
ENDROOT
TORSDOF 0
ENDMDL
