MODEL 1
REMARK minimizedAffinity 2.70266557
REMARK minimizedRMSD -1
REMARK  0 active torsions:
REMARK  status: ('A' for Active; 'I' for Inactive)
ROOT
ATOM      1  C   UNL d   1      -1.436   0.405   0.470  0.00  0.00     0.078 C 
ATOM      2  C1  UNL d   1      -1.106   1.087   1.765  0.00  0.00    -0.077 A 
ATOM      3  C2  UNL d   1      -2.113   1.442   2.670  0.00  0.00    -0.001 A 
ATOM      4  C3  UNL d   1      -1.792   2.085   3.867  0.00  0.00     0.003 A 
ATOM      5  C4  UNL d   1      -0.463   2.379   4.168  0.00  0.00    -0.005 A 
ATOM      6  C5  UNL d   1       0.546   2.031   3.273  0.00  0.00     0.003 A 
ATOM      7  C6  UNL d   1       0.226   1.389   2.075  0.00  0.00    -0.001 A 
ENDROOT
TORSDOF 0
ENDMDL
