MODEL 1
REMARK minimizedAffinity 4.48629951
REMARK minimizedRMSD -1
REMARK  0 active torsions:
REMARK  status: ('A' for Active; 'I' for Inactive)
ROOT
ATOM      1  C   UNL d   1      -2.596   2.278   3.373  0.00  0.00     0.078 C 
ATOM      2  C1  UNL d   1      -1.670   1.497   2.489  0.00  0.00    -0.077 A 
ATOM      3  C2  UNL d   1      -0.342   1.262   2.865  0.00  0.00    -0.001 A 
ATOM      4  C3  UNL d   1       0.512   0.542   2.027  0.00  0.00     0.003 A 
ATOM      5  C4  UNL d   1       0.047   0.053   0.808  0.00  0.00    -0.005 A 
ATOM      6  C5  UNL d   1      -1.272   0.284   0.424  0.00  0.00     0.003 A 
ATOM      7  C6  UNL d   1      -2.127   1.004   1.260  0.00  0.00    -0.001 A 
ENDROOT
TORSDOF 0
ENDMDL
