MODEL 1
REMARK minimizedAffinity -2.74029231
REMARK minimizedRMSD -1
REMARK  0 active torsions:
REMARK  status: ('A' for Active; 'I' for Inactive)
ROOT
ATOM      1  C   UNL d   1       1.046   0.086   1.446  0.00  0.00     0.078 C 
ATOM      2  C1  UNL d   1      -0.355   0.581   1.645  0.00  0.00    -0.077 A 
ATOM      3  C2  UNL d   1      -1.363   0.286   0.718  0.00  0.00    -0.001 A 
ATOM      4  C3  UNL d   1      -2.661   0.762   0.911  0.00  0.00     0.003 A 
ATOM      5  C4  UNL d   1      -2.963   1.537   2.029  0.00  0.00    -0.005 A 
ATOM      6  C5  UNL d   1      -1.966   1.837   2.956  0.00  0.00     0.003 A 
ATOM      7  C6  UNL d   1      -0.668   1.362   2.765  0.00  0.00    -0.001 A 
ENDROOT
TORSDOF 0
ENDMDL
