MODEL 1
REMARK minimizedAffinity 2.92574906
REMARK minimizedRMSD -1
REMARK  0 active torsions:
REMARK  status: ('A' for Active; 'I' for Inactive)
ROOT
ATOM      1  C   UNL d   1       0.621   1.899   3.347  0.00  0.00     0.078 C 
ATOM      2  C1  UNL d   1      -0.430   1.422   2.390  0.00  0.00    -0.077 A 
ATOM      3  C2  UNL d   1      -0.102   0.585   1.317  0.00  0.00    -0.001 A 
ATOM      4  C3  UNL d   1      -1.089   0.157   0.428  0.00  0.00     0.003 A 
ATOM      5  C4  UNL d   1      -2.412   0.560   0.604  0.00  0.00    -0.005 A 
ATOM      6  C5  UNL d   1      -2.747   1.395   1.668  0.00  0.00     0.003 A 
ATOM      7  C6  UNL d   1      -1.761   1.824   2.558  0.00  0.00    -0.001 A 
ENDROOT
TORSDOF 0
ENDMDL
