MODEL 1
REMARK minimizedAffinity 5.48533106
REMARK minimizedRMSD -1
REMARK  0 active torsions:
REMARK  status: ('A' for Active; 'I' for Inactive)
ROOT
ATOM      1  C   UNL d   1       0.326   2.257   4.134  0.00  0.00     0.078 C 
ATOM      2  C1  UNL d   1      -0.312   1.601   2.946  0.00  0.00    -0.077 A 
ATOM      3  C2  UNL d   1       0.387   0.663   2.178  0.00  0.00    -0.001 A 
ATOM      4  C3  UNL d   1      -0.216   0.067   1.069  0.00  0.00     0.003 A 
ATOM      5  C4  UNL d   1      -1.521   0.405   0.717  0.00  0.00    -0.005 A 
ATOM      6  C5  UNL d   1      -2.225   1.340   1.474  0.00  0.00     0.003 A 
ATOM      7  C6  UNL d   1      -1.623   1.936   2.584  0.00  0.00    -0.001 A 
ENDROOT
TORSDOF 0
ENDMDL
