MODEL 1
REMARK minimizedAffinity 1.50923932
REMARK minimizedRMSD -1
REMARK  0 active torsions:
REMARK  status: ('A' for Active; 'I' for Inactive)
ROOT
ATOM      1  C   UNL d   1      -1.135  -0.544   0.435  0.00  0.00     0.078 C 
ATOM      2  C1  UNL d   1      -0.759   0.511   1.432  0.00  0.00    -0.077 A 
ATOM      3  C2  UNL d   1       0.584   0.822   1.680  0.00  0.00    -0.001 A 
ATOM      4  C3  UNL d   1       0.920   1.799   2.618  0.00  0.00     0.003 A 
ATOM      5  C4  UNL d   1      -0.081   2.472   3.317  0.00  0.00    -0.005 A 
ATOM      6  C5  UNL d   1      -1.419   2.167   3.079  0.00  0.00     0.003 A 
ATOM      7  C6  UNL d   1      -1.757   1.190   2.141  0.00  0.00    -0.001 A 
ENDROOT
TORSDOF 0
ENDMDL
