MODEL 1
REMARK minimizedAffinity -1.10711408
REMARK minimizedRMSD -1
REMARK  0 active torsions:
REMARK  status: ('A' for Active; 'I' for Inactive)
ROOT
ATOM      1  C   UNL d   1      -1.351   2.725  -0.193  0.00  0.00     0.124 A 
ATOM      2  C1  UNL d   1      -1.415   1.859   0.890  0.00  0.00     0.062 A 
ATOM      3  C2  UNL d   1      -0.926   0.561   0.779  0.00  0.00     0.162 A 
ATOM      4  C3  UNL d   1      -0.367   0.120  -0.421  0.00  0.00    -0.034 A 
ATOM      5  C4  UNL d   1      -0.307   0.996  -1.506  0.00  0.00     0.162 A 
ATOM      6  C5  UNL d   1      -0.797   2.292  -1.390  0.00  0.00     0.062 A 
ATOM      7  F   UNL d   1      -0.734   3.127  -2.438  0.00  0.00    -0.097 F 
ATOM      8  F1  UNL d   1       0.224   0.604  -2.674  0.00  0.00    -0.096 F 
ATOM      9  I   UNL d   1       0.365  -1.821  -0.591  0.00  0.00    -0.060 I 
ATOM     10  F2  UNL d   1      -1.001  -0.254   1.842  0.00  0.00    -0.096 F 
ATOM     11  F3  UNL d   1      -1.950   2.274   2.047  0.00  0.00    -0.097 F 
ATOM     12  F4  UNL d   1      -1.823   3.973  -0.084  0.00  0.00    -0.092 F 
ENDROOT
TORSDOF 0
ENDMDL
