MODEL 1
REMARK minimizedAffinity -5.0461688
REMARK minimizedRMSD -1
REMARK  0 active torsions:
REMARK  status: ('A' for Active; 'I' for Inactive)
ROOT
ATOM      1  C   UNL d   1      -0.953   3.129   1.204  0.00  0.00     0.124 A 
ATOM      2  C1  UNL d   1      -0.324   2.080   1.861  0.00  0.00     0.062 A 
ATOM      3  C2  UNL d   1       0.040   0.934   1.161  0.00  0.00     0.162 A 
ATOM      4  C3  UNL d   1      -0.223   0.830  -0.205  0.00  0.00    -0.034 A 
ATOM      5  C4  UNL d   1      -0.857   1.888  -0.858  0.00  0.00     0.162 A 
ATOM      6  C5  UNL d   1      -1.219   3.032  -0.154  0.00  0.00     0.062 A 
ATOM      7  F   UNL d   1      -1.827   4.044  -0.790  0.00  0.00    -0.097 F 
ATOM      8  F1  UNL d   1      -1.125   1.822  -2.171  0.00  0.00    -0.096 F 
ATOM      9  I   UNL d   1       0.321  -0.882  -1.256  0.00  0.00    -0.060 I 
ATOM     10  F2  UNL d   1       0.647  -0.064   1.821  0.00  0.00    -0.096 F 
ATOM     11  F3  UNL d   1      -0.067   2.171   3.174  0.00  0.00    -0.097 F 
ATOM     12  F4  UNL d   1      -1.304   4.230   1.881  0.00  0.00    -0.092 F 
ENDROOT
TORSDOF 0
ENDMDL
