MODEL 1
REMARK minimizedAffinity -2.64698553
REMARK minimizedRMSD -1
REMARK  0 active torsions:
REMARK  status: ('A' for Active; 'I' for Inactive)
ROOT
ATOM      1  C   UNL d   1       0.327   1.819   0.344  0.00  0.00     0.124 A 
ATOM      2  C1  UNL d   1       0.499   1.580  -1.013  0.00  0.00     0.062 A 
ATOM      3  C2  UNL d   1       0.565   0.274  -1.490  0.00  0.00     0.162 A 
ATOM      4  C3  UNL d   1       0.459  -0.803  -0.610  0.00  0.00    -0.034 A 
ATOM      5  C4  UNL d   1       0.288  -0.554   0.753  0.00  0.00     0.162 A 
ATOM      6  C5  UNL d   1       0.222   0.753   1.225  0.00  0.00     0.062 A 
ATOM      7  F   UNL d   1       0.056   0.982   2.536  0.00  0.00    -0.097 F 
ATOM      8  F1  UNL d   1       0.182  -1.567   1.627  0.00  0.00    -0.096 F 
ATOM      9  I   UNL d   1       0.558  -2.757  -1.320  0.00  0.00    -0.060 I 
ATOM     10  F2  UNL d   1       0.731   0.072  -2.805  0.00  0.00    -0.096 F 
ATOM     11  F3  UNL d   1       0.601   2.609  -1.866  0.00  0.00    -0.097 F 
ATOM     12  F4  UNL d   1       0.264   3.077   0.800  0.00  0.00    -0.092 F 
ENDROOT
TORSDOF 0
ENDMDL
