MODEL 1
REMARK minimizedAffinity 5.95536184
REMARK minimizedRMSD -1
REMARK  0 active torsions:
REMARK  status: ('A' for Active; 'I' for Inactive)
ROOT
ATOM      1  C   UNL d   1       2.882   0.402   0.477  0.00  0.00     0.078 C 
ATOM      2  C1  UNL d   1       2.098  -0.362   1.502  0.00  0.00    -0.077 A 
ATOM      3  C2  UNL d   1       2.219  -0.071   2.866  0.00  0.00    -0.001 A 
ATOM      4  C3  UNL d   1       1.491  -0.797   3.810  0.00  0.00     0.003 A 
ATOM      5  C4  UNL d   1       0.638  -1.820   3.400  0.00  0.00    -0.005 A 
ATOM      6  C5  UNL d   1       0.513  -2.118   2.045  0.00  0.00     0.003 A 
ATOM      7  C6  UNL d   1       1.240  -1.393   1.100  0.00  0.00    -0.001 A 
ENDROOT
TORSDOF 0
ENDMDL
