MODEL 1
REMARK minimizedAffinity 0.272992969
REMARK minimizedRMSD -1
REMARK  0 active torsions:
REMARK  status: ('A' for Active; 'I' for Inactive)
ROOT
ATOM      1  C   UNL d   1      -4.516  -2.146  -3.828  0.00  0.00     0.078 C 
ATOM      2  C1  UNL d   1      -4.712  -3.454  -4.535  0.00  0.00    -0.077 A 
ATOM      3  C2  UNL d   1      -5.825  -3.670  -5.356  0.00  0.00    -0.001 A 
ATOM      4  C3  UNL d   1      -6.000  -4.896  -6.000  0.00  0.00     0.003 A 
ATOM      5  C4  UNL d   1      -5.065  -5.916  -5.828  0.00  0.00    -0.005 A 
ATOM      6  C5  UNL d   1      -3.956  -5.710  -5.011  0.00  0.00     0.003 A 
ATOM      7  C6  UNL d   1      -3.780  -4.485  -4.367  0.00  0.00    -0.001 A 
ENDROOT
TORSDOF 0
ENDMDL
