MODEL 1
REMARK minimizedAffinity 3.70202088
REMARK minimizedRMSD -1
REMARK  0 active torsions:
REMARK  status: ('A' for Active; 'I' for Inactive)
ROOT
ATOM      1  C   UNL d   1      -4.238  -1.813  -3.369  0.00  0.00     0.078 C 
ATOM      2  C1  UNL d   1      -4.558  -3.020  -4.199  0.00  0.00    -0.077 A 
ATOM      3  C2  UNL d   1      -5.677  -3.041  -5.041  0.00  0.00    -0.001 A 
ATOM      4  C3  UNL d   1      -5.968  -4.175  -5.800  0.00  0.00     0.003 A 
ATOM      5  C4  UNL d   1      -5.147  -5.298  -5.724  0.00  0.00    -0.005 A 
ATOM      6  C5  UNL d   1      -4.033  -5.288  -4.887  0.00  0.00     0.003 A 
ATOM      7  C6  UNL d   1      -3.740  -4.154  -4.127  0.00  0.00    -0.001 A 
ENDROOT
TORSDOF 0
ENDMDL
