MODEL 1
REMARK minimizedAffinity 1.81530643
REMARK minimizedRMSD -1
REMARK  0 active torsions:
REMARK  status: ('A' for Active; 'I' for Inactive)
ROOT
ATOM      1  C   UNL d   1      -2.642  -5.807  -4.152  0.00  0.00     0.078 C 
ATOM      2  C1  UNL d   1      -3.805  -5.116  -4.801  0.00  0.00    -0.077 A 
ATOM      3  C2  UNL d   1      -3.831  -3.723  -4.938  0.00  0.00    -0.001 A 
ATOM      4  C3  UNL d   1      -4.924  -3.093  -5.535  0.00  0.00     0.003 A 
ATOM      5  C4  UNL d   1      -6.000  -3.849  -5.999  0.00  0.00    -0.005 A 
ATOM      6  C5  UNL d   1      -5.983  -5.235  -5.864  0.00  0.00     0.003 A 
ATOM      7  C6  UNL d   1      -4.891  -5.867  -5.268  0.00  0.00    -0.001 A 
ENDROOT
TORSDOF 0
ENDMDL
