MODEL 1
REMARK minimizedAffinity 11.0364094
REMARK minimizedRMSD -1
REMARK  0 active torsions:
REMARK  status: ('A' for Active; 'I' for Inactive)
ROOT
ATOM      1  C   UNL d   1       1.146  -1.313   1.997  0.00  0.00     0.078 C 
ATOM      2  C1  UNL d   1       1.682   0.080   1.854  0.00  0.00    -0.077 A 
ATOM      3  C2  UNL d   1       1.321   1.088   2.756  0.00  0.00    -0.001 A 
ATOM      4  C3  UNL d   1       1.820   2.383   2.605  0.00  0.00     0.003 A 
ATOM      5  C4  UNL d   1       2.683   2.682   1.552  0.00  0.00    -0.005 A 
ATOM      6  C5  UNL d   1       3.046   1.686   0.648  0.00  0.00     0.003 A 
ATOM      7  C6  UNL d   1       2.548   0.391   0.797  0.00  0.00    -0.001 A 
ENDROOT
TORSDOF 0
ENDMDL
