MODEL 1
REMARK minimizedAffinity 6.72152519
REMARK minimizedRMSD -1
REMARK  0 active torsions:
REMARK  status: ('A' for Active; 'I' for Inactive)
ROOT
ATOM      1  C   UNL d   1      -1.575   1.349   1.004  0.00  0.00     0.078 C 
ATOM      2  C1  UNL d   1      -2.274   1.592  -0.300  0.00  0.00    -0.077 A 
ATOM      3  C2  UNL d   1      -3.029   2.753  -0.509  0.00  0.00    -0.001 A 
ATOM      4  C3  UNL d   1      -3.682   2.961  -1.724  0.00  0.00     0.003 A 
ATOM      5  C4  UNL d   1      -3.588   2.012  -2.741  0.00  0.00    -0.005 A 
ATOM      6  C5  UNL d   1      -2.841   0.853  -2.541  0.00  0.00     0.003 A 
ATOM      7  C6  UNL d   1      -2.187   0.643  -1.326  0.00  0.00    -0.001 A 
ENDROOT
TORSDOF 0
ENDMDL
