MODEL 1
REMARK minimizedAffinity 5.2251687
REMARK minimizedRMSD -1
REMARK  0 active torsions:
REMARK  status: ('A' for Active; 'I' for Inactive)
ROOT
ATOM      1  C   UNL d   1       1.827  -4.145   2.052  0.00  0.00     0.078 C 
ATOM      2  C1  UNL d   1       1.114  -2.832   1.926  0.00  0.00    -0.077 A 
ATOM      3  C2  UNL d   1       1.745  -1.720   1.356  0.00  0.00    -0.001 A 
ATOM      4  C3  UNL d   1       1.072  -0.501   1.254  0.00  0.00     0.003 A 
ATOM      5  C4  UNL d   1      -0.235  -0.383   1.721  0.00  0.00    -0.005 A 
ATOM      6  C5  UNL d   1      -0.871  -1.483   2.292  0.00  0.00     0.003 A 
ATOM      7  C6  UNL d   1      -0.200  -2.703   2.395  0.00  0.00    -0.001 A 
ENDROOT
TORSDOF 0
ENDMDL
