MODEL 1
REMARK minimizedAffinity 3.81860113
REMARK minimizedRMSD -1
REMARK  0 active torsions:
REMARK  status: ('A' for Active; 'I' for Inactive)
ROOT
ATOM      1  C   UNL d   1      -5.248   2.884  -4.494  0.00  0.00     0.078 C 
ATOM      2  C1  UNL d   1      -4.974   1.884  -3.411  0.00  0.00    -0.077 A 
ATOM      3  C2  UNL d   1      -3.705   1.312  -3.261  0.00  0.00    -0.001 A 
ATOM      4  C3  UNL d   1      -3.467   0.375  -2.255  0.00  0.00     0.003 A 
ATOM      5  C4  UNL d   1      -4.493   0.001  -1.390  0.00  0.00    -0.005 A 
ATOM      6  C5  UNL d   1      -5.760   0.564  -1.532  0.00  0.00     0.003 A 
ATOM      7  C6  UNL d   1      -6.000   1.501  -2.538  0.00  0.00    -0.001 A 
ENDROOT
TORSDOF 0
ENDMDL
