MODEL 1
REMARK minimizedAffinity 3.1265111
REMARK minimizedRMSD -1
REMARK  0 active torsions:
REMARK  status: ('A' for Active; 'I' for Inactive)
ROOT
ATOM      1  N1  IND d   1      -4.025  -0.755   3.798  0.00  0.00    -0.196 N 
ATOM      2  C2  IND d   1      -2.696  -0.748   4.119  0.00  0.00     0.054 A 
ATOM      3  C3  IND d   1      -1.943  -0.917   3.008  0.00  0.00    -0.031 A 
ATOM      4  C4  IND d   1      -2.678  -1.122   0.550  0.00  0.00     0.051 A 
ATOM      5  C5  IND d   1      -3.791  -1.219  -0.238  0.00  0.00    -0.031 A 
ATOM      6  C6  IND d   1      -5.065  -1.163   0.290  0.00  0.00     0.015 A 
ATOM      7  C7  IND d   1      -5.274  -0.995   1.630  0.00  0.00    -0.016 A 
ATOM      8  C8  IND d   1      -4.146  -0.903   2.433  0.00  0.00    -0.047 A 
ATOM      9  C9  IND d   1      -2.851  -1.002   1.908  0.00  0.00    -0.096 A 
ATOM     10  HN1 IND d   1      -4.676  -0.680   4.354  0.00  0.00     0.298 HD
ENDROOT
TORSDOF 0
ENDMDL
