MODEL 1
REMARK minimizedAffinity 6.90429592
REMARK minimizedRMSD -1
REMARK  0 active torsions:
REMARK  status: ('A' for Active; 'I' for Inactive)
ROOT
ATOM      1  N1  IND d   1      -2.507   4.463   0.131  0.00  0.00    -0.196 N 
ATOM      2  C2  IND d   1      -3.646   3.756  -0.137  0.00  0.00     0.054 A 
ATOM      3  C3  IND d   1      -3.341   2.586  -0.743  0.00  0.00    -0.031 A 
ATOM      4  C4  IND d   1      -1.035   1.585  -1.300  0.00  0.00     0.051 A 
ATOM      5  C5  IND d   1       0.300   1.877  -1.279  0.00  0.00    -0.031 A 
ATOM      6  C6  IND d   1       0.777   3.069  -0.774  0.00  0.00     0.015 A 
ATOM      7  C7  IND d   1      -0.066   4.013  -0.259  0.00  0.00    -0.016 A 
ATOM      8  C8  IND d   1      -1.422   3.723  -0.285  0.00  0.00    -0.047 A 
ATOM      9  C9  IND d   1      -1.916   2.533  -0.835  0.00  0.00    -0.096 A 
ATOM     10  HN1 IND d   1      -2.474   5.240   0.497  0.00  0.00     0.298 HD
ENDROOT
TORSDOF 0
ENDMDL
