MODEL 1
REMARK minimizedAffinity 8.78001785
REMARK minimizedRMSD -1
REMARK  0 active torsions:
REMARK  status: ('A' for Active; 'I' for Inactive)
ROOT
ATOM      1  N1  IND d   1       4.875   3.555   3.366  0.00  0.00    -0.196 N 
ATOM      2  C2  IND d   1       4.084   3.527   2.252  0.00  0.00     0.054 A 
ATOM      3  C3  IND d   1       3.846   2.251   1.876  0.00  0.00    -0.031 A 
ATOM      4  C4  IND d   1       4.572   0.052   3.001  0.00  0.00     0.051 A 
ATOM      5  C5  IND d   1       5.338  -0.433   4.024  0.00  0.00    -0.031 A 
ATOM      6  C6  IND d   1       6.000   0.403   4.899  0.00  0.00     0.015 A 
ATOM      7  C7  IND d   1       5.911   1.762   4.791  0.00  0.00    -0.016 A 
ATOM      8  C8  IND d   1       5.140   2.258   3.749  0.00  0.00    -0.047 A 
ATOM      9  C9  IND d   1       4.501   1.414   2.832  0.00  0.00    -0.096 A 
ATOM     10  HN1 IND d   1       5.160   4.264   3.762  0.00  0.00     0.298 HD
ENDROOT
TORSDOF 0
ENDMDL
