MODEL 1
REMARK minimizedAffinity 4.53625154
REMARK minimizedRMSD -1
REMARK  0 active torsions:
REMARK  status: ('A' for Active; 'I' for Inactive)
ROOT
ATOM      1  N1  IND d   1       4.873   3.816   3.146  0.00  0.00    -0.196 N 
ATOM      2  C2  IND d   1       4.080   3.589   2.055  0.00  0.00     0.054 A 
ATOM      3  C3  IND d   1       3.842   2.266   1.914  0.00  0.00    -0.031 A 
ATOM      4  C4  IND d   1       4.567   0.304   3.415  0.00  0.00     0.051 A 
ATOM      5  C5  IND d   1       5.333   0.010   4.507  0.00  0.00    -0.031 A 
ATOM      6  C6  IND d   1       5.996   0.989   5.218  0.00  0.00     0.015 A 
ATOM      7  C7  IND d   1       5.908   2.307   4.868  0.00  0.00    -0.016 A 
ATOM      8  C8  IND d   1       5.137   2.609   3.754  0.00  0.00    -0.047 A 
ATOM      9  C9  IND d   1       4.496   1.614   3.004  0.00  0.00    -0.096 A 
ATOM     10  HN1 IND d   1       5.158   4.584   3.408  0.00  0.00     0.298 HD
ENDROOT
TORSDOF 0
ENDMDL
