MODEL 1
REMARK minimizedAffinity 5.02991104
REMARK minimizedRMSD -1
REMARK  0 active torsions:
REMARK  status: ('A' for Active; 'I' for Inactive)
ROOT
ATOM      1  N1  IND d   1       4.096   1.568   2.145  0.00  0.00    -0.196 N 
ATOM      2  C2  IND d   1       3.933   2.915   2.309  0.00  0.00     0.054 A 
ATOM      3  C3  IND d   1       4.428   3.308   3.504  0.00  0.00    -0.031 A 
ATOM      4  C4  IND d   1       5.642   1.925   5.304  0.00  0.00     0.051 A 
ATOM      5  C5  IND d   1       5.997   0.644   5.622  0.00  0.00    -0.031 A 
ATOM      6  C6  IND d   1       5.733  -0.416   4.778  0.00  0.00     0.015 A 
ATOM      7  C7  IND d   1       5.112  -0.231   3.575  0.00  0.00    -0.016 A 
ATOM      8  C8  IND d   1       4.744   1.067   3.253  0.00  0.00    -0.047 A 
ATOM      9  C9  IND d   1       4.971   2.141   4.124  0.00  0.00    -0.096 A 
ATOM     10  HN1 IND d   1       3.838   1.110   1.465  0.00  0.00     0.298 HD
ENDROOT
TORSDOF 0
ENDMDL
