MODEL 1
REMARK minimizedAffinity 6.39110994
REMARK minimizedRMSD -1
REMARK  0 active torsions:
REMARK  status: ('A' for Active; 'I' for Inactive)
ROOT
ATOM      1  N1  IND d   1      -2.229   1.052   1.131  0.00  0.00    -0.196 N 
ATOM      2  C2  IND d   1      -2.759   0.800  -0.103  0.00  0.00     0.054 A 
ATOM      3  C3  IND d   1      -3.634  -0.229  -0.038  0.00  0.00    -0.031 A 
ATOM      4  C4  IND d   1      -4.425  -1.576   2.008  0.00  0.00     0.051 A 
ATOM      5  C5  IND d   1      -4.198  -1.737   3.346  0.00  0.00    -0.031 A 
ATOM      6  C6  IND d   1      -3.286  -0.958   4.028  0.00  0.00     0.015 A 
ATOM      7  C7  IND d   1      -2.572   0.022   3.398  0.00  0.00    -0.016 A 
ATOM      8  C8  IND d   1      -2.796   0.183   2.038  0.00  0.00    -0.047 A 
ATOM      9  C9  IND d   1      -3.689  -0.633   1.331  0.00  0.00    -0.096 A 
ATOM     10  HN1 IND d   1      -1.641   1.652   1.312  0.00  0.00     0.298 HD
ENDROOT
TORSDOF 0
ENDMDL
