MODEL 1
REMARK minimizedAffinity -0.798924506
REMARK minimizedRMSD -1
REMARK  0 active torsions:
REMARK  status: ('A' for Active; 'I' for Inactive)
ROOT
ATOM      1  N1  IND d   1       3.139  -0.065  -2.846  0.00  0.00    -0.196 N 
ATOM      2  C2  IND d   1       2.058   0.748  -3.041  0.00  0.00     0.054 A 
ATOM      3  C3  IND d   1       2.250   1.534  -4.124  0.00  0.00    -0.031 A 
ATOM      4  C4  IND d   1       4.218   1.581  -5.783  0.00  0.00     0.051 A 
ATOM      5  C5  IND d   1       5.457   1.047  -5.999  0.00  0.00    -0.031 A 
ATOM      6  C6  IND d   1       5.997   0.093  -5.160  0.00  0.00     0.015 A 
ATOM      7  C7  IND d   1       5.309  -0.372  -4.075  0.00  0.00    -0.016 A 
ATOM      8  C8  IND d   1       4.053   0.174  -3.848  0.00  0.00    -0.047 A 
ATOM      9  C9  IND d   1       3.519   1.173  -4.672  0.00  0.00    -0.096 A 
ATOM     10  HN1 IND d   1       3.232  -0.631  -2.205  0.00  0.00     0.298 HD
ENDROOT
TORSDOF 0
ENDMDL
