MODEL 1
REMARK minimizedAffinity 2.21838832
REMARK minimizedRMSD -1
REMARK  0 active torsions:
REMARK  status: ('A' for Active; 'I' for Inactive)
ROOT
ATOM      1  N1  IND d   1       6.000   4.311   4.759  0.00  0.00    -0.196 N 
ATOM      2  C2  IND d   1       5.829   4.892   3.534  0.00  0.00     0.054 A 
ATOM      3  C3  IND d   1       5.632   3.947   2.588  0.00  0.00    -0.031 A 
ATOM      4  C4  IND d   1       5.449   1.392   2.843  0.00  0.00     0.051 A 
ATOM      5  C5  IND d   1       5.573   0.389   3.763  0.00  0.00    -0.031 A 
ATOM      6  C6  IND d   1       5.848   0.648   5.090  0.00  0.00     0.015 A 
ATOM      7  C7  IND d   1       6.000   1.926   5.550  0.00  0.00    -0.016 A 
ATOM      8  C8  IND d   1       5.881   2.946   4.617  0.00  0.00    -0.047 A 
ATOM      9  C9  IND d   1       5.644   2.687   3.261  0.00  0.00    -0.096 A 
ATOM     10  HN1 IND d   1       6.155   4.727   5.495  0.00  0.00     0.298 HD
ENDROOT
TORSDOF 0
ENDMDL
