MODEL 1
REMARK minimizedAffinity 10.4615288
REMARK minimizedRMSD -1
REMARK  0 active torsions:
REMARK  status: ('A' for Active; 'I' for Inactive)
ROOT
ATOM      1  N1  IND d   1       6.000   1.750   4.832  0.00  0.00    -0.196 N 
ATOM      2  C2  IND d   1       5.999   0.383   4.822  0.00  0.00     0.054 A 
ATOM      3  C3  IND d   1       5.258  -0.080   3.790  0.00  0.00    -0.031 A 
ATOM      4  C4  IND d   1       4.043   1.227   1.935  0.00  0.00     0.051 A 
ATOM      5  C5  IND d   1       3.727   2.497   1.541  0.00  0.00    -0.031 A 
ATOM      6  C6  IND d   1       4.164   3.606   2.237  0.00  0.00     0.015 A 
ATOM      7  C7  IND d   1       4.946   3.485   3.351  0.00  0.00    -0.016 A 
ATOM      8  C8  IND d   1       5.262   2.196   3.758  0.00  0.00    -0.047 A 
ATOM      9  C9  IND d   1       4.787   1.067   3.080  0.00  0.00    -0.096 A 
ATOM     10  HN1 IND d   1       6.395   2.247   5.412  0.00  0.00     0.298 HD
ENDROOT
TORSDOF 0
ENDMDL
