MODEL 1
REMARK minimizedAffinity 8.22210217
REMARK minimizedRMSD -1
REMARK  0 active torsions:
REMARK  status: ('A' for Active; 'I' for Inactive)
ROOT
ATOM      1  N1  IND d   1       5.998   3.701   4.911  0.00  0.00    -0.196 N 
ATOM      2  C2  IND d   1       5.375   4.681   4.188  0.00  0.00     0.054 A 
ATOM      3  C3  IND d   1       4.625   4.135   3.205  0.00  0.00    -0.031 A 
ATOM      4  C4  IND d   1       4.194   1.656   2.661  0.00  0.00     0.051 A 
ATOM      5  C5  IND d   1       4.572   0.393   3.020  0.00  0.00    -0.031 A 
ATOM      6  C6  IND d   1       5.460   0.163   4.051  0.00  0.00     0.015 A 
ATOM      7  C7  IND d   1       5.998   1.192   4.771  0.00  0.00    -0.016 A 
ATOM      8  C8  IND d   1       5.621   2.477   4.404  0.00  0.00    -0.047 A 
ATOM      9  C9  IND d   1       4.753   2.718   3.332  0.00  0.00    -0.096 A 
ATOM     10  HN1 IND d   1       6.534   3.828   5.571  0.00  0.00     0.298 HD
ENDROOT
TORSDOF 0
ENDMDL
