MODEL 1
REMARK minimizedAffinity 4.36860943
REMARK minimizedRMSD -1
REMARK  0 active torsions:
REMARK  status: ('A' for Active; 'I' for Inactive)
ROOT
ATOM      1  N1  IND d   1       4.749   0.103   2.600  0.00  0.00    -0.196 N 
ATOM      2  C2  IND d   1       5.388  -0.672   3.528  0.00  0.00     0.054 A 
ATOM      3  C3  IND d   1       6.000   0.106   4.449  0.00  0.00    -0.031 A 
ATOM      4  C4  IND d   1       5.999   2.669   4.686  0.00  0.00     0.051 A 
ATOM      5  C5  IND d   1       5.584   3.809   4.056  0.00  0.00    -0.031 A 
ATOM      6  C6  IND d   1       4.852   3.771   2.887  0.00  0.00     0.015 A 
ATOM      7  C7  IND d   1       4.497   2.586   2.307  0.00  0.00    -0.016 A 
ATOM      8  C8  IND d   1       4.923   1.426   2.940  0.00  0.00    -0.047 A 
ATOM      9  C9  IND d   1       5.702   1.459   4.103  0.00  0.00    -0.096 A 
ATOM     10  HN1 IND d   1       4.313  -0.188   1.918  0.00  0.00     0.298 HD
ENDROOT
TORSDOF 0
ENDMDL
