MODEL 1
REMARK minimizedAffinity 5.33626556
REMARK minimizedRMSD -1
REMARK  0 active torsions:
REMARK  status: ('A' for Active; 'I' for Inactive)
ROOT
ATOM      1  N1  IND d   1       4.495   1.482   2.244  0.00  0.00    -0.196 N 
ATOM      2  C2  IND d   1       4.451   2.828   2.474  0.00  0.00     0.054 A 
ATOM      3  C3  IND d   1       4.880   3.107   3.725  0.00  0.00    -0.031 A 
ATOM      4  C4  IND d   1       5.799   1.517   5.530  0.00  0.00     0.051 A 
ATOM      5  C5  IND d   1       5.999   0.192   5.798  0.00  0.00    -0.031 A 
ATOM      6  C6  IND d   1       5.705  -0.791   4.875  0.00  0.00     0.015 A 
ATOM      7  C7  IND d   1       5.208  -0.482   3.640  0.00  0.00    -0.016 A 
ATOM      8  C8  IND d   1       4.997   0.862   3.367  0.00  0.00    -0.047 A 
ATOM      9  C9  IND d   1       5.254   1.860   4.315  0.00  0.00    -0.096 A 
ATOM     10  HN1 IND d   1       4.251   1.088   1.520  0.00  0.00     0.298 HD
ENDROOT
TORSDOF 0
ENDMDL
