MODEL 1
REMARK minimizedAffinity -6.49466944
REMARK minimizedRMSD -1
REMARK  0 active torsions:
REMARK  status: ('A' for Active; 'I' for Inactive)
ROOT
ATOM      1  N1  IND d   1      -4.576   1.425   4.544  0.00  0.00    -0.196 N 
ATOM      2  C2  IND d   1      -4.124   2.714   4.501  0.00  0.00     0.054 A 
ATOM      3  C3  IND d   1      -3.378   2.915   3.392  0.00  0.00    -0.031 A 
ATOM      4  C4  IND d   1      -2.854   1.297   1.459  0.00  0.00     0.051 A 
ATOM      5  C5  IND d   1      -3.017  -0.002   1.067  0.00  0.00    -0.031 A 
ATOM      6  C6  IND d   1      -3.724  -0.910   1.829  0.00  0.00     0.015 A 
ATOM      7  C7  IND d   1      -4.307  -0.547   3.010  0.00  0.00    -0.016 A 
ATOM      8  C8  IND d   1      -4.138   0.769   3.414  0.00  0.00    -0.047 A 
ATOM      9  C9  IND d   1      -3.386   1.684   2.666  0.00  0.00    -0.096 A 
ATOM     10  HN1 IND d   1      -5.053   1.081   5.171  0.00  0.00     0.298 HD
ENDROOT
TORSDOF 0
ENDMDL
