MODEL 1
REMARK minimizedAffinity 6.69012308
REMARK minimizedRMSD -1
REMARK  0 active torsions:
REMARK  status: ('A' for Active; 'I' for Inactive)
ROOT
ATOM      1  N1  IND d   1       3.798   4.828  -4.804  0.00  0.00    -0.196 N 
ATOM      2  C2  IND d   1       2.496   4.769  -5.218  0.00  0.00     0.054 A 
ATOM      3  C3  IND d   1       2.232   3.562  -5.767  0.00  0.00    -0.031 A 
ATOM      4  C4  IND d   1       3.757   1.501  -6.000  0.00  0.00     0.051 A 
ATOM      5  C5  IND d   1       5.043   1.085  -5.801  0.00  0.00    -0.031 A 
ATOM      6  C6  IND d   1       5.999   1.911  -5.246  0.00  0.00     0.015 A 
ATOM      7  C7  IND d   1       5.699   3.186  -4.857  0.00  0.00    -0.016 A 
ATOM      8  C8  IND d   1       4.396   3.614  -5.064  0.00  0.00    -0.047 A 
ATOM      9  C9  IND d   1       3.432   2.795  -5.666  0.00  0.00    -0.096 A 
ATOM     10  HN1 IND d   1       4.179   5.509  -4.443  0.00  0.00     0.298 HD
ENDROOT
TORSDOF 0
ENDMDL
