MODEL 1
REMARK minimizedAffinity 5.26802063
REMARK minimizedRMSD -1
REMARK  0 active torsions:
REMARK  status: ('A' for Active; 'I' for Inactive)
ROOT
ATOM      1  N1  IND d   1      -2.250   3.169   1.200  0.00  0.00    -0.196 N 
ATOM      2  C2  IND d   1      -2.614   3.675  -0.017  0.00  0.00     0.054 A 
ATOM      3  C3  IND d   1      -3.181   2.711  -0.776  0.00  0.00    -0.031 A 
ATOM      4  C4  IND d   1      -3.706   0.261  -0.184  0.00  0.00     0.051 A 
ATOM      5  C5  IND d   1      -3.528  -0.672   0.799  0.00  0.00    -0.031 A 
ATOM      6  C6  IND d   1      -2.904  -0.365   1.991  0.00  0.00     0.015 A 
ATOM      7  C7  IND d   1      -2.443   0.895   2.250  0.00  0.00    -0.016 A 
ATOM      8  C8  IND d   1      -2.617   1.843   1.251  0.00  0.00    -0.047 A 
ATOM      9  C9  IND d   1      -3.211   1.526   0.023  0.00  0.00    -0.096 A 
ATOM     10  HN1 IND d   1      -1.857   3.607   1.828  0.00  0.00     0.298 HD
ENDROOT
TORSDOF 0
ENDMDL
