MODEL 1
REMARK minimizedAffinity 4.43358326
REMARK minimizedRMSD -1
REMARK  0 active torsions:
REMARK  status: ('A' for Active; 'I' for Inactive)
ROOT
ATOM      1  N1  IND d   1      -3.138   3.319  -1.060  0.00  0.00    -0.196 N 
ATOM      2  C2  IND d   1      -3.044   4.482  -0.347  0.00  0.00     0.054 A 
ATOM      3  C3  IND d   1      -2.951   4.216   0.975  0.00  0.00    -0.031 A 
ATOM      4  C4  IND d   1      -2.831   1.946   2.183  0.00  0.00     0.051 A 
ATOM      5  C5  IND d   1      -2.916   0.600   1.958  0.00  0.00    -0.031 A 
ATOM      6  C6  IND d   1      -3.080   0.082   0.690  0.00  0.00     0.015 A 
ATOM      7  C7  IND d   1      -3.154   0.893  -0.407  0.00  0.00    -0.016 A 
ATOM      8  C8  IND d   1      -3.075   2.260  -0.182  0.00  0.00    -0.047 A 
ATOM      9  C9  IND d   1      -2.951   2.794   1.107  0.00  0.00    -0.096 A 
ATOM     10  HN1 IND d   1      -3.223   3.260  -1.914  0.00  0.00     0.298 HD
ENDROOT
TORSDOF 0
ENDMDL
