MODEL 1
REMARK minimizedAffinity 0.71269995
REMARK minimizedRMSD -1
REMARK  0 active torsions:
REMARK  status: ('A' for Active; 'I' for Inactive)
ROOT
ATOM      1  C1  DEN d   1       4.280   5.998  -2.167  0.00  0.00     0.130 A 
ATOM      2  C2  DEN d   1       5.169   5.236  -1.294  0.00  0.00    -0.031 A 
ATOM      3  C3  DEN d   1       5.999   4.357  -2.143  0.00  0.00     0.027 A 
ATOM      4  C4  DEN d   1       5.999   4.108  -4.710  0.00  0.00     0.027 A 
ATOM      5  C5  DEN d   1       5.411   4.538  -5.879  0.00  0.00    -0.003 A 
ATOM      6  C6  DEN d   1       4.391   5.451  -5.891  0.00  0.00     0.001 A 
ATOM      7  C7  DEN d   1       3.957   5.999  -4.713  0.00  0.00     0.017 A 
ATOM      8  C8  DEN d   1       4.539   5.566  -3.529  0.00  0.00    -0.094 A 
ATOM      9  C9  DEN d   1       5.578   4.650  -3.539  0.00  0.00    -0.072 A 
ENDROOT
TORSDOF 0
ENDMDL
