MODEL 1
REMARK minimizedAffinity 2.85444546
REMARK minimizedRMSD -1
REMARK  0 active torsions:
REMARK  status: ('A' for Active; 'I' for Inactive)
ROOT
ATOM      1  C1  DEN d   1       5.948   3.839  -2.151  0.00  0.00     0.130 A 
ATOM      2  C2  DEN d   1       5.514   5.003  -1.383  0.00  0.00    -0.031 A 
ATOM      3  C3  DEN d   1       4.973   5.999  -2.331  0.00  0.00     0.027 A 
ATOM      4  C4  DEN d   1       4.763   5.849  -4.897  0.00  0.00     0.027 A 
ATOM      5  C5  DEN d   1       5.007   5.060  -5.999  0.00  0.00    -0.003 A 
ATOM      6  C6  DEN d   1       5.609   3.834  -5.900  0.00  0.00     0.001 A 
ATOM      7  C7  DEN d   1       5.945   3.340  -4.668  0.00  0.00     0.017 A 
ATOM      8  C8  DEN d   1       5.708   4.133  -3.552  0.00  0.00    -0.094 A 
ATOM      9  C9  DEN d   1       5.088   5.365  -3.672  0.00  0.00    -0.072 A 
ENDROOT
TORSDOF 0
ENDMDL
