MODEL 1
REMARK minimizedAffinity 9.44302177
REMARK minimizedRMSD -1
REMARK  0 active torsions:
REMARK  status: ('A' for Active; 'I' for Inactive)
ROOT
ATOM      1  C1  DEN d   1       4.611   4.364  -0.968  0.00  0.00     0.130 A 
ATOM      2  C2  DEN d   1       5.999   4.571  -1.370  0.00  0.00    -0.031 A 
ATOM      3  C3  DEN d   1       5.998   5.240  -2.687  0.00  0.00     0.027 A 
ATOM      4  C4  DEN d   1       3.992   5.974  -4.132  0.00  0.00     0.027 A 
ATOM      5  C5  DEN d   1       2.617   6.000  -4.214  0.00  0.00    -0.003 A 
ATOM      6  C6  DEN d   1       1.818   5.456  -3.244  0.00  0.00     0.001 A 
ATOM      7  C7  DEN d   1       2.386   4.903  -2.127  0.00  0.00     0.017 A 
ATOM      8  C8  DEN d   1       3.772   4.867  -2.040  0.00  0.00    -0.094 A 
ATOM      9  C9  DEN d   1       4.563   5.433  -3.026  0.00  0.00    -0.072 A 
ENDROOT
TORSDOF 0
ENDMDL
