MODEL 1
REMARK minimizedAffinity 9.8202734
REMARK minimizedRMSD -1
REMARK  0 active torsions:
REMARK  status: ('A' for Active; 'I' for Inactive)
ROOT
ATOM      1  C1  DEN d   1       4.507   5.930  -4.502  0.00  0.00     0.130 A 
ATOM      2  C2  DEN d   1       3.056   6.000  -4.656  0.00  0.00    -0.031 A 
ATOM      3  C3  DEN d   1       2.445   5.776  -3.330  0.00  0.00     0.027 A 
ATOM      4  C4  DEN d   1       3.598   5.334  -1.066  0.00  0.00     0.027 A 
ATOM      5  C5  DEN d   1       4.813   5.173  -0.437  0.00  0.00    -0.003 A 
ATOM      6  C6  DEN d   1       6.000   5.219  -1.119  0.00  0.00     0.001 A 
ATOM      7  C7  DEN d   1       6.000   5.476  -2.465  0.00  0.00     0.017 A 
ATOM      8  C8  DEN d   1       4.778   5.632  -3.107  0.00  0.00    -0.094 A 
ATOM      9  C9  DEN d   1       3.590   5.595  -2.397  0.00  0.00    -0.072 A 
ENDROOT
TORSDOF 0
ENDMDL
