MODEL 1
REMARK minimizedAffinity 6.25692225
REMARK minimizedRMSD -1
REMARK  0 active torsions:
REMARK  status: ('A' for Active; 'I' for Inactive)
ROOT
ATOM      1  C1  DEN d   1       5.951   4.531  -2.091  0.00  0.00     0.130 A 
ATOM      2  C2  DEN d   1       5.977   5.937  -2.484  0.00  0.00    -0.031 A 
ATOM      3  C3  DEN d   1       5.999   5.998  -3.960  0.00  0.00     0.027 A 
ATOM      4  C4  DEN d   1       5.990   4.063  -5.664  0.00  0.00     0.027 A 
ATOM      5  C5  DEN d   1       5.983   2.693  -5.807  0.00  0.00    -0.003 A 
ATOM      6  C6  DEN d   1       5.999   1.846  -4.731  0.00  0.00     0.001 A 
ATOM      7  C7  DEN d   1       5.977   2.361  -3.462  0.00  0.00     0.017 A 
ATOM      8  C8  DEN d   1       5.991   3.742  -3.309  0.00  0.00    -0.094 A 
ATOM      9  C9  DEN d   1       5.963   4.581  -4.410  0.00  0.00    -0.072 A 
ENDROOT
TORSDOF 0
ENDMDL
