MODEL 1
REMARK minimizedAffinity -3.86869383
REMARK minimizedRMSD -1
REMARK  0 active torsions:
REMARK  status: ('A' for Active; 'I' for Inactive)
ROOT
ATOM      1  C1  DEN d   1       6.000   3.763  -5.106  0.00  0.00     0.130 A 
ATOM      2  C2  DEN d   1       4.936   3.097  -5.852  0.00  0.00    -0.031 A 
ATOM      3  C3  DEN d   1       3.674   3.276  -5.106  0.00  0.00     0.027 A 
ATOM      4  C4  DEN d   1       3.266   4.519  -2.883  0.00  0.00     0.027 A 
ATOM      5  C5  DEN d   1       3.866   5.234  -1.870  0.00  0.00    -0.003 A 
ATOM      6  C6  DEN d   1       5.214   5.478  -1.848  0.00  0.00     0.001 A 
ATOM      7  C7  DEN d   1       6.000   5.041  -2.881  0.00  0.00     0.017 A 
ATOM      8  C8  DEN d   1       5.403   4.313  -3.902  0.00  0.00    -0.094 A 
ATOM      9  C9  DEN d   1       4.037   4.087  -3.913  0.00  0.00    -0.072 A 
ENDROOT
TORSDOF 0
ENDMDL
