MODEL 1
REMARK minimizedAffinity -0.454968154
REMARK minimizedRMSD -1
REMARK  0 active torsions:
REMARK  status: ('A' for Active; 'I' for Inactive)
ROOT
ATOM      1  C1  DEN d   1       2.620   3.767  -3.710  0.00  0.00     0.130 A 
ATOM      2  C2  DEN d   1       1.932   3.737  -2.422  0.00  0.00    -0.031 A 
ATOM      3  C3  DEN d   1       2.756   4.479  -1.447  0.00  0.00     0.027 A 
ATOM      4  C4  DEN d   1       5.016   5.669  -1.805  0.00  0.00     0.027 A 
ATOM      5  C5  DEN d   1       6.000   5.957  -2.726  0.00  0.00    -0.003 A 
ATOM      6  C6  DEN d   1       5.943   5.510  -4.019  0.00  0.00     0.001 A 
ATOM      7  C7  DEN d   1       4.857   4.789  -4.441  0.00  0.00     0.017 A 
ATOM      8  C8  DEN d   1       3.865   4.488  -3.517  0.00  0.00    -0.094 A 
ATOM      9  C9  DEN d   1       3.935   4.959  -2.217  0.00  0.00    -0.072 A 
ENDROOT
TORSDOF 0
ENDMDL
