MODEL 1
REMARK minimizedAffinity 12.0196886
REMARK minimizedRMSD -1
REMARK  0 active torsions:
REMARK  status: ('A' for Active; 'I' for Inactive)
ROOT
ATOM      1  C1  DEN d   1       0.559  -2.829  -0.458  0.00  0.00     0.130 A 
ATOM      2  C2  DEN d   1      -0.512  -2.033   0.135  0.00  0.00    -0.031 A 
ATOM      3  C3  DEN d   1      -1.362  -1.523  -0.960  0.00  0.00     0.027 A 
ATOM      4  C4  DEN d   1      -1.126  -1.890  -3.502  0.00  0.00     0.027 A 
ATOM      5  C5  DEN d   1      -0.366  -2.485  -4.485  0.00  0.00    -0.003 A 
ATOM      6  C6  DEN d   1       0.766  -3.201  -4.199  0.00  0.00     0.001 A 
ATOM      7  C7  DEN d   1       1.145  -3.379  -2.895  0.00  0.00     0.017 A 
ATOM      8  C8  DEN d   1       0.388  -2.777  -1.899  0.00  0.00    -0.094 A 
ATOM      9  C9  DEN d   1      -0.760  -2.067  -2.207  0.00  0.00    -0.072 A 
ENDROOT
TORSDOF 0
ENDMDL
