MODEL 1
REMARK minimizedAffinity -0.220740855
REMARK minimizedRMSD -1
REMARK  0 active torsions:
REMARK  status: ('A' for Active; 'I' for Inactive)
ROOT
ATOM      1  C1  DEN d   1      -0.544  -5.733  -4.121  0.00  0.00     0.130 A 
ATOM      2  C2  DEN d   1      -1.415  -5.647  -5.290  0.00  0.00    -0.031 A 
ATOM      3  C3  DEN d   1      -2.022  -4.301  -5.308  0.00  0.00     0.027 A 
ATOM      4  C4  DEN d   1      -1.695  -2.351  -3.652  0.00  0.00     0.027 A 
ATOM      5  C5  DEN d   1      -1.060  -1.954  -2.495  0.00  0.00    -0.003 A 
ATOM      6  C6  DEN d   1      -0.242  -2.794  -1.787  0.00  0.00     0.001 A 
ATOM      7  C7  DEN d   1      -0.001  -4.060  -2.253  0.00  0.00     0.017 A 
ATOM      8  C8  DEN d   1      -0.644  -4.469  -3.414  0.00  0.00    -0.094 A 
ATOM      9  C9  DEN d   1      -1.458  -3.601  -4.123  0.00  0.00    -0.072 A 
ENDROOT
TORSDOF 0
ENDMDL
