MODEL 1
REMARK minimizedAffinity 10.6756592
REMARK minimizedRMSD -1
REMARK  0 active torsions:
REMARK  status: ('A' for Active; 'I' for Inactive)
ROOT
ATOM      1  C1  DEN d   1       3.148  -1.500  -2.038  0.00  0.00     0.130 A 
ATOM      2  C2  DEN d   1       4.180  -1.884  -2.997  0.00  0.00    -0.031 A 
ATOM      3  C3  DEN d   1       3.515  -2.515  -4.155  0.00  0.00     0.027 A 
ATOM      4  C4  DEN d   1       1.001  -2.928  -4.555  0.00  0.00     0.027 A 
ATOM      5  C5  DEN d   1      -0.260  -2.785  -4.019  0.00  0.00    -0.003 A 
ATOM      6  C6  DEN d   1      -0.468  -2.238  -2.780  0.00  0.00     0.001 A 
ATOM      7  C7  DEN d   1       0.597  -1.774  -2.055  0.00  0.00     0.017 A 
ATOM      8  C8  DEN d   1       1.872  -1.922  -2.586  0.00  0.00    -0.094 A 
ATOM      9  C9  DEN d   1       2.061  -2.465  -3.845  0.00  0.00    -0.072 A 
ENDROOT
TORSDOF 0
ENDMDL
