MODEL 1
REMARK minimizedAffinity 2.55943274
REMARK minimizedRMSD -1
REMARK  0 active torsions:
REMARK  status: ('A' for Active; 'I' for Inactive)
ROOT
ATOM      1  C1  DEN d   1      -0.494  -5.881  -3.507  0.00  0.00     0.130 A 
ATOM      2  C2  DEN d   1      -1.329  -5.996  -4.700  0.00  0.00    -0.031 A 
ATOM      3  C3  DEN d   1      -1.809  -4.644  -5.052  0.00  0.00     0.027 A 
ATOM      4  C4  DEN d   1      -1.337  -2.397  -3.878  0.00  0.00     0.027 A 
ATOM      5  C5  DEN d   1      -0.691  -1.798  -2.819  0.00  0.00    -0.003 A 
ATOM      6  C6  DEN d   1       0.031  -2.516  -1.903  0.00  0.00     0.001 A 
ATOM      7  C7  DEN d   1       0.164  -3.871  -2.055  0.00  0.00     0.017 A 
ATOM      8  C8  DEN d   1      -0.491  -4.483  -3.116  0.00  0.00    -0.094 A 
ATOM      9  C9  DEN d   1      -1.206  -3.738  -4.038  0.00  0.00    -0.072 A 
ENDROOT
TORSDOF 0
ENDMDL
