MODEL 1
REMARK minimizedAffinity -2.13335681
REMARK minimizedRMSD -1
REMARK  0 active torsions:
REMARK  status: ('A' for Active; 'I' for Inactive)
ROOT
ATOM      1  C1  DEN d   1       4.872   5.986  -2.398  0.00  0.00     0.130 A 
ATOM      2  C2  DEN d   1       5.453   5.129  -1.368  0.00  0.00    -0.031 A 
ATOM      3  C3  DEN d   1       5.996   3.925  -2.028  0.00  0.00     0.027 A 
ATOM      4  C4  DEN d   1       5.999   3.310  -4.533  0.00  0.00     0.027 A 
ATOM      5  C5  DEN d   1       5.611   3.719  -5.790  0.00  0.00    -0.003 A 
ATOM      6  C6  DEN d   1       4.925   4.886  -5.998  0.00  0.00     0.001 A 
ATOM      7  C7  DEN d   1       4.646   5.708  -4.938  0.00  0.00     0.017 A 
ATOM      8  C8  DEN d   1       5.027   5.299  -3.668  0.00  0.00    -0.094 A 
ATOM      9  C9  DEN d   1       5.731   4.121  -3.479  0.00  0.00    -0.072 A 
ENDROOT
TORSDOF 0
ENDMDL
