MODEL 1
REMARK minimizedAffinity 0.522577107
REMARK minimizedRMSD -1
REMARK  0 active torsions:
REMARK  status: ('A' for Active; 'I' for Inactive)
ROOT
ATOM      1  C1  DEN d   1       5.974   2.906  -4.775  0.00  0.00     0.130 A 
ATOM      2  C2  DEN d   1       5.203   3.112  -5.998  0.00  0.00    -0.031 A 
ATOM      3  C3  DEN d   1       4.325   4.282  -5.792  0.00  0.00     0.027 A 
ATOM      4  C4  DEN d   1       4.091   5.788  -3.711  0.00  0.00     0.027 A 
ATOM      5  C5  DEN d   1       4.530   5.999  -2.423  0.00  0.00    -0.003 A 
ATOM      6  C6  DEN d   1       5.449   5.181  -1.821  0.00  0.00     0.001 A 
ATOM      7  C7  DEN d   1       5.992   4.138  -2.525  0.00  0.00     0.017 A 
ATOM      8  C8  DEN d   1       5.549   3.915  -3.821  0.00  0.00    -0.094 A 
ATOM      9  C9  DEN d   1       4.628   4.761  -4.416  0.00  0.00    -0.072 A 
ENDROOT
TORSDOF 0
ENDMDL
