MODEL 1
REMARK minimizedAffinity -3.50424767
REMARK minimizedRMSD -1
REMARK  0 active torsions:
REMARK  status: ('A' for Active; 'I' for Inactive)
ROOT
ATOM      1  C1  DEN d   1       5.992   3.244  -4.163  0.00  0.00     0.130 A 
ATOM      2  C2  DEN d   1       5.959   3.325  -5.621  0.00  0.00    -0.031 A 
ATOM      3  C3  DEN d   1       4.933   4.317  -6.000  0.00  0.00     0.027 A 
ATOM      4  C4  DEN d   1       3.402   5.730  -4.478  0.00  0.00     0.027 A 
ATOM      5  C5  DEN d   1       3.057   5.998  -3.172  0.00  0.00    -0.003 A 
ATOM      6  C6  DEN d   1       3.637   5.349  -2.115  0.00  0.00     0.001 A 
ATOM      7  C7  DEN d   1       4.626   4.429  -2.344  0.00  0.00     0.017 A 
ATOM      8  C8  DEN d   1       4.975   4.147  -3.658  0.00  0.00    -0.094 A 
ATOM      9  C9  DEN d   1       4.385   4.824  -4.713  0.00  0.00    -0.072 A 
ENDROOT
TORSDOF 0
ENDMDL
