MODEL 1
REMARK minimizedAffinity -0.263795286
REMARK minimizedRMSD -1
REMARK  0 active torsions:
REMARK  status: ('A' for Active; 'I' for Inactive)
ROOT
ATOM      1  C1  DEN d   1       3.728   3.696  -5.078  0.00  0.00     0.130 A 
ATOM      2  C2  DEN d   1       4.903   3.620  -5.942  0.00  0.00    -0.031 A 
ATOM      3  C3  DEN d   1       5.994   4.375  -5.295  0.00  0.00     0.027 A 
ATOM      4  C4  DEN d   1       5.981   5.643  -3.049  0.00  0.00     0.027 A 
ATOM      5  C5  DEN d   1       5.209   5.999  -1.965  0.00  0.00    -0.003 A 
ATOM      6  C6  DEN d   1       3.890   5.644  -1.860  0.00  0.00     0.001 A 
ATOM      7  C7  DEN d   1       3.316   4.872  -2.835  0.00  0.00     0.017 A 
ATOM      8  C8  DEN d   1       4.086   4.515  -3.934  0.00  0.00    -0.094 A 
ATOM      9  C9  DEN d   1       5.421   4.874  -4.016  0.00  0.00    -0.072 A 
ENDROOT
TORSDOF 0
ENDMDL
