MODEL 1
REMARK minimizedAffinity 1.50867963
REMARK minimizedRMSD -1
REMARK  0 active torsions:
REMARK  status: ('A' for Active; 'I' for Inactive)
ROOT
ATOM      1  C1  DEN d   1       5.911   2.476  -4.654  0.00  0.00     0.130 A 
ATOM      2  C2  DEN d   1       5.456   2.813  -6.000  0.00  0.00    -0.031 A 
ATOM      3  C3  DEN d   1       4.936   4.195  -5.973  0.00  0.00     0.027 A 
ATOM      4  C4  DEN d   1       4.798   5.839  -3.991  0.00  0.00     0.027 A 
ATOM      5  C5  DEN d   1       5.051   6.000  -2.647  0.00  0.00    -0.003 A 
ATOM      6  C6  DEN d   1       5.573   4.995  -1.876  0.00  0.00     0.001 A 
ATOM      7  C7  DEN d   1       5.901   3.797  -2.454  0.00  0.00     0.017 A 
ATOM      8  C8  DEN d   1       5.642   3.624  -3.808  0.00  0.00    -0.094 A 
ATOM      9  C9  DEN d   1       5.125   4.657  -4.572  0.00  0.00    -0.072 A 
ENDROOT
TORSDOF 0
ENDMDL
