MODEL 1
REMARK minimizedAffinity 1.53542852
REMARK minimizedRMSD -1
REMARK  0 active torsions:
REMARK  status: ('A' for Active; 'I' for Inactive)
ROOT
ATOM      1  C1  BNZ d   1       1.574  -2.263   5.994  0.00  0.00     0.000 A 
ATOM      2  C2  BNZ d   1       0.278  -2.184   5.559  0.00  0.00     0.000 A 
ATOM      3  C3  BNZ d   1      -0.018  -1.663   4.330  0.00  0.00     0.000 A 
ATOM      4  C4  BNZ d   1       0.978  -1.186   3.555  0.00  0.00     0.000 A 
ATOM      5  C5  BNZ d   1       2.289  -1.250   3.983  0.00  0.00     0.000 A 
ATOM      6  C6  BNZ d   1       2.586  -1.810   5.204  0.00  0.00     0.000 A 
ENDROOT
TORSDOF 0
ENDMDL
