MODEL 1
REMARK minimizedAffinity 5.6625371
REMARK minimizedRMSD -1
REMARK  0 active torsions:
REMARK  status: ('A' for Active; 'I' for Inactive)
ROOT
ATOM      1  C1  BNZ d   1      -1.855  -0.011   2.427  0.00  0.00     0.000 A 
ATOM      2  C2  BNZ d   1      -2.985   0.309   1.722  0.00  0.00     0.000 A 
ATOM      3  C3  BNZ d   1      -2.991   0.274   0.356  0.00  0.00     0.000 A 
ATOM      4  C4  BNZ d   1      -1.858  -0.042  -0.305  0.00  0.00     0.000 A 
ATOM      5  C5  BNZ d   1      -0.709  -0.357   0.391  0.00  0.00     0.000 A 
ATOM      6  C6  BNZ d   1      -0.717  -0.358   1.767  0.00  0.00     0.000 A 
ENDROOT
TORSDOF 0
ENDMDL
