MODEL 1
REMARK minimizedAffinity -0.992138743
REMARK minimizedRMSD -1
REMARK  0 active torsions:
REMARK  status: ('A' for Active; 'I' for Inactive)
ROOT
ATOM      1  C1  BNZ d   1      -1.819   0.093   2.230  0.00  0.00     0.000 A 
ATOM      2  C2  BNZ d   1      -2.941  -0.690   2.168  0.00  0.00     0.000 A 
ATOM      3  C3  BNZ d   1      -3.255  -1.544   3.188  0.00  0.00     0.000 A 
ATOM      4  C4  BNZ d   1      -2.427  -1.644   4.248  0.00  0.00     0.000 A 
ATOM      5  C5  BNZ d   1      -1.288  -0.869   4.321  0.00  0.00     0.000 A 
ATOM      6  C6  BNZ d   1      -0.995   0.019   3.310  0.00  0.00     0.000 A 
ENDROOT
TORSDOF 0
ENDMDL
