MODEL 1
REMARK minimizedAffinity 0.376977772
REMARK minimizedRMSD -1
REMARK  0 active torsions:
REMARK  status: ('A' for Active; 'I' for Inactive)
ROOT
ATOM      1  C1  BNZ d   1      -2.150  -0.007   2.497  0.00  0.00     0.000 A 
ATOM      2  C2  BNZ d   1      -1.872   0.145   1.164  0.00  0.00     0.000 A 
ATOM      3  C3  BNZ d   1      -0.733  -0.380   0.622  0.00  0.00     0.000 A 
ATOM      4  C4  BNZ d   1       0.146  -1.021   1.419  0.00  0.00     0.000 A 
ATOM      5  C5  BNZ d   1      -0.114  -1.174   2.766  0.00  0.00     0.000 A 
ATOM      6  C6  BNZ d   1      -1.281  -0.678   3.301  0.00  0.00     0.000 A 
ENDROOT
TORSDOF 0
ENDMDL
