MODEL 1
REMARK minimizedAffinity -1.75611532
REMARK minimizedRMSD -1
REMARK  0 active torsions:
REMARK  status: ('A' for Active; 'I' for Inactive)
ROOT
ATOM      1  C1  BNZ d   1       3.747   4.824   2.749  0.00  0.00     0.000 A 
ATOM      2  C2  BNZ d   1       4.190   3.675   3.348  0.00  0.00     0.000 A 
ATOM      3  C3  BNZ d   1       5.297   3.685   4.150  0.00  0.00     0.000 A 
ATOM      4  C4  BNZ d   1       5.982   4.835   4.319  0.00  0.00     0.000 A 
ATOM      5  C5  BNZ d   1       5.554   5.999   3.714  0.00  0.00     0.000 A 
ATOM      6  C6  BNZ d   1       4.417   5.993   2.939  0.00  0.00     0.000 A 
ENDROOT
TORSDOF 0
ENDMDL
