MODEL 1
REMARK minimizedAffinity 3.94127035
REMARK minimizedRMSD -1
REMARK  0 active torsions:
REMARK  status: ('A' for Active; 'I' for Inactive)
ROOT
ATOM      1  C   UNL d   1      -0.439   5.945  -4.531  0.00  0.00     0.078 C 
ATOM      2  C1  UNL d   1      -1.301   5.971  -3.304  0.00  0.00    -0.077 A 
ATOM      3  C2  UNL d   1      -0.734   5.970  -2.024  0.00  0.00    -0.001 A 
ATOM      4  C3  UNL d   1      -1.549   5.984  -0.891  0.00  0.00     0.003 A 
ATOM      5  C4  UNL d   1      -2.936   6.000  -1.027  0.00  0.00    -0.005 A 
ATOM      6  C5  UNL d   1      -3.509   5.999  -2.296  0.00  0.00     0.003 A 
ATOM      7  C6  UNL d   1      -2.696   5.984  -3.431  0.00  0.00    -0.001 A 
ENDROOT
TORSDOF 0
ENDMDL
