MODEL 1
REMARK minimizedAffinity 0.809406459
REMARK minimizedRMSD -1
REMARK  0 active torsions:
REMARK  status: ('A' for Active; 'I' for Inactive)
ROOT
ATOM      1  C   UNL d   1      -0.292  -0.462   1.047  0.00  0.00     0.078 C 
ATOM      2  C1  UNL d   1       0.636   0.672   0.730  0.00  0.00    -0.077 A 
ATOM      3  C2  UNL d   1       0.211   1.756  -0.048  0.00  0.00    -0.001 A 
ATOM      4  C3  UNL d   1       1.089   2.800  -0.343  0.00  0.00     0.003 A 
ATOM      5  C4  UNL d   1       2.397   2.771   0.134  0.00  0.00    -0.005 A 
ATOM      6  C5  UNL d   1       2.830   1.695   0.908  0.00  0.00     0.003 A 
ATOM      7  C6  UNL d   1       1.954   0.650   1.204  0.00  0.00    -0.001 A 
ENDROOT
TORSDOF 0
ENDMDL
