MODEL 1
REMARK minimizedAffinity 0.0950620398
REMARK minimizedRMSD -1
REMARK  0 active torsions:
REMARK  status: ('A' for Active; 'I' for Inactive)
ROOT
ATOM      1  C   UNL d   1       2.876   6.000  -5.452  0.00  0.00     0.078 C 
ATOM      2  C1  UNL d   1       1.493   5.990  -4.873  0.00  0.00    -0.077 A 
ATOM      3  C2  UNL d   1       0.364   5.996  -5.701  0.00  0.00    -0.001 A 
ATOM      4  C3  UNL d   1      -0.917   5.997  -5.147  0.00  0.00     0.003 A 
ATOM      5  C4  UNL d   1      -1.082   5.994  -3.764  0.00  0.00    -0.005 A 
ATOM      6  C5  UNL d   1       0.036   5.990  -2.932  0.00  0.00     0.003 A 
ATOM      7  C6  UNL d   1       1.318   5.989  -3.483  0.00  0.00    -0.001 A 
ENDROOT
TORSDOF 0
ENDMDL
