MODEL 1
REMARK minimizedAffinity 1.57862461
REMARK minimizedRMSD -1
REMARK  0 active torsions:
REMARK  status: ('A' for Active; 'I' for Inactive)
ROOT
ATOM      1  C   UNL d   1      -2.135   5.989  -3.444  0.00  0.00     0.078 C 
ATOM      2  C1  UNL d   1      -1.092   5.383  -4.336  0.00  0.00    -0.077 A 
ATOM      3  C2  UNL d   1      -1.343   4.196  -5.035  0.00  0.00    -0.001 A 
ATOM      4  C3  UNL d   1      -0.360   3.639  -5.855  0.00  0.00     0.003 A 
ATOM      5  C4  UNL d   1       0.880   4.261  -5.982  0.00  0.00    -0.005 A 
ATOM      6  C5  UNL d   1       1.140   5.441  -5.288  0.00  0.00     0.003 A 
ATOM      7  C6  UNL d   1       0.158   6.000  -4.468  0.00  0.00    -0.001 A 
ENDROOT
TORSDOF 0
ENDMDL
