MODEL 1
REMARK minimizedAffinity -0.352786481
REMARK minimizedRMSD -1
REMARK  0 active torsions:
REMARK  status: ('A' for Active; 'I' for Inactive)
ROOT
ATOM      1  C   UNL d   1       0.277   0.383   2.034  0.00  0.00     0.078 C 
ATOM      2  C1  UNL d   1       0.850   1.062   0.825  0.00  0.00    -0.077 A 
ATOM      3  C2  UNL d   1       1.168   2.425   0.846  0.00  0.00    -0.001 A 
ATOM      4  C3  UNL d   1       1.691   3.046  -0.289  0.00  0.00     0.003 A 
ATOM      5  C4  UNL d   1       1.900   2.311  -1.454  0.00  0.00    -0.005 A 
ATOM      6  C5  UNL d   1       1.585   0.954  -1.486  0.00  0.00     0.003 A 
ATOM      7  C6  UNL d   1       1.062   0.332  -0.351  0.00  0.00    -0.001 A 
ENDROOT
TORSDOF 0
ENDMDL
