MODEL 1
REMARK minimizedAffinity -1.15682888
REMARK minimizedRMSD -1
REMARK  0 active torsions:
REMARK  status: ('A' for Active; 'I' for Inactive)
ROOT
ATOM      1  C   UNL d   1      -1.735   5.878  -5.780  0.00  0.00     0.078 C 
ATOM      2  C1  UNL d   1      -2.251   5.913  -4.373  0.00  0.00    -0.077 A 
ATOM      3  C2  UNL d   1      -3.626   5.958  -4.110  0.00  0.00    -0.001 A 
ATOM      4  C3  UNL d   1      -4.092   6.000  -2.795  0.00  0.00     0.003 A 
ATOM      5  C4  UNL d   1      -3.191   5.999  -1.733  0.00  0.00    -0.005 A 
ATOM      6  C5  UNL d   1      -1.821   5.957  -1.984  0.00  0.00     0.003 A 
ATOM      7  C6  UNL d   1      -1.353   5.915  -3.299  0.00  0.00    -0.001 A 
ENDROOT
TORSDOF 0
ENDMDL
