MODEL 1
REMARK minimizedAffinity 6.54918385
REMARK minimizedRMSD -1
REMARK  0 active torsions:
REMARK  status: ('A' for Active; 'I' for Inactive)
ROOT
ATOM      1  C   UNL d   1       0.180   0.101   1.475  0.00  0.00     0.078 C 
ATOM      2  C1  UNL d   1       0.761   1.155   0.580  0.00  0.00    -0.077 A 
ATOM      3  C2  UNL d   1       1.501   0.807  -0.557  0.00  0.00    -0.001 A 
ATOM      4  C3  UNL d   1       2.045   1.798  -1.375  0.00  0.00     0.003 A 
ATOM      5  C4  UNL d   1       1.854   3.144  -1.066  0.00  0.00    -0.005 A 
ATOM      6  C5  UNL d   1       1.121   3.499   0.064  0.00  0.00     0.003 A 
ATOM      7  C6  UNL d   1       0.577   2.509   0.884  0.00  0.00    -0.001 A 
ENDROOT
TORSDOF 0
ENDMDL
