MODEL 1
REMARK minimizedAffinity 0.634939313
REMARK minimizedRMSD -1
REMARK  0 active torsions:
REMARK  status: ('A' for Active; 'I' for Inactive)
ROOT
ATOM      1  C   UNL d   1       0.054   5.998  -3.588  0.00  0.00     0.078 C 
ATOM      2  C1  UNL d   1      -1.182   5.991  -2.739  0.00  0.00    -0.077 A 
ATOM      3  C2  UNL d   1      -2.456   5.994  -3.321  0.00  0.00    -0.001 A 
ATOM      4  C3  UNL d   1      -3.598   5.998  -2.518  0.00  0.00     0.003 A 
ATOM      5  C4  UNL d   1      -3.478   6.000  -1.130  0.00  0.00    -0.005 A 
ATOM      6  C5  UNL d   1      -2.214   5.999  -0.543  0.00  0.00     0.003 A 
ATOM      7  C6  UNL d   1      -1.071   5.996  -1.343  0.00  0.00    -0.001 A 
ENDROOT
TORSDOF 0
ENDMDL
