MODEL 1
REMARK minimizedAffinity 0.517198086
REMARK minimizedRMSD -1
REMARK  0 active torsions:
REMARK  status: ('A' for Active; 'I' for Inactive)
ROOT
ATOM      1  C   UNL d   1      -3.455   5.976  -0.619  0.00  0.00     0.078 C 
ATOM      2  C1  UNL d   1      -2.868   5.975  -1.999  0.00  0.00    -0.077 A 
ATOM      3  C2  UNL d   1      -1.481   5.972  -2.192  0.00  0.00    -0.001 A 
ATOM      4  C3  UNL d   1      -0.948   5.981  -3.482  0.00  0.00     0.003 A 
ATOM      5  C4  UNL d   1      -1.794   5.994  -4.588  0.00  0.00    -0.005 A 
ATOM      6  C5  UNL d   1      -3.175   5.998  -4.406  0.00  0.00     0.003 A 
ATOM      7  C6  UNL d   1      -3.710   5.990  -3.117  0.00  0.00    -0.001 A 
ENDROOT
TORSDOF 0
ENDMDL
