MODEL 1
REMARK minimizedAffinity -2.63389254
REMARK minimizedRMSD -1
REMARK  0 active torsions:
REMARK  status: ('A' for Active; 'I' for Inactive)
ROOT
ATOM      1  C   UNL d   1       1.875   5.518  -5.973  0.00  0.00     0.078 C 
ATOM      2  C1  UNL d   1       0.582   5.693  -5.234  0.00  0.00    -0.077 A 
ATOM      3  C2  UNL d   1       0.561   5.847  -3.843  0.00  0.00    -0.001 A 
ATOM      4  C3  UNL d   1      -0.650   6.000  -3.167  0.00  0.00     0.003 A 
ATOM      5  C4  UNL d   1      -1.851   5.999  -3.874  0.00  0.00    -0.005 A 
ATOM      6  C5  UNL d   1      -1.841   5.844  -5.259  0.00  0.00     0.003 A 
ATOM      7  C6  UNL d   1      -0.630   5.691  -5.936  0.00  0.00    -0.001 A 
ENDROOT
TORSDOF 0
ENDMDL
