MODEL 1
REMARK minimizedAffinity 5.04962301
REMARK minimizedRMSD -1
REMARK  0 active torsions:
REMARK  status: ('A' for Active; 'I' for Inactive)
ROOT
ATOM      1  C   UNL d   1       0.260   5.824  -5.999  0.00  0.00     0.078 C 
ATOM      2  C1  UNL d   1       1.609   5.353  -5.544  0.00  0.00    -0.077 A 
ATOM      3  C2  UNL d   1       1.736   4.277  -4.657  0.00  0.00    -0.001 A 
ATOM      4  C3  UNL d   1       2.998   3.855  -4.235  0.00  0.00     0.003 A 
ATOM      5  C4  UNL d   1       4.142   4.504  -4.694  0.00  0.00    -0.005 A 
ATOM      6  C5  UNL d   1       4.026   5.576  -5.576  0.00  0.00     0.003 A 
ATOM      7  C6  UNL d   1       2.765   6.000  -5.999  0.00  0.00    -0.001 A 
ENDROOT
TORSDOF 0
ENDMDL
