MODEL 1
REMARK minimizedAffinity -3.33495545
REMARK minimizedRMSD -1
REMARK  0 active torsions:
REMARK  status: ('A' for Active; 'I' for Inactive)
ROOT
ATOM      1  C   UNL d   1      -0.930   5.621  -2.281  0.00  0.00     0.078 C 
ATOM      2  C1  UNL d   1      -0.165   5.619  -3.570  0.00  0.00    -0.077 A 
ATOM      3  C2  UNL d   1       1.183   5.996  -3.609  0.00  0.00    -0.001 A 
ATOM      4  C3  UNL d   1       1.881   6.000  -4.818  0.00  0.00     0.003 A 
ATOM      5  C4  UNL d   1       1.238   5.629  -5.997  0.00  0.00    -0.005 A 
ATOM      6  C5  UNL d   1      -0.103   5.254  -5.969  0.00  0.00     0.003 A 
ATOM      7  C6  UNL d   1      -0.802   5.250  -4.761  0.00  0.00    -0.001 A 
ENDROOT
TORSDOF 0
ENDMDL
