MODEL 1
REMARK minimizedAffinity 3.45961905
REMARK minimizedRMSD -1
REMARK  0 active torsions:
REMARK  status: ('A' for Active; 'I' for Inactive)
ROOT
ATOM      1  C   UNL d   1      -4.057   5.955  -3.502  0.00  0.00     0.078 C 
ATOM      2  C1  UNL d   1      -3.063   5.978  -2.380  0.00  0.00    -0.077 A 
ATOM      3  C2  UNL d   1      -1.686   5.980  -2.636  0.00  0.00    -0.001 A 
ATOM      4  C3  UNL d   1      -0.772   5.991  -1.581  0.00  0.00     0.003 A 
ATOM      5  C4  UNL d   1      -1.224   5.998  -0.263  0.00  0.00    -0.005 A 
ATOM      6  C5  UNL d   1      -2.592   5.993   0.002  0.00  0.00     0.003 A 
ATOM      7  C6  UNL d   1      -3.508   5.982  -1.052  0.00  0.00    -0.001 A 
ENDROOT
TORSDOF 0
ENDMDL
