MODEL 1
REMARK minimizedAffinity 4.25640297
REMARK minimizedRMSD -1
REMARK  0 active torsions:
REMARK  status: ('A' for Active; 'I' for Inactive)
ROOT
ATOM      1  C   UNL d   1      -0.320   5.992  -3.411  0.00  0.00     0.078 C 
ATOM      2  C1  UNL d   1      -1.406   5.986  -2.377  0.00  0.00    -0.077 A 
ATOM      3  C2  UNL d   1      -2.756   5.989  -2.749  0.00  0.00    -0.001 A 
ATOM      4  C3  UNL d   1      -3.756   5.993  -1.776  0.00  0.00     0.003 A 
ATOM      5  C4  UNL d   1      -3.417   5.995  -0.424  0.00  0.00    -0.005 A 
ATOM      6  C5  UNL d   1      -2.076   5.994  -0.044  0.00  0.00     0.003 A 
ATOM      7  C6  UNL d   1      -1.075   5.990  -1.016  0.00  0.00    -0.001 A 
ENDROOT
TORSDOF 0
ENDMDL
