MODEL 1
REMARK minimizedAffinity 7.02587605
REMARK minimizedRMSD -1
REMARK  0 active torsions:
REMARK  status: ('A' for Active; 'I' for Inactive)
ROOT
ATOM      1  C   UNL d   1      -2.391   1.181   3.806  0.00  0.00     0.078 C 
ATOM      2  C1  UNL d   1      -1.804   0.840   2.469  0.00  0.00    -0.077 A 
ATOM      3  C2  UNL d   1      -2.567   0.943   1.299  0.00  0.00    -0.001 A 
ATOM      4  C3  UNL d   1      -2.011   0.613   0.062  0.00  0.00     0.003 A 
ATOM      5  C4  UNL d   1      -0.689   0.178  -0.017  0.00  0.00    -0.005 A 
ATOM      6  C5  UNL d   1       0.077   0.071   1.142  0.00  0.00     0.003 A 
ATOM      7  C6  UNL d   1      -0.478   0.400   2.380  0.00  0.00    -0.001 A 
ENDROOT
TORSDOF 0
ENDMDL
