MODEL 1
REMARK minimizedAffinity 0.623065054
REMARK minimizedRMSD -1
REMARK  0 active torsions:
REMARK  status: ('A' for Active; 'I' for Inactive)
ROOT
ATOM      1  C   UNL d   1       3.811   5.937  -5.742  0.00  0.00     0.078 C 
ATOM      2  C1  UNL d   1       2.432   5.961  -5.153  0.00  0.00    -0.077 A 
ATOM      3  C2  UNL d   1       2.241   5.956  -3.766  0.00  0.00    -0.001 A 
ATOM      4  C3  UNL d   1       0.951   5.968  -3.231  0.00  0.00     0.003 A 
ATOM      5  C4  UNL d   1      -0.156   5.984  -4.076  0.00  0.00    -0.005 A 
ATOM      6  C5  UNL d   1       0.024   5.986  -5.458  0.00  0.00     0.003 A 
ATOM      7  C6  UNL d   1       1.313   5.974  -5.994  0.00  0.00    -0.001 A 
ENDROOT
TORSDOF 0
ENDMDL
