MODEL 1
REMARK minimizedAffinity -3.07716727
REMARK minimizedRMSD -1
REMARK  0 active torsions:
REMARK  status: ('A' for Active; 'I' for Inactive)
ROOT
ATOM      1  C   UNL d   1      -0.653   5.731  -3.006  0.00  0.00     0.078 C 
ATOM      2  C1  UNL d   1       0.382   5.393  -4.036  0.00  0.00    -0.077 A 
ATOM      3  C2  UNL d   1       0.115   4.465  -5.050  0.00  0.00    -0.001 A 
ATOM      4  C3  UNL d   1       1.092   4.153  -5.997  0.00  0.00     0.003 A 
ATOM      5  C4  UNL d   1       2.344   4.764  -5.938  0.00  0.00    -0.005 A 
ATOM      6  C5  UNL d   1       2.619   5.687  -4.931  0.00  0.00     0.003 A 
ATOM      7  C6  UNL d   1       1.644   6.000  -3.984  0.00  0.00    -0.001 A 
ENDROOT
TORSDOF 0
ENDMDL
