MODEL 1
REMARK minimizedAffinity 1.7128644
REMARK minimizedRMSD -1
REMARK  0 active torsions:
REMARK  status: ('A' for Active; 'I' for Inactive)
ROOT
ATOM      1  C   UNL d   1       0.648   4.883  -5.882  0.00  0.00     0.078 C 
ATOM      2  C1  UNL d   1       2.139   4.864  -5.721  0.00  0.00    -0.077 A 
ATOM      3  C2  UNL d   1       2.909   5.999  -6.000  0.00  0.00    -0.001 A 
ATOM      4  C3  UNL d   1       4.297   5.964  -5.854  0.00  0.00     0.003 A 
ATOM      5  C4  UNL d   1       4.927   4.796  -5.430  0.00  0.00    -0.005 A 
ATOM      6  C5  UNL d   1       4.169   3.660  -5.152  0.00  0.00     0.003 A 
ATOM      7  C6  UNL d   1       2.781   3.694  -5.297  0.00  0.00    -0.001 A 
ENDROOT
TORSDOF 0
ENDMDL
