MODEL 1
REMARK minimizedAffinity 5.54424143
REMARK minimizedRMSD -1
REMARK  0 active torsions:
REMARK  status: ('A' for Active; 'I' for Inactive)
ROOT
ATOM      1  C1  BNZ d   1      -2.685  -5.988  -3.629  0.00  0.00     0.000 A 
ATOM      2  C2  BNZ d   1      -1.317  -5.938  -3.654  0.00  0.00     0.000 A 
ATOM      3  C3  BNZ d   1      -0.640  -5.888  -4.841  0.00  0.00     0.000 A 
ATOM      4  C4  BNZ d   1      -1.329  -5.929  -5.999  0.00  0.00     0.000 A 
ATOM      5  C5  BNZ d   1      -2.709  -5.989  -5.991  0.00  0.00     0.000 A 
ATOM      6  C6  BNZ d   1      -3.388  -6.000  -4.794  0.00  0.00     0.000 A 
ENDROOT
TORSDOF 0
ENDMDL
