MODEL 1
REMARK minimizedAffinity 7.02806044
REMARK minimizedRMSD -1
REMARK  0 active torsions:
REMARK  status: ('A' for Active; 'I' for Inactive)
ROOT
ATOM      1  C1  BNZ d   1      -1.120  -2.101   2.686  0.00  0.00     0.000 A 
ATOM      2  C2  BNZ d   1      -2.044  -2.696   1.869  0.00  0.00     0.000 A 
ATOM      3  C3  BNZ d   1      -1.707  -3.773   1.098  0.00  0.00     0.000 A 
ATOM      4  C4  BNZ d   1      -0.437  -4.227   1.113  0.00  0.00     0.000 A 
ATOM      5  C5  BNZ d   1       0.509  -3.632   1.924  0.00  0.00     0.000 A 
ATOM      6  C6  BNZ d   1       0.156  -2.573   2.729  0.00  0.00     0.000 A 
ENDROOT
TORSDOF 0
ENDMDL
