MODEL 1
REMARK minimizedAffinity 2.30172133
REMARK minimizedRMSD -1
REMARK  0 active torsions:
REMARK  status: ('A' for Active; 'I' for Inactive)
ROOT
ATOM      1  C1  BNZ d   1       0.058  -0.910   4.229  0.00  0.00     0.000 A 
ATOM      2  C2  BNZ d   1       0.237  -1.742   3.156  0.00  0.00     0.000 A 
ATOM      3  C3  BNZ d   1      -0.580  -1.659   2.062  0.00  0.00     0.000 A 
ATOM      4  C4  BNZ d   1      -1.597  -0.774   2.060  0.00  0.00     0.000 A 
ATOM      5  C5  BNZ d   1      -1.795   0.066   3.138  0.00  0.00     0.000 A 
ATOM      6  C6  BNZ d   1      -0.948   0.006   4.220  0.00  0.00     0.000 A 
ENDROOT
TORSDOF 0
ENDMDL
