MODEL 1
REMARK minimizedAffinity 9.93753624
REMARK minimizedRMSD -1
REMARK  0 active torsions:
REMARK  status: ('A' for Active; 'I' for Inactive)
ROOT
ATOM      1  C1  BNZ d   1       5.132   4.428  -4.739  0.00  0.00     0.000 A 
ATOM      2  C2  BNZ d   1       3.920   3.824  -4.947  0.00  0.00     0.000 A 
ATOM      3  C3  BNZ d   1       3.080   3.561  -3.902  0.00  0.00     0.000 A 
ATOM      4  C4  BNZ d   1       3.469   3.865  -2.647  0.00  0.00     0.000 A 
ATOM      5  C5  BNZ d   1       4.691   4.466  -2.419  0.00  0.00     0.000 A 
ATOM      6  C6  BNZ d   1       5.517   4.765  -3.478  0.00  0.00     0.000 A 
ENDROOT
TORSDOF 0
ENDMDL
