MODEL 1
REMARK minimizedAffinity 6.33391523
REMARK minimizedRMSD -1
REMARK  0 active torsions:
REMARK  status: ('A' for Active; 'I' for Inactive)
ROOT
ATOM      1  C1  BNZ d   1       6.000   3.356  -0.970  0.00  0.00     0.000 A 
ATOM      2  C2  BNZ d   1       5.996   3.842   0.311  0.00  0.00     0.000 A 
ATOM      3  C3  BNZ d   1       5.686   5.150   0.562  0.00  0.00     0.000 A 
ATOM      4  C4  BNZ d   1       5.420   5.978  -0.469  0.00  0.00     0.000 A 
ATOM      5  C5  BNZ d   1       5.429   5.505  -1.766  0.00  0.00     0.000 A 
ATOM      6  C6  BNZ d   1       5.703   4.179  -2.012  0.00  0.00     0.000 A 
ENDROOT
TORSDOF 0
ENDMDL
