MODEL 1
REMARK minimizedAffinity 1.06555212
REMARK minimizedRMSD -1
REMARK  0 active torsions:
REMARK  status: ('A' for Active; 'I' for Inactive)
ROOT
ATOM      1  C1  BNZ d   1       6.000   4.539  -0.362  0.00  0.00     0.000 A 
ATOM      2  C2  BNZ d   1       5.998   3.397   0.394  0.00  0.00     0.000 A 
ATOM      3  C3  BNZ d   1       5.249   3.313   1.535  0.00  0.00     0.000 A 
ATOM      4  C4  BNZ d   1       4.536   4.384   1.939  0.00  0.00     0.000 A 
ATOM      5  C5  BNZ d   1       4.534   5.545   1.193  0.00  0.00     0.000 A 
ATOM      6  C6  BNZ d   1       5.258   5.612   0.024  0.00  0.00     0.000 A 
ENDROOT
TORSDOF 0
ENDMDL
