MODEL 1
REMARK minimizedAffinity 6.53447151
REMARK minimizedRMSD -1
REMARK  0 active torsions:
REMARK  status: ('A' for Active; 'I' for Inactive)
ROOT
ATOM      1  C1  BNZ d   1       5.026   3.668   1.201  0.00  0.00     0.000 A 
ATOM      2  C2  BNZ d   1       4.092   2.734   1.561  0.00  0.00     0.000 A 
ATOM      3  C3  BNZ d   1       4.118   1.476   1.027  0.00  0.00     0.000 A 
ATOM      4  C4  BNZ d   1       5.052   1.166   0.105  0.00  0.00     0.000 A 
ATOM      5  C5  BNZ d   1       5.995   2.100  -0.276  0.00  0.00     0.000 A 
ATOM      6  C6  BNZ d   1       5.990   3.353   0.293  0.00  0.00     0.000 A 
ENDROOT
TORSDOF 0
ENDMDL
