MODEL 1
REMARK minimizedAffinity 9.22285175
REMARK minimizedRMSD -1
REMARK  0 active torsions:
REMARK  status: ('A' for Active; 'I' for Inactive)
ROOT
ATOM      1  C1  BNZ d   1       5.999   3.034  -0.220  0.00  0.00     0.000 A 
ATOM      2  C2  BNZ d   1       6.000   4.283  -0.782  0.00  0.00     0.000 A 
ATOM      3  C3  BNZ d   1       5.851   5.399  -0.006  0.00  0.00     0.000 A 
ATOM      4  C4  BNZ d   1       5.662   5.263   1.322  0.00  0.00     0.000 A 
ATOM      5  C5  BNZ d   1       5.650   4.010   1.902  0.00  0.00     0.000 A 
ATOM      6  C6  BNZ d   1       5.839   2.891   1.124  0.00  0.00     0.000 A 
ENDROOT
TORSDOF 0
ENDMDL
