MODEL 1
REMARK minimizedAffinity 5.1978898
REMARK minimizedRMSD -1
REMARK  0 active torsions:
REMARK  status: ('A' for Active; 'I' for Inactive)
ROOT
ATOM      1  C1  BNZ d   1       3.268  -4.866  -0.383  0.00  0.00     0.000 A 
ATOM      2  C2  BNZ d   1       3.960  -5.995  -0.032  0.00  0.00     0.000 A 
ATOM      3  C3  BNZ d   1       5.327  -5.999  -0.008  0.00  0.00     0.000 A 
ATOM      4  C4  BNZ d   1       5.999  -4.888  -0.373  0.00  0.00     0.000 A 
ATOM      5  C5  BNZ d   1       5.316  -3.746  -0.738  0.00  0.00     0.000 A 
ATOM      6  C6  BNZ d   1       3.941  -3.733  -0.724  0.00  0.00     0.000 A 
ENDROOT
TORSDOF 0
ENDMDL
