MODEL 1
REMARK minimizedAffinity 9.99173164
REMARK minimizedRMSD -1
REMARK  0 active torsions:
REMARK  status: ('A' for Active; 'I' for Inactive)
ROOT
ATOM      1  C1  BNZ d   1       1.710   5.976  -1.698  0.00  0.00     0.000 A 
ATOM      2  C2  BNZ d   1       1.096   4.891  -2.264  0.00  0.00     0.000 A 
ATOM      3  C3  BNZ d   1       1.823   3.808  -2.672  0.00  0.00     0.000 A 
ATOM      4  C4  BNZ d   1       3.166   3.828  -2.550  0.00  0.00     0.000 A 
ATOM      5  C5  BNZ d   1       3.801   4.918  -1.989  0.00  0.00     0.000 A 
ATOM      6  C6  BNZ d   1       3.062   5.990  -1.544  0.00  0.00     0.000 A 
ENDROOT
TORSDOF 0
ENDMDL
