MODEL 1
REMARK minimizedAffinity 3.81502819
REMARK minimizedRMSD -1
REMARK  0 active torsions:
REMARK  status: ('A' for Active; 'I' for Inactive)
ROOT
ATOM      1  C1  BNZ d   1      -5.668   1.944   4.569  0.00  0.00     0.000 A 
ATOM      2  C2  BNZ d   1      -6.000   2.798   3.551  0.00  0.00     0.000 A 
ATOM      3  C3  BNZ d   1      -5.994   4.151   3.742  0.00  0.00     0.000 A 
ATOM      4  C4  BNZ d   1      -5.697   4.648   4.960  0.00  0.00     0.000 A 
ATOM      5  C5  BNZ d   1      -5.370   3.800   6.000  0.00  0.00     0.000 A 
ATOM      6  C6  BNZ d   1      -5.339   2.440   5.793  0.00  0.00     0.000 A 
ENDROOT
TORSDOF 0
ENDMDL
