MODEL 1
REMARK minimizedAffinity 0.999917507
REMARK minimizedRMSD -1
REMARK  0 active torsions:
REMARK  status: ('A' for Active; 'I' for Inactive)
ROOT
ATOM      1  C1  BNZ d   1       1.856   1.451   0.132  0.00  0.00     0.000 A 
ATOM      2  C2  BNZ d   1       2.539   2.089   1.133  0.00  0.00     0.000 A 
ATOM      3  C3  BNZ d   1       3.881   2.321   1.027  0.00  0.00     0.000 A 
ATOM      4  C4  BNZ d   1       4.547   1.879  -0.060  0.00  0.00     0.000 A 
ATOM      5  C5  BNZ d   1       3.874   1.226  -1.074  0.00  0.00     0.000 A 
ATOM      6  C6  BNZ d   1       2.516   1.029  -0.981  0.00  0.00     0.000 A 
ENDROOT
TORSDOF 0
ENDMDL
