MODEL 1
REMARK minimizedAffinity 4.73979902
REMARK minimizedRMSD -1
REMARK  0 active torsions:
REMARK  status: ('A' for Active; 'I' for Inactive)
ROOT
ATOM      1  C1  BNZ d   1       1.172   3.142  -3.165  0.00  0.00     0.000 A 
ATOM      2  C2  BNZ d   1       2.480   3.289  -3.543  0.00  0.00     0.000 A 
ATOM      3  C3  BNZ d   1       3.452   2.480  -3.026  0.00  0.00     0.000 A 
ATOM      4  C4  BNZ d   1       3.122   1.553  -2.104  0.00  0.00     0.000 A 
ATOM      5  C5  BNZ d   1       1.809   1.399  -1.706  0.00  0.00     0.000 A 
ATOM      6  C6  BNZ d   1       0.827   2.189  -2.257  0.00  0.00     0.000 A 
ENDROOT
TORSDOF 0
ENDMDL
