MODEL 1
REMARK minimizedAffinity 2.2464366
REMARK minimizedRMSD -1
REMARK  0 active torsions:
REMARK  status: ('A' for Active; 'I' for Inactive)
ROOT
ATOM      1  C1  BNZ d   1       2.202   2.095  -1.138  0.00  0.00     0.000 A 
ATOM      2  C2  BNZ d   1       2.531   1.905  -2.453  0.00  0.00     0.000 A 
ATOM      3  C3  BNZ d   1       2.396   2.917  -3.362  0.00  0.00     0.000 A 
ATOM      4  C4  BNZ d   1       1.894   4.104  -2.963  0.00  0.00     0.000 A 
ATOM      5  C5  BNZ d   1       1.549   4.308  -1.642  0.00  0.00     0.000 A 
ATOM      6  C6  BNZ d   1       1.723   3.300  -0.722  0.00  0.00     0.000 A 
ENDROOT
TORSDOF 0
ENDMDL
