MODEL 1
REMARK minimizedAffinity 5.44431686
REMARK minimizedRMSD -1
REMARK  0 active torsions:
REMARK  status: ('A' for Active; 'I' for Inactive)
ROOT
ATOM      1  C1  BNZ d   1       1.576   1.182  -0.046  0.00  0.00     0.000 A 
ATOM      2  C2  BNZ d   1       2.276   1.496   1.088  0.00  0.00     0.000 A 
ATOM      3  C3  BNZ d   1       3.588   1.875   1.019  0.00  0.00     0.000 A 
ATOM      4  C4  BNZ d   1       4.208   1.900  -0.178  0.00  0.00     0.000 A 
ATOM      5  C5  BNZ d   1       3.519   1.577  -1.330  0.00  0.00     0.000 A 
ATOM      6  C6  BNZ d   1       2.188   1.234  -1.261  0.00  0.00     0.000 A 
ENDROOT
TORSDOF 0
ENDMDL
