MODEL 1
REMARK minimizedAffinity 5.89537811
REMARK minimizedRMSD -1
REMARK  0 active torsions:
REMARK  status: ('A' for Active; 'I' for Inactive)
ROOT
ATOM      1  C1  BNZ d   1       3.726  -5.001  -0.183  0.00  0.00     0.000 A 
ATOM      2  C2  BNZ d   1       3.738  -3.749  -0.737  0.00  0.00     0.000 A 
ATOM      3  C3  BNZ d   1       4.881  -3.000  -0.749  0.00  0.00     0.000 A 
ATOM      4  C4  BNZ d   1       5.998  -3.486  -0.171  0.00  0.00     0.000 A 
ATOM      5  C5  BNZ d   1       6.000  -4.743   0.400  0.00  0.00     0.000 A 
ATOM      6  C6  BNZ d   1       4.858  -5.510   0.375  0.00  0.00     0.000 A 
ENDROOT
TORSDOF 0
ENDMDL
