MODEL 1
REMARK minimizedAffinity 8.64810371
REMARK minimizedRMSD -1
REMARK  0 active torsions:
REMARK  status: ('A' for Active; 'I' for Inactive)
ROOT
ATOM      1  C1  BNZ d   1       4.788   4.517  -2.548  0.00  0.00     0.000 A 
ATOM      2  C2  BNZ d   1       3.658   4.382  -1.786  0.00  0.00     0.000 A 
ATOM      3  C3  BNZ d   1       2.702   3.460  -2.109  0.00  0.00     0.000 A 
ATOM      4  C4  BNZ d   1       2.857   2.703  -3.215  0.00  0.00     0.000 A 
ATOM      5  C5  BNZ d   1       3.986   2.834  -3.999  0.00  0.00     0.000 A 
ATOM      6  C6  BNZ d   1       4.965   3.736  -3.649  0.00  0.00     0.000 A 
ENDROOT
TORSDOF 0
ENDMDL
