MODEL 1
REMARK minimizedAffinity -3.59541464
REMARK minimizedRMSD -1
REMARK  0 active torsions:
REMARK  status: ('A' for Active; 'I' for Inactive)
ROOT
ATOM      1  C1  BNZ d   1       1.214  -0.807   0.692  0.00  0.00     0.000 A 
ATOM      2  C2  BNZ d   1      -0.089  -1.061   0.358  0.00  0.00     0.000 A 
ATOM      3  C3  BNZ d   1      -0.864  -0.097  -0.223  0.00  0.00     0.000 A 
ATOM      4  C4  BNZ d   1      -0.347   1.132  -0.432  0.00  0.00     0.000 A 
ATOM      5  C5  BNZ d   1       0.962   1.406  -0.092  0.00  0.00     0.000 A 
ATOM      6  C6  BNZ d   1       1.751   0.421   0.457  0.00  0.00     0.000 A 
ENDROOT
TORSDOF 0
ENDMDL
