MODEL 1
REMARK minimizedAffinity -4.17331362
REMARK minimizedRMSD -1
REMARK  0 active torsions:
REMARK  status: ('A' for Active; 'I' for Inactive)
ROOT
ATOM      1  C1  BNZ d   1       0.448  -0.129   0.400  0.00  0.00     0.000 A 
ATOM      2  C2  BNZ d   1       0.537  -1.261   1.165  0.00  0.00     0.000 A 
ATOM      3  C3  BNZ d   1       1.703  -1.587   1.800  0.00  0.00     0.000 A 
ATOM      4  C4  BNZ d   1       2.788  -0.804   1.637  0.00  0.00     0.000 A 
ATOM      5  C5  BNZ d   1       2.717   0.336   0.861  0.00  0.00     0.000 A 
ATOM      6  C6  BNZ d   1       1.531   0.682   0.255  0.00  0.00     0.000 A 
ENDROOT
TORSDOF 0
ENDMDL
