MODEL 1
REMARK minimizedAffinity -3.51152802
REMARK minimizedRMSD -1
REMARK  0 active torsions:
REMARK  status: ('A' for Active; 'I' for Inactive)
ROOT
ATOM      1  C1  BNZ d   1       1.532   0.908   0.311  0.00  0.00     0.000 A 
ATOM      2  C2  BNZ d   1       0.344   1.428  -0.127  0.00  0.00     0.000 A 
ATOM      3  C3  BNZ d   1      -0.806   0.690  -0.072  0.00  0.00     0.000 A 
ATOM      4  C4  BNZ d   1      -0.758  -0.579   0.383  0.00  0.00     0.000 A 
ATOM      5  C5  BNZ d   1       0.435  -1.120   0.820  0.00  0.00     0.000 A 
ATOM      6  C6  BNZ d   1       1.582  -0.361   0.799  0.00  0.00     0.000 A 
ENDROOT
TORSDOF 0
ENDMDL
