MODEL 1
REMARK minimizedAffinity -4.64558887
REMARK minimizedRMSD -1
REMARK  0 active torsions:
REMARK  status: ('A' for Active; 'I' for Inactive)
ROOT
ATOM      1  C1  BNZ d   1       2.074   1.002   0.530  0.00  0.00     0.000 A 
ATOM      2  C2  BNZ d   1       0.728   0.749   0.496  0.00  0.00     0.000 A 
ATOM      3  C3  BNZ d   1       0.259  -0.513   0.264  0.00  0.00     0.000 A 
ATOM      4  C4  BNZ d   1       1.133  -1.512   0.025  0.00  0.00     0.000 A 
ATOM      5  C5  BNZ d   1       2.492  -1.271   0.046  0.00  0.00     0.000 A 
ATOM      6  C6  BNZ d   1       2.962  -0.007   0.319  0.00  0.00     0.000 A 
ENDROOT
TORSDOF 0
ENDMDL
