MODEL 1
REMARK minimizedAffinity -2.1984241
REMARK minimizedRMSD -1
REMARK  0 active torsions:
REMARK  status: ('A' for Active; 'I' for Inactive)
ROOT
ATOM      1  C1  BNZ d   1       1.428   0.994   1.139  0.00  0.00     0.000 A 
ATOM      2  C2  BNZ d   1       2.670   0.577   1.538  0.00  0.00     0.000 A 
ATOM      3  C3  BNZ d   1       3.320  -0.424   0.872  0.00  0.00     0.000 A 
ATOM      4  C4  BNZ d   1       2.711  -1.034  -0.165  0.00  0.00     0.000 A 
ATOM      5  C5  BNZ d   1       1.455  -0.631  -0.574  0.00  0.00     0.000 A 
ATOM      6  C6  BNZ d   1       0.821   0.404   0.075  0.00  0.00     0.000 A 
ENDROOT
TORSDOF 0
ENDMDL
