MODEL 1
REMARK minimizedAffinity -2.85001254
REMARK minimizedRMSD -1
REMARK  0 active torsions:
REMARK  status: ('A' for Active; 'I' for Inactive)
ROOT
ATOM      1  C1  BNZ d   1       1.469   0.281   0.872  0.00  0.00     0.000 A 
ATOM      2  C2  BNZ d   1       2.622   0.130   1.596  0.00  0.00     0.000 A 
ATOM      3  C3  BNZ d   1       2.966  -1.085   2.120  0.00  0.00     0.000 A 
ATOM      4  C4  BNZ d   1       2.137  -2.136   1.954  0.00  0.00     0.000 A 
ATOM      5  C5  BNZ d   1       0.967  -1.998   1.235  0.00  0.00     0.000 A 
ATOM      6  C6  BNZ d   1       0.643  -0.782   0.676  0.00  0.00     0.000 A 
ENDROOT
TORSDOF 0
ENDMDL
