MODEL 1
REMARK minimizedAffinity -2.56887794
REMARK minimizedRMSD -1
REMARK  0 active torsions:
REMARK  status: ('A' for Active; 'I' for Inactive)
ROOT
ATOM      1  C1  BNZ d   1      -0.206   1.095   0.007  0.00  0.00     0.000 A 
ATOM      2  C2  BNZ d   1       1.163   1.077   0.040  0.00  0.00     0.000 A 
ATOM      3  C3  BNZ d   1       1.838  -0.032   0.469  0.00  0.00     0.000 A 
ATOM      4  C4  BNZ d   1       1.144  -1.104   0.902  0.00  0.00     0.000 A 
ATOM      5  C5  BNZ d   1      -0.237  -1.098   0.883  0.00  0.00     0.000 A 
ATOM      6  C6  BNZ d   1      -0.912   0.006   0.414  0.00  0.00     0.000 A 
ENDROOT
TORSDOF 0
ENDMDL
