MODEL 1
REMARK minimizedAffinity -4.14229631
REMARK minimizedRMSD -1
REMARK  1 active torsions:
REMARK  status: ('A' for Active; 'I' for Inactive)
REMARK    1  A    between atoms: C1_2  and  C2_3 
ROOT
ATOM      1  C2  UNL d   1       1.299   1.298   0.623  0.00  0.00    -0.077 A 
ATOM      2  C3  UNL d   1       1.224   2.513  -0.074  0.00  0.00     0.002 A 
ATOM      3  C4  UNL d   1       2.101   3.556   0.230  0.00  0.00     0.002 A 
ATOM      4  C5  UNL d   1       3.061   3.394   1.226  0.00  0.00    -0.004 A 
ATOM      5  C6  UNL d   1       3.142   2.191   1.926  0.00  0.00     0.002 A 
ATOM      6  C7  UNL d   1       2.265   1.147   1.625  0.00  0.00     0.002 A 
ENDROOT
BRANCH   1   7
ATOM      7  C1  UNL d   1       0.386   0.155   0.264  0.00  0.00     0.055 C 
ATOM      8  C   UNL d   1      -0.358   0.427  -1.036  0.00  0.00     0.019 C 
ENDBRANCH   1   7
TORSDOF 1
ENDMDL
