MODEL 1
REMARK minimizedAffinity -2.10464954
REMARK minimizedRMSD -1
REMARK  1 active torsions:
REMARK  status: ('A' for Active; 'I' for Inactive)
REMARK    1  A    between atoms: C1_2  and  C2_3 
ROOT
ATOM      1  C2  UNL d   1      -0.888  -0.816  -0.380  0.00  0.00    -0.077 A 
ATOM      2  C3  UNL d   1      -0.731  -1.907   0.488  0.00  0.00     0.002 A 
ATOM      3  C4  UNL d   1      -1.645  -2.962   0.467  0.00  0.00     0.002 A 
ATOM      4  C5  UNL d   1      -2.719  -2.940  -0.421  0.00  0.00    -0.004 A 
ATOM      5  C6  UNL d   1      -2.884  -1.859  -1.286  0.00  0.00     0.002 A 
ATOM      6  C7  UNL d   1      -1.972  -0.803  -1.266  0.00  0.00     0.002 A 
ENDROOT
BRANCH   1   7
ATOM      7  C1  UNL d   1       0.124   0.300  -0.394  0.00  0.00     0.055 C 
ATOM      8  C   UNL d   1       1.507  -0.202  -0.005  0.00  0.00     0.019 C 
ENDBRANCH   1   7
TORSDOF 1
ENDMDL
