MODEL 1
REMARK minimizedAffinity -4.8108716
REMARK minimizedRMSD -1
REMARK  1 active torsions:
REMARK  status: ('A' for Active; 'I' for Inactive)
REMARK    1  A    between atoms: C1_2  and  C2_3 
ROOT
ATOM      1  C2  UNL d   1      -0.023  -0.171  -0.270  0.00  0.00    -0.077 A 
ATOM      2  C3  UNL d   1      -0.484  -1.327   0.376  0.00  0.00     0.002 A 
ATOM      3  C4  UNL d   1      -1.746  -1.847   0.079  0.00  0.00     0.002 A 
ATOM      4  C5  UNL d   1      -2.554  -1.220  -0.866  0.00  0.00    -0.004 A 
ATOM      5  C6  UNL d   1      -2.106  -0.069  -1.513  0.00  0.00     0.002 A 
ATOM      6  C7  UNL d   1      -0.846   0.453  -1.217  0.00  0.00     0.002 A 
ENDROOT
BRANCH   1   7
ATOM      7  C1  UNL d   1       1.357   0.363   0.012  0.00  0.00     0.055 C 
ATOM      8  C   UNL d   1       2.324  -0.760   0.358  0.00  0.00     0.019 C 
ENDBRANCH   1   7
TORSDOF 1
ENDMDL
