MODEL 1
REMARK minimizedAffinity -3.75103736
REMARK minimizedRMSD -1
REMARK  1 active torsions:
REMARK  status: ('A' for Active; 'I' for Inactive)
REMARK    1  A    between atoms: C1_2  and  C2_3 
ROOT
ATOM      1  C2  UNL d   1       0.310  -0.160  -0.036  0.00  0.00    -0.077 A 
ATOM      2  C3  UNL d   1      -0.598  -1.188   0.257  0.00  0.00     0.002 A 
ATOM      3  C4  UNL d   1      -1.788  -1.306  -0.463  0.00  0.00     0.002 A 
ATOM      4  C5  UNL d   1      -2.080  -0.402  -1.483  0.00  0.00    -0.004 A 
ATOM      5  C6  UNL d   1      -1.185   0.625  -1.780  0.00  0.00     0.002 A 
ATOM      6  C7  UNL d   1       0.005   0.745  -1.061  0.00  0.00     0.002 A 
ENDROOT
BRANCH   1   7
ATOM      7  C1  UNL d   1       1.617  -0.061   0.706  0.00  0.00     0.055 C 
ATOM      8  C   UNL d   1       1.892   1.367   1.154  0.00  0.00     0.019 C 
ENDBRANCH   1   7
TORSDOF 1
ENDMDL
