MODEL 1
REMARK minimizedAffinity -0.407124013
REMARK minimizedRMSD -1
REMARK  1 active torsions:
REMARK  status: ('A' for Active; 'I' for Inactive)
REMARK    1  A    between atoms: C1_2  and  C2_3 
ROOT
ATOM      1  C2  UNL d   1       1.087   1.454   0.657  0.00  0.00    -0.077 A 
ATOM      2  C3  UNL d   1       1.444   0.120   0.418  0.00  0.00     0.002 A 
ATOM      3  C4  UNL d   1       0.647  -0.689  -0.395  0.00  0.00     0.002 A 
ATOM      4  C5  UNL d   1      -0.508  -0.172  -0.978  0.00  0.00    -0.004 A 
ATOM      5  C6  UNL d   1      -0.872   1.153  -0.745  0.00  0.00     0.002 A 
ATOM      6  C7  UNL d   1      -0.078   1.963   0.068  0.00  0.00     0.002 A 
ENDROOT
BRANCH   1   7
ATOM      7  C1  UNL d   1       1.971   2.343   1.493  0.00  0.00     0.055 C 
ATOM      8  C   UNL d   1       2.009   3.761   0.942  0.00  0.00     0.019 C 
ENDBRANCH   1   7
TORSDOF 1
ENDMDL
