MODEL 1
REMARK minimizedAffinity -3.44765425
REMARK minimizedRMSD -1
REMARK  1 active torsions:
REMARK  status: ('A' for Active; 'I' for Inactive)
REMARK    1  A    between atoms: C1_2  and  C2_3 
ROOT
ATOM      1  C2  UNL d   1       0.803   0.986   0.253  0.00  0.00    -0.077 A 
ATOM      2  C3  UNL d   1       2.199   1.058   0.359  0.00  0.00     0.002 A 
ATOM      3  C4  UNL d   1       2.803   2.123   1.030  0.00  0.00     0.002 A 
ATOM      4  C5  UNL d   1       2.018   3.122   1.603  0.00  0.00    -0.004 A 
ATOM      5  C6  UNL d   1       0.629   3.061   1.501  0.00  0.00     0.002 A 
ATOM      6  C7  UNL d   1       0.024   1.997   0.830  0.00  0.00     0.002 A 
ENDROOT
BRANCH   1   7
ATOM      7  C1  UNL d   1       0.149  -0.188  -0.428  0.00  0.00     0.055 C 
ATOM      8  C   UNL d   1      -1.180   0.207  -1.056  0.00  0.00     0.019 C 
ENDBRANCH   1   7
TORSDOF 1
ENDMDL
