MODEL 1
REMARK minimizedAffinity -4.90031958
REMARK minimizedRMSD -1
REMARK  1 active torsions:
REMARK  status: ('A' for Active; 'I' for Inactive)
REMARK    1  A    between atoms: C1_2  and  C2_3 
ROOT
ATOM      1  C2  UNL d   1      -1.669  -0.924   0.372  0.00  0.00    -0.077 A 
ATOM      2  C3  UNL d   1      -1.086   0.042  -0.460  0.00  0.00     0.002 A 
ATOM      3  C4  UNL d   1       0.248   0.414  -0.282  0.00  0.00     0.002 A 
ATOM      4  C5  UNL d   1       1.010  -0.177   0.722  0.00  0.00    -0.004 A 
ATOM      5  C6  UNL d   1       0.439  -1.138   1.556  0.00  0.00     0.002 A 
ATOM      6  C7  UNL d   1      -0.895  -1.510   1.381  0.00  0.00     0.002 A 
ENDROOT
BRANCH   1   7
ATOM      7  C1  UNL d   1      -3.094  -1.362   0.151  0.00  0.00     0.055 C 
ATOM      8  C   UNL d   1      -3.242  -2.120  -1.160  0.00  0.00     0.019 C 
ENDBRANCH   1   7
TORSDOF 1
ENDMDL
