MODEL 1
REMARK minimizedAffinity 4.18074226
REMARK minimizedRMSD -1
REMARK  1 active torsions:
REMARK  status: ('A' for Active; 'I' for Inactive)
REMARK    1  A    between atoms: C1_2  and  C2_3 
ROOT
ATOM      1  C2  UNL d   1      -1.709  -2.232   0.650  0.00  0.00    -0.077 A 
ATOM      2  C3  UNL d   1      -2.841  -1.725  -0.003  0.00  0.00     0.002 A 
ATOM      3  C4  UNL d   1      -2.720  -0.669  -0.908  0.00  0.00     0.002 A 
ATOM      4  C5  UNL d   1      -1.470  -0.114  -1.172  0.00  0.00    -0.004 A 
ATOM      5  C6  UNL d   1      -0.338  -0.610  -0.526  0.00  0.00     0.002 A 
ATOM      6  C7  UNL d   1      -0.457  -1.665   0.380  0.00  0.00     0.002 A 
ENDROOT
BRANCH   1   7
ATOM      7  C1  UNL d   1      -1.830  -3.403   1.590  0.00  0.00     0.055 C 
ATOM      8  C   UNL d   1      -1.358  -4.692   0.932  0.00  0.00     0.019 C 
ENDBRANCH   1   7
TORSDOF 1
ENDMDL
