MODEL 1
REMARK minimizedAffinity -5.43488073
REMARK minimizedRMSD -1
REMARK  1 active torsions:
REMARK  status: ('A' for Active; 'I' for Inactive)
REMARK    1  A    between atoms: C1_2  and  C2_3 
ROOT
ATOM      1  C2  UNL d   1      -1.291  -0.484   0.068  0.00  0.00    -0.077 A 
ATOM      2  C3  UNL d   1      -1.377  -1.746   0.673  0.00  0.00     0.002 A 
ATOM      3  C4  UNL d   1      -2.564  -2.478   0.615  0.00  0.00     0.002 A 
ATOM      4  C5  UNL d   1      -3.672  -1.960  -0.051  0.00  0.00    -0.004 A 
ATOM      5  C6  UNL d   1      -3.598  -0.705  -0.655  0.00  0.00     0.002 A 
ATOM      6  C7  UNL d   1      -2.413   0.029  -0.596  0.00  0.00     0.002 A 
ENDROOT
BRANCH   1   7
ATOM      7  C1  UNL d   1       0.003   0.286   0.087  0.00  0.00     0.055 C 
ATOM      8  C   UNL d   1       1.204  -0.649   0.095  0.00  0.00     0.019 C 
ENDBRANCH   1   7
TORSDOF 1
ENDMDL
