MODEL 1
REMARK minimizedAffinity -3.66361713
REMARK minimizedRMSD -1
REMARK  1 active torsions:
REMARK  status: ('A' for Active; 'I' for Inactive)
REMARK    1  A    between atoms: C1_2  and  C2_3 
ROOT
ATOM      1  C2  UNL d   1      -0.824  -0.791  -0.174  0.00  0.00    -0.077 A 
ATOM      2  C3  UNL d   1      -1.972  -1.198  -0.869  0.00  0.00     0.002 A 
ATOM      3  C4  UNL d   1      -2.608  -2.396  -0.541  0.00  0.00     0.002 A 
ATOM      4  C5  UNL d   1      -2.107  -3.195   0.484  0.00  0.00    -0.004 A 
ATOM      5  C6  UNL d   1      -0.964  -2.801   1.180  0.00  0.00     0.002 A 
ATOM      6  C7  UNL d   1      -0.326  -1.603   0.853  0.00  0.00     0.002 A 
ENDROOT
BRANCH   1   7
ATOM      7  C1  UNL d   1      -0.165   0.526  -0.493  0.00  0.00     0.055 C 
ATOM      8  C   UNL d   1       0.833   0.921   0.586  0.00  0.00     0.019 C 
ENDBRANCH   1   7
TORSDOF 1
ENDMDL
