MODEL 1
REMARK minimizedAffinity -2.44335818
REMARK minimizedRMSD -1
REMARK  1 active torsions:
REMARK  status: ('A' for Active; 'I' for Inactive)
REMARK    1  A    between atoms: C1_2  and  C2_3 
ROOT
ATOM      1  C2  UNL d   1       1.557   0.910   0.245  0.00  0.00    -0.077 A 
ATOM      2  C3  UNL d   1       2.485   0.676   1.270  0.00  0.00     0.002 A 
ATOM      3  C4  UNL d   1       3.327   1.700   1.707  0.00  0.00     0.002 A 
ATOM      4  C5  UNL d   1       3.248   2.965   1.129  0.00  0.00    -0.004 A 
ATOM      5  C6  UNL d   1       2.330   3.207   0.107  0.00  0.00     0.002 A 
ATOM      6  C7  UNL d   1       1.488   2.185  -0.332  0.00  0.00     0.002 A 
ENDROOT
BRANCH   1   7
ATOM      7  C1  UNL d   1       0.613  -0.179  -0.194  0.00  0.00     0.055 C 
ATOM      8  C   UNL d   1      -0.232   0.266  -1.379  0.00  0.00     0.019 C 
ENDBRANCH   1   7
TORSDOF 1
ENDMDL
