MODEL 1
REMARK minimizedAffinity -4.45451212
REMARK minimizedRMSD -1
REMARK  1 active torsions:
REMARK  status: ('A' for Active; 'I' for Inactive)
REMARK    1  A    between atoms: C1_2  and  C2_3 
ROOT
ATOM      1  C2  UNL d   1      -0.124  -0.386   0.065  0.00  0.00    -0.077 A 
ATOM      2  C3  UNL d   1      -0.530  -1.470   0.857  0.00  0.00     0.002 A 
ATOM      3  C4  UNL d   1      -1.763  -2.086   0.632  0.00  0.00     0.002 A 
ATOM      4  C5  UNL d   1      -2.597  -1.628  -0.386  0.00  0.00    -0.004 A 
ATOM      5  C6  UNL d   1      -2.203  -0.550  -1.177  0.00  0.00     0.002 A 
ATOM      6  C7  UNL d   1      -0.972   0.068  -0.954  0.00  0.00     0.002 A 
ENDROOT
BRANCH   1   7
ATOM      7  C1  UNL d   1       1.226   0.248   0.273  0.00  0.00     0.055 C 
ATOM      8  C   UNL d   1       1.251   1.094   1.538  0.00  0.00     0.019 C 
ENDBRANCH   1   7
TORSDOF 1
ENDMDL
