MODEL 1
REMARK minimizedAffinity -1.23056436
REMARK minimizedRMSD -1
REMARK  0 active torsions:
REMARK  status: ('A' for Active; 'I' for Inactive)
ROOT
ATOM      1  C   UNL d   1      -3.782   4.448  -5.971  0.00  0.00     0.078 C 
ATOM      2  C1  UNL d   1      -3.508   2.974  -5.988  0.00  0.00    -0.077 A 
ATOM      3  C2  UNL d   1      -4.556   2.046  -5.993  0.00  0.00    -0.001 A 
ATOM      4  C3  UNL d   1      -4.287   0.676  -6.000  0.00  0.00     0.003 A 
ATOM      5  C4  UNL d   1      -2.969   0.222  -6.000  0.00  0.00    -0.005 A 
ATOM      6  C5  UNL d   1      -1.919   1.139  -5.993  0.00  0.00     0.003 A 
ATOM      7  C6  UNL d   1      -2.187   2.508  -5.986  0.00  0.00    -0.001 A 
ENDROOT
TORSDOF 0
ENDMDL
