MODEL 1
REMARK minimizedAffinity -3.7834115
REMARK minimizedRMSD -1
REMARK  0 active torsions:
REMARK  status: ('A' for Active; 'I' for Inactive)
ROOT
ATOM      1  C   UNL d   1       2.146   0.500  -1.401  0.00  0.00     0.078 C 
ATOM      2  C1  UNL d   1       0.957  -0.352  -1.732  0.00  0.00    -0.077 A 
ATOM      3  C2  UNL d   1       0.628  -0.645  -3.061  0.00  0.00    -0.001 A 
ATOM      4  C3  UNL d   1      -0.488  -1.431  -3.355  0.00  0.00     0.003 A 
ATOM      5  C4  UNL d   1      -1.283  -1.930  -2.325  0.00  0.00    -0.005 A 
ATOM      6  C5  UNL d   1      -0.965  -1.641  -1.000  0.00  0.00     0.003 A 
ATOM      7  C6  UNL d   1       0.150  -0.855  -0.704  0.00  0.00    -0.001 A 
ENDROOT
TORSDOF 0
ENDMDL
