MODEL 1
REMARK minimizedAffinity -1.13352239
REMARK minimizedRMSD -1
REMARK  0 active torsions:
REMARK  status: ('A' for Active; 'I' for Inactive)
ROOT
ATOM      1  C   UNL d   1      -4.125  -0.997  -5.988  0.00  0.00     0.078 C 
ATOM      2  C1  UNL d   1      -3.991   0.497  -5.996  0.00  0.00    -0.077 A 
ATOM      3  C2  UNL d   1      -2.730   1.107  -5.992  0.00  0.00    -0.001 A 
ATOM      4  C3  UNL d   1      -2.620   2.499  -5.989  0.00  0.00     0.003 A 
ATOM      5  C4  UNL d   1      -3.766   3.291  -5.990  0.00  0.00    -0.005 A 
ATOM      6  C5  UNL d   1      -5.024   2.693  -5.992  0.00  0.00     0.003 A 
ATOM      7  C6  UNL d   1      -5.137   1.302  -5.994  0.00  0.00    -0.001 A 
ENDROOT
TORSDOF 0
ENDMDL
