MODEL 1
REMARK minimizedAffinity -2.5747292
REMARK minimizedRMSD -1
REMARK  0 active torsions:
REMARK  status: ('A' for Active; 'I' for Inactive)
ROOT
ATOM      1  C   UNL d   1       2.273  -2.879  -1.877  0.00  0.00     0.078 C 
ATOM      2  C1  UNL d   1       1.562  -1.598  -1.558  0.00  0.00    -0.077 A 
ATOM      3  C2  UNL d   1       1.105  -1.329  -0.262  0.00  0.00    -0.001 A 
ATOM      4  C3  UNL d   1       0.436  -0.137   0.018  0.00  0.00     0.003 A 
ATOM      5  C4  UNL d   1       0.216   0.796  -0.993  0.00  0.00    -0.005 A 
ATOM      6  C5  UNL d   1       0.664   0.537  -2.287  0.00  0.00     0.003 A 
ATOM      7  C6  UNL d   1       1.334  -0.655  -2.569  0.00  0.00    -0.001 A 
ENDROOT
TORSDOF 0
ENDMDL
