MODEL 1
REMARK minimizedAffinity -0.642505705
REMARK minimizedRMSD -1
REMARK  0 active torsions:
REMARK  status: ('A' for Active; 'I' for Inactive)
ROOT
ATOM      1  C   UNL d   1      -1.429  -5.981  -5.764  0.00  0.00     0.078 C 
ATOM      2  C1  UNL d   1      -2.618  -5.071  -5.852  0.00  0.00    -0.077 A 
ATOM      3  C2  UNL d   1      -2.463  -3.680  -5.848  0.00  0.00    -0.001 A 
ATOM      4  C3  UNL d   1      -3.579  -2.845  -5.920  0.00  0.00     0.003 A 
ATOM      5  C4  UNL d   1      -4.858  -3.393  -5.997  0.00  0.00    -0.005 A 
ATOM      6  C5  UNL d   1      -5.022  -4.776  -6.000  0.00  0.00     0.003 A 
ATOM      7  C6  UNL d   1      -3.907  -5.613  -5.927  0.00  0.00    -0.001 A 
ENDROOT
TORSDOF 0
ENDMDL
