MODEL 1
REMARK minimizedAffinity -1.84654903
REMARK minimizedRMSD -1
REMARK  0 active torsions:
REMARK  status: ('A' for Active; 'I' for Inactive)
ROOT
ATOM      1  C   UNL d   1      -2.663   1.707  -5.995  0.00  0.00     0.078 C 
ATOM      2  C1  UNL d   1      -3.679   2.806  -5.909  0.00  0.00    -0.077 A 
ATOM      3  C2  UNL d   1      -3.288   4.137  -5.725  0.00  0.00    -0.001 A 
ATOM      4  C3  UNL d   1      -4.245   5.149  -5.638  0.00  0.00     0.003 A 
ATOM      5  C4  UNL d   1      -5.601   4.839  -5.731  0.00  0.00    -0.005 A 
ATOM      6  C5  UNL d   1      -6.000   3.517  -5.912  0.00  0.00     0.003 A 
ATOM      7  C6  UNL d   1      -5.044   2.504  -6.000  0.00  0.00    -0.001 A 
ENDROOT
TORSDOF 0
ENDMDL
