MODEL 1
REMARK minimizedAffinity 0.229883671
REMARK minimizedRMSD -1
REMARK  0 active torsions:
REMARK  status: ('A' for Active; 'I' for Inactive)
ROOT
ATOM      1  C   UNL d   1      -3.400  -2.924  -5.979  0.00  0.00     0.078 C 
ATOM      2  C1  UNL d   1      -3.421  -1.425  -5.979  0.00  0.00    -0.077 A 
ATOM      3  C2  UNL d   1      -4.632  -0.720  -5.984  0.00  0.00    -0.001 A 
ATOM      4  C3  UNL d   1      -4.636   0.676  -5.994  0.00  0.00     0.003 A 
ATOM      5  C4  UNL d   1      -3.433   1.379  -6.000  0.00  0.00    -0.005 A 
ATOM      6  C5  UNL d   1      -2.224   0.687  -5.996  0.00  0.00     0.003 A 
ATOM      7  C6  UNL d   1      -2.218  -0.709  -5.987  0.00  0.00    -0.001 A 
ENDROOT
TORSDOF 0
ENDMDL
