MODEL 1
REMARK minimizedAffinity -2.17510867
REMARK minimizedRMSD -1
REMARK  0 active torsions:
REMARK  status: ('A' for Active; 'I' for Inactive)
ROOT
ATOM      1  C   UNL d   1      -2.330   1.437  -5.982  0.00  0.00     0.078 C 
ATOM      2  C1  UNL d   1      -3.431   2.455  -5.991  0.00  0.00    -0.077 A 
ATOM      3  C2  UNL d   1      -3.146   3.826  -5.978  0.00  0.00    -0.001 A 
ATOM      4  C3  UNL d   1      -4.181   4.763  -5.977  0.00  0.00     0.003 A 
ATOM      5  C4  UNL d   1      -5.508   4.338  -5.988  0.00  0.00    -0.005 A 
ATOM      6  C5  UNL d   1      -5.802   2.976  -5.999  0.00  0.00     0.003 A 
ATOM      7  C6  UNL d   1      -4.768   2.039  -6.000  0.00  0.00    -0.001 A 
ENDROOT
TORSDOF 0
ENDMDL
