MODEL 1
REMARK minimizedAffinity 3.18205643
REMARK minimizedRMSD -1
REMARK  0 active torsions:
REMARK  status: ('A' for Active; 'I' for Inactive)
ROOT
ATOM      1  C   UNL d   1      -3.194   1.740   1.294  0.00  0.00     0.078 C 
ATOM      2  C1  UNL d   1      -3.981   0.464   1.293  0.00  0.00    -0.077 A 
ATOM      3  C2  UNL d   1      -3.456  -0.708   1.851  0.00  0.00    -0.001 A 
ATOM      4  C3  UNL d   1      -4.197  -1.891   1.834  0.00  0.00     0.003 A 
ATOM      5  C4  UNL d   1      -5.466  -1.914   1.260  0.00  0.00    -0.005 A 
ATOM      6  C5  UNL d   1      -5.996  -0.753   0.700  0.00  0.00     0.003 A 
ATOM      7  C6  UNL d   1      -5.257   0.431   0.716  0.00  0.00    -0.001 A 
ENDROOT
TORSDOF 0
ENDMDL
