MODEL 1
REMARK minimizedAffinity 3.70334411
REMARK minimizedRMSD -1
REMARK  0 active torsions:
REMARK  status: ('A' for Active; 'I' for Inactive)
ROOT
ATOM      1  C   UNL d   1      -1.020   2.521  -5.659  0.00  0.00     0.078 C 
ATOM      2  C1  UNL d   1      -2.492   2.256  -5.771  0.00  0.00    -0.077 A 
ATOM      3  C2  UNL d   1      -2.983   0.949  -5.880  0.00  0.00    -0.001 A 
ATOM      4  C3  UNL d   1      -4.355   0.718  -5.993  0.00  0.00     0.003 A 
ATOM      5  C4  UNL d   1      -5.247   1.788  -6.000  0.00  0.00    -0.005 A 
ATOM      6  C5  UNL d   1      -4.768   3.092  -5.894  0.00  0.00     0.003 A 
ATOM      7  C6  UNL d   1      -3.396   3.326  -5.781  0.00  0.00    -0.001 A 
ENDROOT
TORSDOF 0
ENDMDL
