MODEL 1
REMARK minimizedAffinity -1.51406622
REMARK minimizedRMSD -1
REMARK  0 active torsions:
REMARK  status: ('A' for Active; 'I' for Inactive)
ROOT
ATOM      1  C   UNL d   1       1.671   0.019  -3.155  0.00  0.00     0.078 C 
ATOM      2  C1  UNL d   1       1.190  -0.051  -1.737  0.00  0.00    -0.077 A 
ATOM      3  C2  UNL d   1       0.608  -1.219  -1.230  0.00  0.00    -0.001 A 
ATOM      4  C3  UNL d   1       0.155  -1.267   0.090  0.00  0.00     0.003 A 
ATOM      5  C4  UNL d   1       0.278  -0.149   0.912  0.00  0.00    -0.005 A 
ATOM      6  C5  UNL d   1       0.854   1.019   0.416  0.00  0.00     0.003 A 
ATOM      7  C6  UNL d   1       1.307   1.068  -0.904  0.00  0.00    -0.001 A 
ENDROOT
TORSDOF 0
ENDMDL
