MODEL 1
REMARK minimizedAffinity -1.24892259
REMARK minimizedRMSD -1
REMARK  0 active torsions:
REMARK  status: ('A' for Active; 'I' for Inactive)
ROOT
ATOM      1  C   UNL d   1       1.521   1.818   0.954  0.00  0.00     0.078 C 
ATOM      2  C1  UNL d   1       1.154   0.788  -0.073  0.00  0.00    -0.077 A 
ATOM      3  C2  UNL d   1       0.009  -0.004   0.077  0.00  0.00    -0.001 A 
ATOM      4  C3  UNL d   1      -0.314  -0.966  -0.882  0.00  0.00     0.003 A 
ATOM      5  C4  UNL d   1       0.502  -1.144  -1.997  0.00  0.00    -0.005 A 
ATOM      6  C5  UNL d   1       1.644  -0.362  -2.154  0.00  0.00     0.003 A 
ATOM      7  C6  UNL d   1       1.970   0.600  -1.196  0.00  0.00    -0.001 A 
ENDROOT
TORSDOF 0
ENDMDL
