MODEL 1
REMARK minimizedAffinity -2.52770591
REMARK minimizedRMSD -1
REMARK  0 active torsions:
REMARK  status: ('A' for Active; 'I' for Inactive)
ROOT
ATOM      1  C   UNL d   1      -3.002   1.239  -6.000  0.00  0.00     0.078 C 
ATOM      2  C1  UNL d   1      -3.765   2.530  -5.991  0.00  0.00    -0.077 A 
ATOM      3  C2  UNL d   1      -5.166   2.540  -5.997  0.00  0.00    -0.001 A 
ATOM      4  C3  UNL d   1      -5.863   3.750  -5.999  0.00  0.00     0.003 A 
ATOM      5  C4  UNL d   1      -5.168   4.958  -5.996  0.00  0.00    -0.005 A 
ATOM      6  C5  UNL d   1      -3.775   4.958  -5.992  0.00  0.00     0.003 A 
ATOM      7  C6  UNL d   1      -3.076   3.749  -5.991  0.00  0.00    -0.001 A 
ENDROOT
TORSDOF 0
ENDMDL
