MODEL 1
REMARK minimizedAffinity 0.121544637
REMARK minimizedRMSD -1
REMARK  0 active torsions:
REMARK  status: ('A' for Active; 'I' for Inactive)
ROOT
ATOM      1  C   UNL d   1       1.940  -0.054  -2.963  0.00  0.00     0.078 C 
ATOM      2  C1  UNL d   1       1.407   0.002  -1.563  0.00  0.00    -0.077 A 
ATOM      3  C2  UNL d   1       1.351   1.212  -0.860  0.00  0.00    -0.001 A 
ATOM      4  C3  UNL d   1       0.861   1.248   0.446  0.00  0.00     0.003 A 
ATOM      5  C4  UNL d   1       0.424   0.077   1.062  0.00  0.00    -0.005 A 
ATOM      6  C5  UNL d   1       0.478  -1.132   0.372  0.00  0.00     0.003 A 
ATOM      7  C6  UNL d   1       0.968  -1.170  -0.934  0.00  0.00    -0.001 A 
ENDROOT
TORSDOF 0
ENDMDL
