MODEL 1
REMARK minimizedAffinity -2.55675483
REMARK minimizedRMSD -1
REMARK  0 active torsions:
REMARK  status: ('A' for Active; 'I' for Inactive)
ROOT
ATOM      1  C   UNL d   1      -4.437  -1.082  -5.997  0.00  0.00     0.078 C 
ATOM      2  C1  UNL d   1      -4.005   0.354  -6.000  0.00  0.00    -0.077 A 
ATOM      3  C2  UNL d   1      -2.648   0.698  -5.999  0.00  0.00    -0.001 A 
ATOM      4  C3  UNL d   1      -2.260   2.039  -5.991  0.00  0.00     0.003 A 
ATOM      5  C4  UNL d   1      -3.223   3.046  -5.983  0.00  0.00    -0.005 A 
ATOM      6  C5  UNL d   1      -4.576   2.713  -5.981  0.00  0.00     0.003 A 
ATOM      7  C6  UNL d   1      -4.966   1.373  -5.989  0.00  0.00    -0.001 A 
ENDROOT
TORSDOF 0
ENDMDL
