MODEL 1
REMARK minimizedAffinity -3.51493955
REMARK minimizedRMSD -1
REMARK  0 active torsions:
REMARK  status: ('A' for Active; 'I' for Inactive)
ROOT
ATOM      1  C   UNL d   1      -2.257   5.729  -5.938  0.00  0.00     0.078 C 
ATOM      2  C1  UNL d   1      -3.089   4.481  -5.963  0.00  0.00    -0.077 A 
ATOM      3  C2  UNL d   1      -4.488   4.547  -5.951  0.00  0.00    -0.001 A 
ATOM      4  C3  UNL d   1      -5.249   3.377  -5.965  0.00  0.00     0.003 A 
ATOM      5  C4  UNL d   1      -4.621   2.133  -5.990  0.00  0.00    -0.005 A 
ATOM      6  C5  UNL d   1      -3.230   2.058  -6.000  0.00  0.00     0.003 A 
ATOM      7  C6  UNL d   1      -2.467   3.227  -5.986  0.00  0.00    -0.001 A 
ENDROOT
TORSDOF 0
ENDMDL
