MODEL 1
REMARK minimizedAffinity -1.19929743
REMARK minimizedRMSD -1
REMARK  0 active torsions:
REMARK  status: ('A' for Active; 'I' for Inactive)
ROOT
ATOM      1  C1  DEN d   1      -0.679   1.589   0.366  0.00  0.00     0.130 A 
ATOM      2  C2  DEN d   1       0.106   2.225  -0.687  0.00  0.00    -0.031 A 
ATOM      3  C3  DEN d   1       0.886   1.175  -1.373  0.00  0.00     0.027 A 
ATOM      4  C4  DEN d   1       0.951  -1.361  -0.910  0.00  0.00     0.027 A 
ATOM      5  C5  DEN d   1       0.463  -2.368  -0.106  0.00  0.00    -0.003 A 
ATOM      6  C6  DEN d   1      -0.406  -2.125   0.924  0.00  0.00     0.001 A 
ATOM      7  C7  DEN d   1      -0.850  -0.848   1.150  0.00  0.00     0.017 A 
ATOM      8  C8  DEN d   1      -0.357   0.173   0.349  0.00  0.00    -0.094 A 
ATOM      9  C9  DEN d   1       0.511  -0.095  -0.695  0.00  0.00    -0.072 A 
ENDROOT
TORSDOF 0
ENDMDL
