MODEL 1
REMARK minimizedAffinity -1.81943357
REMARK minimizedRMSD -1
REMARK  0 active torsions:
REMARK  status: ('A' for Active; 'I' for Inactive)
ROOT
ATOM      1  C1  DEN d   1      -1.025  -1.566   1.453  0.00  0.00     0.130 A 
ATOM      2  C2  DEN d   1      -0.610  -2.760   0.722  0.00  0.00    -0.031 A 
ATOM      3  C3  DEN d   1       0.028  -2.325  -0.537  0.00  0.00     0.027 A 
ATOM      4  C4  DEN d   1       0.416   0.068  -1.418  0.00  0.00     0.027 A 
ATOM      5  C5  DEN d   1       0.226   1.406  -1.153  0.00  0.00    -0.003 A 
ATOM      6  C6  DEN d   1      -0.420   1.843  -0.027  0.00  0.00     0.001 A 
ATOM      7  C7  DEN d   1      -0.859   0.934   0.900  0.00  0.00     0.017 A 
ATOM      8  C8  DEN d   1      -0.677  -0.417   0.636  0.00  0.00    -0.094 A 
ATOM      9  C9  DEN d   1      -0.011  -0.839  -0.502  0.00  0.00    -0.072 A 
ENDROOT
TORSDOF 0
ENDMDL
