MODEL 1
REMARK minimizedAffinity -1.97566617
REMARK minimizedRMSD -1
REMARK  0 active torsions:
REMARK  status: ('A' for Active; 'I' for Inactive)
ROOT
ATOM      1  C1  DEN d   1       0.401  -2.371  -0.547  0.00  0.00     0.130 A 
ATOM      2  C2  DEN d   1      -0.416  -3.034   0.466  0.00  0.00    -0.031 A 
ATOM      3  C3  DEN d   1      -1.036  -1.990   1.307  0.00  0.00     0.027 A 
ATOM      4  C4  DEN d   1      -0.816   0.574   1.137  0.00  0.00     0.027 A 
ATOM      5  C5  DEN d   1      -0.223   1.606   0.444  0.00  0.00    -0.003 A 
ATOM      6  C6  DEN d   1       0.639   1.386  -0.598  0.00  0.00     0.001 A 
ATOM      7  C7  DEN d   1       0.898   0.104  -1.006  0.00  0.00     0.017 A 
ATOM      8  C8  DEN d   1       0.309  -0.942  -0.307  0.00  0.00    -0.094 A 
ATOM      9  C9  DEN d   1      -0.569  -0.699   0.735  0.00  0.00    -0.072 A 
ENDROOT
TORSDOF 0
ENDMDL
