MODEL 1
REMARK minimizedAffinity -3.81256485
REMARK minimizedRMSD -1
REMARK  0 active torsions:
REMARK  status: ('A' for Active; 'I' for Inactive)
ROOT
ATOM      1  C1  DEN d   1       0.022  -2.423   0.840  0.00  0.00     0.130 A 
ATOM      2  C2  DEN d   1       0.968  -3.035  -0.089  0.00  0.00    -0.031 A 
ATOM      3  C3  DEN d   1       1.408  -1.996  -1.042  0.00  0.00     0.027 A 
ATOM      4  C4  DEN d   1       0.723   0.487  -1.167  0.00  0.00     0.027 A 
ATOM      5  C5  DEN d   1      -0.064   1.464  -0.598  0.00  0.00    -0.003 A 
ATOM      6  C6  DEN d   1      -0.896   1.208   0.460  0.00  0.00     0.001 A 
ATOM      7  C7  DEN d   1      -0.927  -0.046   1.011  0.00  0.00     0.017 A 
ATOM      8  C8  DEN d   1      -0.142  -1.038   0.438  0.00  0.00    -0.094 A 
ATOM      9  C9  DEN d   1       0.702  -0.756  -0.623  0.00  0.00    -0.072 A 
ENDROOT
TORSDOF 0
ENDMDL
