MODEL 1
REMARK minimizedAffinity -1.67695928
REMARK minimizedRMSD -1
REMARK  0 active torsions:
REMARK  status: ('A' for Active; 'I' for Inactive)
ROOT
ATOM      1  C1  DEN d   1       0.879  -0.501  -0.005  0.00  0.00     0.130 A 
ATOM      2  C2  DEN d   1      -0.537  -0.806   0.181  0.00  0.00    -0.031 A 
ATOM      3  C3  DEN d   1      -1.256   0.468   0.379  0.00  0.00     0.027 A 
ATOM      4  C4  DEN d   1      -0.320   2.871   0.410  0.00  0.00     0.027 A 
ATOM      5  C5  DEN d   1       0.823   3.632   0.308  0.00  0.00    -0.003 A 
ATOM      6  C6  DEN d   1       2.060   3.071   0.130  0.00  0.00     0.001 A 
ATOM      7  C7  DEN d   1       2.177   1.712   0.003  0.00  0.00     0.017 A 
ATOM      8  C8  DEN d   1       1.029   0.938   0.112  0.00  0.00    -0.094 A 
ATOM      9  C9  DEN d   1      -0.214   1.525   0.280  0.00  0.00    -0.072 A 
ENDROOT
TORSDOF 0
ENDMDL
