MODEL 1
REMARK minimizedAffinity -6.78144789
REMARK minimizedRMSD -1
REMARK  0 active torsions:
REMARK  status: ('A' for Active; 'I' for Inactive)
ROOT
ATOM      1  C1  DEN d   1      -0.534  -0.158   0.829  0.00  0.00     0.130 A 
ATOM      2  C2  DEN d   1      -0.322   0.973  -0.070  0.00  0.00    -0.031 A 
ATOM      3  C3  DEN d   1       0.012   0.439  -1.405  0.00  0.00     0.027 A 
ATOM      4  C4  DEN d   1       0.215  -2.018  -2.165  0.00  0.00     0.027 A 
ATOM      5  C5  DEN d   1       0.136  -3.330  -1.754  0.00  0.00    -0.003 A 
ATOM      6  C6  DEN d   1      -0.135  -3.674  -0.457  0.00  0.00     0.001 A 
ATOM      7  C7  DEN d   1      -0.383  -2.693   0.468  0.00  0.00     0.017 A 
ATOM      8  C8  DEN d   1      -0.298  -1.368   0.063  0.00  0.00    -0.094 A 
ATOM      9  C9  DEN d   1      -0.034  -1.041  -1.257  0.00  0.00    -0.072 A 
ENDROOT
TORSDOF 0
ENDMDL
