MODEL 1
REMARK minimizedAffinity -2.64119458
REMARK minimizedRMSD -1
REMARK  0 active torsions:
REMARK  status: ('A' for Active; 'I' for Inactive)
ROOT
ATOM      1  C1  DEN d   1       0.851  -2.420  -0.765  0.00  0.00     0.130 A 
ATOM      2  C2  DEN d   1       0.181  -3.267   0.218  0.00  0.00    -0.031 A 
ATOM      3  C3  DEN d   1      -0.774  -2.428   0.969  0.00  0.00     0.027 A 
ATOM      4  C4  DEN d   1      -1.280   0.087   0.704  0.00  0.00     0.027 A 
ATOM      5  C5  DEN d   1      -0.953   1.231   0.010  0.00  0.00    -0.003 A 
ATOM      6  C6  DEN d   1       0.014   1.245  -0.960  0.00  0.00     0.001 A 
ATOM      7  C7  DEN d   1       0.657   0.083  -1.294  0.00  0.00     0.017 A 
ATOM      8  C8  DEN d   1       0.339  -1.073  -0.593  0.00  0.00    -0.094 A 
ATOM      9  C9  DEN d   1      -0.651  -1.069   0.375  0.00  0.00    -0.072 A 
ENDROOT
TORSDOF 0
ENDMDL
