MODEL 1
REMARK minimizedAffinity -6.37590742
REMARK minimizedRMSD -1
REMARK  0 active torsions:
REMARK  status: ('A' for Active; 'I' for Inactive)
ROOT
ATOM      1  C1  DEN d   1       0.546  -2.469  -1.025  0.00  0.00     0.130 A 
ATOM      2  C2  DEN d   1       0.068  -3.367   0.022  0.00  0.00    -0.031 A 
ATOM      3  C3  DEN d   1      -0.633  -2.555   1.036  0.00  0.00     0.027 A 
ATOM      4  C4  DEN d   1      -1.027  -0.006   1.084  0.00  0.00     0.027 A 
ATOM      5  C5  DEN d   1      -0.798   1.178   0.418  0.00  0.00    -0.003 A 
ATOM      6  C6  DEN d   1      -0.082   1.233  -0.748  0.00  0.00     0.001 A 
ATOM      7  C7  DEN d   1       0.393   0.077  -1.308  0.00  0.00     0.017 A 
ATOM      8  C8  DEN d   1       0.172  -1.120  -0.639  0.00  0.00    -0.094 A 
ATOM      9  C9  DEN d   1      -0.565  -1.157   0.532  0.00  0.00    -0.072 A 
ENDROOT
TORSDOF 0
ENDMDL
