MODEL 1
REMARK minimizedAffinity -4.84570694
REMARK minimizedRMSD -1
REMARK  0 active torsions:
REMARK  status: ('A' for Active; 'I' for Inactive)
ROOT
ATOM      1  C1  DEN d   1      -0.442   0.012   0.421  0.00  0.00     0.130 A 
ATOM      2  C2  DEN d   1      -0.840  -0.547   1.710  0.00  0.00    -0.031 A 
ATOM      3  C3  DEN d   1      -0.961  -2.011   1.554  0.00  0.00     0.027 A 
ATOM      4  C4  DEN d   1      -0.569  -3.457  -0.545  0.00  0.00     0.027 A 
ATOM      5  C5  DEN d   1      -0.230  -3.430  -1.879  0.00  0.00    -0.003 A 
ATOM      6  C6  DEN d   1       0.028  -2.261  -2.544  0.00  0.00     0.001 A 
ATOM      7  C7  DEN d   1      -0.006  -1.072  -1.863  0.00  0.00     0.017 A 
ATOM      8  C8  DEN d   1      -0.355  -1.091  -0.519  0.00  0.00    -0.094 A 
ATOM      9  C9  DEN d   1      -0.600  -2.285   0.137  0.00  0.00    -0.072 A 
ENDROOT
TORSDOF 0
ENDMDL
