MODEL 1
REMARK minimizedAffinity -5.38389349
REMARK minimizedRMSD -1
REMARK  0 active torsions:
REMARK  status: ('A' for Active; 'I' for Inactive)
ROOT
ATOM      1  C1  DEN d   1       0.339   0.673  -0.595  0.00  0.00     0.130 A 
ATOM      2  C2  DEN d   1      -0.708   1.285   0.218  0.00  0.00    -0.031 A 
ATOM      3  C3  DEN d   1      -1.327   0.225   1.039  0.00  0.00     0.027 A 
ATOM      4  C4  DEN d   1      -0.766  -2.290   1.132  0.00  0.00     0.027 A 
ATOM      5  C5  DEN d   1       0.040  -3.281   0.615  0.00  0.00    -0.003 A 
ATOM      6  C6  DEN d   1       0.971  -3.031  -0.358  0.00  0.00     0.001 A 
ATOM      7  C7  DEN d   1       1.151  -1.751  -0.812  0.00  0.00     0.017 A 
ATOM      8  C8  DEN d   1       0.337  -0.749  -0.301  0.00  0.00    -0.094 A 
ATOM      9  C9  DEN d   1      -0.590  -1.019   0.691  0.00  0.00    -0.072 A 
ENDROOT
TORSDOF 0
ENDMDL
