MODEL 1
REMARK minimizedAffinity -4.31024218
REMARK minimizedRMSD -1
REMARK  0 active torsions:
REMARK  status: ('A' for Active; 'I' for Inactive)
ROOT
ATOM      1  C1  DEN d   1       1.705   0.727  -0.203  0.00  0.00     0.130 A 
ATOM      2  C2  DEN d   1       1.165   2.006   0.250  0.00  0.00    -0.031 A 
ATOM      3  C3  DEN d   1      -0.137   1.749   0.897  0.00  0.00     0.027 A 
ATOM      4  C4  DEN d   1      -1.361  -0.495   1.243  0.00  0.00     0.027 A 
ATOM      5  C5  DEN d   1      -1.302  -1.853   1.018  0.00  0.00    -0.003 A 
ATOM      6  C6  DEN d   1      -0.261  -2.437   0.346  0.00  0.00     0.001 A 
ATOM      7  C7  DEN d   1       0.786  -1.666  -0.086  0.00  0.00     0.017 A 
ATOM      8  C8  DEN d   1       0.729  -0.295   0.131  0.00  0.00    -0.094 A 
ATOM      9  C9  DEN d   1      -0.326   0.275   0.823  0.00  0.00    -0.072 A 
ENDROOT
TORSDOF 0
ENDMDL
