MODEL 1
REMARK minimizedAffinity -3.24392128
REMARK minimizedRMSD -1
REMARK  0 active torsions:
REMARK  status: ('A' for Active; 'I' for Inactive)
ROOT
ATOM      1  C1  DEN d   1       0.144  -2.620  -0.176  0.00  0.00     0.130 A 
ATOM      2  C2  DEN d   1      -0.304  -2.744   1.208  0.00  0.00    -0.031 A 
ATOM      3  C3  DEN d   1      -0.651  -1.396   1.699  0.00  0.00     0.027 A 
ATOM      4  C4  DEN d   1      -0.546   0.861   0.454  0.00  0.00     0.027 A 
ATOM      5  C5  DEN d   1      -0.218   1.472  -0.736  0.00  0.00    -0.003 A 
ATOM      6  C6  DEN d   1       0.281   0.773  -1.802  0.00  0.00     0.001 A 
ATOM      7  C7  DEN d   1       0.425  -0.586  -1.716  0.00  0.00     0.017 A 
ATOM      8  C8  DEN d   1       0.104  -1.209  -0.517  0.00  0.00    -0.094 A 
ATOM      9  C9  DEN d   1      -0.411  -0.486   0.546  0.00  0.00    -0.072 A 
ENDROOT
TORSDOF 0
ENDMDL
