MODEL 1
REMARK minimizedAffinity -4.22716951
REMARK minimizedRMSD -1
REMARK  0 active torsions:
REMARK  status: ('A' for Active; 'I' for Inactive)
ROOT
ATOM      1  C1  DEN d   1       0.048  -2.407  -0.987  0.00  0.00     0.130 A 
ATOM      2  C2  DEN d   1      -0.528  -3.244   0.061  0.00  0.00    -0.031 A 
ATOM      3  C3  DEN d   1      -0.991  -2.360   1.149  0.00  0.00     0.027 A 
ATOM      4  C4  DEN d   1      -0.876   0.211   1.311  0.00  0.00     0.027 A 
ATOM      5  C5  DEN d   1      -0.462   1.359   0.671  0.00  0.00    -0.003 A 
ATOM      6  C6  DEN d   1       0.176   1.330  -0.541  0.00  0.00     0.001 A 
ATOM      7  C7  DEN d   1       0.379   0.131  -1.173  0.00  0.00     0.017 A 
ATOM      8  C8  DEN d   1      -0.029  -1.031  -0.530  0.00  0.00    -0.094 A 
ATOM      9  C9  DEN d   1      -0.683  -0.979   0.689  0.00  0.00    -0.072 A 
ENDROOT
TORSDOF 0
ENDMDL
