MODEL 1
REMARK minimizedAffinity -3.01983571
REMARK minimizedRMSD -1
REMARK  0 active torsions:
REMARK  status: ('A' for Active; 'I' for Inactive)
ROOT
ATOM      1  C1  DEN d   1       0.578   1.008  -0.241  0.00  0.00     0.130 A 
ATOM      2  C2  DEN d   1      -0.756   1.599  -0.187  0.00  0.00    -0.031 A 
ATOM      3  C3  DEN d   1      -1.721   0.520   0.104  0.00  0.00     0.027 A 
ATOM      4  C4  DEN d   1      -1.281  -1.993   0.481  0.00  0.00     0.027 A 
ATOM      5  C5  DEN d   1      -0.309  -2.969   0.523  0.00  0.00    -0.003 A 
ATOM      6  C6  DEN d   1       1.011  -2.695   0.282  0.00  0.00     0.001 A 
ATOM      7  C7  DEN d   1       1.402  -1.406   0.032  0.00  0.00     0.017 A 
ATOM      8  C8  DEN d   1       0.427  -0.419  -0.019  0.00  0.00    -0.094 A 
ATOM      9  C9  DEN d   1      -0.900  -0.713   0.240  0.00  0.00    -0.072 A 
ENDROOT
TORSDOF 0
ENDMDL
