MODEL 1
REMARK minimizedAffinity 10.2885647
REMARK minimizedRMSD -1
REMARK  0 active torsions:
REMARK  status: ('A' for Active; 'I' for Inactive)
ROOT
ATOM      1  C1  DEN d   1       2.537  -0.878   1.255  0.00  0.00     0.130 A 
ATOM      2  C2  DEN d   1       2.071  -2.144   1.815  0.00  0.00    -0.031 A 
ATOM      3  C3  DEN d   1       0.801  -2.497   1.151  0.00  0.00     0.027 A 
ATOM      4  C4  DEN d   1      -0.481  -1.216  -0.685  0.00  0.00     0.027 A 
ATOM      5  C5  DEN d   1      -0.484  -0.085  -1.471  0.00  0.00    -0.003 A 
ATOM      6  C6  DEN d   1       0.494   0.870  -1.380  0.00  0.00     0.001 A 
ATOM      7  C7  DEN d   1       1.541   0.689  -0.516  0.00  0.00     0.017 A 
ATOM      8  C8  DEN d   1       1.547  -0.445   0.286  0.00  0.00    -0.094 A 
ATOM      9  C9  DEN d   1       0.555  -1.404   0.171  0.00  0.00    -0.072 A 
ENDROOT
TORSDOF 0
ENDMDL
