MODEL 1
REMARK minimizedAffinity 4.25439405
REMARK minimizedRMSD -1
REMARK  0 active torsions:
REMARK  status: ('A' for Active; 'I' for Inactive)
ROOT
ATOM      1  C1  DEN d   1       0.791  -3.820   1.407  0.00  0.00     0.130 A 
ATOM      2  C2  DEN d   1       2.245  -3.707   1.485  0.00  0.00    -0.031 A 
ATOM      3  C3  DEN d   1       2.568  -2.441   2.172  0.00  0.00     0.027 A 
ATOM      4  C4  DEN d   1       0.968  -0.655   3.122  0.00  0.00     0.027 A 
ATOM      5  C5  DEN d   1      -0.354  -0.305   3.283  0.00  0.00    -0.003 A 
ATOM      6  C6  DEN d   1      -1.378  -1.078   2.804  0.00  0.00     0.001 A 
ATOM      7  C7  DEN d   1      -1.098  -2.265   2.180  0.00  0.00     0.017 A 
ATOM      8  C8  DEN d   1       0.233  -2.621   2.007  0.00  0.00    -0.094 A 
ATOM      9  C9  DEN d   1       1.254  -1.832   2.509  0.00  0.00    -0.072 A 
ENDROOT
TORSDOF 0
ENDMDL
