MODEL 1
REMARK minimizedAffinity 11.1915846
REMARK minimizedRMSD -1
REMARK  0 active torsions:
REMARK  status: ('A' for Active; 'I' for Inactive)
ROOT
ATOM      1  C1  DEN d   1       2.764  -5.311   2.562  0.00  0.00     0.130 A 
ATOM      2  C2  DEN d   1       2.236  -4.021   2.130  0.00  0.00    -0.031 A 
ATOM      3  C3  DEN d   1       2.677  -2.998   3.100  0.00  0.00     0.027 A 
ATOM      4  C4  DEN d   1       4.123  -3.287   5.216  0.00  0.00     0.027 A 
ATOM      5  C5  DEN d   1       4.796  -4.198   6.000  0.00  0.00    -0.003 A 
ATOM      6  C6  DEN d   1       4.811  -5.537   5.714  0.00  0.00     0.001 A 
ATOM      7  C7  DEN d   1       4.176  -5.999   4.591  0.00  0.00     0.017 A 
ATOM      8  C8  DEN d   1       3.489  -5.087   3.800  0.00  0.00    -0.094 A 
ATOM      9  C9  DEN d   1       3.497  -3.736   4.099  0.00  0.00    -0.072 A 
ENDROOT
TORSDOF 0
ENDMDL
