MODEL 1
REMARK minimizedAffinity 12.9417953
REMARK minimizedRMSD -1
REMARK  0 active torsions:
REMARK  status: ('A' for Active; 'I' for Inactive)
ROOT
ATOM      1  C1  DEN d   1      -4.503  -1.295  -2.465  0.00  0.00     0.130 A 
ATOM      2  C2  DEN d   1      -4.800  -2.645  -2.936  0.00  0.00    -0.031 A 
ATOM      3  C3  DEN d   1      -4.528  -2.693  -4.386  0.00  0.00     0.027 A 
ATOM      4  C4  DEN d   1      -3.675  -0.819  -5.940  0.00  0.00     0.027 A 
ATOM      5  C5  DEN d   1      -3.293   0.503  -5.999  0.00  0.00    -0.003 A 
ATOM      6  C6  DEN d   1      -3.320   1.321  -4.901  0.00  0.00     0.001 A 
ATOM      7  C7  DEN d   1      -3.694   0.812  -3.685  0.00  0.00     0.017 A 
ATOM      8  C8  DEN d   1      -4.088  -0.518  -3.619  0.00  0.00    -0.094 A 
ATOM      9  C9  DEN d   1      -4.043  -1.331  -4.738  0.00  0.00    -0.072 A 
ENDROOT
TORSDOF 0
ENDMDL
