MODEL 1
REMARK minimizedAffinity 13.690671
REMARK minimizedRMSD -1
REMARK  0 active torsions:
REMARK  status: ('A' for Active; 'I' for Inactive)
ROOT
ATOM      1  C1  DEN d   1       0.764  -2.206   1.147  0.00  0.00     0.130 A 
ATOM      2  C2  DEN d   1       1.542  -3.289   1.742  0.00  0.00    -0.031 A 
ATOM      3  C3  DEN d   1       2.958  -2.874   1.769  0.00  0.00     0.027 A 
ATOM      4  C4  DEN d   1       4.017  -0.666   0.958  0.00  0.00     0.027 A 
ATOM      5  C5  DEN d   1       3.760   0.552   0.369  0.00  0.00    -0.003 A 
ATOM      6  C6  DEN d   1       2.502   0.920  -0.029  0.00  0.00     0.001 A 
ATOM      7  C7  DEN d   1       1.445   0.079   0.198  0.00  0.00     0.017 A 
ATOM      8  C8  DEN d   1       1.698  -1.155   0.784  0.00  0.00    -0.094 A 
ATOM      9  C9  DEN d   1       2.975  -1.503   1.190  0.00  0.00    -0.072 A 
ENDROOT
TORSDOF 0
ENDMDL
