MODEL 1
REMARK minimizedAffinity 11.8369894
REMARK minimizedRMSD -1
REMARK  0 active torsions:
REMARK  status: ('A' for Active; 'I' for Inactive)
ROOT
ATOM      1  C1  DEN d   1       2.410  -1.100   2.147  0.00  0.00     0.130 A 
ATOM      2  C2  DEN d   1       1.733  -2.361   2.438  0.00  0.00    -0.031 A 
ATOM      3  C3  DEN d   1       0.680  -2.559   1.421  0.00  0.00     0.027 A 
ATOM      4  C4  DEN d   1       0.040  -1.046  -0.568  0.00  0.00     0.027 A 
ATOM      5  C5  DEN d   1       0.324   0.136  -1.216  0.00  0.00    -0.003 A 
ATOM      6  C6  DEN d   1       1.292   0.998  -0.773  0.00  0.00     0.001 A 
ATOM      7  C7  DEN d   1       2.042   0.669   0.325  0.00  0.00     0.017 A 
ATOM      8  C8  DEN d   1       1.757  -0.517   0.988  0.00  0.00    -0.094 A 
ATOM      9  C9  DEN d   1       0.783  -1.381   0.517  0.00  0.00    -0.072 A 
ENDROOT
TORSDOF 0
ENDMDL
