MODEL 1
REMARK minimizedAffinity 18.261137
REMARK minimizedRMSD -1
REMARK  0 active torsions:
REMARK  status: ('A' for Active; 'I' for Inactive)
ROOT
ATOM      1  C1  DEN d   1       0.352  -2.398   0.852  0.00  0.00     0.130 A 
ATOM      2  C2  DEN d   1       1.047  -2.495   2.133  0.00  0.00    -0.031 A 
ATOM      3  C3  DEN d   1       1.886  -1.290   2.290  0.00  0.00     0.027 A 
ATOM      4  C4  DEN d   1       2.173   0.708   0.683  0.00  0.00     0.027 A 
ATOM      5  C5  DEN d   1       1.796   1.233  -0.533  0.00  0.00    -0.003 A 
ATOM      6  C6  DEN d   1       0.946   0.574  -1.381  0.00  0.00     0.001 A 
ATOM      7  C7  DEN d   1       0.408  -0.628  -1.004  0.00  0.00     0.017 A 
ATOM      8  C8  DEN d   1       0.788  -1.167   0.218  0.00  0.00    -0.094 A 
ATOM      9  C9  DEN d   1       1.639  -0.480   1.066  0.00  0.00    -0.072 A 
ENDROOT
TORSDOF 0
ENDMDL
