MODEL 1
REMARK minimizedAffinity 17.568264
REMARK minimizedRMSD -1
REMARK  0 active torsions:
REMARK  status: ('A' for Active; 'I' for Inactive)
ROOT
ATOM      1  C1  DEN d   1       0.573  -2.254   0.731  0.00  0.00     0.130 A 
ATOM      2  C2  DEN d   1       1.486  -2.246   1.871  0.00  0.00    -0.031 A 
ATOM      3  C3  DEN d   1       2.330  -1.039   1.771  0.00  0.00     0.027 A 
ATOM      4  C4  DEN d   1       2.310   0.811  -0.025  0.00  0.00     0.027 A 
ATOM      5  C5  DEN d   1       1.719   1.233  -1.196  0.00  0.00    -0.003 A 
ATOM      6  C6  DEN d   1       0.736   0.511  -1.819  0.00  0.00     0.001 A 
ATOM      7  C7  DEN d   1       0.283  -0.650  -1.250  0.00  0.00     0.017 A 
ATOM      8  C8  DEN d   1       0.879  -1.086  -0.074  0.00  0.00    -0.094 A 
ATOM      9  C9  DEN d   1       1.863  -0.335   0.547  0.00  0.00    -0.072 A 
ENDROOT
TORSDOF 0
ENDMDL
