MODEL 1
REMARK minimizedAffinity 13.3749199
REMARK minimizedRMSD -1
REMARK  0 active torsions:
REMARK  status: ('A' for Active; 'I' for Inactive)
ROOT
ATOM      1  C1  DEN d   1       3.165  -2.265   4.999  0.00  0.00     0.130 A 
ATOM      2  C2  DEN d   1       4.262  -1.391   5.404  0.00  0.00    -0.031 A 
ATOM      3  C3  DEN d   1       5.376  -2.242   5.870  0.00  0.00     0.027 A 
ATOM      4  C4  DEN d   1       5.509  -4.814   5.996  0.00  0.00     0.027 A 
ATOM      5  C5  DEN d   1       4.821  -5.986   5.773  0.00  0.00    -0.003 A 
ATOM      6  C6  DEN d   1       3.531  -5.999   5.311  0.00  0.00     0.001 A 
ATOM      7  C7  DEN d   1       2.904  -4.818   5.016  0.00  0.00     0.017 A 
ATOM      8  C8  DEN d   1       3.589  -3.632   5.246  0.00  0.00    -0.094 A 
ATOM      9  C9  DEN d   1       4.897  -3.640   5.701  0.00  0.00    -0.072 A 
ENDROOT
TORSDOF 0
ENDMDL
