MODEL 1
REMARK minimizedAffinity 3.62825227
REMARK minimizedRMSD -1
REMARK  2 active torsions:
REMARK  status: ('A' for Active; 'I' for Inactive)
REMARK    1  A    between atoms: C1_2  and  C2_3 
REMARK    2  A    between atoms: C2_3  and  C3_4 
ROOT
ATOM      1  C3  UNL d   1      -1.121  -2.486   0.175  0.00  0.00    -0.075 A 
ATOM      2  C4  UNL d   1      -0.901  -3.863   0.323  0.00  0.00     0.002 A 
ATOM      3  C5  UNL d   1      -1.947  -4.771   0.156  0.00  0.00     0.002 A 
ATOM      4  C6  UNL d   1      -3.227  -4.313  -0.151  0.00  0.00    -0.004 A 
ATOM      5  C7  UNL d   1      -3.461  -2.947  -0.284  0.00  0.00     0.002 A 
ATOM      6  C8  UNL d   1      -2.415  -2.037  -0.121  0.00  0.00     0.002 A 
ENDROOT
BRANCH   1   7
ATOM      7  C2  UNL d   1       0.013  -1.501   0.325  0.00  0.00     0.056 C 
BRANCH   7   8
ATOM      8  C1  UNL d   1       0.106  -0.478  -0.812  0.00  0.00     0.007 C 
ATOM      9  C   UNL d   1       1.162  -0.830  -1.851  0.00  0.00     0.009 C 
ENDBRANCH   7   8
ENDBRANCH   1   7
TORSDOF 2
ENDMDL
