MODEL 1
REMARK minimizedAffinity 0.883391023
REMARK minimizedRMSD -1
REMARK  2 active torsions:
REMARK  status: ('A' for Active; 'I' for Inactive)
REMARK    1  A    between atoms: C1_2  and  C2_3 
REMARK    2  A    between atoms: C2_3  and  C3_4 
ROOT
ATOM      1  C3  UNL d   1       0.163  -0.785  -0.931  0.00  0.00    -0.075 A 
ATOM      2  C4  UNL d   1       0.637  -2.094  -1.096  0.00  0.00     0.002 A 
ATOM      3  C5  UNL d   1       1.414  -2.432  -2.205  0.00  0.00     0.002 A 
ATOM      4  C6  UNL d   1       1.718  -1.469  -3.165  0.00  0.00    -0.004 A 
ATOM      5  C7  UNL d   1       1.239  -0.169  -3.019  0.00  0.00     0.002 A 
ATOM      6  C8  UNL d   1       0.465   0.172  -1.909  0.00  0.00     0.002 A 
ENDROOT
BRANCH   1   7
ATOM      7  C2  UNL d   1      -0.654  -0.406   0.281  0.00  0.00     0.056 C 
BRANCH   7   8
ATOM      8  C1  UNL d   1      -0.684   1.099   0.568  0.00  0.00     0.007 C 
ATOM      9  C   UNL d   1      -1.467   1.455   1.824  0.00  0.00     0.009 C 
ENDBRANCH   7   8
ENDBRANCH   1   7
TORSDOF 2
ENDMDL
