MODEL 1
REMARK minimizedAffinity 1.54794419
REMARK minimizedRMSD -1
REMARK  2 active torsions:
REMARK  status: ('A' for Active; 'I' for Inactive)
REMARK    1  A    between atoms: C1_2  and  C2_3 
REMARK    2  A    between atoms: C2_3  and  C3_4 
ROOT
ATOM      1  C3  UNL d   1       5.094   0.871   4.891  0.00  0.00    -0.075 A 
ATOM      2  C4  UNL d   1       5.726   0.277   5.993  0.00  0.00     0.002 A 
ATOM      3  C5  UNL d   1       6.000  -1.091   6.000  0.00  0.00     0.002 A 
ATOM      4  C6  UNL d   1       5.638  -1.882   4.912  0.00  0.00    -0.004 A 
ATOM      5  C7  UNL d   1       4.995  -1.306   3.819  0.00  0.00     0.002 A 
ATOM      6  C8  UNL d   1       4.723   0.064   3.807  0.00  0.00     0.002 A 
ENDROOT
BRANCH   1   7
ATOM      7  C2  UNL d   1       4.821   2.356   4.864  0.00  0.00     0.056 C 
BRANCH   7   8
ATOM      8  C1  UNL d   1       5.905   3.178   4.159  0.00  0.00     0.007 C 
ATOM      9  C   UNL d   1       5.635   3.380   2.674  0.00  0.00     0.009 C 
ENDBRANCH   7   8
ENDBRANCH   1   7
TORSDOF 2
ENDMDL
