MODEL 1
REMARK minimizedAffinity 2.84165382
REMARK minimizedRMSD -1
REMARK  2 active torsions:
REMARK  status: ('A' for Active; 'I' for Inactive)
REMARK    1  A    between atoms: C1_2  and  C2_3 
REMARK    2  A    between atoms: C2_3  and  C3_4 
ROOT
ATOM      1  C3  UNL d   1       0.433   3.159   1.449  0.00  0.00    -0.075 A 
ATOM      2  C4  UNL d   1       0.427   2.921   2.831  0.00  0.00     0.002 A 
ATOM      3  C5  UNL d   1      -0.728   3.139   3.582  0.00  0.00     0.002 A 
ATOM      4  C6  UNL d   1      -1.886   3.607   2.965  0.00  0.00    -0.004 A 
ATOM      5  C7  UNL d   1      -1.886   3.863   1.596  0.00  0.00     0.002 A 
ATOM      6  C8  UNL d   1      -0.733   3.641   0.841  0.00  0.00     0.002 A 
ENDROOT
BRANCH   1   7
ATOM      7  C2  UNL d   1       1.671   2.896   0.625  0.00  0.00     0.056 C 
BRANCH   7   8
ATOM      8  C1  UNL d   1       2.911   3.659   1.103  0.00  0.00     0.007 C 
ATOM      9  C   UNL d   1       3.626   4.404  -0.016  0.00  0.00     0.009 C 
ENDBRANCH   7   8
ENDBRANCH   1   7
TORSDOF 2
ENDMDL
