MODEL 1
REMARK minimizedAffinity 1.69027936
REMARK minimizedRMSD -1
REMARK  2 active torsions:
REMARK  status: ('A' for Active; 'I' for Inactive)
REMARK    1  A    between atoms: C1_2  and  C2_3 
REMARK    2  A    between atoms: C2_3  and  C3_4 
ROOT
ATOM      1  C3  UNL d   1       1.341  -1.605  -2.301  0.00  0.00    -0.075 A 
ATOM      2  C4  UNL d   1       1.157  -0.215  -2.333  0.00  0.00     0.002 A 
ATOM      3  C5  UNL d   1       0.411   0.424  -1.342  0.00  0.00     0.002 A 
ATOM      4  C6  UNL d   1      -0.169  -0.318  -0.315  0.00  0.00    -0.004 A 
ATOM      5  C7  UNL d   1      -0.006  -1.701  -0.283  0.00  0.00     0.002 A 
ATOM      6  C8  UNL d   1       0.744  -2.342  -1.270  0.00  0.00     0.002 A 
ENDROOT
BRANCH   1   7
ATOM      7  C2  UNL d   1       2.173  -2.298  -3.353  0.00  0.00     0.056 C 
BRANCH   7   8
ATOM      8  C1  UNL d   1       1.391  -3.306  -4.202  0.00  0.00     0.007 C 
ATOM      9  C   UNL d   1       1.909  -4.732  -4.072  0.00  0.00     0.009 C 
ENDBRANCH   7   8
ENDBRANCH   1   7
TORSDOF 2
ENDMDL
