MODEL 1
REMARK minimizedAffinity -4.38379335
REMARK minimizedRMSD -1
REMARK  2 active torsions:
REMARK  status: ('A' for Active; 'I' for Inactive)
REMARK    1  A    between atoms: C1_2  and  C2_3 
REMARK    2  A    between atoms: C2_3  and  C3_4 
ROOT
ATOM      1  C3  UNL d   1       4.623   5.330   0.746  0.00  0.00    -0.075 A 
ATOM      2  C4  UNL d   1       3.662   4.315   0.624  0.00  0.00     0.002 A 
ATOM      3  C5  UNL d   1       3.441   3.694  -0.606  0.00  0.00     0.002 A 
ATOM      4  C6  UNL d   1       4.167   4.085  -1.728  0.00  0.00    -0.004 A 
ATOM      5  C7  UNL d   1       5.112   5.104  -1.622  0.00  0.00     0.002 A 
ATOM      6  C8  UNL d   1       5.339   5.724  -0.392  0.00  0.00     0.002 A 
ENDROOT
BRANCH   1   7
ATOM      7  C2  UNL d   1       4.888   5.986   2.080  0.00  0.00     0.056 C 
BRANCH   7   8
ATOM      8  C1  UNL d   1       4.760   5.038   3.277  0.00  0.00     0.007 C 
ATOM      9  C   UNL d   1       5.999   4.182   3.500  0.00  0.00     0.009 C 
ENDBRANCH   7   8
ENDBRANCH   1   7
TORSDOF 2
ENDMDL
