MODEL 1
REMARK minimizedAffinity 8.49430275
REMARK minimizedRMSD -1
REMARK  2 active torsions:
REMARK  status: ('A' for Active; 'I' for Inactive)
REMARK    1  A    between atoms: C1_2  and  C2_3 
REMARK    2  A    between atoms: C2_3  and  C3_4 
ROOT
ATOM      1  C3  UNL d   1       1.575  -2.192  -2.137  0.00  0.00    -0.075 A 
ATOM      2  C4  UNL d   1       1.776  -1.350  -3.240  0.00  0.00     0.002 A 
ATOM      3  C5  UNL d   1       1.883  -1.881  -4.526  0.00  0.00     0.002 A 
ATOM      4  C6  UNL d   1       1.800  -3.258  -4.723  0.00  0.00    -0.004 A 
ATOM      5  C7  UNL d   1       1.617  -4.105  -3.632  0.00  0.00     0.002 A 
ATOM      6  C8  UNL d   1       1.506  -3.576  -2.345  0.00  0.00     0.002 A 
ENDROOT
BRANCH   1   7
ATOM      7  C2  UNL d   1       1.430  -1.621  -0.746  0.00  0.00     0.056 C 
BRANCH   7   8
ATOM      8  C1  UNL d   1       0.106  -0.885  -0.509  0.00  0.00     0.007 C 
ATOM      9  C   UNL d   1       0.218   0.623  -0.689  0.00  0.00     0.009 C 
ENDBRANCH   7   8
ENDBRANCH   1   7
TORSDOF 2
ENDMDL
