MODEL 1
REMARK minimizedAffinity 3.04828215
REMARK minimizedRMSD -1
REMARK  2 active torsions:
REMARK  status: ('A' for Active; 'I' for Inactive)
REMARK    1  A    between atoms: C1_2  and  C2_3 
REMARK    2  A    between atoms: C2_3  and  C3_4 
ROOT
ATOM      1  C3  UNL d   1       4.558   4.464   2.225  0.00  0.00    -0.075 A 
ATOM      2  C4  UNL d   1       3.848   4.214   3.408  0.00  0.00     0.002 A 
ATOM      3  C5  UNL d   1       4.197   4.861   4.594  0.00  0.00     0.002 A 
ATOM      4  C6  UNL d   1       5.264   5.756   4.615  0.00  0.00    -0.004 A 
ATOM      5  C7  UNL d   1       5.987   5.999   3.449  0.00  0.00     0.002 A 
ATOM      6  C8  UNL d   1       5.638   5.357   2.260  0.00  0.00     0.002 A 
ENDROOT
BRANCH   1   7
ATOM      7  C2  UNL d   1       4.167   3.790   0.932  0.00  0.00     0.056 C 
BRANCH   7   8
ATOM      8  C1  UNL d   1       3.611   4.748  -0.128  0.00  0.00     0.007 C 
ATOM      9  C   UNL d   1       4.213   4.528  -1.509  0.00  0.00     0.009 C 
ENDBRANCH   7   8
ENDBRANCH   1   7
TORSDOF 2
ENDMDL
