MODEL 1
REMARK minimizedAffinity -4.61861086
REMARK minimizedRMSD -1
REMARK  2 active torsions:
REMARK  status: ('A' for Active; 'I' for Inactive)
REMARK    1  A    between atoms: C1_2  and  C2_3 
REMARK    2  A    between atoms: C2_3  and  C3_4 
ROOT
ATOM      1  C3  UNL d   1       5.189   4.501   1.280  0.00  0.00    -0.075 A 
ATOM      2  C4  UNL d   1       5.548   3.146   1.230  0.00  0.00     0.002 A 
ATOM      3  C5  UNL d   1       5.832   2.445   2.402  0.00  0.00     0.002 A 
ATOM      4  C6  UNL d   1       5.769   3.089   3.636  0.00  0.00    -0.004 A 
ATOM      5  C7  UNL d   1       5.429   4.439   3.696  0.00  0.00     0.002 A 
ATOM      6  C8  UNL d   1       5.141   5.142   2.525  0.00  0.00     0.002 A 
ENDROOT
BRANCH   1   7
ATOM      7  C2  UNL d   1       4.852   5.258   0.017  0.00  0.00     0.056 C 
BRANCH   7   8
ATOM      8  C1  UNL d   1       4.329   4.373  -1.120  0.00  0.00     0.007 C 
ATOM      9  C   UNL d   1       4.943   4.709  -2.472  0.00  0.00     0.009 C 
ENDBRANCH   7   8
ENDBRANCH   1   7
TORSDOF 2
ENDMDL
