MODEL 1
REMARK minimizedAffinity 1.05919349
REMARK minimizedRMSD -1
REMARK  2 active torsions:
REMARK  status: ('A' for Active; 'I' for Inactive)
REMARK    1  A    between atoms: C1_2  and  C2_3 
REMARK    2  A    between atoms: C2_3  and  C3_4 
ROOT
ATOM      1  C3  UNL d   1      -1.232  -2.133  -0.702  0.00  0.00    -0.075 A 
ATOM      2  C4  UNL d   1      -0.796  -0.809  -0.858  0.00  0.00     0.002 A 
ATOM      3  C5  UNL d   1       0.563  -0.499  -0.795  0.00  0.00     0.002 A 
ATOM      4  C6  UNL d   1       1.500  -1.504  -0.565  0.00  0.00    -0.004 A 
ATOM      5  C7  UNL d   1       1.077  -2.820  -0.392  0.00  0.00     0.002 A 
ATOM      6  C8  UNL d   1      -0.282  -3.134  -0.459  0.00  0.00     0.002 A 
ENDROOT
BRANCH   1   7
ATOM      7  C2  UNL d   1      -2.699  -2.479  -0.798  0.00  0.00     0.056 C 
BRANCH   7   8
ATOM      8  C1  UNL d   1      -3.014  -3.576  -1.821  0.00  0.00     0.007 C 
ATOM      9  C   UNL d   1      -3.030  -4.974  -1.216  0.00  0.00     0.009 C 
ENDBRANCH   7   8
ENDBRANCH   1   7
TORSDOF 2
ENDMDL
