MODEL 1
REMARK minimizedAffinity -0.228785157
REMARK minimizedRMSD -1
REMARK  2 active torsions:
REMARK  status: ('A' for Active; 'I' for Inactive)
REMARK    1  A    between atoms: C1_2  and  C2_3 
REMARK    2  A    between atoms: C2_3  and  C3_4 
ROOT
ATOM      1  C3  UNL d   1      -0.896  -3.697  -0.534  0.00  0.00    -0.075 A 
ATOM      2  C4  UNL d   1      -1.348  -5.012  -0.349  0.00  0.00     0.002 A 
ATOM      3  C5  UNL d   1      -2.645  -5.373  -0.715  0.00  0.00     0.002 A 
ATOM      4  C6  UNL d   1      -3.508  -4.425  -1.260  0.00  0.00    -0.004 A 
ATOM      5  C7  UNL d   1      -3.075  -3.112  -1.433  0.00  0.00     0.002 A 
ATOM      6  C8  UNL d   1      -1.777  -2.749  -1.072  0.00  0.00     0.002 A 
ENDROOT
BRANCH   1   7
ATOM      7  C2  UNL d   1       0.515  -3.307  -0.167  0.00  0.00     0.056 C 
BRANCH   7   8
ATOM      8  C1  UNL d   1       0.953  -1.950  -0.730  0.00  0.00     0.007 C 
ATOM      9  C   UNL d   1       0.963  -0.842   0.315  0.00  0.00     0.009 C 
ENDBRANCH   7   8
ENDBRANCH   1   7
TORSDOF 2
ENDMDL
