MODEL 1
REMARK minimizedAffinity -1.8699187
REMARK minimizedRMSD -1
REMARK  2 active torsions:
REMARK  status: ('A' for Active; 'I' for Inactive)
REMARK    1  A    between atoms: C1_2  and  C2_3 
REMARK    2  A    between atoms: C2_3  and  C3_4 
ROOT
ATOM      1  C3  UNL d   1       4.843   4.833   1.573  0.00  0.00    -0.075 A 
ATOM      2  C4  UNL d   1       5.428   3.669   2.094  0.00  0.00     0.002 A 
ATOM      3  C5  UNL d   1       5.990   3.670   3.370  0.00  0.00     0.002 A 
ATOM      4  C6  UNL d   1       5.984   4.833   4.137  0.00  0.00    -0.004 A 
ATOM      5  C7  UNL d   1       5.420   5.999   3.624  0.00  0.00     0.002 A 
ATOM      6  C8  UNL d   1       4.853   6.000   2.348  0.00  0.00     0.002 A 
ENDROOT
BRANCH   1   7
ATOM      7  C2  UNL d   1       4.207   4.831   0.203  0.00  0.00     0.056 C 
BRANCH   7   8
ATOM      8  C1  UNL d   1       3.761   3.445  -0.275  0.00  0.00     0.007 C 
ATOM      9  C   UNL d   1       2.463   2.977   0.369  0.00  0.00     0.009 C 
ENDBRANCH   7   8
ENDBRANCH   1   7
TORSDOF 2
ENDMDL
