MODEL 1
REMARK minimizedAffinity 2.50620437
REMARK minimizedRMSD -1
REMARK  2 active torsions:
REMARK  status: ('A' for Active; 'I' for Inactive)
REMARK    1  A    between atoms: C1_2  and  C2_3 
REMARK    2  A    between atoms: C2_3  and  C3_4 
ROOT
ATOM      1  C3  UNL d   1       4.246   5.240   1.729  0.00  0.00    -0.075 A 
ATOM      2  C4  UNL d   1       4.553   5.998   0.590  0.00  0.00     0.002 A 
ATOM      3  C5  UNL d   1       4.421   5.446  -0.685  0.00  0.00     0.002 A 
ATOM      4  C6  UNL d   1       3.992   4.130  -0.837  0.00  0.00    -0.004 A 
ATOM      5  C7  UNL d   1       3.700   3.362   0.289  0.00  0.00     0.002 A 
ATOM      6  C8  UNL d   1       3.827   3.913   1.565  0.00  0.00     0.002 A 
ENDROOT
BRANCH   1   7
ATOM      7  C2  UNL d   1       4.358   5.840   3.110  0.00  0.00     0.056 C 
BRANCH   7   8
ATOM      8  C1  UNL d   1       5.798   5.974   3.616  0.00  0.00     0.007 C 
ATOM      9  C   UNL d   1       5.900   5.995   5.136  0.00  0.00     0.009 C 
ENDBRANCH   7   8
ENDBRANCH   1   7
TORSDOF 2
ENDMDL
