MODEL 1
REMARK minimizedAffinity 16.5885563
REMARK minimizedRMSD -1
REMARK  2 active torsions:
REMARK  status: ('A' for Active; 'I' for Inactive)
REMARK    1  A    between atoms: C2'_3  and  C1'_4 
REMARK    2  A    between atoms: C1'_4  and  C1_5 
ROOT
ATOM      1  C1  I4B d   1       1.270  -0.495   2.272  0.00  0.00    -0.075 A 
ATOM      2  C2  I4B d   1       2.370   0.325   2.224  0.00  0.00     0.003 A 
ATOM      3  C3  I4B d   1       3.560  -0.115   1.596  0.00  0.00     0.002 A 
ATOM      4  C4  I4B d   1       3.623  -1.392   1.077  0.00  0.00    -0.004 A 
ATOM      5  C5  I4B d   1       2.500  -2.213   1.106  0.00  0.00     0.002 A 
ATOM      6  C6  I4B d   1       1.312  -1.758   1.696  0.00  0.00     0.003 A 
ENDROOT
BRANCH   1   7
ATOM      7  C1' I4B d   1       0.040  -0.011   2.972  0.00  0.00     0.060 C 
BRANCH   7   8
ATOM      8  C2' I4B d   1       0.168  -0.364   4.439  0.00  0.00    -0.013 C 
ATOM      9  C4' I4B d   1       1.401   0.254   5.044  0.00  0.00     0.013 C 
ATOM     10  C3' I4B d   1      -1.072   0.106   5.139  0.00  0.00     0.013 C 
ENDBRANCH   7   8
ENDBRANCH   1   7
TORSDOF 2
ENDMDL
