MODEL 1
REMARK minimizedAffinity 15.8647099
REMARK minimizedRMSD -1
REMARK  2 active torsions:
REMARK  status: ('A' for Active; 'I' for Inactive)
REMARK    1  A    between atoms: C2'_3  and  C1'_4 
REMARK    2  A    between atoms: C1'_4  and  C1_5 
ROOT
ATOM      1  C1  I4B d   1      -1.808  -2.274   3.457  0.00  0.00    -0.075 A 
ATOM      2  C2  I4B d   1      -1.247  -3.079   2.497  0.00  0.00     0.003 A 
ATOM      3  C3  I4B d   1       0.030  -2.775   1.968  0.00  0.00     0.002 A 
ATOM      4  C4  I4B d   1       0.685  -1.635   2.387  0.00  0.00    -0.004 A 
ATOM      5  C5  I4B d   1       0.125  -0.832   3.377  0.00  0.00     0.002 A 
ATOM      6  C6  I4B d   1      -1.123  -1.160   3.924  0.00  0.00     0.003 A 
ENDROOT
BRANCH   1   7
ATOM      7  C1' I4B d   1      -3.173  -2.607   3.970  0.00  0.00     0.060 C 
BRANCH   7   8
ATOM      8  C2' I4B d   1      -3.119  -2.591   5.484  0.00  0.00    -0.013 C 
ATOM      9  C4' I4B d   1      -2.673  -1.248   6.000  0.00  0.00     0.013 C 
ATOM     10  C3' I4B d   1      -4.482  -2.944   6.000  0.00  0.00     0.013 C 
ENDBRANCH   7   8
ENDBRANCH   1   7
TORSDOF 2
ENDMDL
