MODEL 1
REMARK minimizedAffinity 19.0470448
REMARK minimizedRMSD -1
REMARK  2 active torsions:
REMARK  status: ('A' for Active; 'I' for Inactive)
REMARK    1  A    between atoms: C2'_3  and  C1'_4 
REMARK    2  A    between atoms: C1'_4  and  C1_5 
ROOT
ATOM      1  C1  I4B d   1      -0.185   3.002  -1.888  0.00  0.00    -0.075 A 
ATOM      2  C2  I4B d   1      -0.786   1.998  -1.172  0.00  0.00     0.003 A 
ATOM      3  C3  I4B d   1      -2.049   1.496  -1.569  0.00  0.00     0.002 A 
ATOM      4  C4  I4B d   1      -2.694   2.058  -2.652  0.00  0.00    -0.004 A 
ATOM      5  C5  I4B d   1      -2.073   3.061  -3.391  0.00  0.00     0.002 A 
ATOM      6  C6  I4B d   1      -0.805   3.528  -3.015  0.00  0.00     0.003 A 
ENDROOT
BRANCH   1   7
ATOM      7  C1' I4B d   1       1.134   3.531  -1.421  0.00  0.00     0.060 C 
BRANCH   7   8
ATOM      8  C2' I4B d   1       0.902   4.907  -0.830  0.00  0.00    -0.013 C 
ATOM      9  C4' I4B d   1       1.625   5.066   0.481  0.00  0.00     0.013 C 
ATOM     10  C3' I4B d   1       1.364   5.925  -1.830  0.00  0.00     0.013 C 
ENDBRANCH   7   8
ENDBRANCH   1   7
TORSDOF 2
ENDMDL
