MODEL 1
REMARK minimizedAffinity 15.7394695
REMARK minimizedRMSD -1
REMARK  2 active torsions:
REMARK  status: ('A' for Active; 'I' for Inactive)
REMARK    1  A    between atoms: C2'_3  and  C1'_4 
REMARK    2  A    between atoms: C1'_4  and  C1_5 
ROOT
ATOM      1  C1  I4B d   1       1.696  -4.050   3.798  0.00  0.00    -0.075 A 
ATOM      2  C2  I4B d   1       2.360  -5.103   3.219  0.00  0.00     0.003 A 
ATOM      3  C3  I4B d   1       3.110  -5.999   4.018  0.00  0.00     0.002 A 
ATOM      4  C4  I4B d   1       3.210  -5.778   5.376  0.00  0.00    -0.004 A 
ATOM      5  C5  I4B d   1       2.518  -4.724   5.965  0.00  0.00     0.002 A 
ATOM      6  C6  I4B d   1       1.746  -3.861   5.174  0.00  0.00     0.003 A 
ENDROOT
BRANCH   1   7
ATOM      7  C1' I4B d   1       0.940  -3.103   2.921  0.00  0.00     0.060 C 
BRANCH   7   8
ATOM      8  C2' I4B d   1       1.537  -1.722   3.101  0.00  0.00    -0.013 C 
ATOM      9  C4' I4B d   1       2.143  -1.219   1.818  0.00  0.00     0.013 C 
ATOM     10  C3' I4B d   1       0.451  -0.808   3.583  0.00  0.00     0.013 C 
ENDBRANCH   7   8
ENDBRANCH   1   7
TORSDOF 2
ENDMDL
