MODEL 1
REMARK minimizedAffinity 19.8651962
REMARK minimizedRMSD -1
REMARK  2 active torsions:
REMARK  status: ('A' for Active; 'I' for Inactive)
REMARK    1  A    between atoms: C2'_3  and  C1'_4 
REMARK    2  A    between atoms: C1'_4  and  C1_5 
ROOT
ATOM      1  C1  I4B d   1      -1.842   3.963  -3.155  0.00  0.00    -0.075 A 
ATOM      2  C2  I4B d   1      -1.709   5.328  -3.214  0.00  0.00     0.003 A 
ATOM      3  C3  I4B d   1      -1.780   5.998  -4.459  0.00  0.00     0.002 A 
ATOM      4  C4  I4B d   1      -1.933   5.264  -5.618  0.00  0.00    -0.004 A 
ATOM      5  C5  I4B d   1      -2.090   3.883  -5.554  0.00  0.00     0.002 A 
ATOM      6  C6  I4B d   1      -2.056   3.229  -4.314  0.00  0.00     0.003 A 
ENDROOT
BRANCH   1   7
ATOM      7  C1' I4B d   1      -1.729   3.284  -1.827  0.00  0.00     0.060 C 
BRANCH   7   8
ATOM      8  C2' I4B d   1      -0.264   3.251  -1.442  0.00  0.00    -0.013 C 
ATOM      9  C4' I4B d   1      -0.094   3.119   0.048  0.00  0.00     0.013 C 
ATOM     10  C3' I4B d   1       0.378   2.103  -2.164  0.00  0.00     0.013 C 
ENDBRANCH   7   8
ENDBRANCH   1   7
TORSDOF 2
ENDMDL
