MODEL 1
REMARK minimizedAffinity 6.6058569
REMARK minimizedRMSD -1
REMARK  2 active torsions:
REMARK  status: ('A' for Active; 'I' for Inactive)
REMARK    1  A    between atoms: C2'_3  and  C1'_4 
REMARK    2  A    between atoms: C1'_4  and  C1_5 
ROOT
ATOM      1  C1  I4B d   1      -5.110  -3.929   1.212  0.00  0.00    -0.075 A 
ATOM      2  C2  I4B d   1      -5.725  -3.023   2.040  0.00  0.00     0.003 A 
ATOM      3  C3  I4B d   1      -4.966  -2.288   2.981  0.00  0.00     0.002 A 
ATOM      4  C4  I4B d   1      -3.611  -2.525   3.095  0.00  0.00    -0.004 A 
ATOM      5  C5  I4B d   1      -2.985  -3.427   2.239  0.00  0.00     0.002 A 
ATOM      6  C6  I4B d   1      -3.737  -4.124   1.283  0.00  0.00     0.003 A 
ENDROOT
BRANCH   1   7
ATOM      7  C1' I4B d   1      -5.948  -4.712   0.251  0.00  0.00     0.060 C 
BRANCH   7   8
ATOM      8  C2' I4B d   1      -5.049  -5.188  -0.872  0.00  0.00    -0.013 C 
ATOM      9  C4' I4B d   1      -3.895  -5.996  -0.341  0.00  0.00     0.013 C 
ATOM     10  C3' I4B d   1      -5.883  -5.993  -1.823  0.00  0.00     0.013 C 
ENDBRANCH   7   8
ENDBRANCH   1   7
TORSDOF 2
ENDMDL
