MODEL 1
REMARK minimizedAffinity 24.2056389
REMARK minimizedRMSD -1
REMARK  2 active torsions:
REMARK  status: ('A' for Active; 'I' for Inactive)
REMARK    1  A    between atoms: C2'_3  and  C1'_4 
REMARK    2  A    between atoms: C1'_4  and  C1_5 
ROOT
ATOM      1  C1  I4B d   1       0.425  -0.844   2.839  0.00  0.00    -0.075 A 
ATOM      2  C2  I4B d   1      -0.182  -2.036   2.528  0.00  0.00     0.003 A 
ATOM      3  C3  I4B d   1       0.398  -2.902   1.570  0.00  0.00     0.002 A 
ATOM      4  C4  I4B d   1       1.549  -2.517   0.914  0.00  0.00    -0.004 A 
ATOM      5  C5  I4B d   1       2.175  -1.320   1.247  0.00  0.00     0.002 A 
ATOM      6  C6  I4B d   1       1.617  -0.483   2.224  0.00  0.00     0.003 A 
ENDROOT
BRANCH   1   7
ATOM      7  C1' I4B d   1      -0.232   0.062   3.831  0.00  0.00     0.060 C 
BRANCH   7   8
ATOM      8  C2' I4B d   1      -0.025  -0.529   5.211  0.00  0.00    -0.013 C 
ATOM      9  C4' I4B d   1       1.122   0.140   5.923  0.00  0.00     0.013 C 
ATOM     10  C3' I4B d   1      -1.303  -0.372   5.979  0.00  0.00     0.013 C 
ENDBRANCH   7   8
ENDBRANCH   1   7
TORSDOF 2
ENDMDL
