MODEL 1
REMARK minimizedAffinity 6.43877649
REMARK minimizedRMSD -1
REMARK  2 active torsions:
REMARK  status: ('A' for Active; 'I' for Inactive)
REMARK    1  A    between atoms: C2'_3  and  C1'_4 
REMARK    2  A    between atoms: C1'_4  and  C1_5 
ROOT
ATOM      1  C1  I4B d   1      -1.528  -1.713   3.958  0.00  0.00    -0.075 A 
ATOM      2  C2  I4B d   1      -1.216  -1.130   5.161  0.00  0.00     0.003 A 
ATOM      3  C3  I4B d   1      -0.049  -0.339   5.289  0.00  0.00     0.002 A 
ATOM      4  C4  I4B d   1       0.799  -0.200   4.209  0.00  0.00    -0.004 A 
ATOM      5  C5  I4B d   1       0.470  -0.772   2.984  0.00  0.00     0.002 A 
ATOM      6  C6  I4B d   1      -0.708  -1.523   2.853  0.00  0.00     0.003 A 
ENDROOT
BRANCH   1   7
ATOM      7  C1' I4B d   1      -2.751  -2.569   3.867  0.00  0.00     0.060 C 
BRANCH   7   8
ATOM      8  C2' I4B d   1      -3.111  -2.716   2.403  0.00  0.00    -0.013 C 
ATOM      9  C4' I4B d   1      -2.641  -4.038   1.856  0.00  0.00     0.013 C 
ATOM     10  C3' I4B d   1      -4.598  -2.574   2.275  0.00  0.00     0.013 C 
ENDBRANCH   7   8
ENDBRANCH   1   7
TORSDOF 2
ENDMDL
