MODEL 1
REMARK minimizedAffinity 18.4201527
REMARK minimizedRMSD -1
REMARK  2 active torsions:
REMARK  status: ('A' for Active; 'I' for Inactive)
REMARK    1  A    between atoms: C2'_3  and  C1'_4 
REMARK    2  A    between atoms: C1'_4  and  C1_5 
ROOT
ATOM      1  C1  I4B d   1      -1.574  -2.242   2.713  0.00  0.00    -0.075 A 
ATOM      2  C2  I4B d   1      -1.615  -1.209   3.616  0.00  0.00     0.003 A 
ATOM      3  C3  I4B d   1      -0.557  -0.269   3.672  0.00  0.00     0.002 A 
ATOM      4  C4  I4B d   1       0.538  -0.429   2.848  0.00  0.00    -0.004 A 
ATOM      5  C5  I4B d   1       0.568  -1.464   1.918  0.00  0.00     0.002 A 
ATOM      6  C6  I4B d   1      -0.500  -2.369   1.841  0.00  0.00     0.003 A 
ENDROOT
BRANCH   1   7
ATOM      7  C1' I4B d   1      -2.692  -3.235   2.703  0.00  0.00     0.060 C 
BRANCH   7   8
ATOM      8  C2' I4B d   1      -3.614  -2.889   1.551  0.00  0.00    -0.013 C 
ATOM      9  C4' I4B d   1      -3.895  -4.096   0.695  0.00  0.00     0.013 C 
ATOM     10  C3' I4B d   1      -4.880  -2.325   2.125  0.00  0.00     0.013 C 
ENDBRANCH   7   8
ENDBRANCH   1   7
TORSDOF 2
ENDMDL
