MODEL 1
REMARK minimizedAffinity 12.9124994
REMARK minimizedRMSD -1
REMARK  2 active torsions:
REMARK  status: ('A' for Active; 'I' for Inactive)
REMARK    1  A    between atoms: C2'_3  and  C1'_4 
REMARK    2  A    between atoms: C1'_4  and  C1_5 
ROOT
ATOM      1  C1  I4B d   1       1.959  -0.560   2.631  0.00  0.00    -0.075 A 
ATOM      2  C2  I4B d   1       2.061  -0.007   3.883  0.00  0.00     0.003 A 
ATOM      3  C3  I4B d   1       0.898   0.223   4.658  0.00  0.00     0.002 A 
ATOM      4  C4  I4B d   1      -0.342  -0.067   4.125  0.00  0.00    -0.004 A 
ATOM      5  C5  I4B d   1      -0.442  -0.648   2.865  0.00  0.00     0.002 A 
ATOM      6  C6  I4B d   1       0.716  -0.908   2.117  0.00  0.00     0.003 A 
ENDROOT
BRANCH   1   7
ATOM      7  C1' I4B d   1       3.204  -0.758   1.827  0.00  0.00     0.060 C 
BRANCH   7   8
ATOM      8  C2' I4B d   1       4.269   0.167   2.380  0.00  0.00    -0.013 C 
ATOM      9  C4' I4B d   1       5.561  -0.569   2.617  0.00  0.00     0.013 C 
ATOM     10  C3' I4B d   1       4.457   1.291   1.405  0.00  0.00     0.013 C 
ENDBRANCH   7   8
ENDBRANCH   1   7
TORSDOF 2
ENDMDL
