MODEL 1
REMARK minimizedAffinity 9.72281075
REMARK minimizedRMSD -1
REMARK  2 active torsions:
REMARK  status: ('A' for Active; 'I' for Inactive)
REMARK    1  A    between atoms: C2'_3  and  C1'_4 
REMARK    2  A    between atoms: C1'_4  and  C1_5 
ROOT
ATOM      1  C1  I4B d   1      -2.671   3.252  -1.922  0.00  0.00    -0.075 A 
ATOM      2  C2  I4B d   1      -3.794   3.173  -1.136  0.00  0.00     0.003 A 
ATOM      3  C3  I4B d   1      -4.551   4.336  -0.856  0.00  0.00     0.002 A 
ATOM      4  C4  I4B d   1      -4.124   5.557  -1.336  0.00  0.00    -0.004 A 
ATOM      5  C5  I4B d   1      -2.998   5.632  -2.151  0.00  0.00     0.002 A 
ATOM      6  C6  I4B d   1      -2.274   4.470  -2.457  0.00  0.00     0.003 A 
ENDROOT
BRANCH   1   7
ATOM      7  C1' I4B d   1      -1.877   2.009  -2.171  0.00  0.00     0.060 C 
BRANCH   7   8
ATOM      8  C2' I4B d   1      -0.637   2.066  -1.302  0.00  0.00    -0.013 C 
ATOM      9  C4' I4B d   1       0.341   3.090  -1.814  0.00  0.00     0.013 C 
ATOM     10  C3' I4B d   1      -1.067   2.381   0.099  0.00  0.00     0.013 C 
ENDBRANCH   7   8
ENDBRANCH   1   7
TORSDOF 2
ENDMDL
