MODEL 1
REMARK minimizedAffinity 89.1165543
REMARK minimizedRMSD -1
REMARK  2 active torsions:
REMARK  status: ('A' for Active; 'I' for Inactive)
REMARK    1  A    between atoms: C2'_3  and  C1'_4 
REMARK    2  A    between atoms: C1'_4  and  C1_5 
ROOT
ATOM      1  C1  I4B d   1      -2.109  -5.512   0.939  0.00  0.00    -0.075 A 
ATOM      2  C2  I4B d   1      -0.760  -5.702   1.105  0.00  0.00     0.003 A 
ATOM      3  C3  I4B d   1       0.072  -5.924  -0.019  0.00  0.00     0.002 A 
ATOM      4  C4  I4B d   1      -0.490  -6.000  -1.277  0.00  0.00    -0.004 A 
ATOM      5  C5  I4B d   1      -1.855  -5.784  -1.445  0.00  0.00     0.002 A 
ATOM      6  C6  I4B d   1      -2.668  -5.526  -0.332  0.00  0.00     0.003 A 
ENDROOT
BRANCH   1   7
ATOM      7  C1' I4B d   1      -2.963  -5.312   2.151  0.00  0.00     0.060 C 
BRANCH   7   8
ATOM      8  C2' I4B d   1      -2.158  -4.525   3.165  0.00  0.00    -0.013 C 
ATOM      9  C4' I4B d   1      -0.712  -4.426   2.755  0.00  0.00     0.013 C 
ATOM     10  C3' I4B d   1      -2.778  -3.166   3.294  0.00  0.00     0.013 C 
ENDBRANCH   7   8
ENDBRANCH   1   7
TORSDOF 2
ENDMDL
