MODEL 1
REMARK minimizedAffinity 18.7531452
REMARK minimizedRMSD -1
REMARK  2 active torsions:
REMARK  status: ('A' for Active; 'I' for Inactive)
REMARK    1  A    between atoms: C2'_3  and  C1'_4 
REMARK    2  A    between atoms: C1'_4  and  C1_5 
ROOT
ATOM      1  C1  I4B d   1      -2.440   3.395  -3.544  0.00  0.00    -0.075 A 
ATOM      2  C2  I4B d   1      -2.268   4.613  -2.934  0.00  0.00     0.003 A 
ATOM      3  C3  I4B d   1      -3.086   4.985  -1.840  0.00  0.00     0.002 A 
ATOM      4  C4  I4B d   1      -4.091   4.135  -1.424  0.00  0.00    -0.004 A 
ATOM      5  C5  I4B d   1      -4.249   2.891  -2.028  0.00  0.00     0.002 A 
ATOM      6  C6  I4B d   1      -3.411   2.513  -3.087  0.00  0.00     0.003 A 
ENDROOT
BRANCH   1   7
ATOM      7  C1' I4B d   1      -1.580   3.049  -4.718  0.00  0.00     0.060 C 
BRANCH   7   8
ATOM      8  C2' I4B d   1      -2.275   3.548  -5.969  0.00  0.00    -0.013 C 
ATOM      9  C4' I4B d   1      -3.718   3.117  -6.000  0.00  0.00     0.013 C 
ATOM     10  C3' I4B d   1      -2.155   5.043  -6.000  0.00  0.00     0.013 C 
ENDBRANCH   7   8
ENDBRANCH   1   7
TORSDOF 2
ENDMDL
