MODEL 1
REMARK minimizedAffinity 2.25986218
REMARK minimizedRMSD -1
REMARK  2 active torsions:
REMARK  status: ('A' for Active; 'I' for Inactive)
REMARK    1  A    between atoms: C2'_3  and  C1'_4 
REMARK    2  A    between atoms: C1'_4  and  C1_5 
ROOT
ATOM      1  C1  I4B d   1       0.130  -0.398   0.859  0.00  0.00    -0.075 A 
ATOM      2  C2  I4B d   1       1.260  -1.088   0.498  0.00  0.00     0.003 A 
ATOM      3  C3  I4B d   1       2.291  -0.439  -0.224  0.00  0.00     0.002 A 
ATOM      4  C4  I4B d   1       2.129   0.878  -0.605  0.00  0.00    -0.004 A 
ATOM      5  C5  I4B d   1       0.992   1.582  -0.218  0.00  0.00     0.002 A 
ATOM      6  C6  I4B d   1      -0.008   0.944   0.529  0.00  0.00     0.003 A 
ENDROOT
BRANCH   1   7
ATOM      7  C1' I4B d   1      -0.953  -1.124   1.593  0.00  0.00     0.060 C 
BRANCH   7   8
ATOM      8  C2' I4B d   1      -1.978  -1.584   0.576  0.00  0.00    -0.013 C 
ATOM      9  C4' I4B d   1      -2.310  -3.042   0.758  0.00  0.00     0.013 C 
ATOM     10  C3' I4B d   1      -3.199  -0.727   0.729  0.00  0.00     0.013 C 
ENDBRANCH   7   8
ENDBRANCH   1   7
TORSDOF 2
ENDMDL
