MODEL 1
REMARK minimizedAffinity 3.6429894
REMARK minimizedRMSD -1
REMARK  1 active torsions:
REMARK  status: ('A' for Active; 'I' for Inactive)
REMARK    1  A    between atoms: C1_2  and  C2_3 
ROOT
ATOM      1  C2  UNL d   1      -0.341   0.674   3.491  0.00  0.00    -0.076 A 
ATOM      2  C3  UNL d   1       0.795   1.497   3.581  0.00  0.00     0.004 A 
ATOM      3  C4  UNL d   1       0.841   2.730   2.932  0.00  0.00    -0.003 A 
ATOM      4  C5  UNL d   1      -0.249   3.160   2.183  0.00  0.00     0.000 A 
ATOM      5  C6  UNL d   1      -1.391   2.364   2.097  0.00  0.00     0.000 A 
ATOM      6  C7  UNL d   1      -1.460   1.126   2.758  0.00  0.00    -0.073 A 
ATOM      7  C8  UNL d   1      -2.714   0.306   2.626  0.00  0.00     0.078 C 
ENDROOT
BRANCH   1   8
ATOM      8  C1  UNL d   1      -0.323  -0.665   4.194  0.00  0.00     0.053 C 
ATOM      9  C   UNL d   1       1.053  -1.311   4.181  0.00  0.00     0.018 C 
ENDBRANCH   1   8
TORSDOF 1
ENDMDL
