MODEL 1
REMARK minimizedAffinity 4.8089242
REMARK minimizedRMSD -1
REMARK  1 active torsions:
REMARK  status: ('A' for Active; 'I' for Inactive)
REMARK    1  A    between atoms: C1_2  and  C2_3 
ROOT
ATOM      1  C2  UNL d   1      -0.766   3.705   0.726  0.00  0.00    -0.076 A 
ATOM      2  C3  UNL d   1      -0.536   3.059   1.953  0.00  0.00     0.004 A 
ATOM      3  C4  UNL d   1      -0.087   1.740   1.996  0.00  0.00    -0.003 A 
ATOM      4  C5  UNL d   1       0.139   1.046   0.812  0.00  0.00     0.000 A 
ATOM      5  C6  UNL d   1      -0.067   1.677  -0.414  0.00  0.00     0.000 A 
ATOM      6  C7  UNL d   1      -0.503   3.012  -0.475  0.00  0.00    -0.073 A 
ATOM      7  C8  UNL d   1      -0.715   3.641  -1.825  0.00  0.00     0.078 C 
ENDROOT
BRANCH   1   8
ATOM      8  C1  UNL d   1      -1.278   5.128   0.741  0.00  0.00     0.053 C 
ATOM      9  C   UNL d   1      -2.530   5.287   1.590  0.00  0.00     0.018 C 
ENDBRANCH   1   8
TORSDOF 1
ENDMDL
