MODEL 1
REMARK minimizedAffinity 6.99584341
REMARK minimizedRMSD -1
REMARK  1 active torsions:
REMARK  status: ('A' for Active; 'I' for Inactive)
REMARK    1  A    between atoms: C1_2  and  C2_3 
ROOT
ATOM      1  C2  UNL d   1      -0.638   4.827  -1.550  0.00  0.00    -0.076 A 
ATOM      2  C3  UNL d   1      -1.507   3.726  -1.462  0.00  0.00     0.004 A 
ATOM      3  C4  UNL d   1      -1.210   2.641  -0.638  0.00  0.00    -0.003 A 
ATOM      4  C5  UNL d   1      -0.039   2.641   0.112  0.00  0.00     0.000 A 
ATOM      5  C6  UNL d   1       0.826   3.734   0.050  0.00  0.00     0.000 A 
ATOM      6  C7  UNL d   1       0.533   4.842  -0.763  0.00  0.00    -0.073 A 
ATOM      7  C8  UNL d   1       1.504   5.990  -0.795  0.00  0.00     0.078 C 
ENDROOT
BRANCH   1   8
ATOM      8  C1  UNL d   1      -1.000   5.962  -2.481  0.00  0.00     0.053 C 
ATOM      9  C   UNL d   1      -2.244   5.667  -3.304  0.00  0.00     0.018 C 
ENDBRANCH   1   8
TORSDOF 1
ENDMDL
