MODEL 1
REMARK minimizedAffinity 8.73018932
REMARK minimizedRMSD -1
REMARK  1 active torsions:
REMARK  status: ('A' for Active; 'I' for Inactive)
REMARK    1  A    between atoms: C1_2  and  C2_3 
ROOT
ATOM      1  C2  UNL d   1      -0.900   4.245   0.364  0.00  0.00    -0.076 A 
ATOM      2  C3  UNL d   1      -0.746   5.187  -0.668  0.00  0.00     0.004 A 
ATOM      3  C4  UNL d   1       0.203   5.003  -1.672  0.00  0.00    -0.003 A 
ATOM      4  C5  UNL d   1       1.014   3.874  -1.660  0.00  0.00     0.000 A 
ATOM      5  C6  UNL d   1       0.863   2.920  -0.654  0.00  0.00     0.000 A 
ATOM      6  C7  UNL d   1      -0.100   3.082   0.356  0.00  0.00    -0.073 A 
ATOM      7  C8  UNL d   1      -0.216   2.025   1.420  0.00  0.00     0.078 C 
ENDROOT
BRANCH   1   8
ATOM      8  C1  UNL d   1      -1.928   4.511   1.440  0.00  0.00     0.053 C 
ATOM      9  C   UNL d   1      -2.167   5.996   1.663  0.00  0.00     0.018 C 
ENDBRANCH   1   8
TORSDOF 1
ENDMDL
