MODEL 1
REMARK minimizedAffinity 8.81168556
REMARK minimizedRMSD -1
REMARK  1 active torsions:
REMARK  status: ('A' for Active; 'I' for Inactive)
REMARK    1  A    between atoms: C1_2  and  C2_3 
ROOT
ATOM      1  C2  UNL d   1       4.690  -5.606  -2.639  0.00  0.00    -0.076 A 
ATOM      2  C3  UNL d   1       5.920  -5.237  -2.066  0.00  0.00     0.004 A 
ATOM      3  C4  UNL d   1       6.000  -4.842  -0.732  0.00  0.00    -0.003 A 
ATOM      4  C5  UNL d   1       4.851  -4.810   0.052  0.00  0.00     0.000 A 
ATOM      5  C6  UNL d   1       3.626  -5.189  -0.496  0.00  0.00     0.000 A 
ATOM      6  C7  UNL d   1       3.531  -5.606  -1.834  0.00  0.00    -0.073 A 
ATOM      7  C8  UNL d   1       2.183  -5.998  -2.374  0.00  0.00     0.078 C 
ENDROOT
BRANCH   1   8
ATOM      8  C1  UNL d   1       4.661  -5.999  -4.099  0.00  0.00     0.053 C 
ATOM      9  C   UNL d   1       5.880  -5.503  -4.861  0.00  0.00     0.018 C 
ENDBRANCH   1   8
TORSDOF 1
ENDMDL
