MODEL 1
REMARK minimizedAffinity -0.799361765
REMARK minimizedRMSD -1
REMARK  0 active torsions:
REMARK  status: ('A' for Active; 'I' for Inactive)
ROOT
ATOM      1  C   UNL d   1       0.389  -2.104   0.806  0.00  0.00     0.124 A 
ATOM      2  C1  UNL d   1      -0.909  -1.616   0.743  0.00  0.00     0.062 A 
ATOM      3  C2  UNL d   1      -1.152  -0.335   0.256  0.00  0.00     0.162 A 
ATOM      4  C3  UNL d   1      -0.095   0.468  -0.172  0.00  0.00    -0.034 A 
ATOM      5  C4  UNL d   1       1.208  -0.029  -0.104  0.00  0.00     0.162 A 
ATOM      6  C5  UNL d   1       1.446  -1.310   0.382  0.00  0.00     0.062 A 
ATOM      7  F   UNL d   1       2.700  -1.780   0.443  0.00  0.00    -0.097 F 
ATOM      8  F1  UNL d   1       2.247   0.716  -0.508  0.00  0.00    -0.096 F 
ATOM      9  I   UNL d   1      -0.455   2.384  -0.900  0.00  0.00    -0.060 I 
ATOM     10  F2  UNL d   1      -2.417   0.111   0.207  0.00  0.00    -0.096 F 
ATOM     11  F3  UNL d   1      -1.932  -2.380   1.152  0.00  0.00    -0.097 F 
ATOM     12  F4  UNL d   1       0.620  -3.337   1.275  0.00  0.00    -0.092 F 
ENDROOT
TORSDOF 0
ENDMDL
