MODEL 1
REMARK minimizedAffinity 1.32179058
REMARK minimizedRMSD -1
REMARK  0 active torsions:
REMARK  status: ('A' for Active; 'I' for Inactive)
ROOT
ATOM      1  C   UNL d   1      -1.170  -1.269   0.917  0.00  0.00     0.124 A 
ATOM      2  C1  UNL d   1      -1.550  -0.042   0.391  0.00  0.00     0.062 A 
ATOM      3  C2  UNL d   1      -0.607   0.779  -0.221  0.00  0.00     0.162 A 
ATOM      4  C3  UNL d   1       0.725   0.376  -0.311  0.00  0.00    -0.034 A 
ATOM      5  C4  UNL d   1       1.100  -0.859   0.221  0.00  0.00     0.162 A 
ATOM      6  C5  UNL d   1       0.154  -1.677   0.831  0.00  0.00     0.062 A 
ATOM      7  F   UNL d   1       0.523  -2.862   1.339  0.00  0.00    -0.097 F 
ATOM      8  F1  UNL d   1       2.372  -1.278   0.151  0.00  0.00    -0.096 F 
ATOM      9  I   UNL d   1       2.137   1.601  -1.225  0.00  0.00    -0.060 I 
ATOM     10  F2  UNL d   1      -1.003   1.960  -0.720  0.00  0.00    -0.096 F 
ATOM     11  F3  UNL d   1      -2.828   0.354   0.473  0.00  0.00    -0.097 F 
ATOM     12  F4  UNL d   1      -2.079  -2.057   1.505  0.00  0.00    -0.092 F 
ENDROOT
TORSDOF 0
ENDMDL
