MODEL 1
REMARK minimizedAffinity -4.52149725
REMARK minimizedRMSD -1
REMARK  0 active torsions:
REMARK  status: ('A' for Active; 'I' for Inactive)
ROOT
ATOM      1  C   UNL d   1      -1.740  -1.433   1.000  0.00  0.00     0.124 A 
ATOM      2  C1  UNL d   1      -1.961  -0.070   0.868  0.00  0.00     0.062 A 
ATOM      3  C2  UNL d   1      -1.049   0.724   0.178  0.00  0.00     0.162 A 
ATOM      4  C3  UNL d   1       0.093   0.155  -0.386  0.00  0.00    -0.034 A 
ATOM      5  C4  UNL d   1       0.309  -1.217  -0.248  0.00  0.00     0.162 A 
ATOM      6  C5  UNL d   1      -0.606  -2.006   0.443  0.00  0.00     0.062 A 
ATOM      7  F   UNL d   1      -0.390  -3.323   0.570  0.00  0.00    -0.097 F 
ATOM      8  F1  UNL d   1       1.397  -1.796  -0.778  0.00  0.00    -0.096 F 
ATOM      9  I   UNL d   1       1.459   1.338  -1.418  0.00  0.00    -0.060 I 
ATOM     10  F2  UNL d   1      -1.289   2.039   0.065  0.00  0.00    -0.096 F 
ATOM     11  F3  UNL d   1      -3.056   0.486   1.406  0.00  0.00    -0.097 F 
ATOM     12  F4  UNL d   1      -2.619  -2.194   1.665  0.00  0.00    -0.092 F 
ENDROOT
TORSDOF 0
ENDMDL
