MODEL 1
REMARK minimizedAffinity -2.8376646
REMARK minimizedRMSD -1
REMARK  0 active torsions:
REMARK  status: ('A' for Active; 'I' for Inactive)
ROOT
ATOM      1  C   UNL d   1      -0.655   2.245  -0.318  0.00  0.00     0.124 A 
ATOM      2  C1  UNL d   1       0.288   1.291  -0.678  0.00  0.00     0.062 A 
ATOM      3  C2  UNL d   1       0.140  -0.030  -0.266  0.00  0.00     0.162 A 
ATOM      4  C3  UNL d   1      -0.955  -0.406   0.512  0.00  0.00    -0.034 A 
ATOM      5  C4  UNL d   1      -1.898   0.558   0.871  0.00  0.00     0.162 A 
ATOM      6  C5  UNL d   1      -1.746   1.877   0.456  0.00  0.00     0.062 A 
ATOM      7  F   UNL d   1      -2.658   2.797   0.806  0.00  0.00    -0.097 F 
ATOM      8  F1  UNL d   1      -2.963   0.230   1.618  0.00  0.00    -0.096 F 
ATOM      9  I   UNL d   1      -1.179  -2.381   1.130  0.00  0.00    -0.060 I 
ATOM     10  F2  UNL d   1       1.066  -0.930  -0.629  0.00  0.00    -0.096 F 
ATOM     11  F3  UNL d   1       1.344   1.644  -1.425  0.00  0.00    -0.097 F 
ATOM     12  F4  UNL d   1      -0.510   3.515  -0.715  0.00  0.00    -0.092 F 
ENDROOT
TORSDOF 0
ENDMDL
