MODEL 1
REMARK minimizedAffinity 0.913125396
REMARK minimizedRMSD -1
REMARK  0 active torsions:
REMARK  status: ('A' for Active; 'I' for Inactive)
ROOT
ATOM      1  C   UNL d   1      -1.030  -1.850   0.822  0.00  0.00     0.124 A 
ATOM      2  C1  UNL d   1      -1.522  -0.671   0.280  0.00  0.00     0.062 A 
ATOM      3  C2  UNL d   1      -0.659   0.229  -0.338  0.00  0.00     0.162 A 
ATOM      4  C3  UNL d   1       0.706  -0.046  -0.418  0.00  0.00    -0.034 A 
ATOM      5  C4  UNL d   1       1.194  -1.234   0.130  0.00  0.00     0.162 A 
ATOM      6  C5  UNL d   1       0.327  -2.130   0.746  0.00  0.00     0.062 A 
ATOM      7  F   UNL d   1       0.805  -3.269   1.269  0.00  0.00    -0.097 F 
ATOM      8  F1  UNL d   1       2.501  -1.530   0.070  0.00  0.00    -0.096 F 
ATOM      9  I   UNL d   1       2.000   1.297  -1.342  0.00  0.00    -0.060 I 
ATOM     10  F2  UNL d   1      -1.163   1.361  -0.853  0.00  0.00    -0.096 F 
ATOM     11  F3  UNL d   1      -2.833  -0.397   0.352  0.00  0.00    -0.097 F 
ATOM     12  F4  UNL d   1      -1.862  -2.714   1.417  0.00  0.00    -0.092 F 
ENDROOT
TORSDOF 0
ENDMDL
