MODEL 1
REMARK minimizedAffinity -0.781730473
REMARK minimizedRMSD -1
REMARK  0 active torsions:
REMARK  status: ('A' for Active; 'I' for Inactive)
ROOT
ATOM      1  C   UNL d   1       0.546   1.250   0.472  0.00  0.00     0.124 A 
ATOM      2  C1  UNL d   1      -0.813   1.243   0.754  0.00  0.00     0.062 A 
ATOM      3  C2  UNL d   1      -1.508   0.039   0.821  0.00  0.00     0.162 A 
ATOM      4  C3  UNL d   1      -0.845  -1.169   0.605  0.00  0.00    -0.034 A 
ATOM      5  C4  UNL d   1       0.522  -1.154   0.320  0.00  0.00     0.162 A 
ATOM      6  C5  UNL d   1       1.212   0.052   0.255  0.00  0.00     0.062 A 
ATOM      7  F   UNL d   1       2.525   0.057  -0.019  0.00  0.00    -0.097 F 
ATOM      8  F1  UNL d   1       1.190  -2.297   0.107  0.00  0.00    -0.096 F 
ATOM      9  I   UNL d   1      -1.880  -2.972   0.703  0.00  0.00    -0.060 I 
ATOM     10  F2  UNL d   1      -2.820   0.062   1.096  0.00  0.00    -0.096 F 
ATOM     11  F3  UNL d   1      -1.459   2.399   0.964  0.00  0.00    -0.097 F 
ATOM     12  F4  UNL d   1       1.212   2.410   0.407  0.00  0.00    -0.092 F 
ENDROOT
TORSDOF 0
ENDMDL
