MODEL 1
REMARK minimizedAffinity -0.940873206
REMARK minimizedRMSD -1
REMARK  0 active torsions:
REMARK  status: ('A' for Active; 'I' for Inactive)
ROOT
ATOM      1  C   UNL d   1      -1.426  -1.060   0.922  0.00  0.00     0.124 A 
ATOM      2  C1  UNL d   1      -0.259  -1.660   0.470  0.00  0.00     0.062 A 
ATOM      3  C2  UNL d   1       0.643  -0.939  -0.307  0.00  0.00     0.162 A 
ATOM      4  C3  UNL d   1       0.383   0.392  -0.635  0.00  0.00    -0.034 A 
ATOM      5  C4  UNL d   1      -0.793   0.988  -0.177  0.00  0.00     0.162 A 
ATOM      6  C5  UNL d   1      -1.692   0.264   0.598  0.00  0.00     0.062 A 
ATOM      7  F   UNL d   1      -2.819   0.845   1.034  0.00  0.00    -0.097 F 
ATOM      8  F1  UNL d   1      -1.074   2.266  -0.475  0.00  0.00    -0.096 F 
ATOM      9  I   UNL d   1       1.731   1.473  -1.796  0.00  0.00    -0.060 I 
ATOM     10  F2  UNL d   1       1.763  -1.545  -0.730  0.00  0.00    -0.096 F 
ATOM     11  F3  UNL d   1      -0.001  -2.938   0.780  0.00  0.00    -0.097 F 
ATOM     12  F4  UNL d   1      -2.294  -1.756   1.668  0.00  0.00    -0.092 F 
ENDROOT
TORSDOF 0
ENDMDL
