MODEL 1
REMARK minimizedAffinity 1.84936035
REMARK minimizedRMSD -1
REMARK  0 active torsions:
REMARK  status: ('A' for Active; 'I' for Inactive)
ROOT
ATOM      1  C   UNL d   1      -0.763  -1.055   1.170  0.00  0.00     0.124 A 
ATOM      2  C1  UNL d   1       0.132  -1.586   0.250  0.00  0.00     0.062 A 
ATOM      3  C2  UNL d   1       0.733  -0.762  -0.697  0.00  0.00     0.162 A 
ATOM      4  C3  UNL d   1       0.443   0.602  -0.729  0.00  0.00    -0.034 A 
ATOM      5  C4  UNL d   1      -0.458   1.128   0.198  0.00  0.00     0.162 A 
ATOM      6  C5  UNL d   1      -1.057   0.300   1.143  0.00  0.00     0.062 A 
ATOM      7  F   UNL d   1      -1.920   0.815   2.031  0.00  0.00    -0.097 F 
ATOM      8  F1  UNL d   1      -0.760   2.435   0.195  0.00  0.00    -0.096 F 
ATOM      9  I   UNL d   1       1.339   1.837  -2.144  0.00  0.00    -0.060 I 
ATOM     10  F2  UNL d   1       1.593  -1.302  -1.574  0.00  0.00    -0.096 F 
ATOM     11  F3  UNL d   1       0.417  -2.896   0.273  0.00  0.00    -0.097 F 
ATOM     12  F4  UNL d   1      -1.340  -1.851   2.079  0.00  0.00    -0.092 F 
ENDROOT
TORSDOF 0
ENDMDL
