MODEL 1
REMARK minimizedAffinity -2.770859
REMARK minimizedRMSD -1
REMARK  0 active torsions:
REMARK  status: ('A' for Active; 'I' for Inactive)
ROOT
ATOM      1  C   UNL d   1      -0.492  -1.036   1.169  0.00  0.00     0.124 A 
ATOM      2  C1  UNL d   1      -0.869   0.293   1.037  0.00  0.00     0.062 A 
ATOM      3  C2  UNL d   1      -0.150   1.145   0.203  0.00  0.00     0.162 A 
ATOM      4  C3  UNL d   1       0.953   0.669  -0.507  0.00  0.00    -0.034 A 
ATOM      5  C4  UNL d   1       1.326  -0.669  -0.368  0.00  0.00     0.162 A 
ATOM      6  C5  UNL d   1       0.605  -1.516   0.467  0.00  0.00     0.062 A 
ATOM      7  F   UNL d   1       0.970  -2.800   0.594  0.00  0.00    -0.097 F 
ATOM      8  F1  UNL d   1       2.381  -1.159  -1.035  0.00  0.00    -0.096 F 
ATOM      9  I   UNL d   1       2.030   1.939  -1.755  0.00  0.00    -0.060 I 
ATOM     10  F2  UNL d   1      -0.536   2.425   0.094  0.00  0.00    -0.096 F 
ATOM     11  F3  UNL d   1      -1.927   0.759   1.715  0.00  0.00    -0.097 F 
ATOM     12  F4  UNL d   1      -1.185  -1.853   1.973  0.00  0.00    -0.092 F 
ENDROOT
TORSDOF 0
ENDMDL
