MODEL 1
REMARK minimizedAffinity 1.98235142
REMARK minimizedRMSD -1
REMARK  0 active torsions:
REMARK  status: ('A' for Active; 'I' for Inactive)
ROOT
ATOM      1  C   UNL d   1       0.187  -1.850   1.343  0.00  0.00     0.124 A 
ATOM      2  C1  UNL d   1      -1.128  -1.419   1.235  0.00  0.00     0.062 A 
ATOM      3  C2  UNL d   1      -1.426  -0.247   0.546  0.00  0.00     0.162 A 
ATOM      4  C3  UNL d   1      -0.407   0.502  -0.042  0.00  0.00    -0.034 A 
ATOM      5  C4  UNL d   1       0.913   0.063   0.072  0.00  0.00     0.162 A 
ATOM      6  C5  UNL d   1       1.206  -1.109   0.761  0.00  0.00     0.062 A 
ATOM      7  F   UNL d   1       2.477  -1.524   0.864  0.00  0.00    -0.097 F 
ATOM      8  F1  UNL d   1       1.917   0.759  -0.481  0.00  0.00    -0.096 F 
ATOM      9  I   UNL d   1      -0.849   2.256  -1.073  0.00  0.00    -0.060 I 
ATOM     10  F2  UNL d   1      -2.706   0.146   0.458  0.00  0.00    -0.096 F 
ATOM     11  F3  UNL d   1      -2.114  -2.133   1.797  0.00  0.00    -0.097 F 
ATOM     12  F4  UNL d   1       0.471  -2.978   2.007  0.00  0.00    -0.092 F 
ENDROOT
TORSDOF 0
ENDMDL
