MODEL 1
REMARK minimizedAffinity -0.756299019
REMARK minimizedRMSD -1
REMARK  0 active torsions:
REMARK  status: ('A' for Active; 'I' for Inactive)
ROOT
ATOM      1  C   UNL d   1      -1.483  -1.956   1.005  0.00  0.00     0.124 A 
ATOM      2  C1  UNL d   1      -0.139  -1.931   1.351  0.00  0.00     0.062 A 
ATOM      3  C2  UNL d   1       0.730  -1.044   0.720  0.00  0.00     0.162 A 
ATOM      4  C3  UNL d   1       0.257  -0.175  -0.262  0.00  0.00    -0.034 A 
ATOM      5  C4  UNL d   1      -1.096  -0.206  -0.605  0.00  0.00     0.162 A 
ATOM      6  C5  UNL d   1      -1.960  -1.094   0.028  0.00  0.00     0.062 A 
ATOM      7  F   UNL d   1      -3.258  -1.116  -0.308  0.00  0.00    -0.097 F 
ATOM      8  F1  UNL d   1      -1.584   0.616  -1.546  0.00  0.00    -0.096 F 
ATOM      9  I   UNL d   1       1.552   1.152  -1.207  0.00  0.00    -0.060 I 
ATOM     10  F2  UNL d   1       2.023  -1.042   1.074  0.00  0.00    -0.096 F 
ATOM     11  F3  UNL d   1       0.325  -2.763   2.294  0.00  0.00    -0.097 F 
ATOM     12  F4  UNL d   1      -2.316  -2.810   1.612  0.00  0.00    -0.092 F 
ENDROOT
TORSDOF 0
ENDMDL
