MODEL 1
REMARK minimizedAffinity -3.57408667
REMARK minimizedRMSD -1
REMARK  0 active torsions:
REMARK  status: ('A' for Active; 'I' for Inactive)
ROOT
ATOM      1  C   UNL d   1      -1.871  -1.051   1.658  0.00  0.00     0.124 A 
ATOM      2  C1  UNL d   1      -1.868   0.337   1.676  0.00  0.00     0.062 A 
ATOM      3  C2  UNL d   1      -1.066   1.047   0.787  0.00  0.00     0.162 A 
ATOM      4  C3  UNL d   1      -0.261   0.370  -0.130  0.00  0.00    -0.034 A 
ATOM      5  C4  UNL d   1      -0.269  -1.026  -0.141  0.00  0.00     0.162 A 
ATOM      6  C5  UNL d   1      -1.072  -1.731   0.750  0.00  0.00     0.062 A 
ATOM      7  F   UNL d   1      -1.073  -3.072   0.732  0.00  0.00    -0.097 F 
ATOM      8  F1  UNL d   1       0.493  -1.709  -1.009  0.00  0.00    -0.096 F 
ATOM      9  I   UNL d   1       0.938   1.427  -1.462  0.00  0.00    -0.060 I 
ATOM     10  F2  UNL d   1      -1.083   2.388   0.826  0.00  0.00    -0.096 F 
ATOM     11  F3  UNL d   1      -2.638   0.997   2.553  0.00  0.00    -0.097 F 
ATOM     12  F4  UNL d   1      -2.642  -1.731   2.516  0.00  0.00    -0.092 F 
ENDROOT
TORSDOF 0
ENDMDL
