MODEL 1
REMARK minimizedAffinity -2.79198909
REMARK minimizedRMSD -1
REMARK  0 active torsions:
REMARK  status: ('A' for Active; 'I' for Inactive)
ROOT
ATOM      1  C   UNL d   1       0.904   1.959  -2.525  0.00  0.00     0.124 A 
ATOM      2  C1  UNL d   1      -0.401   1.561  -2.777  0.00  0.00     0.062 A 
ATOM      3  C2  UNL d   1      -1.036   0.663  -1.924  0.00  0.00     0.162 A 
ATOM      4  C3  UNL d   1      -0.366   0.155  -0.811  0.00  0.00    -0.034 A 
ATOM      5  C4  UNL d   1       0.948   0.559  -0.565  0.00  0.00     0.162 A 
ATOM      6  C5  UNL d   1       1.578   1.457  -1.420  0.00  0.00     0.062 A 
ATOM      7  F   UNL d   1       2.839   1.840  -1.176  0.00  0.00    -0.097 F 
ATOM      8  F1  UNL d   1       1.621   0.090   0.496  0.00  0.00    -0.096 F 
ATOM      9  I   UNL d   1      -1.311  -1.189   0.466  0.00  0.00    -0.060 I 
ATOM     10  F2  UNL d   1      -2.298   0.296  -2.192  0.00  0.00    -0.096 F 
ATOM     11  F3  UNL d   1      -1.054   2.044  -3.844  0.00  0.00    -0.097 F 
ATOM     12  F4  UNL d   1       1.513   2.823  -3.347  0.00  0.00    -0.092 F 
ENDROOT
TORSDOF 0
ENDMDL
