MODEL 1
REMARK minimizedAffinity 1.92478585
REMARK minimizedRMSD -1
REMARK  0 active torsions:
REMARK  status: ('A' for Active; 'I' for Inactive)
ROOT
ATOM      1  C   UNL d   1      -2.548  -2.292   3.656  0.00  0.00     0.124 A 
ATOM      2  C1  UNL d   1      -3.548  -2.082   4.595  0.00  0.00     0.062 A 
ATOM      3  C2  UNL d   1      -4.355  -3.139   5.005  0.00  0.00     0.162 A 
ATOM      4  C3  UNL d   1      -4.165  -4.416   4.478  0.00  0.00    -0.034 A 
ATOM      5  C4  UNL d   1      -3.157  -4.619   3.533  0.00  0.00     0.162 A 
ATOM      6  C5  UNL d   1      -2.353  -3.559   3.126  0.00  0.00     0.062 A 
ATOM      7  F   UNL d   1      -1.387  -3.763   2.218  0.00  0.00    -0.097 F 
ATOM      8  F1  UNL d   1      -2.946  -5.834   3.005  0.00  0.00    -0.096 F 
ATOM      9  I   UNL d   1      -5.369  -6.000   5.089  0.00  0.00    -0.060 I 
ATOM     10  F2  UNL d   1      -5.314  -2.908   5.914  0.00  0.00    -0.096 F 
ATOM     11  F3  UNL d   1      -3.739  -0.858   5.108  0.00  0.00    -0.097 F 
ATOM     12  F4  UNL d   1      -1.773  -1.272   3.262  0.00  0.00    -0.092 F 
ENDROOT
TORSDOF 0
ENDMDL
