MODEL 1
REMARK minimizedAffinity 3.11689472
REMARK minimizedRMSD -1
REMARK  0 active torsions:
REMARK  status: ('A' for Active; 'I' for Inactive)
ROOT
ATOM      1  C   UNL d   1      -1.683   1.637  -0.754  0.00  0.00     0.078 C 
ATOM      2  C1  UNL d   1      -0.358   1.487  -0.069  0.00  0.00    -0.077 A 
ATOM      3  C2  UNL d   1       0.767   2.194  -0.512  0.00  0.00    -0.001 A 
ATOM      4  C3  UNL d   1       1.997   2.037   0.130  0.00  0.00     0.003 A 
ATOM      5  C4  UNL d   1       2.114   1.173   1.216  0.00  0.00    -0.005 A 
ATOM      6  C5  UNL d   1       1.001   0.463   1.663  0.00  0.00     0.003 A 
ATOM      7  C6  UNL d   1      -0.230   0.619   1.023  0.00  0.00    -0.001 A 
ENDROOT
TORSDOF 0
ENDMDL
