MODEL 1
REMARK minimizedAffinity -3.52735209
REMARK minimizedRMSD -1
REMARK  0 active torsions:
REMARK  status: ('A' for Active; 'I' for Inactive)
ROOT
ATOM      1  C   UNL d   1      -0.218  -0.804   0.129  0.00  0.00     0.078 C 
ATOM      2  C1  UNL d   1      -1.161  -0.508  -0.999  0.00  0.00    -0.077 A 
ATOM      3  C2  UNL d   1      -1.054  -1.178  -2.224  0.00  0.00    -0.001 A 
ATOM      4  C3  UNL d   1      -1.932  -0.886  -3.268  0.00  0.00     0.003 A 
ATOM      5  C4  UNL d   1      -2.924   0.078  -3.099  0.00  0.00    -0.005 A 
ATOM      6  C5  UNL d   1      -3.038   0.752  -1.884  0.00  0.00     0.003 A 
ATOM      7  C6  UNL d   1      -2.160   0.461  -0.839  0.00  0.00    -0.001 A 
ENDROOT
TORSDOF 0
ENDMDL
