MODEL 1
REMARK minimizedAffinity -5.65138102
REMARK minimizedRMSD -1
REMARK  0 active torsions:
REMARK  status: ('A' for Active; 'I' for Inactive)
ROOT
ATOM      1  C   UNL d   1       2.111   1.600  -0.304  0.00  0.00     0.078 C 
ATOM      2  C1  UNL d   1       1.689   0.312   0.336  0.00  0.00    -0.077 A 
ATOM      3  C2  UNL d   1       2.612  -0.494   1.014  0.00  0.00    -0.001 A 
ATOM      4  C3  UNL d   1       2.207  -1.695   1.597  0.00  0.00     0.003 A 
ATOM      5  C4  UNL d   1       0.878  -2.103   1.508  0.00  0.00    -0.005 A 
ATOM      6  C5  UNL d   1      -0.048  -1.309   0.834  0.00  0.00     0.003 A 
ATOM      7  C6  UNL d   1       0.355  -0.108   0.250  0.00  0.00    -0.001 A 
ENDROOT
TORSDOF 0
ENDMDL
