MODEL 1
REMARK minimizedAffinity -5.59918785
REMARK minimizedRMSD -1
REMARK  0 active torsions:
REMARK  status: ('A' for Active; 'I' for Inactive)
ROOT
ATOM      1  C   UNL d   1       3.215  -1.804   1.925  0.00  0.00     0.078 C 
ATOM      2  C1  UNL d   1       2.101  -0.946   1.404  0.00  0.00    -0.077 A 
ATOM      3  C2  UNL d   1       2.351   0.342   0.915  0.00  0.00    -0.001 A 
ATOM      4  C3  UNL d   1       1.303   1.133   0.441  0.00  0.00     0.003 A 
ATOM      5  C4  UNL d   1      -0.003   0.645   0.454  0.00  0.00    -0.005 A 
ATOM      6  C5  UNL d   1      -0.261  -0.634   0.941  0.00  0.00     0.003 A 
ATOM      7  C6  UNL d   1       0.786  -1.427   1.414  0.00  0.00    -0.001 A 
ENDROOT
TORSDOF 0
ENDMDL
