MODEL 1
REMARK minimizedAffinity -5.66592455
REMARK minimizedRMSD -1
REMARK  0 active torsions:
REMARK  status: ('A' for Active; 'I' for Inactive)
ROOT
ATOM      1  C   UNL d   1      -0.328   0.320   0.090  0.00  0.00     0.078 C 
ATOM      2  C1  UNL d   1       0.987  -0.228   0.558  0.00  0.00    -0.077 A 
ATOM      3  C2  UNL d   1       1.043  -1.338   1.411  0.00  0.00    -0.001 A 
ATOM      4  C3  UNL d   1       2.274  -1.831   1.846  0.00  0.00     0.003 A 
ATOM      5  C4  UNL d   1       3.457  -1.221   1.436  0.00  0.00    -0.005 A 
ATOM      6  C5  UNL d   1       3.411  -0.115   0.590  0.00  0.00     0.003 A 
ATOM      7  C6  UNL d   1       2.182   0.380   0.153  0.00  0.00    -0.001 A 
ENDROOT
TORSDOF 0
ENDMDL
