MODEL 1
REMARK minimizedAffinity -2.95743918
REMARK minimizedRMSD -1
REMARK  0 active torsions:
REMARK  status: ('A' for Active; 'I' for Inactive)
ROOT
ATOM      1  C   UNL d   1      -1.930   0.452  -0.623  0.00  0.00     0.078 C 
ATOM      2  C1  UNL d   1      -0.579   0.519   0.026  0.00  0.00    -0.077 A 
ATOM      3  C2  UNL d   1       0.106   1.735   0.140  0.00  0.00    -0.001 A 
ATOM      4  C3  UNL d   1       1.367   1.781   0.737  0.00  0.00     0.003 A 
ATOM      5  C4  UNL d   1       1.954   0.615   1.223  0.00  0.00    -0.005 A 
ATOM      6  C5  UNL d   1       1.281  -0.600   1.111  0.00  0.00     0.003 A 
ATOM      7  C6  UNL d   1       0.020  -0.648   0.515  0.00  0.00    -0.001 A 
ENDROOT
TORSDOF 0
ENDMDL
