MODEL 1
REMARK minimizedAffinity -0.509768903
REMARK minimizedRMSD -1
REMARK  0 active torsions:
REMARK  status: ('A' for Active; 'I' for Inactive)
ROOT
ATOM      1  C   UNL d   1      -5.109   5.810  -1.945  0.00  0.00     0.078 C 
ATOM      2  C1  UNL d   1      -4.757   4.392  -2.282  0.00  0.00    -0.077 A 
ATOM      3  C2  UNL d   1      -4.888   3.371  -1.333  0.00  0.00    -0.001 A 
ATOM      4  C3  UNL d   1      -4.547   2.057  -1.657  0.00  0.00     0.003 A 
ATOM      5  C4  UNL d   1      -4.072   1.752  -2.931  0.00  0.00    -0.005 A 
ATOM      6  C5  UNL d   1      -3.937   2.761  -3.882  0.00  0.00     0.003 A 
ATOM      7  C6  UNL d   1      -4.277   4.076  -3.560  0.00  0.00    -0.001 A 
ENDROOT
TORSDOF 0
ENDMDL
