MODEL 1
REMARK minimizedAffinity -6.19039297
REMARK minimizedRMSD -1
REMARK  0 active torsions:
REMARK  status: ('A' for Active; 'I' for Inactive)
ROOT
ATOM      1  C   UNL d   1       0.745   2.043  -0.310  0.00  0.00     0.078 C 
ATOM      2  C1  UNL d   1       1.013   0.705   0.311  0.00  0.00    -0.077 A 
ATOM      3  C2  UNL d   1       0.010  -0.269   0.387  0.00  0.00    -0.001 A 
ATOM      4  C3  UNL d   1       0.270  -1.507   0.976  0.00  0.00     0.003 A 
ATOM      5  C4  UNL d   1       1.534  -1.782   1.496  0.00  0.00    -0.005 A 
ATOM      6  C5  UNL d   1       2.538  -0.819   1.427  0.00  0.00     0.003 A 
ATOM      7  C6  UNL d   1       2.279   0.420   0.838  0.00  0.00    -0.001 A 
ENDROOT
TORSDOF 0
ENDMDL
