MODEL 1
REMARK minimizedAffinity -4.25569296
REMARK minimizedRMSD -1
REMARK  3 active torsions:
REMARK  status: ('A' for Active; 'I' for Inactive)
REMARK    1  A    between atoms: C3'_2  and  C2'_3 
REMARK    2  A    between atoms: C2'_3  and  C1'_4 
REMARK    3  A    between atoms: C1'_4  and  C1_5 
ROOT
ATOM      1  C1  N4B d   1       0.502  -0.347  -0.134  0.00  0.00    -0.075 A 
ATOM      2  C2  N4B d   1       1.169   0.171   0.998  0.00  0.00     0.002 A 
ATOM      3  C3  N4B d   1       0.482   0.936   1.909  0.00  0.00     0.002 A 
ATOM      4  C4  N4B d   1      -0.861   1.210   1.700  0.00  0.00    -0.004 A 
ATOM      5  C5  N4B d   1      -1.504   0.685   0.618  0.00  0.00     0.002 A 
ATOM      6  C6  N4B d   1      -0.827  -0.089  -0.304  0.00  0.00     0.002 A 
ENDROOT
BRANCH   1   7
ATOM      7  C1' N4B d   1       1.231  -1.116  -1.201  0.00  0.00     0.057 C 
BRANCH   7   8
ATOM      8  C2' N4B d   1       0.807  -0.596  -2.571  0.00  0.00     0.009 C 
BRANCH   8   9
ATOM      9  C3' N4B d   1       1.795   0.415  -3.126  0.00  0.00     0.004 C 
ATOM     10  C4' N4B d   1       1.210   1.262  -4.217  0.00  0.00     0.003 C 
ENDBRANCH   8   9
ENDBRANCH   7   8
ENDBRANCH   1   7
TORSDOF 3
ENDMDL
