MODEL 1
REMARK minimizedAffinity -3.93337917
REMARK minimizedRMSD -1
REMARK  3 active torsions:
REMARK  status: ('A' for Active; 'I' for Inactive)
REMARK    1  A    between atoms: C3'_2  and  C2'_3 
REMARK    2  A    between atoms: C2'_3  and  C1'_4 
REMARK    3  A    between atoms: C1'_4  and  C1_5 
ROOT
ATOM      1  C1  N4B d   1      -0.388  -0.010  -0.355  0.00  0.00    -0.075 A 
ATOM      2  C2  N4B d   1      -1.739  -0.305  -0.067  0.00  0.00     0.002 A 
ATOM      3  C3  N4B d   1      -2.263   0.008   1.163  0.00  0.00     0.002 A 
ATOM      4  C4  N4B d   1      -1.454   0.596   2.124  0.00  0.00    -0.004 A 
ATOM      5  C5  N4B d   1      -0.157   0.901   1.829  0.00  0.00     0.002 A 
ATOM      6  C6  N4B d   1       0.382   0.596   0.595  0.00  0.00     0.002 A 
ENDROOT
BRANCH   1   7
ATOM      7  C1' N4B d   1       0.252  -0.411  -1.656  0.00  0.00     0.057 C 
BRANCH   7   8
ATOM      8  C2' N4B d   1       1.667   0.157  -1.714  0.00  0.00     0.009 C 
BRANCH   8   9
ATOM      9  C3' N4B d   1       1.959   0.819  -3.050  0.00  0.00     0.004 C 
ATOM     10  C4' N4B d   1       1.059   0.334  -4.147  0.00  0.00     0.003 C 
ENDBRANCH   8   9
ENDBRANCH   7   8
ENDBRANCH   1   7
TORSDOF 3
ENDMDL
