MODEL 1
REMARK minimizedAffinity -3.74060512
REMARK minimizedRMSD -1
REMARK  3 active torsions:
REMARK  status: ('A' for Active; 'I' for Inactive)
REMARK    1  A    between atoms: C3'_2  and  C2'_3 
REMARK    2  A    between atoms: C2'_3  and  C1'_4 
REMARK    3  A    between atoms: C1'_4  and  C1_5 
ROOT
ATOM      1  C1  N4B d   1      -0.409   1.273   0.136  0.00  0.00    -0.075 A 
ATOM      2  C2  N4B d   1       0.247   2.104   1.070  0.00  0.00     0.002 A 
ATOM      3  C3  N4B d   1      -0.187   2.148   2.373  0.00  0.00     0.002 A 
ATOM      4  C4  N4B d   1      -1.281   1.388   2.757  0.00  0.00    -0.004 A 
ATOM      5  C5  N4B d   1      -1.893   0.568   1.854  0.00  0.00     0.002 A 
ATOM      6  C6  N4B d   1      -1.465   0.511   0.543  0.00  0.00     0.002 A 
ENDROOT
BRANCH   1   7
ATOM      7  C1' N4B d   1      -0.025   1.257  -1.319  0.00  0.00     0.057 C 
BRANCH   7   8
ATOM      8  C2' N4B d   1       0.870   0.050  -1.587  0.00  0.00     0.009 C 
BRANCH   8   9
ATOM      9  C3' N4B d   1       1.445   0.070  -2.992  0.00  0.00     0.004 C 
ATOM     10  C4' N4B d   1       1.339   1.417  -3.644  0.00  0.00     0.003 C 
ENDBRANCH   8   9
ENDBRANCH   7   8
ENDBRANCH   1   7
TORSDOF 3
ENDMDL
