MODEL 1
REMARK minimizedAffinity 3.08394909
REMARK minimizedRMSD -1
REMARK  1 active torsions:
REMARK  status: ('A' for Active; 'I' for Inactive)
REMARK    1  A    between atoms: C1_2  and  C2_3 
ROOT
ATOM      1  C2  UNL d   1       0.137  -5.333  -4.141  0.00  0.00    -0.081 A 
ATOM      2  C3  UNL d   1      -0.997  -4.879  -3.458  0.00  0.00     0.006 A 
ATOM      3  C4  UNL d   1      -2.263  -4.983  -4.039  0.00  0.00     0.002 A 
ATOM      4  C5  UNL d   1      -2.417  -5.550  -5.309  0.00  0.00    -0.080 A 
ATOM      5  C6  UNL d   1      -3.774  -5.696  -5.931  0.00  0.00     0.076 C 
ATOM      6  C7  UNL d   1      -1.282  -5.988  -5.999  0.00  0.00     0.002 A 
ATOM      7  C8  UNL d   1      -0.015  -5.883  -5.419  0.00  0.00     0.006 A 
ENDROOT
BRANCH   1   8
ATOM      8  C1  UNL d   1       1.496  -5.281  -3.491  0.00  0.00     0.054 C 
ATOM      9  C   UNL d   1       2.541  -5.999  -4.333  0.00  0.00     0.018 C 
ENDBRANCH   1   8
TORSDOF 1
ENDMDL
