MODEL 1
REMARK minimizedAffinity 15.1524038
REMARK minimizedRMSD -1
REMARK  1 active torsions:
REMARK  status: ('A' for Active; 'I' for Inactive)
REMARK    1  A    between atoms: C1_2  and  C2_3 
ROOT
ATOM      1  C2  UNL d   1      -3.186   0.083   1.773  0.00  0.00    -0.081 A 
ATOM      2  C3  UNL d   1      -2.379   0.580   2.804  0.00  0.00     0.006 A 
ATOM      3  C4  UNL d   1      -1.122   0.021   3.051  0.00  0.00     0.002 A 
ATOM      4  C5  UNL d   1      -0.649  -1.037   2.267  0.00  0.00    -0.080 A 
ATOM      5  C6  UNL d   1       0.710  -1.625   2.503  0.00  0.00     0.076 C 
ATOM      6  C7  UNL d   1      -1.463  -1.544   1.249  0.00  0.00     0.002 A 
ATOM      7  C8  UNL d   1      -2.719  -0.987   1.001  0.00  0.00     0.006 A 
ENDROOT
BRANCH   1   8
ATOM      8  C1  UNL d   1      -4.514   0.726   1.462  0.00  0.00     0.054 C 
ATOM      9  C   UNL d   1      -4.871   0.573  -0.009  0.00  0.00     0.018 C 
ENDBRANCH   1   8
TORSDOF 1
ENDMDL
