MODEL 1
REMARK minimizedAffinity 9.2841711
REMARK minimizedRMSD -1
REMARK  1 active torsions:
REMARK  status: ('A' for Active; 'I' for Inactive)
REMARK    1  A    between atoms: C1_2  and  C2_3 
ROOT
ATOM      1  C2  UNL d   1       2.786   4.152  -3.644  0.00  0.00    -0.081 A 
ATOM      2  C3  UNL d   1       1.453   3.748  -3.793  0.00  0.00     0.006 A 
ATOM      3  C4  UNL d   1       0.445   4.335  -3.024  0.00  0.00     0.002 A 
ATOM      4  C5  UNL d   1       0.752   5.340  -2.100  0.00  0.00    -0.080 A 
ATOM      5  C6  UNL d   1      -0.325   6.000  -1.291  0.00  0.00     0.076 C 
ATOM      6  C7  UNL d   1       2.085   5.731  -1.939  0.00  0.00     0.002 A 
ATOM      7  C8  UNL d   1       3.093   5.144  -2.707  0.00  0.00     0.006 A 
ENDROOT
BRANCH   1   8
ATOM      8  C1  UNL d   1       3.866   3.566  -4.517  0.00  0.00     0.054 C 
ATOM      9  C   UNL d   1       3.540   3.741  -5.993  0.00  0.00     0.018 C 
ENDBRANCH   1   8
TORSDOF 1
ENDMDL
