MODEL 1
REMARK minimizedAffinity 11.9226561
REMARK minimizedRMSD -1
REMARK  1 active torsions:
REMARK  status: ('A' for Active; 'I' for Inactive)
REMARK    1  A    between atoms: C1_2  and  C2_3 
ROOT
ATOM      1  C2  UNL d   1       5.240   3.066   1.115  0.00  0.00    -0.081 A 
ATOM      2  C3  UNL d   1       5.623   2.332   2.244  0.00  0.00     0.006 A 
ATOM      3  C4  UNL d   1       4.991   1.125   2.553  0.00  0.00     0.002 A 
ATOM      4  C5  UNL d   1       3.972   0.628   1.734  0.00  0.00    -0.080 A 
ATOM      5  C6  UNL d   1       3.307  -0.682   2.037  0.00  0.00     0.076 C 
ATOM      6  C7  UNL d   1       3.577   1.369   0.615  0.00  0.00     0.002 A 
ATOM      7  C8  UNL d   1       4.208   2.577   0.307  0.00  0.00     0.006 A 
ENDROOT
BRANCH   1   8
ATOM      8  C1  UNL d   1       5.963   4.335   0.744  0.00  0.00     0.054 C 
ATOM      9  C   UNL d   1       5.997   4.532  -0.765  0.00  0.00     0.018 C 
ENDBRANCH   1   8
TORSDOF 1
ENDMDL
