MODEL 1
REMARK minimizedAffinity 19.6592579
REMARK minimizedRMSD -1
REMARK  1 active torsions:
REMARK  status: ('A' for Active; 'I' for Inactive)
REMARK    1  A    between atoms: C1_2  and  C2_3 
ROOT
ATOM      1  C2  UNL d   1       3.484   2.236  -0.436  0.00  0.00    -0.081 A 
ATOM      2  C3  UNL d   1       4.760   2.708  -0.767  0.00  0.00     0.006 A 
ATOM      3  C4  UNL d   1       5.572   3.297   0.206  0.00  0.00     0.002 A 
ATOM      4  C5  UNL d   1       5.125   3.417   1.526  0.00  0.00    -0.080 A 
ATOM      5  C6  UNL d   1       5.998   4.020   2.586  0.00  0.00     0.076 C 
ATOM      6  C7  UNL d   1       3.843   2.962   1.853  0.00  0.00     0.002 A 
ATOM      7  C8  UNL d   1       3.031   2.373   0.881  0.00  0.00     0.006 A 
ENDROOT
BRANCH   1   8
ATOM      8  C1  UNL d   1       2.632   1.542  -1.467  0.00  0.00     0.054 C 
ATOM      9  C   UNL d   1       2.317   2.464  -2.636  0.00  0.00     0.018 C 
ENDBRANCH   1   8
TORSDOF 1
ENDMDL
