MODEL 1
REMARK minimizedAffinity 15.2075834
REMARK minimizedRMSD -1
REMARK  1 active torsions:
REMARK  status: ('A' for Active; 'I' for Inactive)
REMARK    1  A    between atoms: C1_2  and  C2_3 
ROOT
ATOM      1  C2  UNL d   1      -3.092   0.333   1.051  0.00  0.00    -0.081 A 
ATOM      2  C3  UNL d   1      -2.529  -0.042  -0.175  0.00  0.00     0.006 A 
ATOM      3  C4  UNL d   1      -3.299  -0.028  -1.341  0.00  0.00     0.002 A 
ATOM      4  C5  UNL d   1      -4.639   0.370  -1.302  0.00  0.00    -0.080 A 
ATOM      5  C6  UNL d   1      -5.468   0.419  -2.551  0.00  0.00     0.076 C 
ATOM      6  C7  UNL d   1      -5.206   0.728  -0.074  0.00  0.00     0.002 A 
ATOM      7  C8  UNL d   1      -4.438   0.713   1.092  0.00  0.00     0.006 A 
ENDROOT
BRANCH   1   8
ATOM      8  C1  UNL d   1      -2.247   0.381   2.299  0.00  0.00     0.054 C 
ATOM      9  C   UNL d   1      -1.513  -0.934   2.520  0.00  0.00     0.018 C 
ENDBRANCH   1   8
TORSDOF 1
ENDMDL
