MODEL 1
REMARK minimizedAffinity 19.7121391
REMARK minimizedRMSD -1
REMARK  1 active torsions:
REMARK  status: ('A' for Active; 'I' for Inactive)
REMARK    1  A    between atoms: C1_2  and  C2_3 
ROOT
ATOM      1  C2  UNL d   1       2.700   3.684  -3.564  0.00  0.00    -0.081 A 
ATOM      2  C3  UNL d   1       1.342   3.391  -3.735  0.00  0.00     0.006 A 
ATOM      3  C4  UNL d   1       0.370   4.085  -3.010  0.00  0.00     0.002 A 
ATOM      4  C5  UNL d   1       0.740   5.089  -2.108  0.00  0.00    -0.080 A 
ATOM      5  C6  UNL d   1      -0.294   5.862  -1.345  0.00  0.00     0.076 C 
ATOM      6  C7  UNL d   1       2.099   5.370  -1.924  0.00  0.00     0.002 A 
ATOM      7  C8  UNL d   1       3.070   4.676  -2.649  0.00  0.00     0.006 A 
ENDROOT
BRANCH   1   8
ATOM      8  C1  UNL d   1       3.746   2.983  -4.393  0.00  0.00     0.054 C 
ATOM      9  C   UNL d   1       3.601   3.321  -5.869  0.00  0.00     0.018 C 
ENDBRANCH   1   8
TORSDOF 1
ENDMDL
