MODEL 1
REMARK minimizedAffinity 17.3828144
REMARK minimizedRMSD -1
REMARK  1 active torsions:
REMARK  status: ('A' for Active; 'I' for Inactive)
REMARK    1  A    between atoms: C1_2  and  C2_3 
ROOT
ATOM      1  C2  UNL d   1      -2.745   0.021   1.804  0.00  0.00    -0.081 A 
ATOM      2  C3  UNL d   1      -2.135  -1.054   1.146  0.00  0.00     0.006 A 
ATOM      3  C4  UNL d   1      -0.997  -1.660   1.684  0.00  0.00     0.002 A 
ATOM      4  C5  UNL d   1      -0.457  -1.209   2.893  0.00  0.00    -0.080 A 
ATOM      5  C6  UNL d   1       0.746  -1.870   3.497  0.00  0.00     0.076 C 
ATOM      6  C7  UNL d   1      -1.057  -0.124   3.542  0.00  0.00     0.002 A 
ATOM      7  C8  UNL d   1      -2.193   0.483   3.004  0.00  0.00     0.006 A 
ENDROOT
BRANCH   1   8
ATOM      8  C1  UNL d   1      -4.009   0.635   1.260  0.00  0.00     0.054 C 
ATOM      9  C   UNL d   1      -4.370   0.047  -0.097  0.00  0.00     0.018 C 
ENDBRANCH   1   8
TORSDOF 1
ENDMDL
