MODEL 1
REMARK minimizedAffinity 11.3585644
REMARK minimizedRMSD -1
REMARK  1 active torsions:
REMARK  status: ('A' for Active; 'I' for Inactive)
REMARK    1  A    between atoms: C1_2  and  C2_3 
ROOT
ATOM      1  C2  UNL d   1       3.946   4.449  -2.278  0.00  0.00    -0.081 A 
ATOM      2  C3  UNL d   1       3.333   3.257  -2.683  0.00  0.00     0.006 A 
ATOM      3  C4  UNL d   1       1.946   3.187  -2.828  0.00  0.00     0.002 A 
ATOM      4  C5  UNL d   1       1.148   4.309  -2.578  0.00  0.00    -0.080 A 
ATOM      5  C6  UNL d   1      -0.339   4.256  -2.759  0.00  0.00     0.076 C 
ATOM      6  C7  UNL d   1       1.759   5.495  -2.157  0.00  0.00     0.002 A 
ATOM      7  C8  UNL d   1       3.146   5.566  -2.012  0.00  0.00     0.006 A 
ENDROOT
BRANCH   1   8
ATOM      8  C1  UNL d   1       5.447   4.546  -2.184  0.00  0.00     0.054 C 
ATOM      9  C   UNL d   1       5.976   3.781  -0.979  0.00  0.00     0.018 C 
ENDBRANCH   1   8
TORSDOF 1
ENDMDL
