MODEL 1
REMARK minimizedAffinity 18.3936825
REMARK minimizedRMSD -1
REMARK  1 active torsions:
REMARK  status: ('A' for Active; 'I' for Inactive)
REMARK    1  A    between atoms: C1_2  and  C2_3 
ROOT
ATOM      1  C2  UNL d   1       2.831   2.785  -2.861  0.00  0.00    -0.081 A 
ATOM      2  C3  UNL d   1       3.109   2.663  -4.228  0.00  0.00     0.006 A 
ATOM      3  C4  UNL d   1       4.126   3.421  -4.815  0.00  0.00     0.002 A 
ATOM      4  C5  UNL d   1       4.886   4.307  -4.044  0.00  0.00    -0.080 A 
ATOM      5  C6  UNL d   1       6.000   5.103  -4.655  0.00  0.00     0.076 C 
ATOM      6  C7  UNL d   1       4.597   4.441  -2.681  0.00  0.00     0.002 A 
ATOM      7  C8  UNL d   1       3.580   3.685  -2.095  0.00  0.00     0.006 A 
ENDROOT
BRANCH   1   8
ATOM      8  C1  UNL d   1       1.779   1.922  -2.213  0.00  0.00     0.054 C 
ATOM      9  C   UNL d   1       2.255   1.382  -0.872  0.00  0.00     0.018 C 
ENDBRANCH   1   8
TORSDOF 1
ENDMDL
