MODEL 1
REMARK minimizedAffinity 10.9212303
REMARK minimizedRMSD -1
REMARK  1 active torsions:
REMARK  status: ('A' for Active; 'I' for Inactive)
REMARK    1  A    between atoms: C1_2  and  C2_3 
ROOT
ATOM      1  C2  UNL d   1       4.482   4.774  -3.212  0.00  0.00    -0.081 A 
ATOM      2  C3  UNL d   1       4.219   5.789  -2.284  0.00  0.00     0.006 A 
ATOM      3  C4  UNL d   1       2.921   5.999  -1.813  0.00  0.00     0.002 A 
ATOM      4  C5  UNL d   1       1.866   5.194  -2.256  0.00  0.00    -0.080 A 
ATOM      5  C6  UNL d   1       0.473   5.390  -1.736  0.00  0.00     0.076 C 
ATOM      6  C7  UNL d   1       2.125   4.191  -3.197  0.00  0.00     0.002 A 
ATOM      7  C8  UNL d   1       3.423   3.981  -3.668  0.00  0.00     0.006 A 
ENDROOT
BRANCH   1   8
ATOM      8  C1  UNL d   1       5.891   4.502  -3.673  0.00  0.00     0.054 C 
ATOM      9  C   UNL d   1       6.000   4.569  -5.190  0.00  0.00     0.018 C 
ENDBRANCH   1   8
TORSDOF 1
ENDMDL
