MODEL 1
REMARK minimizedAffinity 19.6655769
REMARK minimizedRMSD -1
REMARK  1 active torsions:
REMARK  status: ('A' for Active; 'I' for Inactive)
REMARK    1  A    between atoms: C1_2  and  C2_3 
ROOT
ATOM      1  C2  UNL d   1      -3.284  -0.282   1.677  0.00  0.00    -0.081 A 
ATOM      2  C3  UNL d   1      -3.025  -1.650   1.523  0.00  0.00     0.006 A 
ATOM      3  C4  UNL d   1      -1.794  -2.185   1.908  0.00  0.00     0.002 A 
ATOM      4  C5  UNL d   1      -0.805  -1.365   2.460  0.00  0.00    -0.080 A 
ATOM      5  C6  UNL d   1       0.510  -1.932   2.906  0.00  0.00     0.076 C 
ATOM      6  C7  UNL d   1      -1.057   0.004   2.599  0.00  0.00     0.002 A 
ATOM      7  C8  UNL d   1      -2.288   0.540   2.213  0.00  0.00     0.006 A 
ENDROOT
BRANCH   1   8
ATOM      8  C1  UNL d   1      -4.634   0.287   1.323  0.00  0.00     0.054 C 
ATOM      9  C   UNL d   1      -5.011  -0.038  -0.116  0.00  0.00     0.018 C 
ENDBRANCH   1   8
TORSDOF 1
ENDMDL
