MODEL 1
REMARK minimizedAffinity 14.0277119
REMARK minimizedRMSD -1
REMARK  1 active torsions:
REMARK  status: ('A' for Active; 'I' for Inactive)
REMARK    1  A    between atoms: C1_2  and  C2_3 
ROOT
ATOM      1  C2  UNL d   1       3.827   1.588  -0.476  0.00  0.00    -0.081 A 
ATOM      2  C3  UNL d   1       3.175   1.735   0.755  0.00  0.00     0.006 A 
ATOM      3  C4  UNL d   1       3.794   2.416   1.806  0.00  0.00     0.002 A 
ATOM      4  C5  UNL d   1       5.069   2.967   1.642  0.00  0.00    -0.080 A 
ATOM      5  C6  UNL d   1       5.732   3.727   2.753  0.00  0.00     0.076 C 
ATOM      6  C7  UNL d   1       5.727   2.805   0.418  0.00  0.00     0.002 A 
ATOM      7  C8  UNL d   1       5.109   2.124  -0.633  0.00  0.00     0.006 A 
ENDROOT
BRANCH   1   8
ATOM      8  C1  UNL d   1       3.136   0.910  -1.632  0.00  0.00     0.054 C 
ATOM      9  C   UNL d   1       2.665   1.923  -2.666  0.00  0.00     0.018 C 
ENDBRANCH   1   8
TORSDOF 1
ENDMDL
