MODEL 1
REMARK minimizedAffinity 9.43547344
REMARK minimizedRMSD -1
REMARK  1 active torsions:
REMARK  status: ('A' for Active; 'I' for Inactive)
REMARK    1  A    between atoms: C1_2  and  C2_3 
ROOT
ATOM      1  C2  UNL d   1      -3.321   1.291   4.050  0.00  0.00    -0.081 A 
ATOM      2  C3  UNL d   1      -3.626   1.083   2.700  0.00  0.00     0.006 A 
ATOM      3  C4  UNL d   1      -2.917   0.141   1.950  0.00  0.00     0.002 A 
ATOM      4  C5  UNL d   1      -1.898  -0.614   2.540  0.00  0.00    -0.080 A 
ATOM      5  C6  UNL d   1      -1.149  -1.650   1.755  0.00  0.00     0.076 C 
ATOM      6  C7  UNL d   1      -1.581  -0.394   3.885  0.00  0.00     0.002 A 
ATOM      7  C8  UNL d   1      -2.289   0.549   4.635  0.00  0.00     0.006 A 
ENDROOT
BRANCH   1   8
ATOM      8  C1  UNL d   1      -4.127   2.260   4.878  0.00  0.00     0.054 C 
ATOM      9  C   UNL d   1      -4.870   1.546   5.998  0.00  0.00     0.018 C 
ENDBRANCH   1   8
TORSDOF 1
ENDMDL
