MODEL 1
REMARK minimizedAffinity 2.94402862
REMARK minimizedRMSD -1
REMARK  1 active torsions:
REMARK  status: ('A' for Active; 'I' for Inactive)
REMARK    1  A    between atoms: C1_2  and  C2_3 
ROOT
ATOM      1  C2  UNL d   1      -4.192   1.410   3.636  0.00  0.00    -0.081 A 
ATOM      2  C3  UNL d   1      -4.735   0.854   2.471  0.00  0.00     0.006 A 
ATOM      3  C4  UNL d   1      -4.000  -0.060   1.713  0.00  0.00     0.002 A 
ATOM      4  C5  UNL d   1      -2.713  -0.440   2.111  0.00  0.00    -0.080 A 
ATOM      5  C6  UNL d   1      -1.925  -1.443   1.322  0.00  0.00     0.076 C 
ATOM      6  C7  UNL d   1      -2.164   0.128   3.265  0.00  0.00     0.002 A 
ATOM      7  C8  UNL d   1      -2.898   1.043   4.023  0.00  0.00     0.006 A 
ENDROOT
BRANCH   1   8
ATOM      8  C1  UNL d   1      -5.007   2.346   4.491  0.00  0.00     0.054 C 
ATOM      9  C   UNL d   1      -5.052   1.877   5.938  0.00  0.00     0.018 C 
ENDBRANCH   1   8
TORSDOF 1
ENDMDL
