MODEL 1
REMARK minimizedAffinity 21.5434761
REMARK minimizedRMSD -1
REMARK  1 active torsions:
REMARK  status: ('A' for Active; 'I' for Inactive)
REMARK    1  A    between atoms: C1_2  and  C2_3 
ROOT
ATOM      1  C2  UNL d   1      -3.183  -0.238   1.514  0.00  0.00    -0.081 A 
ATOM      2  C3  UNL d   1      -2.520   0.446   2.540  0.00  0.00     0.006 A 
ATOM      3  C4  UNL d   1      -1.302  -0.027   3.034  0.00  0.00     0.002 A 
ATOM      4  C5  UNL d   1      -0.722  -1.185   2.505  0.00  0.00    -0.080 A 
ATOM      5  C6  UNL d   1       0.600  -1.686   3.006  0.00  0.00     0.076 C 
ATOM      6  C7  UNL d   1      -1.393  -1.878   1.492  0.00  0.00     0.002 A 
ATOM      7  C8  UNL d   1      -2.611  -1.406   0.998  0.00  0.00     0.006 A 
ENDROOT
BRANCH   1   8
ATOM      8  C1  UNL d   1      -4.464   0.305   0.935  0.00  0.00     0.054 C 
ATOM      9  C   UNL d   1      -4.818  -0.389  -0.373  0.00  0.00     0.018 C 
ENDBRANCH   1   8
TORSDOF 1
ENDMDL
