MODEL 1
REMARK minimizedAffinity -5.7047019
REMARK minimizedRMSD -1
REMARK  0 active torsions:
REMARK  status: ('A' for Active; 'I' for Inactive)
ROOT
ATOM      1  C   UNL d   1       2.558  -0.215   2.341  0.00  0.00     0.077 C 
ATOM      2  C1  UNL d   1       1.103   0.148   2.336  0.00  0.00    -0.074 A 
ATOM      3  C2  UNL d   1       0.452   0.523   3.515  0.00  0.00    -0.005 A 
ATOM      4  C3  UNL d   1      -0.899   0.868   3.494  0.00  0.00     0.006 A 
ATOM      5  C4  UNL d   1      -1.612   0.841   2.294  0.00  0.00    -0.005 A 
ATOM      6  C5  UNL d   1      -0.978   0.469   1.105  0.00  0.00    -0.074 A 
ATOM      7  C6  UNL d   1      -1.727   0.445  -0.195  0.00  0.00     0.077 C 
ATOM      8  C7  UNL d   1       0.382   0.131   1.133  0.00  0.00    -0.001 A 
ENDROOT
TORSDOF 0
ENDMDL
