MODEL 1
REMARK minimizedAffinity -3.64528799
REMARK minimizedRMSD -1
REMARK  0 active torsions:
REMARK  status: ('A' for Active; 'I' for Inactive)
ROOT
ATOM      1  C   UNL d   1      -2.510   0.536   2.218  0.00  0.00     0.077 C 
ATOM      2  C1  UNL d   1      -1.065   0.213   1.983  0.00  0.00    -0.074 A 
ATOM      3  C2  UNL d   1      -0.216  -0.102   3.049  0.00  0.00    -0.005 A 
ATOM      4  C3  UNL d   1       1.124  -0.410   2.814  0.00  0.00     0.006 A 
ATOM      5  C4  UNL d   1       1.628  -0.407   1.512  0.00  0.00    -0.005 A 
ATOM      6  C5  UNL d   1       0.794  -0.095   0.434  0.00  0.00    -0.074 A 
ATOM      7  C6  UNL d   1       1.317  -0.097  -0.972  0.00  0.00     0.077 C 
ATOM      8  C7  UNL d   1      -0.553   0.206   0.678  0.00  0.00    -0.001 A 
ENDROOT
TORSDOF 0
ENDMDL
