MODEL 1
REMARK minimizedAffinity -5.30736923
REMARK minimizedRMSD -1
REMARK  0 active torsions:
REMARK  status: ('A' for Active; 'I' for Inactive)
ROOT
ATOM      1  C   UNL d   1       0.154   1.207   3.514  0.00  0.00     0.077 C 
ATOM      2  C1  UNL d   1      -0.391   0.631   2.241  0.00  0.00    -0.074 A 
ATOM      3  C2  UNL d   1      -1.754   0.350   2.106  0.00  0.00    -0.005 A 
ATOM      4  C3  UNL d   1      -2.249  -0.176   0.913  0.00  0.00     0.006 A 
ATOM      5  C4  UNL d   1      -1.387  -0.426  -0.156  0.00  0.00    -0.005 A 
ATOM      6  C5  UNL d   1      -0.021  -0.149  -0.040  0.00  0.00    -0.074 A 
ATOM      7  C6  UNL d   1       0.918  -0.402  -1.182  0.00  0.00     0.077 C 
ATOM      8  C7  UNL d   1       0.467   0.386   1.160  0.00  0.00    -0.001 A 
ENDROOT
TORSDOF 0
ENDMDL
