MODEL 1
REMARK minimizedAffinity -3.17562675
REMARK minimizedRMSD -1
REMARK  0 active torsions:
REMARK  status: ('A' for Active; 'I' for Inactive)
ROOT
ATOM      1  C   UNL d   1       0.262  -0.404  -1.589  0.00  0.00     0.077 C 
ATOM      2  C1  UNL d   1      -0.083  -0.169  -0.148  0.00  0.00    -0.074 A 
ATOM      3  C2  UNL d   1      -1.343   0.315   0.219  0.00  0.00    -0.005 A 
ATOM      4  C3  UNL d   1      -1.653   0.520   1.563  0.00  0.00     0.006 A 
ATOM      5  C4  UNL d   1      -0.708   0.245   2.552  0.00  0.00    -0.005 A 
ATOM      6  C5  UNL d   1       0.557  -0.241   2.204  0.00  0.00    -0.074 A 
ATOM      7  C6  UNL d   1       1.581  -0.551   3.255  0.00  0.00     0.077 C 
ATOM      8  C7  UNL d   1       0.858  -0.451   0.852  0.00  0.00    -0.001 A 
ENDROOT
TORSDOF 0
ENDMDL
