MODEL 1
REMARK minimizedAffinity -4.72290516
REMARK minimizedRMSD -1
REMARK  0 active torsions:
REMARK  status: ('A' for Active; 'I' for Inactive)
ROOT
ATOM      1  C   UNL d   1      -0.720   1.514   2.996  0.00  0.00     0.077 C 
ATOM      2  C1  UNL d   1       0.047   0.672   2.020  0.00  0.00    -0.074 A 
ATOM      3  C2  UNL d   1       1.291   0.131   2.360  0.00  0.00    -0.005 A 
ATOM      4  C3  UNL d   1       1.988  -0.659   1.445  0.00  0.00     0.006 A 
ATOM      5  C4  UNL d   1       1.449  -0.915   0.184  0.00  0.00    -0.005 A 
ATOM      6  C5  UNL d   1       0.205  -0.384  -0.173  0.00  0.00    -0.074 A 
ATOM      7  C6  UNL d   1      -0.393  -0.658  -1.521  0.00  0.00     0.077 C 
ATOM      8  C7  UNL d   1      -0.492   0.403   0.754  0.00  0.00    -0.001 A 
ENDROOT
TORSDOF 0
ENDMDL
