MODEL 1
REMARK minimizedAffinity 11.3133345
REMARK minimizedRMSD -1
REMARK  1 active torsions:
REMARK  status: ('A' for Active; 'I' for Inactive)
REMARK    1  A    between atoms: C1_2  and  C2_3 
ROOT
ATOM      1  C2  UNL d   1       1.716  -1.504   4.495  0.00  0.00    -0.081 A 
ATOM      2  C3  UNL d   1       1.854  -0.175   4.913  0.00  0.00     0.006 A 
ATOM      3  C4  UNL d   1       1.732   0.872   3.996  0.00  0.00     0.002 A 
ATOM      4  C5  UNL d   1       1.463   0.608   2.649  0.00  0.00    -0.080 A 
ATOM      5  C6  UNL d   1       1.300   1.725   1.661  0.00  0.00     0.076 C 
ATOM      6  C7  UNL d   1       1.342  -0.720   2.228  0.00  0.00     0.002 A 
ATOM      7  C8  UNL d   1       1.465  -1.767   3.144  0.00  0.00     0.006 A 
ENDROOT
BRANCH   1   8
ATOM      8  C1  UNL d   1       1.782  -2.632   5.492  0.00  0.00     0.054 C 
ATOM      9  C   UNL d   1       0.397  -3.005   5.999  0.00  0.00     0.018 C 
ENDBRANCH   1   8
TORSDOF 1
ENDMDL
