MODEL 1
REMARK minimizedAffinity 2.38085175
REMARK minimizedRMSD -1
REMARK  1 active torsions:
REMARK  status: ('A' for Active; 'I' for Inactive)
REMARK    1  A    between atoms: C1_2  and  C2_3 
ROOT
ATOM      1  C2  UNL d   1      -1.247  -2.986   0.574  0.00  0.00    -0.081 A 
ATOM      2  C3  UNL d   1      -1.570  -1.707   1.043  0.00  0.00     0.006 A 
ATOM      3  C4  UNL d   1      -0.567  -0.840   1.482  0.00  0.00     0.002 A 
ATOM      4  C5  UNL d   1       0.775  -1.233   1.452  0.00  0.00    -0.080 A 
ATOM      5  C6  UNL d   1       1.864  -0.300   1.891  0.00  0.00     0.076 C 
ATOM      6  C7  UNL d   1       1.097  -2.517   0.999  0.00  0.00     0.002 A 
ATOM      7  C8  UNL d   1       0.095  -3.385   0.561  0.00  0.00     0.006 A 
ENDROOT
BRANCH   1   8
ATOM      8  C1  UNL d   1      -2.319  -3.901   0.040  0.00  0.00     0.054 C 
ATOM      9  C   UNL d   1      -2.067  -4.256  -1.418  0.00  0.00     0.018 C 
ENDBRANCH   1   8
TORSDOF 1
ENDMDL
