MODEL 1
REMARK minimizedAffinity 6.17536211
REMARK minimizedRMSD -1
REMARK  1 active torsions:
REMARK  status: ('A' for Active; 'I' for Inactive)
REMARK    1  A    between atoms: C1_2  and  C2_3 
ROOT
ATOM      1  C2  UNL d   1       0.466  -0.757   1.977  0.00  0.00    -0.081 A 
ATOM      2  C3  UNL d   1      -0.884  -0.889   1.628  0.00  0.00     0.006 A 
ATOM      3  C4  UNL d   1      -1.577   0.183   1.062  0.00  0.00     0.002 A 
ATOM      4  C5  UNL d   1      -0.931   1.402   0.827  0.00  0.00    -0.080 A 
ATOM      5  C6  UNL d   1      -1.656   2.551   0.192  0.00  0.00     0.076 C 
ATOM      6  C7  UNL d   1       0.413   1.539   1.192  0.00  0.00     0.002 A 
ATOM      7  C8  UNL d   1       1.106   0.468   1.759  0.00  0.00     0.006 A 
ENDROOT
BRANCH   1   8
ATOM      8  C1  UNL d   1       1.234  -1.931   2.529  0.00  0.00     0.054 C 
ATOM      9  C   UNL d   1       1.484  -1.776   4.022  0.00  0.00     0.018 C 
ENDBRANCH   1   8
TORSDOF 1
ENDMDL
