MODEL 1
REMARK minimizedAffinity 8.91855526
REMARK minimizedRMSD -1
REMARK  1 active torsions:
REMARK  status: ('A' for Active; 'I' for Inactive)
REMARK    1  A    between atoms: C1_2  and  C2_3 
ROOT
ATOM      1  C2  UNL d   1       1.559  -3.358   4.842  0.00  0.00    -0.081 A 
ATOM      2  C3  UNL d   1       0.989  -2.079   4.873  0.00  0.00     0.006 A 
ATOM      3  C4  UNL d   1       1.106  -1.225   3.774  0.00  0.00     0.002 A 
ATOM      4  C5  UNL d   1       1.787  -1.637   2.624  0.00  0.00    -0.080 A 
ATOM      5  C6  UNL d   1       1.893  -0.741   1.426  0.00  0.00     0.076 C 
ATOM      6  C7  UNL d   1       2.371  -2.908   2.599  0.00  0.00     0.002 A 
ATOM      7  C8  UNL d   1       2.255  -3.762   3.697  0.00  0.00     0.006 A 
ENDROOT
BRANCH   1   8
ATOM      8  C1  UNL d   1       1.379  -4.306   6.000  0.00  0.00     0.054 C 
ATOM      9  C   UNL d   1      -0.013  -4.922   6.000  0.00  0.00     0.018 C 
ENDBRANCH   1   8
TORSDOF 1
ENDMDL
