MODEL 1
REMARK minimizedAffinity 15.8701019
REMARK minimizedRMSD -1
REMARK  1 active torsions:
REMARK  status: ('A' for Active; 'I' for Inactive)
REMARK    1  A    between atoms: C1_2  and  C2_3 
ROOT
ATOM      1  C2  UNL d   1       2.178  -3.875   3.014  0.00  0.00    -0.081 A 
ATOM      2  C3  UNL d   1       2.033  -2.979   1.948  0.00  0.00     0.006 A 
ATOM      3  C4  UNL d   1       1.784  -1.626   2.190  0.00  0.00     0.002 A 
ATOM      4  C5  UNL d   1       1.684  -1.145   3.500  0.00  0.00    -0.080 A 
ATOM      5  C6  UNL d   1       1.447   0.310   3.774  0.00  0.00     0.076 C 
ATOM      6  C7  UNL d   1       1.811  -2.044   4.565  0.00  0.00     0.002 A 
ATOM      7  C8  UNL d   1       2.059  -3.397   4.324  0.00  0.00     0.006 A 
ENDROOT
BRANCH   1   8
ATOM      8  C1  UNL d   1       2.511  -5.323   2.758  0.00  0.00     0.054 C 
ATOM      9  C   UNL d   1       1.794  -5.845   1.520  0.00  0.00     0.018 C 
ENDBRANCH   1   8
TORSDOF 1
ENDMDL
