MODEL 1
REMARK minimizedAffinity 4.75152159
REMARK minimizedRMSD -1
REMARK  1 active torsions:
REMARK  status: ('A' for Active; 'I' for Inactive)
REMARK    1  A    between atoms: C1_2  and  C2_3 
ROOT
ATOM      1  C2  UNL d   1      -1.104  -4.347  -0.948  0.00  0.00    -0.081 A 
ATOM      2  C3  UNL d   1      -0.910  -4.419  -2.333  0.00  0.00     0.006 A 
ATOM      3  C4  UNL d   1       0.314  -4.842  -2.855  0.00  0.00     0.002 A 
ATOM      4  C5  UNL d   1       1.362  -5.207  -2.003  0.00  0.00    -0.080 A 
ATOM      5  C6  UNL d   1       2.671  -5.692  -2.551  0.00  0.00     0.076 C 
ATOM      6  C7  UNL d   1       1.174  -5.119  -0.620  0.00  0.00     0.002 A 
ATOM      7  C8  UNL d   1      -0.050  -4.695  -0.096  0.00  0.00     0.006 A 
ENDROOT
BRANCH   1   8
ATOM      8  C1  UNL d   1      -2.444  -3.954  -0.381  0.00  0.00     0.054 C 
ATOM      9  C   UNL d   1      -2.514  -2.457  -0.113  0.00  0.00     0.018 C 
ENDBRANCH   1   8
TORSDOF 1
ENDMDL
