MODEL 1
REMARK minimizedAffinity 4.84622145
REMARK minimizedRMSD -1
REMARK  1 active torsions:
REMARK  status: ('A' for Active; 'I' for Inactive)
REMARK    1  A    between atoms: C1_2  and  C2_3 
ROOT
ATOM      1  C2  UNL d   1      -0.956   0.881   0.613  0.00  0.00    -0.081 A 
ATOM      2  C3  UNL d   1       0.384   0.534   0.823  0.00  0.00     0.006 A 
ATOM      3  C4  UNL d   1       0.762  -0.807   0.916  0.00  0.00     0.002 A 
ATOM      4  C5  UNL d   1      -0.191  -1.824   0.794  0.00  0.00    -0.080 A 
ATOM      5  C6  UNL d   1       0.206  -3.268   0.862  0.00  0.00     0.076 C 
ATOM      6  C7  UNL d   1      -1.533  -1.477   0.602  0.00  0.00     0.002 A 
ATOM      7  C8  UNL d   1      -1.912  -0.136   0.509  0.00  0.00     0.006 A 
ENDROOT
BRANCH   1   8
ATOM      8  C1  UNL d   1      -1.357   2.325   0.448  0.00  0.00     0.054 C 
ATOM      9  C   UNL d   1      -0.138   3.232   0.370  0.00  0.00     0.018 C 
ENDBRANCH   1   8
TORSDOF 1
ENDMDL
