MODEL 1
REMARK minimizedAffinity 2.50081253
REMARK minimizedRMSD -1
REMARK  1 active torsions:
REMARK  status: ('A' for Active; 'I' for Inactive)
REMARK    1  A    between atoms: C1_2  and  C2_3 
ROOT
ATOM      1  C2  UNL d   1       1.479  -2.155   2.668  0.00  0.00    -0.081 A 
ATOM      2  C3  UNL d   1       1.897  -0.854   2.974  0.00  0.00     0.006 A 
ATOM      3  C4  UNL d   1       1.492   0.224   2.183  0.00  0.00     0.002 A 
ATOM      4  C5  UNL d   1       0.657   0.021   1.079  0.00  0.00    -0.080 A 
ATOM      5  C6  UNL d   1       0.191   1.173   0.240  0.00  0.00     0.076 C 
ATOM      6  C7  UNL d   1       0.253  -1.281   0.764  0.00  0.00     0.002 A 
ATOM      7  C8  UNL d   1       0.658  -2.359   1.553  0.00  0.00     0.006 A 
ENDROOT
BRANCH   1   8
ATOM      8  C1  UNL d   1       1.861  -3.311   3.556  0.00  0.00     0.054 C 
ATOM      9  C   UNL d   1       0.784  -3.590   4.595  0.00  0.00     0.018 C 
ENDBRANCH   1   8
TORSDOF 1
ENDMDL
