MODEL 1
REMARK minimizedAffinity 2.65110707
REMARK minimizedRMSD -1
REMARK  1 active torsions:
REMARK  status: ('A' for Active; 'I' for Inactive)
REMARK    1  A    between atoms: C1_2  and  C2_3 
ROOT
ATOM      1  C2  UNL d   1       1.977  -1.089   3.464  0.00  0.00    -0.081 A 
ATOM      2  C3  UNL d   1       2.401  -0.396   2.324  0.00  0.00     0.006 A 
ATOM      3  C4  UNL d   1       2.739   0.957   2.403  0.00  0.00     0.002 A 
ATOM      4  C5  UNL d   1       2.667   1.637   3.623  0.00  0.00    -0.080 A 
ATOM      5  C6  UNL d   1       3.057   3.082   3.728  0.00  0.00     0.076 C 
ATOM      6  C7  UNL d   1       2.227   0.949   4.759  0.00  0.00     0.002 A 
ATOM      7  C8  UNL d   1       1.888  -0.404   4.681  0.00  0.00     0.006 A 
ENDROOT
BRANCH   1   8
ATOM      8  C1  UNL d   1       1.673  -2.564   3.396  0.00  0.00     0.054 C 
ATOM      9  C   UNL d   1       2.745  -3.383   4.100  0.00  0.00     0.018 C 
ENDBRANCH   1   8
TORSDOF 1
ENDMDL
