MODEL 1
REMARK minimizedAffinity -0.256466448
REMARK minimizedRMSD -1
REMARK  1 active torsions:
REMARK  status: ('A' for Active; 'I' for Inactive)
REMARK    1  A    between atoms: C1_2  and  C2_3 
ROOT
ATOM      1  C2  UNL d   1       1.235  -1.639   1.886  0.00  0.00    -0.081 A 
ATOM      2  C3  UNL d   1       2.145  -0.579   1.977  0.00  0.00     0.006 A 
ATOM      3  C4  UNL d   1       1.843   0.664   1.416  0.00  0.00     0.002 A 
ATOM      4  C5  UNL d   1       0.623   0.870   0.764  0.00  0.00    -0.080 A 
ATOM      5  C6  UNL d   1       0.273   2.209   0.184  0.00  0.00     0.076 C 
ATOM      6  C7  UNL d   1      -0.279  -0.194   0.657  0.00  0.00     0.002 A 
ATOM      7  C8  UNL d   1       0.023  -1.437   1.217  0.00  0.00     0.006 A 
ENDROOT
BRANCH   1   8
ATOM      8  C1  UNL d   1       1.531  -2.962   2.545  0.00  0.00     0.054 C 
ATOM      9  C   UNL d   1       1.126  -2.952   4.012  0.00  0.00     0.018 C 
ENDBRANCH   1   8
TORSDOF 1
ENDMDL
