MODEL 1
REMARK minimizedAffinity -2.27464795
REMARK minimizedRMSD -1
REMARK  0 active torsions:
REMARK  status: ('A' for Active; 'I' for Inactive)
ROOT
ATOM      1  C   UNL d   1       2.832  -0.755   0.331  0.00  0.00     0.077 C 
ATOM      2  C1  UNL d   1       1.396  -0.370   0.136  0.00  0.00    -0.074 A 
ATOM      3  C2  UNL d   1       0.513  -0.317   1.219  0.00  0.00    -0.005 A 
ATOM      4  C3  UNL d   1      -0.818   0.052   1.024  0.00  0.00     0.006 A 
ATOM      5  C4  UNL d   1      -1.279   0.372  -0.253  0.00  0.00    -0.005 A 
ATOM      6  C5  UNL d   1      -0.410   0.326  -1.348  0.00  0.00    -0.074 A 
ATOM      7  C6  UNL d   1      -0.886   0.677  -2.727  0.00  0.00     0.077 C 
ATOM      8  C7  UNL d   1       0.927  -0.039  -1.143  0.00  0.00    -0.001 A 
ENDROOT
TORSDOF 0
ENDMDL
