MODEL 1
REMARK minimizedAffinity -2.82339859
REMARK minimizedRMSD -1
REMARK  0 active torsions:
REMARK  status: ('A' for Active; 'I' for Inactive)
ROOT
ATOM      1  C   UNL d   1      -1.040   3.114  -2.816  0.00  0.00     0.077 C 
ATOM      2  C1  UNL d   1      -0.686   2.342  -1.580  0.00  0.00    -0.074 A 
ATOM      3  C2  UNL d   1      -0.838   2.908  -0.310  0.00  0.00    -0.005 A 
ATOM      4  C3  UNL d   1      -0.513   2.173   0.830  0.00  0.00     0.006 A 
ATOM      5  C4  UNL d   1      -0.033   0.868   0.713  0.00  0.00    -0.005 A 
ATOM      6  C5  UNL d   1       0.125   0.286  -0.549  0.00  0.00    -0.074 A 
ATOM      7  C6  UNL d   1       0.630  -1.119  -0.692  0.00  0.00     0.077 C 
ATOM      8  C7  UNL d   1      -0.211   1.027  -1.690  0.00  0.00    -0.001 A 
ENDROOT
TORSDOF 0
ENDMDL
