MODEL 1
REMARK minimizedAffinity -0.540466726
REMARK minimizedRMSD -1
REMARK  0 active torsions:
REMARK  status: ('A' for Active; 'I' for Inactive)
ROOT
ATOM      1  C   UNL d   1      -0.669   3.016  -1.634  0.00  0.00     0.077 C 
ATOM      2  C1  UNL d   1      -0.204   1.608  -1.405  0.00  0.00    -0.074 A 
ATOM      3  C2  UNL d   1      -0.125   0.696  -2.463  0.00  0.00    -0.005 A 
ATOM      4  C3  UNL d   1       0.318  -0.607  -2.236  0.00  0.00     0.006 A 
ATOM      5  C4  UNL d   1       0.685  -1.011  -0.952  0.00  0.00    -0.005 A 
ATOM      6  C5  UNL d   1       0.613  -0.113   0.118  0.00  0.00    -0.074 A 
ATOM      7  C6  UNL d   1       1.013  -0.528   1.502  0.00  0.00     0.077 C 
ATOM      8  C7  UNL d   1       0.174   1.197  -0.119  0.00  0.00    -0.001 A 
ENDROOT
TORSDOF 0
ENDMDL
