MODEL 1
REMARK minimizedAffinity -2.15810895
REMARK minimizedRMSD -1
REMARK  0 active torsions:
REMARK  status: ('A' for Active; 'I' for Inactive)
ROOT
ATOM      1  C   UNL d   1      -5.351   1.461   5.993  0.00  0.00     0.077 C 
ATOM      2  C1  UNL d   1      -4.488   1.851   4.830  0.00  0.00    -0.074 A 
ATOM      3  C2  UNL d   1      -4.792   1.420   3.534  0.00  0.00    -0.005 A 
ATOM      4  C3  UNL d   1      -3.985   1.798   2.461  0.00  0.00     0.006 A 
ATOM      5  C4  UNL d   1      -2.869   2.609   2.671  0.00  0.00    -0.005 A 
ATOM      6  C5  UNL d   1      -2.551   3.049   3.960  0.00  0.00    -0.074 A 
ATOM      7  C6  UNL d   1      -1.361   3.929   4.202  0.00  0.00     0.077 C 
ATOM      8  C7  UNL d   1      -3.370   2.671   5.032  0.00  0.00    -0.001 A 
ENDROOT
TORSDOF 0
ENDMDL
