MODEL 1
REMARK minimizedAffinity 1.76754475
REMARK minimizedRMSD -1
REMARK  2 active torsions:
REMARK  status: ('A' for Active; 'I' for Inactive)
REMARK    1  A    between atoms: C2'_3  and  C1'_4 
REMARK    2  A    between atoms: C1'_4  and  C1_5 
ROOT
ATOM      1  C1  I4B d   1       1.789   3.437  -2.600  0.00  0.00    -0.075 A 
ATOM      2  C2  I4B d   1       1.741   2.141  -3.051  0.00  0.00     0.003 A 
ATOM      3  C3  I4B d   1       1.729   1.066  -2.130  0.00  0.00     0.002 A 
ATOM      4  C4  I4B d   1       1.818   1.329  -0.778  0.00  0.00    -0.004 A 
ATOM      5  C5  I4B d   1       1.844   2.644  -0.322  0.00  0.00     0.002 A 
ATOM      6  C6  I4B d   1       1.817   3.705  -1.238  0.00  0.00     0.003 A 
ENDROOT
BRANCH   1   7
ATOM      7  C1' I4B d   1       1.833   4.547  -3.602  0.00  0.00     0.060 C 
BRANCH   7   8
ATOM      8  C2' I4B d   1       0.665   4.368  -4.550  0.00  0.00    -0.013 C 
ATOM      9  C4' I4B d   1      -0.432   5.357  -4.256  0.00  0.00     0.013 C 
ATOM     10  C3' I4B d   1       1.176   4.526  -5.950  0.00  0.00     0.013 C 
ENDBRANCH   7   8
ENDBRANCH   1   7
TORSDOF 2
ENDMDL
