MODEL 1
REMARK minimizedAffinity -0.463487238
REMARK minimizedRMSD -1
REMARK  2 active torsions:
REMARK  status: ('A' for Active; 'I' for Inactive)
REMARK    1  A    between atoms: C2'_3  and  C1'_4 
REMARK    2  A    between atoms: C1'_4  and  C1_5 
ROOT
ATOM      1  C1  I4B d   1      -3.592  -4.059   0.427  0.00  0.00    -0.075 A 
ATOM      2  C2  I4B d   1      -2.615  -4.935   0.024  0.00  0.00     0.003 A 
ATOM      3  C3  I4B d   1      -2.095  -4.869  -1.291  0.00  0.00     0.002 A 
ATOM      4  C4  I4B d   1      -2.614  -3.950  -2.181  0.00  0.00    -0.004 A 
ATOM      5  C5  I4B d   1      -3.588  -3.047  -1.764  0.00  0.00     0.002 A 
ATOM      6  C6  I4B d   1      -4.072  -3.093  -0.449  0.00  0.00     0.003 A 
ENDROOT
BRANCH   1   7
ATOM      7  C1' I4B d   1      -4.141  -4.179   1.813  0.00  0.00     0.060 C 
BRANCH   7   8
ATOM      8  C2' I4B d   1      -4.611  -5.606   2.006  0.00  0.00    -0.013 C 
ATOM      9  C4' I4B d   1      -4.575  -6.000   3.460  0.00  0.00     0.013 C 
ATOM     10  C3' I4B d   1      -6.000  -5.716   1.451  0.00  0.00     0.013 C 
ENDBRANCH   7   8
ENDBRANCH   1   7
TORSDOF 2
ENDMDL
