MODEL 1
REMARK minimizedAffinity 11.9694386
REMARK minimizedRMSD -1
REMARK  2 active torsions:
REMARK  status: ('A' for Active; 'I' for Inactive)
REMARK    1  A    between atoms: C2'_3  and  C1'_4 
REMARK    2  A    between atoms: C1'_4  and  C1_5 
ROOT
ATOM      1  C1  I4B d   1      -5.926  -2.503  -4.284  0.00  0.00    -0.075 A 
ATOM      2  C2  I4B d   1      -5.927  -2.126  -5.604  0.00  0.00     0.003 A 
ATOM      3  C3  I4B d   1      -5.889  -0.754  -5.953  0.00  0.00     0.002 A 
ATOM      4  C4  I4B d   1      -5.903   0.201  -4.958  0.00  0.00    -0.004 A 
ATOM      5  C5  I4B d   1      -5.879  -0.183  -3.620  0.00  0.00     0.002 A 
ATOM      6  C6  I4B d   1      -5.878  -1.544  -3.281  0.00  0.00     0.003 A 
ENDROOT
BRANCH   1   7
ATOM      7  C1' I4B d   1      -6.000  -3.959  -3.951  0.00  0.00     0.060 C 
BRANCH   7   8
ATOM      8  C2' I4B d   1      -5.041  -4.696  -4.864  0.00  0.00    -0.013 C 
ATOM      9  C4' I4B d   1      -4.009  -5.456  -4.072  0.00  0.00     0.013 C 
ATOM     10  C3' I4B d   1      -5.844  -5.618  -5.732  0.00  0.00     0.013 C 
ENDBRANCH   7   8
ENDBRANCH   1   7
TORSDOF 2
ENDMDL
