MODEL 1
REMARK minimizedAffinity 5.16123533
REMARK minimizedRMSD -1
REMARK  2 active torsions:
REMARK  status: ('A' for Active; 'I' for Inactive)
REMARK    1  A    between atoms: C2'_3  and  C1'_4 
REMARK    2  A    between atoms: C1'_4  and  C1_5 
ROOT
ATOM      1  C1  I4B d   1      -5.953   0.855  -2.993  0.00  0.00    -0.075 A 
ATOM      2  C2  I4B d   1      -5.912  -0.451  -3.415  0.00  0.00     0.003 A 
ATOM      3  C3  I4B d   1      -5.901  -0.753  -4.798  0.00  0.00     0.002 A 
ATOM      4  C4  I4B d   1      -5.982   0.272  -5.719  0.00  0.00    -0.004 A 
ATOM      5  C5  I4B d   1      -5.999   1.596  -5.289  0.00  0.00     0.002 A 
ATOM      6  C6  I4B d   1      -5.972   1.890  -3.918  0.00  0.00     0.003 A 
ENDROOT
BRANCH   1   7
ATOM      7  C1' I4B d   1      -5.997   1.136  -1.525  0.00  0.00     0.060 C 
BRANCH   7   8
ATOM      8  C2' I4B d   1      -5.510   2.555  -1.307  0.00  0.00    -0.013 C 
ATOM      9  C4' I4B d   1      -5.998   3.472  -2.397  0.00  0.00     0.013 C 
ATOM     10  C3' I4B d   1      -5.994   3.008   0.039  0.00  0.00     0.013 C 
ENDBRANCH   7   8
ENDBRANCH   1   7
TORSDOF 2
ENDMDL
