MODEL 1
REMARK minimizedAffinity 2.01836061
REMARK minimizedRMSD -1
REMARK  2 active torsions:
REMARK  status: ('A' for Active; 'I' for Inactive)
REMARK    1  A    between atoms: C2'_3  and  C1'_4 
REMARK    2  A    between atoms: C1'_4  and  C1_5 
ROOT
ATOM      1  C1  I4B d   1      -2.575  -0.899   3.402  0.00  0.00    -0.075 A 
ATOM      2  C2  I4B d   1      -2.744  -1.533   2.197  0.00  0.00     0.003 A 
ATOM      3  C3  I4B d   1      -3.993  -2.113   1.865  0.00  0.00     0.002 A 
ATOM      4  C4  I4B d   1      -5.022  -2.080   2.783  0.00  0.00    -0.004 A 
ATOM      5  C5  I4B d   1      -4.857  -1.417   3.995  0.00  0.00     0.002 A 
ATOM      6  C6  I4B d   1      -3.629  -0.812   4.303  0.00  0.00     0.003 A 
ENDROOT
BRANCH   1   7
ATOM      7  C1' I4B d   1      -1.234  -0.326   3.734  0.00  0.00     0.060 C 
BRANCH   7   8
ATOM      8  C2' I4B d   1      -0.287  -1.478   4.002  0.00  0.00    -0.013 C 
ATOM      9  C4' I4B d   1       0.558  -1.782   2.793  0.00  0.00     0.013 C 
ATOM     10  C3' I4B d   1       0.565  -1.113   5.180  0.00  0.00     0.013 C 
ENDBRANCH   7   8
ENDBRANCH   1   7
TORSDOF 2
ENDMDL
