MODEL 1
REMARK minimizedAffinity 11.3582735
REMARK minimizedRMSD -1
REMARK  2 active torsions:
REMARK  status: ('A' for Active; 'I' for Inactive)
REMARK    1  A    between atoms: C2'_3  and  C1'_4 
REMARK    2  A    between atoms: C1'_4  and  C1_5 
ROOT
ATOM      1  C1  I4B d   1      -5.872   1.122  -2.476  0.00  0.00    -0.075 A 
ATOM      2  C2  I4B d   1      -5.976  -0.112  -1.884  0.00  0.00     0.003 A 
ATOM      3  C3  I4B d   1      -5.881  -0.238  -0.477  0.00  0.00     0.002 A 
ATOM      4  C4  I4B d   1      -5.634   0.882   0.290  0.00  0.00    -0.004 A 
ATOM      5  C5  I4B d   1      -5.552   2.135  -0.309  0.00  0.00     0.002 A 
ATOM      6  C6  I4B d   1      -5.683   2.259  -1.700  0.00  0.00     0.003 A 
ENDROOT
BRANCH   1   7
ATOM      7  C1' I4B d   1      -5.943   1.215  -3.967  0.00  0.00     0.060 C 
BRANCH   7   8
ATOM      8  C2' I4B d   1      -5.836  -0.189  -4.528  0.00  0.00    -0.013 C 
ATOM      9  C4' I4B d   1      -5.511  -0.165  -5.998  0.00  0.00     0.013 C 
ATOM     10  C3' I4B d   1      -4.780  -0.918  -3.752  0.00  0.00     0.013 C 
ENDBRANCH   7   8
ENDBRANCH   1   7
TORSDOF 2
ENDMDL
