MODEL 1
REMARK minimizedAffinity 10.5784636
REMARK minimizedRMSD -1
REMARK  2 active torsions:
REMARK  status: ('A' for Active; 'I' for Inactive)
REMARK    1  A    between atoms: C2'_3  and  C1'_4 
REMARK    2  A    between atoms: C1'_4  and  C1_5 
ROOT
ATOM      1  C1  I4B d   1      -5.409   0.728  -3.484  0.00  0.00    -0.075 A 
ATOM      2  C2  I4B d   1      -5.559   2.089  -3.572  0.00  0.00     0.003 A 
ATOM      3  C3  I4B d   1      -5.823   2.854  -2.410  0.00  0.00     0.002 A 
ATOM      4  C4  I4B d   1      -5.979   2.214  -1.197  0.00  0.00    -0.004 A 
ATOM      5  C5  I4B d   1      -5.803   0.836  -1.106  0.00  0.00     0.002 A 
ATOM      6  C6  I4B d   1      -5.505   0.089  -2.255  0.00  0.00     0.003 A 
ENDROOT
BRANCH   1   7
ATOM      7  C1' I4B d   1      -5.163  -0.052  -4.737  0.00  0.00     0.060 C 
BRANCH   7   8
ATOM      8  C2' I4B d   1      -5.948  -1.345  -4.644  0.00  0.00    -0.013 C 
ATOM      9  C4' I4B d   1      -5.981  -2.060  -5.969  0.00  0.00     0.013 C 
ATOM     10  C3' I4B d   1      -5.315  -2.196  -3.584  0.00  0.00     0.013 C 
ENDBRANCH   7   8
ENDBRANCH   1   7
TORSDOF 2
ENDMDL
