MODEL 1
REMARK minimizedAffinity 3.72058535
REMARK minimizedRMSD -1
REMARK  2 active torsions:
REMARK  status: ('A' for Active; 'I' for Inactive)
REMARK    1  A    between atoms: C2'_3  and  C1'_4 
REMARK    2  A    between atoms: C1'_4  and  C1_5 
ROOT
ATOM      1  C1  I4B d   1       2.074   3.671  -3.440  0.00  0.00    -0.075 A 
ATOM      2  C2  I4B d   1       3.414   3.462  -3.656  0.00  0.00     0.003 A 
ATOM      3  C3  I4B d   1       4.067   2.354  -3.064  0.00  0.00     0.002 A 
ATOM      4  C4  I4B d   1       3.359   1.514  -2.229  0.00  0.00    -0.004 A 
ATOM      5  C5  I4B d   1       1.996   1.714  -2.030  0.00  0.00     0.002 A 
ATOM      6  C6  I4B d   1       1.346   2.792  -2.649  0.00  0.00     0.003 A 
ENDROOT
BRANCH   1   7
ATOM      7  C1' I4B d   1       1.424   4.870  -4.054  0.00  0.00     0.060 C 
BRANCH   7   8
ATOM      8  C2' I4B d   1       0.095   4.433  -4.637  0.00  0.00    -0.013 C 
ATOM      9  C4' I4B d   1      -0.865   5.589  -4.733  0.00  0.00     0.013 C 
ATOM     10  C3' I4B d   1       0.356   3.832  -5.986  0.00  0.00     0.013 C 
ENDBRANCH   7   8
ENDBRANCH   1   7
TORSDOF 2
ENDMDL
