MODEL 1
REMARK minimizedAffinity -3.47773051
REMARK minimizedRMSD -1
REMARK  0 active torsions:
REMARK  status: ('A' for Active; 'I' for Inactive)
ROOT
ATOM      1  C   UNL d   1       2.776  -2.008  -2.001  0.00  0.00    -0.002 A 
ATOM      2  C1  UNL d   1       1.950  -2.908  -1.342  0.00  0.00     0.010 A 
ATOM      3  C2  UNL d   1       0.892  -2.453  -0.552  0.00  0.00     0.041 A 
ATOM      4  C3  UNL d   1       0.675  -1.066  -0.436  0.00  0.00    -0.075 A 
ATOM      5  S   UNL d   1      -0.559  -0.280   0.476  0.00  0.00     0.015 SA
ATOM      6  C4  UNL d   1      -0.019   1.269   0.011  0.00  0.00     0.022 A 
ATOM      7  C5  UNL d   1       1.075   1.206  -0.818  0.00  0.00     0.026 A 
ATOM      8  C6  UNL d   1       1.493  -0.141  -1.090  0.00  0.00    -0.082 A 
ATOM      9  C7  UNL d   1       2.557  -0.633  -1.883  0.00  0.00     0.045 A 
ENDROOT
TORSDOF 0
ENDMDL
