MODEL 1
REMARK minimizedAffinity 4.23722363
REMARK minimizedRMSD -1
REMARK  0 active torsions:
REMARK  status: ('A' for Active; 'I' for Inactive)
ROOT
ATOM      1  C   UNL d   1      -0.918  -0.527   1.565  0.00  0.00    -0.002 A 
ATOM      2  C1  UNL d   1      -0.710  -1.531   0.630  0.00  0.00     0.010 A 
ATOM      3  C2  UNL d   1       0.206  -1.356  -0.409  0.00  0.00     0.041 A 
ATOM      4  C3  UNL d   1       0.918  -0.143  -0.492  0.00  0.00    -0.075 A 
ATOM      5  S   UNL d   1       2.091   0.294  -1.677  0.00  0.00     0.015 SA
ATOM      6  C4  UNL d   1       2.345   1.824  -0.970  0.00  0.00     0.022 A 
ATOM      7  C5  UNL d   1       1.561   2.013   0.144  0.00  0.00     0.026 A 
ATOM      8  C6  UNL d   1       0.727   0.882   0.439  0.00  0.00    -0.082 A 
ATOM      9  C7  UNL d   1      -0.210   0.674   1.480  0.00  0.00     0.045 A 
ENDROOT
TORSDOF 0
ENDMDL
