MODEL 1
REMARK minimizedAffinity 0.402554274
REMARK minimizedRMSD -1
REMARK  0 active torsions:
REMARK  status: ('A' for Active; 'I' for Inactive)
ROOT
ATOM      1  C   UNL d   1       2.151   1.046  -1.282  0.00  0.00    -0.002 A 
ATOM      2  C1  UNL d   1       2.128  -0.286  -1.669  0.00  0.00     0.010 A 
ATOM      3  C2  UNL d   1       1.077  -1.120  -1.283  0.00  0.00     0.041 A 
ATOM      4  C3  UNL d   1       0.038  -0.587  -0.495  0.00  0.00    -0.075 A 
ATOM      5  S   UNL d   1      -1.352  -1.420   0.094  0.00  0.00     0.015 SA
ATOM      6  C4  UNL d   1      -1.949  -0.026   0.873  0.00  0.00     0.022 A 
ATOM      7  C5  UNL d   1      -1.121   1.057   0.698  0.00  0.00     0.026 A 
ATOM      8  C6  UNL d   1       0.038   0.752  -0.094  0.00  0.00    -0.082 A 
ATOM      9  C7  UNL d   1       1.118   1.571  -0.501  0.00  0.00     0.045 A 
ENDROOT
TORSDOF 0
ENDMDL
