MODEL 1
REMARK minimizedAffinity -0.346724093
REMARK minimizedRMSD -1
REMARK  0 active torsions:
REMARK  status: ('A' for Active; 'I' for Inactive)
ROOT
ATOM      1  C   UNL d   1      -2.641   0.530   2.764  0.00  0.00    -0.002 A 
ATOM      2  C1  UNL d   1      -3.442   0.246   1.667  0.00  0.00     0.010 A 
ATOM      3  C2  UNL d   1      -2.899   0.210   0.381  0.00  0.00     0.041 A 
ATOM      4  C3  UNL d   1      -1.523   0.464   0.215  0.00  0.00    -0.075 A 
ATOM      5  S   UNL d   1      -0.639   0.472  -1.265  0.00  0.00     0.015 SA
ATOM      6  C4  UNL d   1       0.824   0.851  -0.476  0.00  0.00     0.022 A 
ATOM      7  C5  UNL d   1       0.659   0.973   0.883  0.00  0.00     0.026 A 
ATOM      8  C6  UNL d   1      -0.695   0.751   1.304  0.00  0.00    -0.082 A 
ATOM      9  C7  UNL d   1      -1.276   0.782   2.595  0.00  0.00     0.045 A 
ENDROOT
TORSDOF 0
ENDMDL
