MODEL 1
REMARK minimizedAffinity -4.57139349
REMARK minimizedRMSD -1
REMARK  0 active torsions:
REMARK  status: ('A' for Active; 'I' for Inactive)
ROOT
ATOM      1  C   UNL d   1       2.235  -0.096  -3.020  0.00  0.00    -0.002 A 
ATOM      2  C1  UNL d   1       1.874  -1.424  -2.838  0.00  0.00     0.010 A 
ATOM      3  C2  UNL d   1       1.201  -1.824  -1.682  0.00  0.00     0.041 A 
ATOM      4  C3  UNL d   1       0.893  -0.859  -0.703  0.00  0.00    -0.075 A 
ATOM      5  S   UNL d   1       0.074  -1.118   0.791  0.00  0.00     0.015 SA
ATOM      6  C4  UNL d   1       0.184   0.527   1.223  0.00  0.00     0.022 A 
ATOM      7  C5  UNL d   1       0.827   1.270   0.262  0.00  0.00     0.026 A 
ATOM      8  C6  UNL d   1       1.246   0.484  -0.865  0.00  0.00    -0.082 A 
ATOM      9  C7  UNL d   1       1.928   0.858  -2.047  0.00  0.00     0.045 A 
ENDROOT
TORSDOF 0
ENDMDL
