MODEL 1
REMARK minimizedAffinity -1.76168847
REMARK minimizedRMSD -1
REMARK  0 active torsions:
REMARK  status: ('A' for Active; 'I' for Inactive)
ROOT
ATOM      1  C   UNL d   1       2.961  -2.278  -1.905  0.00  0.00    -0.002 A 
ATOM      2  C1  UNL d   1       2.033  -2.984  -1.154  0.00  0.00     0.010 A 
ATOM      3  C2  UNL d   1       1.040  -2.311  -0.437  0.00  0.00     0.041 A 
ATOM      4  C3  UNL d   1       0.995  -0.904  -0.492  0.00  0.00    -0.075 A 
ATOM      5  S   UNL d   1      -0.131   0.131   0.303  0.00  0.00     0.015 SA
ATOM      6  C4  UNL d   1       0.593   1.534  -0.338  0.00  0.00     0.022 A 
ATOM      7  C5  UNL d   1       1.670   1.239  -1.140  0.00  0.00     0.026 A 
ATOM      8  C6  UNL d   1       1.919  -0.172  -1.243  0.00  0.00    -0.082 A 
ATOM      9  C7  UNL d   1       2.913  -0.882  -1.957  0.00  0.00     0.045 A 
ENDROOT
TORSDOF 0
ENDMDL
