MODEL 1
REMARK minimizedAffinity -0.153035402
REMARK minimizedRMSD -1
REMARK  0 active torsions:
REMARK  status: ('A' for Active; 'I' for Inactive)
ROOT
ATOM      1  C   UNL d   1       1.481   0.546  -0.230  0.00  0.00    -0.002 A 
ATOM      2  C1  UNL d   1       0.660   0.393  -1.338  0.00  0.00     0.010 A 
ATOM      3  C2  UNL d   1      -0.726   0.317  -1.190  0.00  0.00     0.041 A 
ATOM      4  C3  UNL d   1      -1.279   0.399   0.103  0.00  0.00    -0.075 A 
ATOM      5  S   UNL d   1      -2.949   0.331   0.526  0.00  0.00     0.015 SA
ATOM      6  C4  UNL d   1      -2.612   0.503   2.188  0.00  0.00     0.022 A 
ATOM      7  C5  UNL d   1      -1.263   0.611   2.432  0.00  0.00     0.026 A 
ATOM      8  C6  UNL d   1      -0.473   0.554   1.235  0.00  0.00    -0.082 A 
ATOM      9  C7  UNL d   1       0.929   0.627   1.051  0.00  0.00     0.045 A 
ENDROOT
TORSDOF 0
ENDMDL
