MODEL 1
REMARK minimizedAffinity 1.76836038
REMARK minimizedRMSD -1
REMARK  0 active torsions:
REMARK  status: ('A' for Active; 'I' for Inactive)
ROOT
ATOM      1  C   UNL d   1       2.041   1.487  -0.532  0.00  0.00    -0.002 A 
ATOM      2  C1  UNL d   1       1.160   1.652   0.527  0.00  0.00     0.010 A 
ATOM      3  C2  UNL d   1       0.391   0.580   0.985  0.00  0.00     0.041 A 
ATOM      4  C3  UNL d   1       0.525  -0.673   0.355  0.00  0.00    -0.075 A 
ATOM      5  S   UNL d   1      -0.314  -2.128   0.746  0.00  0.00     0.015 SA
ATOM      6  C4  UNL d   1       0.479  -3.003  -0.483  0.00  0.00     0.022 A 
ATOM      7  C5  UNL d   1       1.364  -2.220  -1.185  0.00  0.00     0.026 A 
ATOM      8  C6  UNL d   1       1.406  -0.864  -0.713  0.00  0.00    -0.082 A 
ATOM      9  C7  UNL d   1       2.171   0.242  -1.155  0.00  0.00     0.045 A 
ENDROOT
TORSDOF 0
ENDMDL
