MODEL 1
REMARK minimizedAffinity -2.92439795
REMARK minimizedRMSD -1
REMARK  0 active torsions:
REMARK  status: ('A' for Active; 'I' for Inactive)
ROOT
ATOM      1  C   UNL d   1       2.168   1.336  -1.333  0.00  0.00    -0.002 A 
ATOM      2  C1  UNL d   1       1.594   0.577  -2.343  0.00  0.00     0.010 A 
ATOM      3  C2  UNL d   1       0.455  -0.191  -2.094  0.00  0.00     0.041 A 
ATOM      4  C3  UNL d   1      -0.105  -0.182  -0.801  0.00  0.00    -0.075 A 
ATOM      5  S   UNL d   1      -1.498  -1.044  -0.266  0.00  0.00     0.015 SA
ATOM      6  C4  UNL d   1      -1.366  -0.424   1.316  0.00  0.00     0.022 A 
ATOM      7  C5  UNL d   1      -0.290   0.422   1.450  0.00  0.00     0.026 A 
ATOM      8  C6  UNL d   1       0.454   0.575   0.232  0.00  0.00    -0.082 A 
ATOM      9  C7  UNL d   1       1.610   1.343  -0.051  0.00  0.00     0.045 A 
ENDROOT
TORSDOF 0
ENDMDL
