MODEL 1
REMARK minimizedAffinity 2.75868607
REMARK minimizedRMSD -1
REMARK  0 active torsions:
REMARK  status: ('A' for Active; 'I' for Inactive)
ROOT
ATOM      1  C   UNL d   1      -3.299   1.021   2.108  0.00  0.00    -0.002 A 
ATOM      2  C1  UNL d   1      -3.622  -0.162   1.459  0.00  0.00     0.010 A 
ATOM      3  C2  UNL d   1      -2.678  -0.816   0.665  0.00  0.00     0.041 A 
ATOM      4  C3  UNL d   1      -1.391  -0.258   0.535  0.00  0.00    -0.075 A 
ATOM      5  S   UNL d   1      -0.074  -0.885  -0.384  0.00  0.00     0.015 SA
ATOM      6  C4  UNL d   1       0.949   0.403   0.065  0.00  0.00     0.022 A 
ATOM      7  C5  UNL d   1       0.317   1.298   0.895  0.00  0.00     0.026 A 
ATOM      8  C6  UNL d   1      -1.042   0.932   1.180  0.00  0.00    -0.082 A 
ATOM      9  C7  UNL d   1      -2.021   1.572   1.977  0.00  0.00     0.045 A 
ENDROOT
TORSDOF 0
ENDMDL
