MODEL 1
REMARK minimizedAffinity -1.70437586
REMARK minimizedRMSD -1
REMARK  0 active torsions:
REMARK  status: ('A' for Active; 'I' for Inactive)
ROOT
ATOM      1  C   UNL d   1      -2.682   0.743   3.020  0.00  0.00    -0.002 A 
ATOM      2  C1  UNL d   1      -3.552   0.347   2.015  0.00  0.00     0.010 A 
ATOM      3  C2  UNL d   1      -3.064  -0.048   0.768  0.00  0.00     0.041 A 
ATOM      4  C3  UNL d   1      -1.673  -0.038   0.546  0.00  0.00    -0.075 A 
ATOM      5  S   UNL d   1      -0.848  -0.481  -0.901  0.00  0.00     0.015 SA
ATOM      6  C4  UNL d   1       0.680  -0.156  -0.219  0.00  0.00     0.022 A 
ATOM      7  C5  UNL d   1       0.581   0.282   1.081  0.00  0.00     0.026 A 
ATOM      8  C6  UNL d   1      -0.776   0.356   1.543  0.00  0.00    -0.082 A 
ATOM      9  C7  UNL d   1      -1.302   0.751   2.797  0.00  0.00     0.045 A 
ENDROOT
TORSDOF 0
ENDMDL
