MODEL 1
REMARK minimizedAffinity -1.76483774
REMARK minimizedRMSD -1
REMARK  0 active torsions:
REMARK  status: ('A' for Active; 'I' for Inactive)
ROOT
ATOM      1  C   UNL d   1      -2.997  -0.333   2.278  0.00  0.00    -0.002 A 
ATOM      2  C1  UNL d   1      -3.686   0.466   1.376  0.00  0.00     0.010 A 
ATOM      3  C2  UNL d   1      -3.020   1.063   0.304  0.00  0.00     0.041 A 
ATOM      4  C3  UNL d   1      -1.637   0.841   0.151  0.00  0.00    -0.075 A 
ATOM      5  S   UNL d   1      -0.614   1.469  -1.086  0.00  0.00     0.015 SA
ATOM      6  C4  UNL d   1       0.761   0.691  -0.447  0.00  0.00     0.022 A 
ATOM      7  C5  UNL d   1       0.465  -0.034   0.682  0.00  0.00     0.026 A 
ATOM      8  C6  UNL d   1      -0.922   0.040   1.046  0.00  0.00    -0.082 A 
ATOM      9  C7  UNL d   1      -1.625  -0.551   2.123  0.00  0.00     0.045 A 
ENDROOT
TORSDOF 0
ENDMDL
