MODEL 1
REMARK minimizedAffinity 0.613980651
REMARK minimizedRMSD -1
REMARK  0 active torsions:
REMARK  status: ('A' for Active; 'I' for Inactive)
ROOT
ATOM      1  C   UNL d   1       1.365   0.776  -1.507  0.00  0.00    -0.002 A 
ATOM      2  C1  UNL d   1       1.342  -0.574  -1.828  0.00  0.00     0.010 A 
ATOM      3  C2  UNL d   1       0.588  -1.472  -1.070  0.00  0.00     0.041 A 
ATOM      4  C3  UNL d   1      -0.151  -0.985   0.026  0.00  0.00    -0.075 A 
ATOM      5  S   UNL d   1      -1.147  -1.899   1.097  0.00  0.00     0.015 SA
ATOM      6  C4  UNL d   1      -1.566  -0.519   2.005  0.00  0.00     0.022 A 
ATOM      7  C5  UNL d   1      -0.970   0.620   1.518  0.00  0.00     0.026 A 
ATOM      8  C6  UNL d   1      -0.145   0.370   0.369  0.00  0.00    -0.082 A 
ATOM      9  C7  UNL d   1       0.630   1.255  -0.419  0.00  0.00     0.045 A 
ENDROOT
TORSDOF 0
ENDMDL
