MODEL 1
REMARK minimizedAffinity -0.655351281
REMARK minimizedRMSD -1
REMARK  0 active torsions:
REMARK  status: ('A' for Active; 'I' for Inactive)
ROOT
ATOM      1  C   UNL d   1      -0.438  -1.967   1.236  0.00  0.00    -0.002 A 
ATOM      2  C1  UNL d   1       0.404  -2.813   0.527  0.00  0.00     0.010 A 
ATOM      3  C2  UNL d   1       1.351  -2.294  -0.357  0.00  0.00     0.041 A 
ATOM      4  C3  UNL d   1       1.440  -0.897  -0.518  0.00  0.00    -0.075 A 
ATOM      5  S   UNL d   1       2.525  -0.036  -1.545  0.00  0.00     0.015 SA
ATOM      6  C4  UNL d   1       1.897   1.474  -1.067  0.00  0.00     0.022 A 
ATOM      7  C5  UNL d   1       0.883   1.344  -0.147  0.00  0.00     0.026 A 
ATOM      8  C6  UNL d   1       0.604  -0.025   0.185  0.00  0.00    -0.082 A 
ATOM      9  C7  UNL d   1      -0.347  -0.582   1.073  0.00  0.00     0.045 A 
ENDROOT
TORSDOF 0
ENDMDL
