MODEL 1
REMARK minimizedAffinity -0.370862305
REMARK minimizedRMSD -1
REMARK  0 active torsions:
REMARK  status: ('A' for Active; 'I' for Inactive)
ROOT
ATOM      1  C   UNL d   1       1.968   1.734  -0.773  0.00  0.00    -0.002 A 
ATOM      2  C1  UNL d   1       1.126   1.907   0.316  0.00  0.00     0.010 A 
ATOM      3  C2  UNL d   1       0.477   0.813   0.893  0.00  0.00     0.041 A 
ATOM      4  C3  UNL d   1       0.692  -0.470   0.352  0.00  0.00    -0.075 A 
ATOM      5  S   UNL d   1       0.004  -1.955   0.895  0.00  0.00     0.015 SA
ATOM      6  C4  UNL d   1       0.813  -2.854  -0.306  0.00  0.00     0.022 A 
ATOM      7  C5  UNL d   1       1.592  -2.057  -1.110  0.00  0.00     0.026 A 
ATOM      8  C6  UNL d   1       1.536  -0.670  -0.744  0.00  0.00    -0.082 A 
ATOM      9  C7  UNL d   1       2.179   0.459  -1.307  0.00  0.00     0.045 A 
ENDROOT
TORSDOF 0
ENDMDL
