MODEL 1
REMARK minimizedAffinity 1.0940336
REMARK minimizedRMSD -1
REMARK  2 active torsions:
REMARK  status: ('A' for Active; 'I' for Inactive)
REMARK    1  A    between atoms: C1_2  and  C2_3 
REMARK    2  A    between atoms: C2_3  and  C3_4 
ROOT
ATOM      1  C3  UNL d   1       0.602   0.370  -1.197  0.00  0.00    -0.075 A 
ATOM      2  C4  UNL d   1      -0.304  -0.699  -1.129  0.00  0.00     0.002 A 
ATOM      3  C5  UNL d   1      -1.169  -0.826  -0.041  0.00  0.00     0.002 A 
ATOM      4  C6  UNL d   1      -1.132   0.105   0.994  0.00  0.00    -0.004 A 
ATOM      5  C7  UNL d   1      -0.225   1.161   0.945  0.00  0.00     0.002 A 
ATOM      6  C8  UNL d   1       0.638   1.294  -0.144  0.00  0.00     0.002 A 
ENDROOT
BRANCH   1   7
ATOM      7  C2  UNL d   1       1.520   0.530  -2.385  0.00  0.00     0.056 C 
BRANCH   7   8
ATOM      8  C1  UNL d   1       0.847   1.152  -3.614  0.00  0.00     0.007 C 
ATOM      9  C   UNL d   1       1.136   0.396  -4.904  0.00  0.00     0.009 C 
ENDBRANCH   7   8
ENDBRANCH   1   7
TORSDOF 2
ENDMDL
