MODEL 1
REMARK minimizedAffinity -4.90962982
REMARK minimizedRMSD -1
REMARK  2 active torsions:
REMARK  status: ('A' for Active; 'I' for Inactive)
REMARK    1  A    between atoms: C1_2  and  C2_3 
REMARK    2  A    between atoms: C2_3  and  C3_4 
ROOT
ATOM      1  C3  UNL d   1       0.038  -0.391  -0.087  0.00  0.00    -0.075 A 
ATOM      2  C4  UNL d   1      -1.310  -0.770   0.000  0.00  0.00     0.002 A 
ATOM      3  C5  UNL d   1      -2.160  -0.155   0.919  0.00  0.00     0.002 A 
ATOM      4  C6  UNL d   1      -1.674   0.836   1.768  0.00  0.00    -0.004 A 
ATOM      5  C7  UNL d   1      -0.333   1.209   1.702  0.00  0.00     0.002 A 
ATOM      6  C8  UNL d   1       0.519   0.598   0.780  0.00  0.00     0.002 A 
ENDROOT
BRANCH   1   7
ATOM      7  C2  UNL d   1       0.957  -1.032  -1.099  0.00  0.00     0.056 C 
BRANCH   7   8
ATOM      8  C1  UNL d   1       0.547  -0.788  -2.556  0.00  0.00     0.007 C 
ATOM      9  C   UNL d   1       1.223   0.428  -3.174  0.00  0.00     0.009 C 
ENDBRANCH   7   8
ENDBRANCH   1   7
TORSDOF 2
ENDMDL
