MODEL 1
REMARK minimizedAffinity -4.83961821
REMARK minimizedRMSD -1
REMARK  2 active torsions:
REMARK  status: ('A' for Active; 'I' for Inactive)
REMARK    1  A    between atoms: C1_2  and  C2_3 
REMARK    2  A    between atoms: C2_3  and  C3_4 
ROOT
ATOM      1  C3  UNL d   1      -0.003  -0.034   0.271  0.00  0.00    -0.075 A 
ATOM      2  C4  UNL d   1       0.938   0.751   0.953  0.00  0.00     0.002 A 
ATOM      3  C5  UNL d   1       0.586   1.419   2.126  0.00  0.00     0.002 A 
ATOM      4  C6  UNL d   1      -0.711   1.319   2.626  0.00  0.00    -0.004 A 
ATOM      5  C7  UNL d   1      -1.658   0.555   1.948  0.00  0.00     0.002 A 
ATOM      6  C8  UNL d   1      -1.307  -0.118   0.776  0.00  0.00     0.002 A 
ENDROOT
BRANCH   1   7
ATOM      7  C2  UNL d   1       0.380  -0.783  -0.983  0.00  0.00     0.056 C 
BRANCH   7   8
ATOM      8  C1  UNL d   1       1.277   0.014  -1.936  0.00  0.00     0.007 C 
ATOM      9  C   UNL d   1       0.815  -0.046  -3.386  0.00  0.00     0.009 C 
ENDBRANCH   7   8
ENDBRANCH   1   7
TORSDOF 2
ENDMDL
