MODEL 1
REMARK minimizedAffinity -2.38645816
REMARK minimizedRMSD -1
REMARK  2 active torsions:
REMARK  status: ('A' for Active; 'I' for Inactive)
REMARK    1  A    between atoms: C1_2  and  C2_3 
REMARK    2  A    between atoms: C2_3  and  C3_4 
ROOT
ATOM      1  C3  UNL d   1      -0.522   0.451   0.302  0.00  0.00    -0.075 A 
ATOM      2  C4  UNL d   1      -1.351   0.068   1.366  0.00  0.00     0.002 A 
ATOM      3  C5  UNL d   1      -1.588   0.940   2.428  0.00  0.00     0.002 A 
ATOM      4  C6  UNL d   1      -0.994   2.200   2.446  0.00  0.00    -0.004 A 
ATOM      5  C7  UNL d   1      -0.155   2.585   1.402  0.00  0.00     0.002 A 
ATOM      6  C8  UNL d   1       0.081   1.716   0.335  0.00  0.00     0.002 A 
ENDROOT
BRANCH   1   7
ATOM      7  C2  UNL d   1      -0.284  -0.477  -0.865  0.00  0.00     0.056 C 
BRANCH   7   8
ATOM      8  C1  UNL d   1       1.029  -0.218  -1.611  0.00  0.00     0.007 C 
ATOM      9  C   UNL d   1       0.834   0.032  -3.101  0.00  0.00     0.009 C 
ENDBRANCH   7   8
ENDBRANCH   1   7
TORSDOF 2
ENDMDL
