MODEL 1
REMARK minimizedAffinity -2.21145916
REMARK minimizedRMSD -1
REMARK  0 active torsions:
REMARK  status: ('A' for Active; 'I' for Inactive)
ROOT
ATOM      1  C   UNL d   1      -2.957  -0.317   0.347  0.00  0.00     0.078 C 
ATOM      2  C1  UNL d   1      -1.460  -0.240   0.311  0.00  0.00    -0.077 A 
ATOM      3  C2  UNL d   1      -0.793   0.316  -0.787  0.00  0.00    -0.001 A 
ATOM      4  C3  UNL d   1       0.602   0.373  -0.812  0.00  0.00     0.003 A 
ATOM      5  C4  UNL d   1       1.341  -0.126   0.259  0.00  0.00    -0.005 A 
ATOM      6  C5  UNL d   1       0.686  -0.683   1.355  0.00  0.00     0.003 A 
ATOM      7  C6  UNL d   1      -0.708  -0.741   1.381  0.00  0.00    -0.001 A 
ENDROOT
TORSDOF 0
ENDMDL
