MODEL 1
REMARK minimizedAffinity -3.35082603
REMARK minimizedRMSD -1
REMARK  0 active torsions:
REMARK  status: ('A' for Active; 'I' for Inactive)
ROOT
ATOM      1  C   UNL d   1       0.794   0.055  -0.589  0.00  0.00     0.078 C 
ATOM      2  C1  UNL d   1       1.730   0.988   0.119  0.00  0.00    -0.077 A 
ATOM      3  C2  UNL d   1       2.684   1.728  -0.590  0.00  0.00    -0.001 A 
ATOM      4  C3  UNL d   1       3.556   2.586   0.084  0.00  0.00     0.003 A 
ATOM      5  C4  UNL d   1       3.482   2.710   1.470  0.00  0.00    -0.005 A 
ATOM      6  C5  UNL d   1       2.537   1.976   2.184  0.00  0.00     0.003 A 
ATOM      7  C6  UNL d   1       1.665   1.118   1.512  0.00  0.00    -0.001 A 
ENDROOT
TORSDOF 0
ENDMDL
