MODEL 1
REMARK minimizedAffinity -4.9970274
REMARK minimizedRMSD -1
REMARK  0 active torsions:
REMARK  status: ('A' for Active; 'I' for Inactive)
ROOT
ATOM      1  C   UNL d   1      -2.946  -0.186   0.217  0.00  0.00     0.078 C 
ATOM      2  C1  UNL d   1      -1.452  -0.147   0.095  0.00  0.00    -0.077 A 
ATOM      3  C2  UNL d   1      -0.836   0.303  -1.080  0.00  0.00    -0.001 A 
ATOM      4  C3  UNL d   1       0.555   0.325  -1.183  0.00  0.00     0.003 A 
ATOM      5  C4  UNL d   1       1.343  -0.102  -0.116  0.00  0.00    -0.005 A 
ATOM      6  C5  UNL d   1       0.739  -0.554   1.056  0.00  0.00     0.003 A 
ATOM      7  C6  UNL d   1      -0.653  -0.576   1.161  0.00  0.00    -0.001 A 
ENDROOT
TORSDOF 0
ENDMDL
