MODEL 1
REMARK minimizedAffinity -3.68633938
REMARK minimizedRMSD -1
REMARK  0 active torsions:
REMARK  status: ('A' for Active; 'I' for Inactive)
ROOT
ATOM      1  C   UNL d   1       2.715   3.151   1.350  0.00  0.00     0.078 C 
ATOM      2  C1  UNL d   1       1.956   1.969   0.824  0.00  0.00    -0.077 A 
ATOM      3  C2  UNL d   1       2.623   0.811   0.406  0.00  0.00    -0.001 A 
ATOM      4  C3  UNL d   1       1.905  -0.278  -0.090  0.00  0.00     0.003 A 
ATOM      5  C4  UNL d   1       0.515  -0.220  -0.173  0.00  0.00    -0.005 A 
ATOM      6  C5  UNL d   1      -0.158   0.929   0.239  0.00  0.00     0.003 A 
ATOM      7  C6  UNL d   1       0.559   2.019   0.735  0.00  0.00    -0.001 A 
ENDROOT
TORSDOF 0
ENDMDL
