MODEL 1
REMARK minimizedAffinity -4.22363806
REMARK minimizedRMSD -1
REMARK  0 active torsions:
REMARK  status: ('A' for Active; 'I' for Inactive)
ROOT
ATOM      1  C   UNL d   1      -3.437  -1.053  -0.027  0.00  0.00     0.078 C 
ATOM      2  C1  UNL d   1      -1.986  -0.705  -0.178  0.00  0.00    -0.077 A 
ATOM      3  C2  UNL d   1      -1.494  -0.171  -1.375  0.00  0.00    -0.001 A 
ATOM      4  C3  UNL d   1      -0.139   0.138  -1.506  0.00  0.00     0.003 A 
ATOM      5  C4  UNL d   1       0.735  -0.083  -0.443  0.00  0.00    -0.005 A 
ATOM      6  C5  UNL d   1       0.254  -0.617   0.751  0.00  0.00     0.003 A 
ATOM      7  C6  UNL d   1      -1.100  -0.927   0.883  0.00  0.00    -0.001 A 
ENDROOT
TORSDOF 0
ENDMDL
