MODEL 1
REMARK minimizedAffinity -3.70762539
REMARK minimizedRMSD -1
REMARK  0 active torsions:
REMARK  status: ('A' for Active; 'I' for Inactive)
ROOT
ATOM      1  C   UNL d   1      -3.280  -0.951  -0.089  0.00  0.00     0.078 C 
ATOM      2  C1  UNL d   1      -1.804  -0.755   0.095  0.00  0.00    -0.077 A 
ATOM      3  C2  UNL d   1      -1.083   0.109  -0.739  0.00  0.00    -0.001 A 
ATOM      4  C3  UNL d   1       0.292   0.275  -0.563  0.00  0.00     0.003 A 
ATOM      5  C4  UNL d   1       0.957  -0.420   0.446  0.00  0.00    -0.005 A 
ATOM      6  C5  UNL d   1       0.248  -1.283   1.278  0.00  0.00     0.003 A 
ATOM      7  C6  UNL d   1      -1.127  -1.450   1.104  0.00  0.00    -0.001 A 
ENDROOT
TORSDOF 0
ENDMDL
