MODEL 1
REMARK minimizedAffinity -3.04149461
REMARK minimizedRMSD -1
REMARK  0 active torsions:
REMARK  status: ('A' for Active; 'I' for Inactive)
ROOT
ATOM      1  C   UNL d   1      -2.611  -0.238  -0.657  0.00  0.00     0.078 C 
ATOM      2  C1  UNL d   1      -1.144  -0.078  -0.389  0.00  0.00    -0.077 A 
ATOM      3  C2  UNL d   1      -0.602  -0.387   0.864  0.00  0.00    -0.001 A 
ATOM      4  C3  UNL d   1       0.764  -0.224   1.102  0.00  0.00     0.003 A 
ATOM      5  C4  UNL d   1       1.599   0.249   0.092  0.00  0.00    -0.005 A 
ATOM      6  C5  UNL d   1       1.068   0.561  -1.158  0.00  0.00     0.003 A 
ATOM      7  C6  UNL d   1      -0.297   0.399  -1.398  0.00  0.00    -0.001 A 
ENDROOT
TORSDOF 0
ENDMDL
