MODEL 1
REMARK minimizedAffinity -4.28459549
REMARK minimizedRMSD -1
REMARK  0 active torsions:
REMARK  status: ('A' for Active; 'I' for Inactive)
ROOT
ATOM      1  C   UNL d   1       1.506   0.124   0.227  0.00  0.00     0.078 C 
ATOM      2  C1  UNL d   1       0.054  -0.148  -0.027  0.00  0.00    -0.077 A 
ATOM      3  C2  UNL d   1      -0.470  -0.115  -1.325  0.00  0.00    -0.001 A 
ATOM      4  C3  UNL d   1      -1.826  -0.360  -1.546  0.00  0.00     0.003 A 
ATOM      5  C4  UNL d   1      -2.670  -0.640  -0.474  0.00  0.00    -0.005 A 
ATOM      6  C5  UNL d   1      -2.159  -0.672   0.822  0.00  0.00     0.003 A 
ATOM      7  C6  UNL d   1      -0.803  -0.427   1.045  0.00  0.00    -0.001 A 
ENDROOT
TORSDOF 0
ENDMDL
