MODEL 1
REMARK minimizedAffinity -0.172955677
REMARK minimizedRMSD -1
REMARK  0 active torsions:
REMARK  status: ('A' for Active; 'I' for Inactive)
ROOT
ATOM      1  C   UNL d   1      -4.808   5.771   5.567  0.00  0.00     0.078 C 
ATOM      2  C1  UNL d   1      -4.793   5.843   4.069  0.00  0.00    -0.077 A 
ATOM      3  C2  UNL d   1      -3.586   5.859   3.360  0.00  0.00    -0.001 A 
ATOM      4  C3  UNL d   1      -3.587   5.936   1.966  0.00  0.00     0.003 A 
ATOM      5  C4  UNL d   1      -4.792   5.997   1.270  0.00  0.00    -0.005 A 
ATOM      6  C5  UNL d   1      -5.998   5.983   1.967  0.00  0.00     0.003 A 
ATOM      7  C6  UNL d   1      -5.999   5.907   3.361  0.00  0.00    -0.001 A 
ENDROOT
TORSDOF 0
ENDMDL
