MODEL 1
REMARK minimizedAffinity -4.92092419
REMARK minimizedRMSD -1
REMARK  0 active torsions:
REMARK  status: ('A' for Active; 'I' for Inactive)
ROOT
ATOM      1  C   UNL d   1       4.452   3.331  -3.067  0.00  0.00     0.078 C 
ATOM      2  C1  UNL d   1       3.786   3.242  -1.727  0.00  0.00    -0.077 A 
ATOM      3  C2  UNL d   1       3.173   2.057  -1.303  0.00  0.00    -0.001 A 
ATOM      4  C3  UNL d   1       2.548   1.991  -0.057  0.00  0.00     0.003 A 
ATOM      5  C4  UNL d   1       2.528   3.109   0.776  0.00  0.00    -0.005 A 
ATOM      6  C5  UNL d   1       3.134   4.293   0.362  0.00  0.00     0.003 A 
ATOM      7  C6  UNL d   1       3.759   4.361  -0.884  0.00  0.00    -0.001 A 
ENDROOT
TORSDOF 0
ENDMDL
