MODEL 1
REMARK minimizedAffinity -4.44252014
REMARK minimizedRMSD -1
REMARK  0 active torsions:
REMARK  status: ('A' for Active; 'I' for Inactive)
ROOT
ATOM      1  C   UNL d   1      -3.032  -2.676   1.102  0.00  0.00     0.078 C 
ATOM      2  C1  UNL d   1      -2.339  -1.645   0.262  0.00  0.00    -0.077 A 
ATOM      3  C2  UNL d   1      -2.720  -1.422  -1.067  0.00  0.00    -0.001 A 
ATOM      4  C3  UNL d   1      -2.060  -0.467  -1.840  0.00  0.00     0.003 A 
ATOM      5  C4  UNL d   1      -1.013   0.273  -1.294  0.00  0.00    -0.005 A 
ATOM      6  C5  UNL d   1      -0.624   0.057   0.026  0.00  0.00     0.003 A 
ATOM      7  C6  UNL d   1      -1.284  -0.898   0.801  0.00  0.00    -0.001 A 
ENDROOT
TORSDOF 0
ENDMDL
