MODEL 1
REMARK minimizedAffinity -5.68091965
REMARK minimizedRMSD -1
REMARK  0 active torsions:
REMARK  status: ('A' for Active; 'I' for Inactive)
ROOT
ATOM      1  C   UNL d   1       1.188   0.799   0.330  0.00  0.00     0.078 C 
ATOM      2  C1  UNL d   1      -0.165   0.289  -0.068  0.00  0.00    -0.077 A 
ATOM      3  C2  UNL d   1      -0.655   0.481  -1.365  0.00  0.00    -0.001 A 
ATOM      4  C3  UNL d   1      -1.920   0.009  -1.719  0.00  0.00     0.003 A 
ATOM      5  C4  UNL d   1      -2.706  -0.657  -0.781  0.00  0.00    -0.005 A 
ATOM      6  C5  UNL d   1      -2.227  -0.851   0.514  0.00  0.00     0.003 A 
ATOM      7  C6  UNL d   1      -0.963  -0.380   0.869  0.00  0.00    -0.001 A 
ENDROOT
TORSDOF 0
ENDMDL
