MODEL 1
REMARK minimizedAffinity -3.07487178
REMARK minimizedRMSD -1
REMARK  0 active torsions:
REMARK  status: ('A' for Active; 'I' for Inactive)
ROOT
ATOM      1  C   UNL d   1      -3.331  -0.729  -0.347  0.00  0.00     0.078 C 
ATOM      2  C1  UNL d   1      -1.913  -0.272  -0.509  0.00  0.00    -0.077 A 
ATOM      3  C2  UNL d   1      -1.518   0.474  -1.626  0.00  0.00    -0.001 A 
ATOM      4  C3  UNL d   1      -0.192   0.885  -1.769  0.00  0.00     0.003 A 
ATOM      5  C4  UNL d   1       0.751   0.554  -0.798  0.00  0.00    -0.005 A 
ATOM      6  C5  UNL d   1       0.369  -0.190   0.316  0.00  0.00     0.003 A 
ATOM      7  C6  UNL d   1      -0.957  -0.602   0.461  0.00  0.00    -0.001 A 
ENDROOT
TORSDOF 0
ENDMDL
