MODEL 1
REMARK minimizedAffinity -3.41127753
REMARK minimizedRMSD -1
REMARK  0 active torsions:
REMARK  status: ('A' for Active; 'I' for Inactive)
ROOT
ATOM      1  C   UNL d   1      -2.779  -1.022  -0.417  0.00  0.00     0.078 C 
ATOM      2  C1  UNL d   1      -1.327  -0.786  -0.127  0.00  0.00    -0.077 A 
ATOM      3  C2  UNL d   1      -0.662  -1.517   0.866  0.00  0.00    -0.001 A 
ATOM      4  C3  UNL d   1       0.687  -1.280   1.132  0.00  0.00     0.003 A 
ATOM      5  C4  UNL d   1       1.384  -0.312   0.411  0.00  0.00    -0.005 A 
ATOM      6  C5  UNL d   1       0.730   0.421  -0.577  0.00  0.00     0.003 A 
ATOM      7  C6  UNL d   1      -0.620   0.186  -0.845  0.00  0.00    -0.001 A 
ENDROOT
TORSDOF 0
ENDMDL
