MODEL 1
REMARK minimizedAffinity -5.629632
REMARK minimizedRMSD -1
REMARK  0 active torsions:
REMARK  status: ('A' for Active; 'I' for Inactive)
ROOT
ATOM      1  C   UNL d   1      -3.007  -0.999   0.067  0.00  0.00     0.078 C 
ATOM      2  C1  UNL d   1      -1.522  -0.813   0.160  0.00  0.00    -0.077 A 
ATOM      3  C2  UNL d   1      -0.840   0.006  -0.749  0.00  0.00    -0.001 A 
ATOM      4  C3  UNL d   1       0.544   0.162  -0.656  0.00  0.00     0.003 A 
ATOM      5  C4  UNL d   1       1.258  -0.498   0.342  0.00  0.00    -0.005 A 
ATOM      6  C5  UNL d   1       0.587  -1.316   1.249  0.00  0.00     0.003 A 
ATOM      7  C6  UNL d   1      -0.796  -1.474   1.159  0.00  0.00    -0.001 A 
ENDROOT
TORSDOF 0
ENDMDL
