MODEL 1
REMARK minimizedAffinity -2.12760758
REMARK minimizedRMSD -1
REMARK  0 active torsions:
REMARK  status: ('A' for Active; 'I' for Inactive)
ROOT
ATOM      1  C   UNL d   1       0.033  -1.130   0.853  0.00  0.00     0.020 A 
ATOM      2  C1  UNL d   1      -0.501   0.155   0.758  0.00  0.00     0.020 A 
ATOM      3  C2  UNL d   1      -0.214   0.949  -0.354  0.00  0.00     0.034 A 
ATOM      4  C3  UNL d   1       0.610   0.461  -1.375  0.00  0.00     0.017 A 
ATOM      5  C4  UNL d   1       1.145  -0.829  -1.279  0.00  0.00     0.017 A 
ATOM      6  C5  UNL d   1       0.854  -1.620  -0.163  0.00  0.00     0.034 A 
ATOM      7 Cl   UNL d   1       2.169  -1.501  -2.498  0.00  0.00    -0.070 Cl
ATOM      8 Cl1  UNL d   1       0.922   1.498  -2.721  0.00  0.00    -0.070 Cl
ENDROOT
TORSDOF 0
ENDMDL
