MODEL 1
REMARK minimizedAffinity -2.02306104
REMARK minimizedRMSD -1
REMARK  0 active torsions:
REMARK  status: ('A' for Active; 'I' for Inactive)
ROOT
ATOM      1  C   UNL d   1       1.375  -1.829   0.348  0.00  0.00     0.020 A 
ATOM      2  C1  UNL d   1       2.328  -1.585  -0.640  0.00  0.00     0.020 A 
ATOM      3  C2  UNL d   1       2.103  -0.594  -1.597  0.00  0.00     0.034 A 
ATOM      4  C3  UNL d   1       0.923   0.158  -1.569  0.00  0.00     0.017 A 
ATOM      5  C4  UNL d   1      -0.033  -0.087  -0.576  0.00  0.00     0.017 A 
ATOM      6  C5  UNL d   1       0.197  -1.081   0.380  0.00  0.00     0.034 A 
ATOM      7 Cl   UNL d   1      -1.514   0.799  -0.477  0.00  0.00    -0.070 Cl
ATOM      8 Cl1  UNL d   1       0.712   1.368  -2.784  0.00  0.00    -0.070 Cl
ENDROOT
TORSDOF 0
ENDMDL
