MODEL 1
REMARK minimizedAffinity -2.87973714
REMARK minimizedRMSD -1
REMARK  0 active torsions:
REMARK  status: ('A' for Active; 'I' for Inactive)
ROOT
ATOM      1  C   UNL d   1       0.752  -1.965   0.577  0.00  0.00     0.020 A 
ATOM      2  C1  UNL d   1       1.815  -1.805  -0.311  0.00  0.00     0.020 A 
ATOM      3  C2  UNL d   1       1.834  -0.719  -1.189  0.00  0.00     0.034 A 
ATOM      4  C3  UNL d   1       0.788   0.211  -1.182  0.00  0.00     0.017 A 
ATOM      5  C4  UNL d   1      -0.278   0.049  -0.290  0.00  0.00     0.017 A 
ATOM      6  C5  UNL d   1      -0.292  -1.039   0.587  0.00  0.00     0.034 A 
ATOM      7 Cl   UNL d   1      -1.605   1.155  -0.222  0.00  0.00    -0.070 Cl
ATOM      8 Cl1  UNL d   1       0.877   1.529  -2.295  0.00  0.00    -0.070 Cl
ENDROOT
TORSDOF 0
ENDMDL
