MODEL 1
REMARK minimizedAffinity -1.0160284
REMARK minimizedRMSD -1
REMARK  0 active torsions:
REMARK  status: ('A' for Active; 'I' for Inactive)
ROOT
ATOM      1  C   UNL d   1       1.130  -1.473  -0.404  0.00  0.00     0.020 A 
ATOM      2  C1  UNL d   1       1.460  -1.481   0.951  0.00  0.00     0.020 A 
ATOM      3  C2  UNL d   1       0.832  -0.594   1.828  0.00  0.00     0.034 A 
ATOM      4  C3  UNL d   1      -0.129   0.305   1.352  0.00  0.00     0.017 A 
ATOM      5  C4  UNL d   1      -0.459   0.313  -0.008  0.00  0.00     0.017 A 
ATOM      6  C5  UNL d   1       0.172  -0.578  -0.882  0.00  0.00     0.034 A 
ATOM      7 Cl   UNL d   1      -1.635   1.393  -0.669  0.00  0.00    -0.070 Cl
ATOM      8 Cl1  UNL d   1      -0.865   1.373   2.493  0.00  0.00    -0.070 Cl
ENDROOT
TORSDOF 0
ENDMDL
