MODEL 1
REMARK minimizedAffinity -0.0342156254
REMARK minimizedRMSD -1
REMARK  0 active torsions:
REMARK  status: ('A' for Active; 'I' for Inactive)
ROOT
ATOM      1  C   UNL d   1       0.877  -2.424  -0.100  0.00  0.00     0.020 A 
ATOM      2  C1  UNL d   1       1.890  -1.893  -0.897  0.00  0.00     0.020 A 
ATOM      3  C2  UNL d   1       1.812  -0.570  -1.337  0.00  0.00     0.034 A 
ATOM      4  C3  UNL d   1       0.718   0.227  -0.980  0.00  0.00     0.017 A 
ATOM      5  C4  UNL d   1      -0.298  -0.307  -0.179  0.00  0.00     0.017 A 
ATOM      6  C5  UNL d   1      -0.215  -1.632   0.258  0.00  0.00     0.034 A 
ATOM      7 Cl   UNL d   1      -1.679   0.615   0.303  0.00  0.00    -0.070 Cl
ATOM      8 Cl1  UNL d   1       0.687   1.855  -1.558  0.00  0.00    -0.070 Cl
ENDROOT
TORSDOF 0
ENDMDL
