MODEL 1
REMARK minimizedAffinity -3.08754706
REMARK minimizedRMSD -1
REMARK  0 active torsions:
REMARK  status: ('A' for Active; 'I' for Inactive)
ROOT
ATOM      1  C   UNL d   1      -1.324   0.561   0.838  0.00  0.00     0.020 A 
ATOM      2  C1  UNL d   1      -0.015   0.717   1.292  0.00  0.00     0.020 A 
ATOM      3  C2  UNL d   1       0.992  -0.129   0.822  0.00  0.00     0.034 A 
ATOM      4  C3  UNL d   1       0.691  -1.135  -0.104  0.00  0.00     0.017 A 
ATOM      5  C4  UNL d   1      -0.623  -1.290  -0.559  0.00  0.00     0.017 A 
ATOM      6  C5  UNL d   1      -1.628  -0.440  -0.085  0.00  0.00     0.034 A 
ATOM      7 Cl   UNL d   1      -1.071  -2.508  -1.700  0.00  0.00    -0.070 Cl
ATOM      8 Cl1  UNL d   1       1.986  -2.145  -0.641  0.00  0.00    -0.070 Cl
ENDROOT
TORSDOF 0
ENDMDL
