MODEL 1
REMARK minimizedAffinity 1.68182826
REMARK minimizedRMSD -1
REMARK  0 active torsions:
REMARK  status: ('A' for Active; 'I' for Inactive)
ROOT
ATOM      1  C   UNL d   1       0.791  -2.370   1.215  0.00  0.00     0.020 A 
ATOM      2  C1  UNL d   1       0.129  -2.557   0.002  0.00  0.00     0.020 A 
ATOM      3  C2  UNL d   1      -0.285  -1.453  -0.745  0.00  0.00     0.034 A 
ATOM      4  C3  UNL d   1      -0.037  -0.156  -0.281  0.00  0.00     0.017 A 
ATOM      5  C4  UNL d   1       0.628   0.031   0.936  0.00  0.00     0.017 A 
ATOM      6  C5  UNL d   1       1.040  -1.078   1.680  0.00  0.00     0.034 A 
ATOM      7 Cl   UNL d   1       0.970   1.601   1.573  0.00  0.00    -0.070 Cl
ATOM      8 Cl1  UNL d   1      -0.577   1.164  -1.257  0.00  0.00    -0.070 Cl
ENDROOT
TORSDOF 0
ENDMDL
