MODEL 1
REMARK minimizedAffinity -2.97750878
REMARK minimizedRMSD -1
REMARK  0 active torsions:
REMARK  status: ('A' for Active; 'I' for Inactive)
ROOT
ATOM      1  C   UNL d   1      -0.737  -0.506   0.793  0.00  0.00     0.020 A 
ATOM      2  C1  UNL d   1      -1.238   0.717   0.349  0.00  0.00     0.020 A 
ATOM      3  C2  UNL d   1      -0.590   1.405  -0.680  0.00  0.00     0.034 A 
ATOM      4  C3  UNL d   1       0.562   0.870  -1.268  0.00  0.00     0.017 A 
ATOM      5  C4  UNL d   1       1.063  -0.358  -0.821  0.00  0.00     0.017 A 
ATOM      6  C5  UNL d   1       0.411  -1.042   0.209  0.00  0.00     0.034 A 
ATOM      7 Cl   UNL d   1       2.480  -1.082  -1.498  0.00  0.00    -0.070 Cl
ATOM      8 Cl1  UNL d   1       1.311   1.774  -2.535  0.00  0.00    -0.070 Cl
ENDROOT
TORSDOF 0
ENDMDL
