MODEL 1
REMARK minimizedAffinity 0.360001981
REMARK minimizedRMSD -1
REMARK  0 active torsions:
REMARK  status: ('A' for Active; 'I' for Inactive)
ROOT
ATOM      1  C   UNL d   1       1.130  -2.158  -0.344  0.00  0.00     0.020 A 
ATOM      2  C1  UNL d   1       1.930  -1.565  -1.320  0.00  0.00     0.020 A 
ATOM      3  C2  UNL d   1       1.669  -0.259  -1.737  0.00  0.00     0.034 A 
ATOM      4  C3  UNL d   1       0.606   0.460  -1.178  0.00  0.00     0.017 A 
ATOM      5  C4  UNL d   1      -0.196  -0.136  -0.198  0.00  0.00     0.017 A 
ATOM      6  C5  UNL d   1       0.069  -1.445   0.216  0.00  0.00     0.034 A 
ATOM      7 Cl   UNL d   1      -1.526   0.687   0.538  0.00  0.00    -0.070 Cl
ATOM      8 Cl1  UNL d   1       0.341   2.072  -1.741  0.00  0.00    -0.070 Cl
ENDROOT
TORSDOF 0
ENDMDL
