MODEL 1
REMARK minimizedAffinity -2.51253152
REMARK minimizedRMSD -1
REMARK  0 active torsions:
REMARK  status: ('A' for Active; 'I' for Inactive)
ROOT
ATOM      1  C   UNL d   1       1.471  -1.425  -0.618  0.00  0.00     0.020 A 
ATOM      2  C1  UNL d   1       0.442  -1.096   0.264  0.00  0.00     0.020 A 
ATOM      3  C2  UNL d   1      -0.306   0.066   0.062  0.00  0.00     0.034 A 
ATOM      4  C3  UNL d   1      -0.024   0.904  -1.024  0.00  0.00     0.017 A 
ATOM      5  C4  UNL d   1       1.009   0.573  -1.907  0.00  0.00     0.017 A 
ATOM      6  C5  UNL d   1       1.754  -0.592  -1.701  0.00  0.00     0.034 A 
ATOM      7 Cl   UNL d   1       1.415   1.558  -3.269  0.00  0.00    -0.070 Cl
ATOM      8 Cl1  UNL d   1      -0.989   2.325  -1.212  0.00  0.00    -0.070 Cl
ENDROOT
TORSDOF 0
ENDMDL
