MODEL 1
REMARK minimizedAffinity -1.1466713
REMARK minimizedRMSD -1
REMARK  0 active torsions:
REMARK  status: ('A' for Active; 'I' for Inactive)
ROOT
ATOM      1  C   UNL d   1      -3.149   0.787   3.144  0.00  0.00     0.020 A 
ATOM      2  C1  UNL d   1      -1.989   0.674   3.909  0.00  0.00     0.020 A 
ATOM      3  C2  UNL d   1      -0.763   0.430   3.286  0.00  0.00     0.034 A 
ATOM      4  C3  UNL d   1      -0.694   0.299   1.894  0.00  0.00     0.017 A 
ATOM      5  C4  UNL d   1      -1.859   0.413   1.127  0.00  0.00     0.017 A 
ATOM      6  C5  UNL d   1      -3.084   0.657   1.756  0.00  0.00     0.034 A 
ATOM      7 Cl   UNL d   1      -1.854   0.264  -0.595  0.00  0.00    -0.070 Cl
ATOM      8 Cl1  UNL d   1       0.855  -0.001   1.191  0.00  0.00    -0.070 Cl
ENDROOT
TORSDOF 0
ENDMDL
