MODEL 1
REMARK minimizedAffinity -3.91014028
REMARK minimizedRMSD -1
REMARK  0 active torsions:
REMARK  status: ('A' for Active; 'I' for Inactive)
ROOT
ATOM      1  C   UNL d   1      -0.945  -1.096   0.766  0.00  0.00     0.020 A 
ATOM      2  C1  UNL d   1      -1.402   0.160   0.370  0.00  0.00     0.020 A 
ATOM      3  C2  UNL d   1      -0.771   0.834  -0.677  0.00  0.00     0.034 A 
ATOM      4  C3  UNL d   1       0.321   0.253  -1.332  0.00  0.00     0.017 A 
ATOM      5  C4  UNL d   1       0.779  -1.008  -0.934  0.00  0.00     0.017 A 
ATOM      6  C5  UNL d   1       0.143  -1.679   0.116  0.00  0.00     0.034 A 
ATOM      7 Cl   UNL d   1       2.120  -1.790  -1.694  0.00  0.00    -0.070 Cl
ATOM      8 Cl1  UNL d   1       1.053   1.143  -2.619  0.00  0.00    -0.070 Cl
ENDROOT
TORSDOF 0
ENDMDL
