MODEL 1
REMARK minimizedAffinity -1.51233625
REMARK minimizedRMSD -1
REMARK  0 active torsions:
REMARK  status: ('A' for Active; 'I' for Inactive)
ROOT
ATOM      1  C   UNL d   1      -1.065  -0.948   0.811  0.00  0.00     0.020 A 
ATOM      2  C1  UNL d   1      -1.499   0.367   0.649  0.00  0.00     0.020 A 
ATOM      3  C2  UNL d   1      -0.882   1.195  -0.291  0.00  0.00     0.034 A 
ATOM      4  C3  UNL d   1       0.172   0.709  -1.073  0.00  0.00     0.017 A 
ATOM      5  C4  UNL d   1       0.607  -0.611  -0.909  0.00  0.00     0.017 A 
ATOM      6  C5  UNL d   1      -0.015  -1.436   0.034  0.00  0.00     0.034 A 
ATOM      7 Cl   UNL d   1       1.901  -1.283  -1.837  0.00  0.00    -0.070 Cl
ATOM      8 Cl1  UNL d   1       0.888   1.788  -2.216  0.00  0.00    -0.070 Cl
ENDROOT
TORSDOF 0
ENDMDL
