MODEL 1
REMARK minimizedAffinity -1.47254455
REMARK minimizedRMSD -1
REMARK  0 active torsions:
REMARK  status: ('A' for Active; 'I' for Inactive)
ROOT
ATOM      1  C   UNL d   1       1.441   0.351  -2.125  0.00  0.00     0.020 A 
ATOM      2  C1  UNL d   1       2.331  -0.685  -1.848  0.00  0.00     0.020 A 
ATOM      3  C2  UNL d   1       2.205  -1.415  -0.663  0.00  0.00     0.034 A 
ATOM      4  C3  UNL d   1       1.187  -1.109   0.247  0.00  0.00     0.017 A 
ATOM      5  C4  UNL d   1       0.294  -0.068  -0.033  0.00  0.00     0.017 A 
ATOM      6  C5  UNL d   1       0.425   0.659  -1.220  0.00  0.00     0.034 A 
ATOM      7 Cl   UNL d   1      -0.987   0.368   1.042  0.00  0.00    -0.070 Cl
ATOM      8 Cl1  UNL d   1       1.091  -2.052   1.692  0.00  0.00    -0.070 Cl
ENDROOT
TORSDOF 0
ENDMDL
