MODEL 1
REMARK minimizedAffinity -2.71401715
REMARK minimizedRMSD -1
REMARK  0 active torsions:
REMARK  status: ('A' for Active; 'I' for Inactive)
ROOT
ATOM      1  C   UNL d   1       1.405  -1.476  -1.562  0.00  0.00     0.020 A 
ATOM      2  C1  UNL d   1       1.152  -2.110  -0.346  0.00  0.00     0.020 A 
ATOM      3  C2  UNL d   1       0.274  -1.531   0.573  0.00  0.00     0.034 A 
ATOM      4  C3  UNL d   1      -0.353  -0.315   0.278  0.00  0.00     0.017 A 
ATOM      5  C4  UNL d   1      -0.099   0.320  -0.943  0.00  0.00     0.017 A 
ATOM      6  C5  UNL d   1       0.781  -0.264  -1.860  0.00  0.00     0.034 A 
ATOM      7 Cl   UNL d   1      -0.836   1.821  -1.378  0.00  0.00    -0.070 Cl
ATOM      8 Cl1  UNL d   1      -1.427   0.343   1.461  0.00  0.00    -0.070 Cl
ENDROOT
TORSDOF 0
ENDMDL
