MODEL 1
REMARK minimizedAffinity 5.46608543
REMARK minimizedRMSD -1
REMARK  0 active torsions:
REMARK  status: ('A' for Active; 'I' for Inactive)
ROOT
ATOM      1  C   UNL d   1       1.100  -3.812   1.148  0.00  0.00     0.020 A 
ATOM      2  C1  UNL d   1       0.012  -3.632   0.295  0.00  0.00     0.020 A 
ATOM      3  C2  UNL d   1       0.118  -2.771  -0.799  0.00  0.00     0.034 A 
ATOM      4  C3  UNL d   1       1.314  -2.085  -1.042  0.00  0.00     0.017 A 
ATOM      5  C4  UNL d   1       2.405  -2.266  -0.185  0.00  0.00     0.017 A 
ATOM      6  C5  UNL d   1       2.294  -3.130   0.909  0.00  0.00     0.034 A 
ATOM      7 Cl   UNL d   1       3.913  -1.455  -0.420  0.00  0.00    -0.070 Cl
ATOM      8 Cl1  UNL d   1       1.374  -1.036  -2.414  0.00  0.00    -0.070 Cl
ENDROOT
TORSDOF 0
ENDMDL
