MODEL 1
REMARK minimizedAffinity 8.72928238
REMARK minimizedRMSD -1
REMARK  1 active torsions:
REMARK  status: ('A' for Active; 'I' for Inactive)
REMARK    1  A    between atoms: C1_2  and  C2_3 
ROOT
ATOM      1  C2  UNL d   1       2.129  -0.407  -4.695  0.00  0.00    -0.073 A 
ATOM      2  C3  UNL d   1       2.513  -1.745  -4.840  0.00  0.00    -0.002 A 
ATOM      3  C4  UNL d   1       3.768  -2.065  -5.360  0.00  0.00     0.004 A 
ATOM      4  C5  UNL d   1       4.653  -1.053  -5.733  0.00  0.00    -0.004 A 
ATOM      5  C6  UNL d   1       4.291   0.290  -5.584  0.00  0.00    -0.075 A 
ATOM      6  C7  UNL d   1       5.231   1.390  -5.982  0.00  0.00     0.076 C 
ATOM      7  C8  UNL d   1       3.028   0.603  -5.064  0.00  0.00     0.001 A 
ENDROOT
BRANCH   1   8
ATOM      8  C1  UNL d   1       0.777  -0.056  -4.128  0.00  0.00     0.053 C 
ATOM      9  C   UNL d   1      -0.352  -0.742  -4.881  0.00  0.00     0.018 C 
ENDBRANCH   1   8
TORSDOF 1
ENDMDL
