MODEL 1
REMARK minimizedAffinity 12.2408609
REMARK minimizedRMSD -1
REMARK  1 active torsions:
REMARK  status: ('A' for Active; 'I' for Inactive)
REMARK    1  A    between atoms: C1_2  and  C2_3 
ROOT
ATOM      1  C2  UNL d   1       3.273   1.668  -5.347  0.00  0.00    -0.073 A 
ATOM      2  C3  UNL d   1       3.988   0.477  -5.512  0.00  0.00    -0.002 A 
ATOM      3  C4  UNL d   1       5.344   0.508  -5.840  0.00  0.00     0.004 A 
ATOM      4  C5  UNL d   1       6.000   1.728  -6.000  0.00  0.00    -0.004 A 
ATOM      5  C6  UNL d   1       5.305   2.930  -5.828  0.00  0.00    -0.075 A 
ATOM      6  C7  UNL d   1       5.996   4.252  -5.998  0.00  0.00     0.076 C 
ATOM      7  C8  UNL d   1       3.943   2.891  -5.501  0.00  0.00     0.001 A 
ENDROOT
BRANCH   1   8
ATOM      8  C1  UNL d   1       1.810   1.640  -4.986  0.00  0.00     0.053 C 
ATOM      9  C   UNL d   1       1.292   0.220  -4.821  0.00  0.00     0.018 C 
ENDBRANCH   1   8
TORSDOF 1
ENDMDL
