MODEL 1
REMARK minimizedAffinity 11.7333927
REMARK minimizedRMSD -1
REMARK  1 active torsions:
REMARK  status: ('A' for Active; 'I' for Inactive)
REMARK    1  A    between atoms: C1_2  and  C2_3 
ROOT
ATOM      1  C2  UNL d   1       0.009  -0.207   2.738  0.00  0.00    -0.073 A 
ATOM      2  C3  UNL d   1      -0.438   1.120   2.718  0.00  0.00    -0.002 A 
ATOM      3  C4  UNL d   1      -1.752   1.416   2.354  0.00  0.00     0.004 A 
ATOM      4  C5  UNL d   1      -2.634   0.390   2.014  0.00  0.00    -0.004 A 
ATOM      5  C6  UNL d   1      -2.210  -0.942   2.040  0.00  0.00    -0.075 A 
ATOM      6  C7  UNL d   1      -3.147  -2.057   1.675  0.00  0.00     0.076 C 
ATOM      7  C8  UNL d   1      -0.888  -1.231   2.404  0.00  0.00     0.001 A 
ENDROOT
BRANCH   1   8
ATOM      8  C1  UNL d   1       1.425  -0.532   3.136  0.00  0.00     0.053 C 
ATOM      9  C   UNL d   1       1.560  -1.956   3.651  0.00  0.00     0.018 C 
ENDBRANCH   1   8
TORSDOF 1
ENDMDL
