MODEL 1
REMARK minimizedAffinity 2.2614429
REMARK minimizedRMSD -1
REMARK  1 active torsions:
REMARK  status: ('A' for Active; 'I' for Inactive)
REMARK    1  A    between atoms: C1_2  and  C2_3 
ROOT
ATOM      1  C2  UNL d   1       3.144  -5.091   5.500  0.00  0.00    -0.073 A 
ATOM      2  C3  UNL d   1       1.974  -5.672   6.000  0.00  0.00    -0.002 A 
ATOM      3  C4  UNL d   1       0.724  -5.214   5.580  0.00  0.00     0.004 A 
ATOM      4  C5  UNL d   1       0.632  -4.176   4.653  0.00  0.00    -0.004 A 
ATOM      5  C6  UNL d   1       1.790  -3.590   4.133  0.00  0.00    -0.075 A 
ATOM      6  C7  UNL d   1       1.709  -2.471   3.137  0.00  0.00     0.076 C 
ATOM      7  C8  UNL d   1       3.042  -4.054   4.561  0.00  0.00     0.001 A 
ENDROOT
BRANCH   1   8
ATOM      8  C1  UNL d   1       4.496  -5.586   5.945  0.00  0.00     0.053 C 
ATOM      9  C   UNL d   1       5.525  -5.515   4.828  0.00  0.00     0.018 C 
ENDBRANCH   1   8
TORSDOF 1
ENDMDL
