MODEL 1
REMARK minimizedAffinity 19.6807995
REMARK minimizedRMSD -1
REMARK  1 active torsions:
REMARK  status: ('A' for Active; 'I' for Inactive)
REMARK    1  A    between atoms: C1_2  and  C2_3 
ROOT
ATOM      1  C2  UNL d   1       2.265  -0.752   3.957  0.00  0.00    -0.073 A 
ATOM      2  C3  UNL d   1       3.557  -0.222   3.861  0.00  0.00    -0.002 A 
ATOM      3  C4  UNL d   1       3.853   1.021   4.422  0.00  0.00     0.004 A 
ATOM      4  C5  UNL d   1       2.864   1.743   5.091  0.00  0.00    -0.004 A 
ATOM      5  C6  UNL d   1       1.570   1.225   5.208  0.00  0.00    -0.075 A 
ATOM      6  C7  UNL d   1       0.495   1.989   5.922  0.00  0.00     0.076 C 
ATOM      7  C8  UNL d   1       1.280  -0.023   4.639  0.00  0.00     0.001 A 
ENDROOT
BRANCH   1   8
ATOM      8  C1  UNL d   1       1.943  -2.096   3.358  0.00  0.00     0.053 C 
ATOM      9  C   UNL d   1       2.173  -3.230   4.345  0.00  0.00     0.018 C 
ENDBRANCH   1   8
TORSDOF 1
ENDMDL
