MODEL 1
REMARK minimizedAffinity 10.6137094
REMARK minimizedRMSD -1
REMARK  0 active torsions:
REMARK  status: ('A' for Active; 'I' for Inactive)
ROOT
ATOM      1  C2' OXE d   1      -3.094   2.692   1.736  0.00  0.00     0.078 C 
ATOM      2  C1' OXE d   1      -4.218   4.900   0.417  0.00  0.00     0.078 C 
ATOM      3  C1  OXE d   1      -4.653   4.632   1.837  0.00  0.00    -0.078 A 
ATOM      4  C2  OXE d   1      -4.133   3.523   2.458  0.00  0.00    -0.078 A 
ATOM      5  C3  OXE d   1      -4.458   3.260   3.786  0.00  0.00     0.003 A 
ATOM      6  C4  OXE d   1      -5.428   4.027   4.443  0.00  0.00    -0.002 A 
ATOM      7  C5  OXE d   1      -6.000   5.139   3.814  0.00  0.00    -0.002 A 
ATOM      8  C6  OXE d   1      -5.593   5.479   2.529  0.00  0.00     0.003 A 
ENDROOT
TORSDOF 0
ENDMDL
