MODEL 1
REMARK minimizedAffinity 6.51092196
REMARK minimizedRMSD -1
REMARK  0 active torsions:
REMARK  status: ('A' for Active; 'I' for Inactive)
ROOT
ATOM      1  C2' OXE d   1       1.487   2.143  -0.748  0.00  0.00     0.078 C 
ATOM      2  C1' OXE d   1       3.251   1.365   1.293  0.00  0.00     0.078 C 
ATOM      3  C1  OXE d   1       2.827   0.319   0.294  0.00  0.00    -0.078 A 
ATOM      4  C2  OXE d   1       1.927   0.696  -0.674  0.00  0.00    -0.078 A 
ATOM      5  C3  OXE d   1       1.545  -0.216  -1.654  0.00  0.00     0.003 A 
ATOM      6  C4  OXE d   1       1.949  -1.554  -1.572  0.00  0.00    -0.002 A 
ATOM      7  C5  OXE d   1       2.833  -1.969  -0.572  0.00  0.00    -0.002 A 
ATOM      8  C6  OXE d   1       3.314  -1.038   0.342  0.00  0.00     0.003 A 
ENDROOT
TORSDOF 0
ENDMDL
