MODEL 1
REMARK minimizedAffinity -0.373117179
REMARK minimizedRMSD -1
REMARK  0 active torsions:
REMARK  status: ('A' for Active; 'I' for Inactive)
ROOT
ATOM      1  C2' OXE d   1       3.023   5.961   3.052  0.00  0.00     0.078 C 
ATOM      2  C1' OXE d   1       2.645   5.979   5.834  0.00  0.00     0.078 C 
ATOM      3  C1  OXE d   1       1.418   5.950   4.957  0.00  0.00    -0.078 A 
ATOM      4  C2  OXE d   1       1.611   5.989   3.597  0.00  0.00    -0.078 A 
ATOM      5  C3  OXE d   1       0.515   5.909   2.743  0.00  0.00     0.003 A 
ATOM      6  C4  OXE d   1      -0.787   5.945   3.256  0.00  0.00    -0.002 A 
ATOM      7  C5  OXE d   1      -1.007   5.946   4.637  0.00  0.00    -0.002 A 
ATOM      8  C6  OXE d   1       0.083   5.906   5.500  0.00  0.00     0.003 A 
ENDROOT
TORSDOF 0
ENDMDL
