MODEL 1
REMARK minimizedAffinity 12.1170378
REMARK minimizedRMSD -1
REMARK  0 active torsions:
REMARK  status: ('A' for Active; 'I' for Inactive)
ROOT
ATOM      1  C2' OXE d   1      -1.426   1.336   1.085  0.00  0.00     0.078 C 
ATOM      2  C1' OXE d   1       0.416  -0.180   2.564  0.00  0.00     0.078 C 
ATOM      3  C1  OXE d   1       0.910   0.500   1.311  0.00  0.00    -0.078 A 
ATOM      4  C2  OXE d   1      -0.010   1.201   0.568  0.00  0.00    -0.078 A 
ATOM      5  C3  OXE d   1       0.404   1.892  -0.567  0.00  0.00     0.003 A 
ATOM      6  C4  OXE d   1       1.713   1.753  -1.043  0.00  0.00    -0.002 A 
ATOM      7  C5  OXE d   1       2.656   1.011  -0.324  0.00  0.00    -0.002 A 
ATOM      8  C6  OXE d   1       2.282   0.414   0.875  0.00  0.00     0.003 A 
ENDROOT
TORSDOF 0
ENDMDL
