MODEL 1
REMARK minimizedAffinity 2.29359818
REMARK minimizedRMSD -1
REMARK  0 active torsions:
REMARK  status: ('A' for Active; 'I' for Inactive)
ROOT
ATOM      1  C2' OXE d   1       0.669   1.624   2.062  0.00  0.00     0.078 C 
ATOM      2  C1' OXE d   1      -0.989   3.776   1.357  0.00  0.00     0.078 C 
ATOM      3  C1  OXE d   1       0.315   4.089   2.046  0.00  0.00    -0.078 A 
ATOM      4  C2  OXE d   1       1.099   3.028   2.429  0.00  0.00    -0.078 A 
ATOM      5  C3  OXE d   1       2.337   3.262   3.019  0.00  0.00     0.003 A 
ATOM      6  C4  OXE d   1       2.723   4.563   3.364  0.00  0.00    -0.002 A 
ATOM      7  C5  OXE d   1       1.922   5.657   3.019  0.00  0.00    -0.002 A 
ATOM      8  C6  OXE d   1       0.737   5.440   2.323  0.00  0.00     0.003 A 
ENDROOT
TORSDOF 0
ENDMDL
