MODEL 1
REMARK minimizedAffinity 1.3750633
REMARK minimizedRMSD -1
REMARK  0 active torsions:
REMARK  status: ('A' for Active; 'I' for Inactive)
ROOT
ATOM      1  C2' OXE d   1       2.481  -1.815  -0.927  0.00  0.00     0.078 C 
ATOM      2  C1' OXE d   1       3.967  -1.872   1.454  0.00  0.00     0.078 C 
ATOM      3  C1  OXE d   1       3.471  -0.534   0.966  0.00  0.00    -0.078 A 
ATOM      4  C2  OXE d   1       2.785  -0.509  -0.224  0.00  0.00    -0.078 A 
ATOM      5  C3  OXE d   1       2.257   0.691  -0.692  0.00  0.00     0.003 A 
ATOM      6  C4  OXE d   1       2.551   1.895  -0.040  0.00  0.00    -0.002 A 
ATOM      7  C5  OXE d   1       3.282   1.898   1.152  0.00  0.00    -0.002 A 
ATOM      8  C6  OXE d   1       3.712   0.690   1.690  0.00  0.00     0.003 A 
ENDROOT
TORSDOF 0
ENDMDL
