MODEL 1
REMARK minimizedAffinity 5.90899277
REMARK minimizedRMSD -1
REMARK  0 active torsions:
REMARK  status: ('A' for Active; 'I' for Inactive)
ROOT
ATOM      1  C2' OXE d   1       4.689   1.738  -1.494  0.00  0.00     0.078 C 
ATOM      2  C1' OXE d   1       2.195   2.416  -0.400  0.00  0.00     0.078 C 
ATOM      3  C1  OXE d   1       2.587   0.960  -0.409  0.00  0.00    -0.078 A 
ATOM      4  C2  OXE d   1       3.789   0.632  -0.989  0.00  0.00    -0.078 A 
ATOM      5  C3  OXE d   1       4.224  -0.690  -0.974  0.00  0.00     0.003 A 
ATOM      6  C4  OXE d   1       3.380  -1.709  -0.514  0.00  0.00    -0.002 A 
ATOM      7  C5  OXE d   1       2.135  -1.401   0.045  0.00  0.00    -0.002 A 
ATOM      8  C6  OXE d   1       1.742  -0.071   0.143  0.00  0.00     0.003 A 
ENDROOT
TORSDOF 0
ENDMDL
