MODEL 1
REMARK minimizedAffinity 7.44593668
REMARK minimizedRMSD -1
REMARK  0 active torsions:
REMARK  status: ('A' for Active; 'I' for Inactive)
ROOT
ATOM      1  C2' OXE d   1       5.998   2.271   1.150  0.00  0.00     0.078 C 
ATOM      2  C1' OXE d   1       5.962   1.547  -1.562  0.00  0.00     0.078 C 
ATOM      3  C1  OXE d   1       4.698   1.350  -0.764  0.00  0.00    -0.078 A 
ATOM      4  C2  OXE d   1       4.738   1.663   0.573  0.00  0.00    -0.078 A 
ATOM      5  C3  OXE d   1       3.584   1.552   1.343  0.00  0.00     0.003 A 
ATOM      6  C4  OXE d   1       2.425   0.979   0.804  0.00  0.00    -0.002 A 
ATOM      7  C5  OXE d   1       2.375   0.616  -0.546  0.00  0.00    -0.002 A 
ATOM      8  C6  OXE d   1       3.486   0.834  -1.352  0.00  0.00     0.003 A 
ENDROOT
TORSDOF 0
ENDMDL
