MODEL 1
REMARK minimizedAffinity -3.75994325
REMARK minimizedRMSD -1
REMARK  0 active torsions:
REMARK  status: ('A' for Active; 'I' for Inactive)
ROOT
ATOM      1  C2' OXE d   1       4.175   3.909   5.986  0.00  0.00     0.078 C 
ATOM      2  C1' OXE d   1       3.429   3.049   3.420  0.00  0.00     0.078 C 
ATOM      3  C1  OXE d   1       2.575   4.098   4.086  0.00  0.00    -0.078 A 
ATOM      4  C2  OXE d   1       2.921   4.479   5.361  0.00  0.00    -0.078 A 
ATOM      5  C3  OXE d   1       2.199   5.483   6.000  0.00  0.00     0.003 A 
ATOM      6  C4  OXE d   1       1.034   5.998   5.419  0.00  0.00    -0.002 A 
ATOM      7  C5  OXE d   1       0.641   5.595   4.138  0.00  0.00    -0.002 A 
ATOM      8  C6  OXE d   1       1.423   4.680   3.442  0.00  0.00     0.003 A 
ENDROOT
TORSDOF 0
ENDMDL
