MODEL 1
REMARK minimizedAffinity 5.24506187
REMARK minimizedRMSD -1
REMARK  0 active torsions:
REMARK  status: ('A' for Active; 'I' for Inactive)
ROOT
ATOM      1  C2' OXE d   1       3.823   1.867   5.697  0.00  0.00     0.078 C 
ATOM      2  C1' OXE d   1       5.201   2.603   3.365  0.00  0.00     0.078 C 
ATOM      3  C1  OXE d   1       4.471   3.684   4.120  0.00  0.00    -0.078 A 
ATOM      4  C2  OXE d   1       3.760   3.307   5.235  0.00  0.00    -0.078 A 
ATOM      5  C3  OXE d   1       3.113   4.274   5.999  0.00  0.00     0.003 A 
ATOM      6  C4  OXE d   1       3.052   5.602   5.560  0.00  0.00    -0.002 A 
ATOM      7  C5  OXE d   1       3.735   6.000   4.406  0.00  0.00    -0.002 A 
ATOM      8  C6  OXE d   1       4.483   5.064   3.700  0.00  0.00     0.003 A 
ENDROOT
TORSDOF 0
ENDMDL
