MODEL 1
REMARK minimizedAffinity 0.15508686
REMARK minimizedRMSD -1
REMARK  0 active torsions:
REMARK  status: ('A' for Active; 'I' for Inactive)
ROOT
ATOM      1  C2' OXE d   1       3.859   5.999   5.999  0.00  0.00     0.078 C 
ATOM      2  C1' OXE d   1       3.901   5.952   3.192  0.00  0.00     0.078 C 
ATOM      3  C1  OXE d   1       3.520   4.682   3.911  0.00  0.00    -0.078 A 
ATOM      4  C2  OXE d   1       3.548   4.702   5.285  0.00  0.00    -0.078 A 
ATOM      5  C3  OXE d   1       3.152   3.573   5.998  0.00  0.00     0.003 A 
ATOM      6  C4  OXE d   1       2.875   2.374   5.331  0.00  0.00    -0.002 A 
ATOM      7  C5  OXE d   1       2.880   2.322   3.933  0.00  0.00    -0.002 A 
ATOM      8  C6  OXE d   1       3.158   3.476   3.209  0.00  0.00     0.003 A 
ENDROOT
TORSDOF 0
ENDMDL
