MODEL 1
REMARK minimizedAffinity 8.28195858
REMARK minimizedRMSD -1
REMARK  1 active torsions:
REMARK  status: ('A' for Active; 'I' for Inactive)
REMARK    1  A    between atoms: C1_2  and  C2_3 
ROOT
ATOM      1  C2  UNL d   1       5.985   0.828  -0.001  0.00  0.00    -0.077 A 
ATOM      2  C3  UNL d   1       6.000   1.601   1.168  0.00  0.00     0.002 A 
ATOM      3  C4  UNL d   1       6.000   2.995   1.093  0.00  0.00     0.002 A 
ATOM      4  C5  UNL d   1       5.980   3.628  -0.148  0.00  0.00    -0.004 A 
ATOM      5  C6  UNL d   1       5.967   2.867  -1.317  0.00  0.00     0.002 A 
ATOM      6  C7  UNL d   1       5.969   1.474  -1.244  0.00  0.00     0.002 A 
ENDROOT
BRANCH   1   7
ATOM      7  C1  UNL d   1       5.935  -0.676   0.079  0.00  0.00     0.055 C 
ATOM      8  C   UNL d   1       5.951  -1.155   1.523  0.00  0.00     0.019 C 
ENDBRANCH   1   7
TORSDOF 1
ENDMDL
