MODEL 1
REMARK minimizedAffinity 3.61198187
REMARK minimizedRMSD -1
REMARK  1 active torsions:
REMARK  status: ('A' for Active; 'I' for Inactive)
REMARK    1  A    between atoms: C1_2  and  C2_3 
ROOT
ATOM      1  C2  UNL d   1       0.201  -2.148   1.424  0.00  0.00    -0.077 A 
ATOM      2  C3  UNL d   1       0.444  -3.287   0.644  0.00  0.00     0.002 A 
ATOM      3  C4  UNL d   1       1.753  -3.671   0.344  0.00  0.00     0.002 A 
ATOM      4  C5  UNL d   1       2.827  -2.924   0.823  0.00  0.00    -0.004 A 
ATOM      5  C6  UNL d   1       2.595  -1.788   1.598  0.00  0.00     0.002 A 
ATOM      6  C7  UNL d   1       1.288  -1.402   1.898  0.00  0.00     0.002 A 
ENDROOT
BRANCH   1   7
ATOM      7  C1  UNL d   1      -1.208  -1.760   1.790  0.00  0.00     0.055 C 
ATOM      8  C   UNL d   1      -2.054  -2.984   2.108  0.00  0.00     0.019 C 
ENDBRANCH   1   7
TORSDOF 1
ENDMDL
