MODEL 1
REMARK minimizedAffinity 3.90770555
REMARK minimizedRMSD -1
REMARK  1 active torsions:
REMARK  status: ('A' for Active; 'I' for Inactive)
REMARK    1  A    between atoms: C1_2  and  C2_3 
ROOT
ATOM      1  C2  UNL d   1       4.066  -3.450   5.372  0.00  0.00    -0.077 A 
ATOM      2  C3  UNL d   1       5.404  -3.552   5.778  0.00  0.00     0.002 A 
ATOM      3  C4  UNL d   1       6.000  -4.804   5.940  0.00  0.00     0.002 A 
ATOM      4  C5  UNL d   1       5.267  -5.963   5.693  0.00  0.00    -0.004 A 
ATOM      5  C6  UNL d   1       3.935  -5.873   5.291  0.00  0.00     0.002 A 
ATOM      6  C7  UNL d   1       3.337  -4.622   5.130  0.00  0.00     0.002 A 
ENDROOT
BRANCH   1   7
ATOM      7  C1  UNL d   1       3.436  -2.100   5.149  0.00  0.00     0.055 C 
ATOM      8  C   UNL d   1       3.176  -1.847   3.672  0.00  0.00     0.019 C 
ENDBRANCH   1   7
TORSDOF 1
ENDMDL
