MODEL 1
REMARK minimizedAffinity 0.465060383
REMARK minimizedRMSD -1
REMARK  0 active torsions:
REMARK  status: ('A' for Active; 'I' for Inactive)
ROOT
ATOM      1  C1  DEN d   1      -1.799  -2.127   0.489  0.00  0.00     0.130 A 
ATOM      2  C2  DEN d   1      -1.740  -0.991   1.405  0.00  0.00    -0.031 A 
ATOM      3  C3  DEN d   1      -2.225   0.202   0.684  0.00  0.00     0.027 A 
ATOM      4  C4  DEN d   1      -3.062   0.400  -1.748  0.00  0.00     0.027 A 
ATOM      5  C5  DEN d   1      -3.285  -0.292  -2.918  0.00  0.00    -0.003 A 
ATOM      6  C6  DEN d   1      -2.998  -1.626  -3.044  0.00  0.00     0.001 A 
ATOM      7  C7  DEN d   1      -2.515  -2.321  -1.967  0.00  0.00     0.017 A 
ATOM      8  C8  DEN d   1      -2.280  -1.628  -0.786  0.00  0.00    -0.094 A 
ATOM      9  C9  DEN d   1      -2.588  -0.283  -0.675  0.00  0.00    -0.072 A 
ENDROOT
TORSDOF 0
ENDMDL
