MODEL 1
REMARK minimizedAffinity 21.6853104
REMARK minimizedRMSD -1
REMARK  0 active torsions:
REMARK  status: ('A' for Active; 'I' for Inactive)
ROOT
ATOM      1  C1  DEN d   1      -0.397  -0.361   1.844  0.00  0.00     0.130 A 
ATOM      2  C2  DEN d   1       0.258   0.943   1.785  0.00  0.00    -0.031 A 
ATOM      3  C3  DEN d   1      -0.373   1.723   0.701  0.00  0.00     0.027 A 
ATOM      4  C4  DEN d   1      -2.294   1.043  -0.880  0.00  0.00     0.027 A 
ATOM      5  C5  DEN d   1      -3.163   0.029  -1.220  0.00  0.00    -0.003 A 
ATOM      6  C6  DEN d   1      -3.148  -1.187  -0.590  0.00  0.00     0.001 A 
ATOM      7  C7  DEN d   1      -2.276  -1.405   0.444  0.00  0.00     0.017 A 
ATOM      8  C8  DEN d   1      -1.392  -0.391   0.787  0.00  0.00    -0.094 A 
ATOM      9  C9  DEN d   1      -1.431   0.836   0.147  0.00  0.00    -0.072 A 
ENDROOT
TORSDOF 0
ENDMDL
