MODEL 1
REMARK minimizedAffinity 6.28388739
REMARK minimizedRMSD -1
REMARK  0 active torsions:
REMARK  status: ('A' for Active; 'I' for Inactive)
ROOT
ATOM      1  C1  DEN d   1       1.036  -3.438   1.331  0.00  0.00     0.130 A 
ATOM      2  C2  DEN d   1       2.330  -2.893   1.731  0.00  0.00    -0.031 A 
ATOM      3  C3  DEN d   1       2.168  -1.441   1.947  0.00  0.00     0.027 A 
ATOM      4  C4  DEN d   1       0.048   0.008   1.705  0.00  0.00     0.027 A 
ATOM      5  C5  DEN d   1      -1.290  -0.006   1.376  0.00  0.00    -0.003 A 
ATOM      6  C6  DEN d   1      -1.932  -1.148   0.979  0.00  0.00     0.001 A 
ATOM      7  C7  DEN d   1      -1.248  -2.335   0.944  0.00  0.00     0.017 A 
ATOM      8  C8  DEN d   1       0.102  -2.328   1.268  0.00  0.00    -0.094 A 
ATOM      9  C9  DEN d   1       0.731  -1.165   1.678  0.00  0.00    -0.072 A 
ENDROOT
TORSDOF 0
ENDMDL
