MODEL 1
REMARK minimizedAffinity 3.15145326
REMARK minimizedRMSD -1
REMARK  0 active torsions:
REMARK  status: ('A' for Active; 'I' for Inactive)
ROOT
ATOM      1  C1  DEN d   1      -5.356  -1.423  -1.499  0.00  0.00     0.130 A 
ATOM      2  C2  DEN d   1      -6.000  -2.618  -2.038  0.00  0.00    -0.031 A 
ATOM      3  C3  DEN d   1      -5.067  -3.751  -1.879  0.00  0.00     0.027 A 
ATOM      4  C4  DEN d   1      -2.702  -3.773  -0.850  0.00  0.00     0.027 A 
ATOM      5  C5  DEN d   1      -1.724  -2.997  -0.268  0.00  0.00    -0.003 A 
ATOM      6  C6  DEN d   1      -1.873  -1.648  -0.088  0.00  0.00     0.001 A 
ATOM      7  C7  DEN d   1      -3.045  -1.040  -0.453  0.00  0.00     0.017 A 
ATOM      8  C8  DEN d   1      -4.033  -1.814  -1.047  0.00  0.00    -0.094 A 
ATOM      9  C9  DEN d   1      -3.868  -3.179  -1.209  0.00  0.00    -0.072 A 
ENDROOT
TORSDOF 0
ENDMDL
