MODEL 1
REMARK minimizedAffinity 4.74176502
REMARK minimizedRMSD -1
REMARK  0 active torsions:
REMARK  status: ('A' for Active; 'I' for Inactive)
ROOT
ATOM      1  C1  DEN d   1       1.887  -2.160   2.231  0.00  0.00     0.130 A 
ATOM      2  C2  DEN d   1       1.413  -1.065   1.388  0.00  0.00    -0.031 A 
ATOM      3  C3  DEN d   1       0.902   0.003   2.271  0.00  0.00     0.027 A 
ATOM      4  C4  DEN d   1       0.805   0.069   4.848  0.00  0.00     0.027 A 
ATOM      5  C5  DEN d   1       1.079  -0.634   6.000  0.00  0.00    -0.003 A 
ATOM      6  C6  DEN d   1       1.607  -1.898   5.976  0.00  0.00     0.001 A 
ATOM      7  C7  DEN d   1       1.918  -2.481   4.776  0.00  0.00     0.017 A 
ATOM      8  C8  DEN d   1       1.637  -1.781   3.610  0.00  0.00    -0.094 A 
ATOM      9  C9  DEN d   1       1.115  -0.500   3.655  0.00  0.00    -0.072 A 
ENDROOT
TORSDOF 0
ENDMDL
