MODEL 1
REMARK minimizedAffinity 0.632925212
REMARK minimizedRMSD -1
REMARK  0 active torsions:
REMARK  status: ('A' for Active; 'I' for Inactive)
ROOT
ATOM      1  C2' OXE d   1      -1.062   1.678   0.238  0.00  0.00     0.078 C 
ATOM      2  C1' OXE d   1       0.270  -0.603  -0.712  0.00  0.00     0.078 C 
ATOM      3  C1  OXE d   1      -1.044  -0.237  -1.356  0.00  0.00    -0.078 A 
ATOM      4  C2  OXE d   1      -1.711   0.854  -0.853  0.00  0.00    -0.078 A 
ATOM      5  C3  OXE d   1      -2.900   1.268  -1.446  0.00  0.00     0.003 A 
ATOM      6  C4  OXE d   1      -3.499   0.495  -2.448  0.00  0.00    -0.002 A 
ATOM      7  C5  OXE d   1      -2.856  -0.642  -2.947  0.00  0.00    -0.002 A 
ATOM      8  C6  OXE d   1      -1.610  -0.997  -2.442  0.00  0.00     0.003 A 
ENDROOT
TORSDOF 0
ENDMDL
