MODEL 1
REMARK minimizedAffinity -0.198461115
REMARK minimizedRMSD -1
REMARK  0 active torsions:
REMARK  status: ('A' for Active; 'I' for Inactive)
ROOT
ATOM      1  C2' OXE d   1      -0.369  -1.198   0.239  0.00  0.00     0.078 C 
ATOM      2  C1' OXE d   1      -0.994   1.537   0.343  0.00  0.00     0.078 C 
ATOM      3  C1  OXE d   1      -1.495   0.745  -0.839  0.00  0.00    -0.078 A 
ATOM      4  C2  OXE d   1      -1.145  -0.582  -0.905  0.00  0.00    -0.078 A 
ATOM      5  C3  OXE d   1      -1.627  -1.371  -1.946  0.00  0.00     0.003 A 
ATOM      6  C4  OXE d   1      -2.335  -0.791  -3.005  0.00  0.00    -0.002 A 
ATOM      7  C5  OXE d   1      -2.668   0.567  -2.977  0.00  0.00    -0.002 A 
ATOM      8  C6  OXE d   1      -2.293   1.339  -1.883  0.00  0.00     0.003 A 
ENDROOT
TORSDOF 0
ENDMDL
