MODEL 1
REMARK minimizedAffinity -5.50192356
REMARK minimizedRMSD -1
REMARK  0 active torsions:
REMARK  status: ('A' for Active; 'I' for Inactive)
ROOT
ATOM      1  C2' OXE d   1      -1.287   0.109  -0.196  0.00  0.00     0.078 C 
ATOM      2  C1' OXE d   1       0.266  -2.078   0.634  0.00  0.00     0.078 C 
ATOM      3  C1  OXE d   1       0.943  -0.734   0.528  0.00  0.00    -0.078 A 
ATOM      4  C2  OXE d   1       0.187   0.321   0.076  0.00  0.00    -0.078 A 
ATOM      5  C3  OXE d   1       0.748   1.593   0.012  0.00  0.00     0.003 A 
ATOM      6  C4  OXE d   1       2.114   1.779   0.257  0.00  0.00    -0.002 A 
ATOM      7  C5  OXE d   1       2.911   0.710   0.679  0.00  0.00    -0.002 A 
ATOM      8  C6  OXE d   1       2.333  -0.542   0.861  0.00  0.00     0.003 A 
ENDROOT
TORSDOF 0
ENDMDL
