MODEL 1
REMARK minimizedAffinity -5.10003901
REMARK minimizedRMSD -1
REMARK  0 active torsions:
REMARK  status: ('A' for Active; 'I' for Inactive)
ROOT
ATOM      1  C2' OXE d   1       0.384   2.348   0.350  0.00  0.00     0.078 C 
ATOM      2  C1' OXE d   1      -1.270   0.128  -0.116  0.00  0.00     0.078 C 
ATOM      3  C1  OXE d   1       0.197  -0.126   0.129  0.00  0.00    -0.078 A 
ATOM      4  C2  OXE d   1       1.007   0.969   0.310  0.00  0.00    -0.078 A 
ATOM      5  C3  OXE d   1       2.357   0.788   0.593  0.00  0.00     0.003 A 
ATOM      6  C4  OXE d   1       2.927  -0.490   0.544  0.00  0.00    -0.002 A 
ATOM      7  C5  OXE d   1       2.127  -1.616   0.322  0.00  0.00    -0.002 A 
ATOM      8  C6  OXE d   1       0.756  -1.455   0.155  0.00  0.00     0.003 A 
ENDROOT
TORSDOF 0
ENDMDL
