MODEL 1
REMARK minimizedAffinity -3.86987233
REMARK minimizedRMSD -1
REMARK  0 active torsions:
REMARK  status: ('A' for Active; 'I' for Inactive)
ROOT
ATOM      1  C2' OXE d   1       3.222  -0.205   0.486  0.00  0.00     0.078 C 
ATOM      2  C1' OXE d   1       2.212   2.413   0.542  0.00  0.00     0.078 C 
ATOM      3  C1  OXE d   1       1.229   1.284   0.360  0.00  0.00    -0.078 A 
ATOM      4  C2  OXE d   1       1.738   0.009   0.287  0.00  0.00    -0.078 A 
ATOM      5  C3  OXE d   1       0.870  -1.074   0.175  0.00  0.00     0.003 A 
ATOM      6  C4  OXE d   1      -0.501  -0.866  -0.019  0.00  0.00    -0.002 A 
ATOM      7  C5  OXE d   1      -1.035   0.426   0.012  0.00  0.00    -0.002 A 
ATOM      8  C6  OXE d   1      -0.191   1.507   0.243  0.00  0.00     0.003 A 
ENDROOT
TORSDOF 0
ENDMDL
