MODEL 1
REMARK minimizedAffinity -6.22168303
REMARK minimizedRMSD -1
REMARK  0 active torsions:
REMARK  status: ('A' for Active; 'I' for Inactive)
ROOT
ATOM      1  C2' OXE d   1      -1.134  -1.789   1.111  0.00  0.00     0.078 C 
ATOM      2  C1' OXE d   1      -1.010   0.431  -0.603  0.00  0.00     0.078 C 
ATOM      3  C1  OXE d   1       0.285  -0.090  -0.032  0.00  0.00    -0.078 A 
ATOM      4  C2  OXE d   1       0.210  -1.147   0.842  0.00  0.00    -0.078 A 
ATOM      5  C3  OXE d   1       1.380  -1.701   1.355  0.00  0.00     0.003 A 
ATOM      6  C4  OXE d   1       2.618  -1.096   1.109  0.00  0.00    -0.002 A 
ATOM      7  C5  OXE d   1       2.712   0.007   0.253  0.00  0.00    -0.002 A 
ATOM      8  C6  OXE d   1       1.562   0.495  -0.358  0.00  0.00     0.003 A 
ENDROOT
TORSDOF 0
ENDMDL
