MODEL 1
REMARK minimizedAffinity -5.88785648
REMARK minimizedRMSD -1
REMARK  0 active torsions:
REMARK  status: ('A' for Active; 'I' for Inactive)
ROOT
ATOM      1  C2' OXE d   1       0.387   2.621   0.132  0.00  0.00     0.078 C 
ATOM      2  C1' OXE d   1      -1.213   0.464  -0.686  0.00  0.00     0.078 C 
ATOM      3  C1  OXE d   1       0.171   0.158  -0.170  0.00  0.00    -0.078 A 
ATOM      4  C2  OXE d   1       0.964   1.223   0.184  0.00  0.00    -0.078 A 
ATOM      5  C3  OXE d   1       2.229   0.994   0.717  0.00  0.00     0.003 A 
ATOM      6  C4  OXE d   1       2.759  -0.302   0.752  0.00  0.00    -0.002 A 
ATOM      7  C5  OXE d   1       1.983  -1.397   0.359  0.00  0.00    -0.002 A 
ATOM      8  C6  OXE d   1       0.675  -1.189  -0.064  0.00  0.00     0.003 A 
ENDROOT
TORSDOF 0
ENDMDL
