MODEL 1
REMARK minimizedAffinity -4.62642193
REMARK minimizedRMSD -1
REMARK  0 active torsions:
REMARK  status: ('A' for Active; 'I' for Inactive)
ROOT
ATOM      1  C2' OXE d   1      -0.942  -0.491  -0.342  0.00  0.00     0.078 C 
ATOM      2  C1' OXE d   1       0.291  -2.390   1.317  0.00  0.00     0.078 C 
ATOM      3  C1  OXE d   1       1.085  -1.164   0.939  0.00  0.00    -0.078 A 
ATOM      4  C2  OXE d   1       0.490  -0.263   0.090  0.00  0.00    -0.078 A 
ATOM      5  C3  OXE d   1       1.158   0.911  -0.246  0.00  0.00     0.003 A 
ATOM      6  C4  OXE d   1       2.486   1.110   0.149  0.00  0.00    -0.002 A 
ATOM      7  C5  OXE d   1       3.124   0.185   0.983  0.00  0.00    -0.002 A 
ATOM      8  C6  OXE d   1       2.425  -0.934   1.421  0.00  0.00     0.003 A 
ENDROOT
TORSDOF 0
ENDMDL
