MODEL 1
REMARK minimizedAffinity -5.48943377
REMARK minimizedRMSD -1
REMARK  0 active torsions:
REMARK  status: ('A' for Active; 'I' for Inactive)
ROOT
ATOM      1  C2' OXE d   1      -0.751  -0.360  -0.407  0.00  0.00     0.078 C 
ATOM      2  C1' OXE d   1       1.226   1.625  -0.219  0.00  0.00     0.078 C 
ATOM      3  C1  OXE d   1       1.420   0.360   0.580  0.00  0.00    -0.078 A 
ATOM      4  C2  OXE d   1       0.425  -0.586   0.518  0.00  0.00    -0.078 A 
ATOM      5  C3  OXE d   1       0.580  -1.793   1.193  0.00  0.00     0.003 A 
ATOM      6  C4  OXE d   1       1.666  -1.990   2.054  0.00  0.00    -0.002 A 
ATOM      7  C5  OXE d   1       2.670  -1.023   2.163  0.00  0.00    -0.002 A 
ATOM      8  C6  OXE d   1       2.584   0.137   1.401  0.00  0.00     0.003 A 
ENDROOT
TORSDOF 0
ENDMDL
