MODEL 1
REMARK minimizedAffinity -2.65806627
REMARK minimizedRMSD -1
REMARK  0 active torsions:
REMARK  status: ('A' for Active; 'I' for Inactive)
ROOT
ATOM      1  C2' OXE d   1       2.614  -0.612   0.621  0.00  0.00     0.078 C 
ATOM      2  C1' OXE d   1       0.783  -2.660   1.201  0.00  0.00     0.078 C 
ATOM      3  C1  OXE d   1       0.252  -1.402   0.560  0.00  0.00    -0.078 A 
ATOM      4  C2  OXE d   1       1.147  -0.387   0.323  0.00  0.00    -0.078 A 
ATOM      5  C3  OXE d   1       0.720   0.774  -0.316  0.00  0.00     0.003 A 
ATOM      6  C4  OXE d   1      -0.640   0.978  -0.579  0.00  0.00    -0.002 A 
ATOM      7  C5  OXE d   1      -1.574  -0.027  -0.309  0.00  0.00    -0.002 A 
ATOM      8  C6  OXE d   1      -1.140  -1.237   0.220  0.00  0.00     0.003 A 
ENDROOT
TORSDOF 0
ENDMDL
