MODEL 1
REMARK minimizedAffinity -5.26789188
REMARK minimizedRMSD -1
REMARK  0 active torsions:
REMARK  status: ('A' for Active; 'I' for Inactive)
ROOT
ATOM      1  C2' OXE d   1      -0.508  -0.702  -0.378  0.00  0.00     0.078 C 
ATOM      2  C1' OXE d   1       1.471   1.255  -0.743  0.00  0.00     0.078 C 
ATOM      3  C1  OXE d   1       1.747   0.152   0.248  0.00  0.00    -0.078 A 
ATOM      4  C2  OXE d   1       0.754  -0.775   0.454  0.00  0.00    -0.078 A 
ATOM      5  C3  OXE d   1       0.978  -1.844   1.317  0.00  0.00     0.003 A 
ATOM      6  C4  OXE d   1       2.143  -1.898   2.091  0.00  0.00    -0.002 A 
ATOM      7  C5  OXE d   1       3.151  -0.942   1.925  0.00  0.00    -0.002 A 
ATOM      8  C6  OXE d   1       2.987   0.064   0.979  0.00  0.00     0.003 A 
ENDROOT
TORSDOF 0
ENDMDL
