MODEL 1
REMARK minimizedAffinity 4.05329323
REMARK minimizedRMSD -1
REMARK  0 active torsions:
REMARK  status: ('A' for Active; 'I' for Inactive)
ROOT
ATOM      1  C2' OXE d   1       2.492   5.602  -0.384  0.00  0.00     0.078 C 
ATOM      2  C1' OXE d   1      -0.101   5.882   0.655  0.00  0.00     0.078 C 
ATOM      3  C1  OXE d   1       0.468   4.489   0.549  0.00  0.00    -0.078 A 
ATOM      4  C2  OXE d   1       1.720   4.357  -0.004  0.00  0.00    -0.078 A 
ATOM      5  C3  OXE d   1       2.313   3.100  -0.074  0.00  0.00     0.003 A 
ATOM      6  C4  OXE d   1       1.588   1.953   0.270  0.00  0.00    -0.002 A 
ATOM      7  C5  OXE d   1       0.297   2.062   0.798  0.00  0.00    -0.002 A 
ATOM      8  C6  OXE d   1      -0.260   3.322   0.983  0.00  0.00     0.003 A 
ENDROOT
TORSDOF 0
ENDMDL
