MODEL 1
REMARK minimizedAffinity -3.60638785
REMARK minimizedRMSD -1
REMARK  1 active torsions:
REMARK  status: ('A' for Active; 'I' for Inactive)
REMARK    1  A    between atoms: C1_2  and  C2_3 
ROOT
ATOM      1  C2  UNL d   1       0.571  -0.070  -0.020  0.00  0.00    -0.077 A 
ATOM      2  C3  UNL d   1       0.184  -0.870   1.064  0.00  0.00     0.002 A 
ATOM      3  C4  UNL d   1      -0.680  -0.368   2.039  0.00  0.00     0.002 A 
ATOM      4  C5  UNL d   1      -1.167   0.934   1.937  0.00  0.00    -0.004 A 
ATOM      5  C6  UNL d   1      -0.787   1.738   0.864  0.00  0.00     0.002 A 
ATOM      6  C7  UNL d   1       0.078   1.238  -0.111  0.00  0.00     0.002 A 
ENDROOT
BRANCH   1   7
ATOM      7  C1  UNL d   1       1.464  -0.626  -1.099  0.00  0.00     0.055 C 
ATOM      8  C   UNL d   1       0.994  -2.001  -1.552  0.00  0.00     0.019 C 
ENDBRANCH   1   7
TORSDOF 1
ENDMDL
