MODEL 1
REMARK minimizedAffinity -4.10615206
REMARK minimizedRMSD -1
REMARK  1 active torsions:
REMARK  status: ('A' for Active; 'I' for Inactive)
REMARK    1  A    between atoms: C1_2  and  C2_3 
ROOT
ATOM      1  C2  UNL d   1       0.475   0.034  -0.134  0.00  0.00    -0.077 A 
ATOM      2  C3  UNL d   1       0.462   1.362  -0.583  0.00  0.00     0.002 A 
ATOM      3  C4  UNL d   1      -0.249   2.338   0.117  0.00  0.00     0.002 A 
ATOM      4  C5  UNL d   1      -0.949   1.997   1.273  0.00  0.00    -0.004 A 
ATOM      5  C6  UNL d   1      -0.944   0.678   1.726  0.00  0.00     0.002 A 
ATOM      6  C7  UNL d   1      -0.235  -0.299   1.026  0.00  0.00     0.002 A 
ENDROOT
BRANCH   1   7
ATOM      7  C1  UNL d   1       1.282  -1.010  -0.861  0.00  0.00     0.055 C 
ATOM      8  C   UNL d   1       0.412  -1.820  -1.811  0.00  0.00     0.019 C 
ENDBRANCH   1   7
TORSDOF 1
ENDMDL
