MODEL 1
REMARK minimizedAffinity -4.00790882
REMARK minimizedRMSD -1
REMARK  1 active torsions:
REMARK  status: ('A' for Active; 'I' for Inactive)
REMARK    1  A    between atoms: C1_2  and  C2_3 
ROOT
ATOM      1  C2  UNL d   1       0.111  -1.344  -0.878  0.00  0.00    -0.077 A 
ATOM      2  C3  UNL d   1      -1.058  -1.885  -1.431  0.00  0.00     0.002 A 
ATOM      3  C4  UNL d   1      -0.997  -3.025  -2.234  0.00  0.00     0.002 A 
ATOM      4  C5  UNL d   1       0.229  -3.637  -2.487  0.00  0.00    -0.004 A 
ATOM      5  C6  UNL d   1       1.397  -3.106  -1.943  0.00  0.00     0.002 A 
ATOM      6  C7  UNL d   1       1.339  -1.965  -1.141  0.00  0.00     0.002 A 
ENDROOT
BRANCH   1   7
ATOM      7  C1  UNL d   1       0.042  -0.143   0.029  0.00  0.00     0.055 C 
ATOM      8  C   UNL d   1      -0.722  -0.457   1.307  0.00  0.00     0.019 C 
ENDBRANCH   1   7
TORSDOF 1
ENDMDL
