MODEL 1
REMARK minimizedAffinity 1.07974195
REMARK minimizedRMSD -1
REMARK  1 active torsions:
REMARK  status: ('A' for Active; 'I' for Inactive)
REMARK    1  A    between atoms: C1_2  and  C2_3 
ROOT
ATOM      1  C2  UNL d   1      -0.056   0.242   0.455  0.00  0.00    -0.077 A 
ATOM      2  C3  UNL d   1      -0.404  -0.510   1.586  0.00  0.00     0.002 A 
ATOM      3  C4  UNL d   1      -1.169   0.060   2.605  0.00  0.00     0.002 A 
ATOM      4  C5  UNL d   1      -1.597   1.382   2.501  0.00  0.00    -0.004 A 
ATOM      5  C6  UNL d   1      -1.254   2.139   1.381  0.00  0.00     0.002 A 
ATOM      6  C7  UNL d   1      -0.488   1.571   0.362  0.00  0.00     0.002 A 
ENDROOT
BRANCH   1   7
ATOM      7  C1  UNL d   1       0.728  -0.387  -0.668  0.00  0.00     0.055 C 
ATOM      8  C   UNL d   1       1.196   0.659  -1.669  0.00  0.00     0.019 C 
ENDBRANCH   1   7
TORSDOF 1
ENDMDL
