MODEL 1
REMARK minimizedAffinity -4.51980877
REMARK minimizedRMSD -1
REMARK  1 active torsions:
REMARK  status: ('A' for Active; 'I' for Inactive)
REMARK    1  A    between atoms: C1_2  and  C2_3 
ROOT
ATOM      1  C2  UNL d   1       0.089  -0.622  -0.222  0.00  0.00    -0.077 A 
ATOM      2  C3  UNL d   1      -0.528  -0.549   1.035  0.00  0.00     0.002 A 
ATOM      3  C4  UNL d   1      -1.345   0.535   1.359  0.00  0.00     0.002 A 
ATOM      4  C5  UNL d   1      -1.556   1.553   0.431  0.00  0.00    -0.004 A 
ATOM      5  C6  UNL d   1      -0.946   1.490  -0.821  0.00  0.00     0.002 A 
ATOM      6  C7  UNL d   1      -0.128   0.407  -1.147  0.00  0.00     0.002 A 
ENDROOT
BRANCH   1   7
ATOM      7  C1  UNL d   1       0.930  -1.816  -0.591  0.00  0.00     0.055 C 
ATOM      8  C   UNL d   1       0.332  -2.573  -1.768  0.00  0.00     0.019 C 
ENDBRANCH   1   7
TORSDOF 1
ENDMDL
