MODEL 1
REMARK minimizedAffinity -4.99165821
REMARK minimizedRMSD -1
REMARK  1 active torsions:
REMARK  status: ('A' for Active; 'I' for Inactive)
REMARK    1  A    between atoms: C1_2  and  C2_3 
ROOT
ATOM      1  C2  UNL d   1       0.494  -0.728  -0.402  0.00  0.00    -0.077 A 
ATOM      2  C3  UNL d   1       0.441   0.559  -0.954  0.00  0.00     0.002 A 
ATOM      3  C4  UNL d   1       0.391   0.732  -2.339  0.00  0.00     0.002 A 
ATOM      4  C5  UNL d   1       0.388  -0.377  -3.182  0.00  0.00    -0.004 A 
ATOM      5  C6  UNL d   1       0.442  -1.662  -2.642  0.00  0.00     0.002 A 
ATOM      6  C7  UNL d   1       0.494  -1.837  -1.259  0.00  0.00     0.002 A 
ENDROOT
BRANCH   1   7
ATOM      7  C1  UNL d   1       0.499  -0.918   1.092  0.00  0.00     0.055 C 
ATOM      8  C   UNL d   1      -0.686  -0.219   1.743  0.00  0.00     0.019 C 
ENDBRANCH   1   7
TORSDOF 1
ENDMDL
