MODEL 1
REMARK minimizedAffinity -4.91084957
REMARK minimizedRMSD -1
REMARK  1 active torsions:
REMARK  status: ('A' for Active; 'I' for Inactive)
REMARK    1  A    between atoms: C1_2  and  C2_3 
ROOT
ATOM      1  C2  UNL d   1       0.239   0.632   0.424  0.00  0.00    -0.077 A 
ATOM      2  C3  UNL d   1      -0.511   1.312   1.394  0.00  0.00     0.002 A 
ATOM      3  C4  UNL d   1      -0.671   2.697   1.320  0.00  0.00     0.002 A 
ATOM      4  C5  UNL d   1      -0.088   3.413   0.277  0.00  0.00    -0.004 A 
ATOM      5  C6  UNL d   1       0.662   2.747  -0.691  0.00  0.00     0.002 A 
ATOM      6  C7  UNL d   1       0.824   1.363  -0.619  0.00  0.00     0.002 A 
ENDROOT
BRANCH   1   7
ATOM      7  C1  UNL d   1       0.372  -0.867   0.474  0.00  0.00     0.055 C 
ATOM      8  C   UNL d   1       0.530  -1.456  -0.921  0.00  0.00     0.019 C 
ENDBRANCH   1   7
TORSDOF 1
ENDMDL
