MODEL 1
REMARK minimizedAffinity -4.83217716
REMARK minimizedRMSD -1
REMARK  1 active torsions:
REMARK  status: ('A' for Active; 'I' for Inactive)
REMARK    1  A    between atoms: C1_2  and  C2_3 
ROOT
ATOM      1  C2  UNL d   1      -0.724   1.668   0.975  0.00  0.00    -0.077 A 
ATOM      2  C3  UNL d   1      -0.054   0.911   0.004  0.00  0.00     0.002 A 
ATOM      3  C4  UNL d   1       0.492   1.532  -1.122  0.00  0.00     0.002 A 
ATOM      4  C5  UNL d   1       0.375   2.911  -1.284  0.00  0.00    -0.004 A 
ATOM      5  C6  UNL d   1      -0.292   3.671  -0.325  0.00  0.00     0.002 A 
ATOM      6  C7  UNL d   1      -0.838   3.053   0.800  0.00  0.00     0.002 A 
ENDROOT
BRANCH   1   7
ATOM      7  C1  UNL d   1      -1.270   1.007   2.214  0.00  0.00     0.055 C 
ATOM      8  C   UNL d   1      -0.565  -0.312   2.495  0.00  0.00     0.019 C 
ENDBRANCH   1   7
TORSDOF 1
ENDMDL
