MODEL 1
REMARK minimizedAffinity 2.98515725
REMARK minimizedRMSD -1
REMARK  1 active torsions:
REMARK  status: ('A' for Active; 'I' for Inactive)
REMARK    1  A    between atoms: N_2  and  C1_3 
ROOT
ATOM      1  C1  UNL d   1      -0.976  -1.096  -4.549  0.00  0.00     0.143 A 
ATOM      2  C2  UNL d   1      -0.289  -1.729  -3.508  0.00  0.00    -0.057 A 
ATOM      3  C3  UNL d   1       1.093  -1.946  -3.576  0.00  0.00     0.033 A 
ATOM      4  C4  UNL d   1       1.809  -1.558  -4.703  0.00  0.00    -0.042 A 
ATOM      5  C5  UNL d   1       1.143  -0.950  -5.761  0.00  0.00     0.033 A 
ATOM      6  C6  UNL d   1      -0.236  -0.730  -5.684  0.00  0.00    -0.057 A 
ENDROOT
BRANCH   1   7
ATOM      7  N   UNL d   1      -2.364  -0.940  -4.584  0.00  0.00    -0.732 N 
ATOM      8  C   UNL d   1      -3.236  -2.095  -4.557  0.00  0.00     0.284 C 
ATOM      9  H3  UNL d   1      -2.682  -0.165  -4.006  0.00  0.00     0.395 HD
ENDBRANCH   1   7
TORSDOF 1
ENDMDL
