MODEL 1
REMARK minimizedAffinity -1.31797349
REMARK minimizedRMSD -1
REMARK  1 active torsions:
REMARK  status: ('A' for Active; 'I' for Inactive)
REMARK    1  A    between atoms: N_2  and  C1_3 
ROOT
ATOM      1  C1  UNL d   1      -1.491   5.922  -3.711  0.00  0.00     0.143 A 
ATOM      2  C2  UNL d   1      -1.748   5.958  -2.336  0.00  0.00    -0.057 A 
ATOM      3  C3  UNL d   1      -3.058   5.982  -1.843  0.00  0.00     0.033 A 
ATOM      4  C4  UNL d   1      -4.138   6.000  -2.720  0.00  0.00    -0.042 A 
ATOM      5  C5  UNL d   1      -3.905   5.989  -4.091  0.00  0.00     0.033 A 
ATOM      6  C6  UNL d   1      -2.595   5.959  -4.577  0.00  0.00    -0.057 A 
ENDROOT
BRANCH   1   7
ATOM      7  N   UNL d   1      -0.210   5.996  -4.265  0.00  0.00    -0.732 N 
ATOM      8  C   UNL d   1      -0.027   5.998  -5.701  0.00  0.00     0.284 C 
ATOM      9  H3  UNL d   1       0.390   6.650  -3.768  0.00  0.00     0.395 HD
ENDBRANCH   1   7
TORSDOF 1
ENDMDL
