MODEL 1
REMARK minimizedAffinity 0.224076405
REMARK minimizedRMSD -1
REMARK  1 active torsions:
REMARK  status: ('A' for Active; 'I' for Inactive)
REMARK    1  A    between atoms: N_2  and  C1_3 
ROOT
ATOM      1  C1  UNL d   1      -1.207   6.000  -4.518  0.00  0.00     0.143 A 
ATOM      2  C2  UNL d   1      -2.554   5.987  -4.896  0.00  0.00    -0.057 A 
ATOM      3  C3  UNL d   1      -3.576   5.999  -3.939  0.00  0.00     0.033 A 
ATOM      4  C4  UNL d   1      -3.268   5.996  -2.583  0.00  0.00    -0.042 A 
ATOM      5  C5  UNL d   1      -1.936   5.983  -2.184  0.00  0.00     0.033 A 
ATOM      6  C6  UNL d   1      -0.920   5.978  -3.144  0.00  0.00    -0.057 A 
ENDROOT
BRANCH   1   7
ATOM      7  N   UNL d   1      -0.145   5.889  -5.419  0.00  0.00    -0.732 N 
ATOM      8  C   UNL d   1       1.224   5.995  -4.962  0.00  0.00     0.284 C 
ATOM      9  H3  UNL d   1      -0.297   5.157  -6.110  0.00  0.00     0.395 HD
ENDBRANCH   1   7
TORSDOF 1
ENDMDL
