MODEL 1
REMARK minimizedAffinity 0.323431253
REMARK minimizedRMSD -1
REMARK  1 active torsions:
REMARK  status: ('A' for Active; 'I' for Inactive)
REMARK    1  A    between atoms: N_2  and  C1_3 
ROOT
ATOM      1  C1  UNL d   1      -0.930   5.912  -4.282  0.00  0.00     0.143 A 
ATOM      2  C2  UNL d   1      -0.073   5.944  -3.176  0.00  0.00    -0.057 A 
ATOM      3  C3  UNL d   1      -0.576   5.967  -1.870  0.00  0.00     0.033 A 
ATOM      4  C4  UNL d   1      -1.949   5.987  -1.646  0.00  0.00    -0.042 A 
ATOM      5  C5  UNL d   1      -2.818   5.981  -2.731  0.00  0.00     0.033 A 
ATOM      6  C6  UNL d   1      -2.310   5.951  -4.033  0.00  0.00    -0.057 A 
ENDROOT
BRANCH   1   7
ATOM      7  N   UNL d   1      -0.492   5.987  -5.607  0.00  0.00    -0.732 N 
ATOM      8  C   UNL d   1       0.919   5.935  -5.921  0.00  0.00     0.284 C 
ATOM      9  H3  UNL d   1      -1.080   5.451  -6.241  0.00  0.00     0.395 HD
ENDBRANCH   1   7
TORSDOF 1
ENDMDL
