MODEL 1
REMARK minimizedAffinity -1.29021668
REMARK minimizedRMSD -1
REMARK  1 active torsions:
REMARK  status: ('A' for Active; 'I' for Inactive)
REMARK    1  A    between atoms: N_2  and  C1_3 
ROOT
ATOM      1  C1  UNL d   1      -1.558   6.000  -4.150  0.00  0.00     0.143 A 
ATOM      2  C2  UNL d   1      -2.948   5.977  -4.307  0.00  0.00    -0.057 A 
ATOM      3  C3  UNL d   1      -3.804   5.989  -3.200  0.00  0.00     0.033 A 
ATOM      4  C4  UNL d   1      -3.283   5.994  -1.910  0.00  0.00    -0.042 A 
ATOM      5  C5  UNL d   1      -1.904   5.992  -1.730  0.00  0.00     0.033 A 
ATOM      6  C6  UNL d   1      -1.055   5.987  -2.840  0.00  0.00    -0.057 A 
ENDROOT
BRANCH   1   7
ATOM      7  N   UNL d   1      -0.653   5.890  -5.209  0.00  0.00    -0.732 N 
ATOM      8  C   UNL d   1       0.773   5.948  -4.969  0.00  0.00     0.284 C 
ATOM      9  H3  UNL d   1      -0.933   5.185  -5.887  0.00  0.00     0.395 HD
ENDBRANCH   1   7
TORSDOF 1
ENDMDL
