MODEL 1
REMARK minimizedAffinity -2.50452542
REMARK minimizedRMSD -1
REMARK  1 active torsions:
REMARK  status: ('A' for Active; 'I' for Inactive)
REMARK    1  A    between atoms: N_2  and  C1_3 
ROOT
ATOM      1  C1  UNL d   1       3.223   5.621  -5.219  0.00  0.00     0.143 A 
ATOM      2  C2  UNL d   1       3.473   4.842  -4.084  0.00  0.00    -0.057 A 
ATOM      3  C3  UNL d   1       4.778   4.495  -3.715  0.00  0.00     0.033 A 
ATOM      4  C4  UNL d   1       5.858   4.897  -4.494  0.00  0.00    -0.042 A 
ATOM      5  C5  UNL d   1       5.631   5.650  -5.640  0.00  0.00     0.033 A 
ATOM      6  C6  UNL d   1       4.326   6.000  -6.000  0.00  0.00    -0.057 A 
ENDROOT
BRANCH   1   7
ATOM      7  N   UNL d   1       1.942   5.916  -5.693  0.00  0.00    -0.732 N 
ATOM      8  C   UNL d   1       0.774   5.621  -4.892  0.00  0.00     0.284 C 
ATOM      9  H3  UNL d   1       1.903   6.813  -6.172  0.00  0.00     0.395 HD
ENDBRANCH   1   7
TORSDOF 1
ENDMDL
