MODEL 1
REMARK minimizedAffinity 4.75013447
REMARK minimizedRMSD -1
REMARK  1 active torsions:
REMARK  status: ('A' for Active; 'I' for Inactive)
REMARK    1  A    between atoms: N_2  and  C1_3 
ROOT
ATOM      1  C1  UNL d   1       0.898   0.329   0.490  0.00  0.00     0.143 A 
ATOM      2  C2  UNL d   1       1.667   0.992   1.452  0.00  0.00    -0.057 A 
ATOM      3  C3  UNL d   1       2.153   2.286   1.227  0.00  0.00     0.033 A 
ATOM      4  C4  UNL d   1       1.901   2.930   0.020  0.00  0.00    -0.042 A 
ATOM      5  C5  UNL d   1       1.160   2.280  -0.960  0.00  0.00     0.033 A 
ATOM      6  C6  UNL d   1       0.672   0.991  -0.727  0.00  0.00    -0.057 A 
ENDROOT
BRANCH   1   7
ATOM      7  N   UNL d   1       0.469  -0.995   0.615  0.00  0.00    -0.732 N 
ATOM      8  C   UNL d   1      -0.555  -1.351   1.573  0.00  0.00     0.284 C 
ATOM      9  H3  UNL d   1       0.376  -1.459  -0.285  0.00  0.00     0.395 HD
ENDBRANCH   1   7
TORSDOF 1
ENDMDL
