MODEL 1
REMARK minimizedAffinity 4.78776073
REMARK minimizedRMSD -1
REMARK  1 active torsions:
REMARK  status: ('A' for Active; 'I' for Inactive)
REMARK    1  A    between atoms: N_2  and  C1_3 
ROOT
ATOM      1  C1  UNL d   1       0.387   0.343   0.577  0.00  0.00     0.143 A 
ATOM      2  C2  UNL d   1       0.797   0.919   1.784  0.00  0.00    -0.057 A 
ATOM      3  C3  UNL d   1       1.158   2.270   1.858  0.00  0.00     0.033 A 
ATOM      4  C4  UNL d   1       1.142   3.064   0.716  0.00  0.00    -0.042 A 
ATOM      5  C5  UNL d   1       0.762   2.506  -0.500  0.00  0.00     0.033 A 
ATOM      6  C6  UNL d   1       0.396   1.158  -0.566  0.00  0.00    -0.057 A 
ENDROOT
BRANCH   1   7
ATOM      7  N   UNL d   1       0.110  -1.017   0.419  0.00  0.00    -0.732 N 
ATOM      8  C   UNL d   1      -0.735  -1.712   1.366  0.00  0.00     0.284 C 
ATOM      9  H3  UNL d   1      -0.059  -1.269  -0.552  0.00  0.00     0.395 HD
ENDBRANCH   1   7
TORSDOF 1
ENDMDL
