MODEL 1
REMARK minimizedAffinity 1.14616656
REMARK minimizedRMSD -1
REMARK  1 active torsions:
REMARK  status: ('A' for Active; 'I' for Inactive)
REMARK    1  A    between atoms: N_2  and  C1_3 
ROOT
ATOM      1  C1  UNL d   1       0.855   0.484   0.559  0.00  0.00     0.143 A 
ATOM      2  C2  UNL d   1       0.710   1.190  -0.640  0.00  0.00    -0.057 A 
ATOM      3  C3  UNL d   1       1.479   2.328  -0.910  0.00  0.00     0.033 A 
ATOM      4  C4  UNL d   1       2.389   2.799   0.030  0.00  0.00    -0.042 A 
ATOM      5  C5  UNL d   1       2.532   2.128   1.239  0.00  0.00     0.033 A 
ATOM      6  C6  UNL d   1       1.766   0.988   1.500  0.00  0.00    -0.057 A 
ENDROOT
BRANCH   1   7
ATOM      7  N   UNL d   1       0.050  -0.597   0.927  0.00  0.00    -0.732 N 
ATOM      8  C   UNL d   1      -1.085  -0.405   1.805  0.00  0.00     0.284 C 
ATOM      9  H3  UNL d   1      -0.127  -1.231   0.152  0.00  0.00     0.395 HD
ENDBRANCH   1   7
TORSDOF 1
ENDMDL
