MODEL 1
REMARK minimizedAffinity -0.630009353
REMARK minimizedRMSD -1
REMARK  1 active torsions:
REMARK  status: ('A' for Active; 'I' for Inactive)
REMARK    1  A    between atoms: N_2  and  C1_3 
ROOT
ATOM      1  C1  UNL d   1      -2.249   5.314  -2.367  0.00  0.00     0.143 A 
ATOM      2  C2  UNL d   1      -3.370   5.715  -3.102  0.00  0.00    -0.057 A 
ATOM      3  C3  UNL d   1      -3.278   5.998  -4.470  0.00  0.00     0.033 A 
ATOM      4  C4  UNL d   1      -2.053   5.913  -5.123  0.00  0.00    -0.042 A 
ATOM      5  C5  UNL d   1      -0.920   5.540  -4.407  0.00  0.00     0.033 A 
ATOM      6  C6  UNL d   1      -1.020   5.253  -3.042  0.00  0.00    -0.057 A 
ENDROOT
BRANCH   1   7
ATOM      7  N   UNL d   1      -2.257   5.115  -0.984  0.00  0.00    -0.732 N 
ATOM      8  C   UNL d   1      -1.517   5.997  -0.108  0.00  0.00     0.284 C 
ATOM      9  H3  UNL d   1      -3.177   4.856  -0.634  0.00  0.00     0.395 HD
ENDBRANCH   1   7
TORSDOF 1
ENDMDL
