MODEL 1
REMARK minimizedAffinity -1.34095955
REMARK minimizedRMSD -1
REMARK  1 active torsions:
REMARK  status: ('A' for Active; 'I' for Inactive)
REMARK    1  A    between atoms: N_2  and  C1_3 
ROOT
ATOM      1  C1  UNL d   1      -0.935   5.993  -4.708  0.00  0.00     0.143 A 
ATOM      2  C2  UNL d   1      -2.295   5.999  -5.034  0.00  0.00    -0.057 A 
ATOM      3  C3  UNL d   1      -3.280   6.000  -4.039  0.00  0.00     0.033 A 
ATOM      4  C4  UNL d   1      -2.921   5.965  -2.696  0.00  0.00    -0.042 A 
ATOM      5  C5  UNL d   1      -1.575   5.934  -2.349  0.00  0.00     0.033 A 
ATOM      6  C6  UNL d   1      -0.596   5.940  -3.347  0.00  0.00    -0.057 A 
ENDROOT
BRANCH   1   7
ATOM      7  N   UNL d   1       0.091   5.893  -5.651  0.00  0.00    -0.732 N 
ATOM      8  C   UNL d   1       1.477   5.992  -5.247  0.00  0.00     0.284 C 
ATOM      9  H3  UNL d   1      -0.089   5.171  -6.345  0.00  0.00     0.395 HD
ENDBRANCH   1   7
TORSDOF 1
ENDMDL
