MODEL 1
REMARK minimizedAffinity -3.96501327
REMARK minimizedRMSD -1
REMARK  0 active torsions:
REMARK  status: ('A' for Active; 'I' for Inactive)
ROOT
ATOM      1  C   UNL d   1       1.666   3.724  -1.589  0.00  0.00     0.172 C 
ATOM      2  N   UNL d   1       1.454   2.390  -1.078  0.00  0.00    -0.070 N 
ATOM      3  C1  UNL d   1       1.703   1.226  -1.755  0.00  0.00    -0.004 A 
ATOM      4  C2  UNL d   1       1.372   0.176  -0.926  0.00  0.00    -0.047 A 
ATOM      5  C3  UNL d   1       0.906   0.728   0.291  0.00  0.00    -0.047 A 
ATOM      6  C4  UNL d   1       0.967   2.100   0.170  0.00  0.00    -0.004 A 
ENDROOT
TORSDOF 0
ENDMDL
