MODEL 1
REMARK minimizedAffinity -1.1264503
REMARK minimizedRMSD -1
REMARK  0 active torsions:
REMARK  status: ('A' for Active; 'I' for Inactive)
ROOT
ATOM      1  C   UNL d   1       1.068   3.762  -1.529  0.00  0.00     0.172 C 
ATOM      2  N   UNL d   1       1.142   2.321  -1.483  0.00  0.00    -0.070 N 
ATOM      3  C1  UNL d   1       0.757   1.535  -0.429  0.00  0.00    -0.004 A 
ATOM      4  C2  UNL d   1       0.986   0.221  -0.777  0.00  0.00    -0.047 A 
ATOM      5  C3  UNL d   1       1.527   0.217  -2.085  0.00  0.00    -0.047 A 
ATOM      6  C4  UNL d   1       1.613   1.530  -2.498  0.00  0.00    -0.004 A 
ENDROOT
TORSDOF 0
ENDMDL
