MODEL 1
REMARK minimizedAffinity -3.01808858
REMARK minimizedRMSD -1
REMARK  0 active torsions:
REMARK  status: ('A' for Active; 'I' for Inactive)
ROOT
ATOM      1  C   UNL d   1       2.010   3.739  -1.524  0.00  0.00     0.172 C 
ATOM      2  N   UNL d   1       1.592   2.406  -1.159  0.00  0.00    -0.070 N 
ATOM      3  C1  UNL d   1       1.382   1.956   0.117  0.00  0.00    -0.004 A 
ATOM      4  C2  UNL d   1       0.994   0.636   0.040  0.00  0.00    -0.047 A 
ATOM      5  C3  UNL d   1       0.971   0.280  -1.329  0.00  0.00    -0.047 A 
ATOM      6  C4  UNL d   1       1.345   1.394  -2.050  0.00  0.00    -0.004 A 
ENDROOT
TORSDOF 0
ENDMDL
