MODEL 1
REMARK minimizedAffinity -2.47873092
REMARK minimizedRMSD -1
REMARK  0 active torsions:
REMARK  status: ('A' for Active; 'I' for Inactive)
ROOT
ATOM      1  C   UNL d   1       0.879   1.033   1.107  0.00  0.00     0.172 C 
ATOM      2  N   UNL d   1       1.063   1.096  -0.324  0.00  0.00    -0.070 N 
ATOM      3  C1  UNL d   1       1.726   2.084  -1.001  0.00  0.00    -0.004 A 
ATOM      4  C2  UNL d   1       1.681   1.780  -2.344  0.00  0.00    -0.047 A 
ATOM      5  C3  UNL d   1       0.965   0.567  -2.479  0.00  0.00    -0.047 A 
ATOM      6  C4  UNL d   1       0.594   0.165  -1.213  0.00  0.00    -0.004 A 
ENDROOT
TORSDOF 0
ENDMDL
