MODEL 1
REMARK minimizedAffinity -1.63140368
REMARK minimizedRMSD -1
REMARK  0 active torsions:
REMARK  status: ('A' for Active; 'I' for Inactive)
ROOT
ATOM      1  C   UNL d   1       1.810   1.843   1.534  0.00  0.00     0.172 C 
ATOM      2  N   UNL d   1       1.572   1.508   0.150  0.00  0.00    -0.070 N 
ATOM      3  C1  UNL d   1       1.167   0.287  -0.318  0.00  0.00    -0.004 A 
ATOM      4  C2  UNL d   1       1.053   0.376  -1.689  0.00  0.00    -0.047 A 
ATOM      5  C3  UNL d   1       1.402   1.697  -2.057  0.00  0.00    -0.047 A 
ATOM      6  C4  UNL d   1       1.719   2.376  -0.900  0.00  0.00    -0.004 A 
ENDROOT
TORSDOF 0
ENDMDL
