MODEL 1
REMARK minimizedAffinity 0.0171081256
REMARK minimizedRMSD -1
REMARK  0 active torsions:
REMARK  status: ('A' for Active; 'I' for Inactive)
ROOT
ATOM      1  C   UNL d   1       1.526   3.500  -1.789  0.00  0.00     0.172 C 
ATOM      2  N   UNL d   1       1.413   2.305  -0.986  0.00  0.00    -0.070 N 
ATOM      3  C1  UNL d   1       1.293   2.268   0.377  0.00  0.00    -0.004 A 
ATOM      4  C2  UNL d   1       1.212   0.945   0.758  0.00  0.00    -0.047 A 
ATOM      5  C3  UNL d   1       1.286   0.161  -0.418  0.00  0.00    -0.047 A 
ATOM      6  C4  UNL d   1       1.410   1.028  -1.483  0.00  0.00    -0.004 A 
ENDROOT
TORSDOF 0
ENDMDL
