MODEL 1
REMARK minimizedAffinity -2.66183352
REMARK minimizedRMSD -1
REMARK  0 active torsions:
REMARK  status: ('A' for Active; 'I' for Inactive)
ROOT
ATOM      1  C   UNL d   1       1.244   2.923  -1.821  0.00  0.00     0.172 C 
ATOM      2  N   UNL d   1       1.076   1.789  -0.943  0.00  0.00    -0.070 N 
ATOM      3  C1  UNL d   1       1.016   0.478  -1.335  0.00  0.00    -0.004 A 
ATOM      4  C2  UNL d   1       0.852  -0.293  -0.205  0.00  0.00    -0.047 A 
ATOM      5  C3  UNL d   1       0.811   0.585   0.904  0.00  0.00    -0.047 A 
ATOM      6  C4  UNL d   1       0.952   1.867   0.419  0.00  0.00    -0.004 A 
ENDROOT
TORSDOF 0
ENDMDL
