MODEL 1
REMARK minimizedAffinity -3.54464579
REMARK minimizedRMSD -1
REMARK  0 active torsions:
REMARK  status: ('A' for Active; 'I' for Inactive)
ROOT
ATOM      1  C   UNL d   1       1.562   3.279  -1.829  0.00  0.00     0.172 C 
ATOM      2  N   UNL d   1       1.252   2.283  -0.831  0.00  0.00    -0.070 N 
ATOM      3  C1  UNL d   1       1.032   0.953  -1.071  0.00  0.00    -0.004 A 
ATOM      4  C2  UNL d   1       0.769   0.343   0.137  0.00  0.00    -0.047 A 
ATOM      5  C3  UNL d   1       0.833   1.341   1.138  0.00  0.00    -0.047 A 
ATOM      6  C4  UNL d   1       1.134   2.533   0.511  0.00  0.00    -0.004 A 
ENDROOT
TORSDOF 0
ENDMDL
