MODEL 1
REMARK minimizedAffinity -1.90737712
REMARK minimizedRMSD -1
REMARK  0 active torsions:
REMARK  status: ('A' for Active; 'I' for Inactive)
ROOT
ATOM      1  C   UNL d   1       1.088   0.592  -1.254  0.00  0.00     0.172 C 
ATOM      2  N   UNL d   1       1.216   1.999  -0.957  0.00  0.00    -0.070 N 
ATOM      3  C1  UNL d   1       1.369   2.999  -1.881  0.00  0.00    -0.004 A 
ATOM      4  C2  UNL d   1       1.454   4.194  -1.199  0.00  0.00    -0.047 A 
ATOM      5  C3  UNL d   1       1.350   3.902   0.182  0.00  0.00    -0.047 A 
ATOM      6  C4  UNL d   1       1.203   2.536   0.303  0.00  0.00    -0.004 A 
ENDROOT
TORSDOF 0
ENDMDL
