MODEL 1
REMARK minimizedAffinity 2.15080404
REMARK minimizedRMSD -1
REMARK  0 active torsions:
REMARK  status: ('A' for Active; 'I' for Inactive)
ROOT
ATOM      1  C   UNL d   1       1.884   2.494  -1.707  0.00  0.00     0.172 C 
ATOM      2  N   UNL d   1       1.571   1.279  -0.992  0.00  0.00    -0.070 N 
ATOM      3  C1  UNL d   1       0.980   0.166  -1.529  0.00  0.00    -0.004 A 
ATOM      4  C2  UNL d   1       0.855  -0.770  -0.525  0.00  0.00    -0.047 A 
ATOM      5  C3  UNL d   1       1.387  -0.200   0.655  0.00  0.00    -0.047 A 
ATOM      6  C4  UNL d   1       1.823   1.069   0.338  0.00  0.00    -0.004 A 
ENDROOT
TORSDOF 0
ENDMDL
