MODEL 1
REMARK minimizedAffinity -2.29087663
REMARK minimizedRMSD -1
REMARK  0 active torsions:
REMARK  status: ('A' for Active; 'I' for Inactive)
ROOT
ATOM      1  C   UNL d   1       1.469   3.433  -1.239  0.00  0.00     0.172 C 
ATOM      2  N   UNL d   1       1.267   2.003  -1.263  0.00  0.00    -0.070 N 
ATOM      3  C1  UNL d   1       1.021   1.250  -2.380  0.00  0.00    -0.004 A 
ATOM      4  C2  UNL d   1       0.889  -0.063  -1.984  0.00  0.00    -0.047 A 
ATOM      5  C3  UNL d   1       1.060  -0.101  -0.580  0.00  0.00    -0.047 A 
ATOM      6  C4  UNL d   1       1.292   1.192  -0.159  0.00  0.00    -0.004 A 
ENDROOT
TORSDOF 0
ENDMDL
