MODEL 1
REMARK minimizedAffinity -2.15759063
REMARK minimizedRMSD -1
REMARK  0 active torsions:
REMARK  status: ('A' for Active; 'I' for Inactive)
ROOT
ATOM      1  C   UNL d   1       1.392   3.783  -0.993  0.00  0.00     0.172 C 
ATOM      2  N   UNL d   1       1.294   2.344  -0.923  0.00  0.00    -0.070 N 
ATOM      3  C1  UNL d   1       1.709   1.468  -1.890  0.00  0.00    -0.004 A 
ATOM      4  C2  UNL d   1       1.443   0.191  -1.445  0.00  0.00    -0.047 A 
ATOM      5  C3  UNL d   1       0.846   0.304  -0.167  0.00  0.00    -0.047 A 
ATOM      6  C4  UNL d   1       0.766   1.648   0.132  0.00  0.00    -0.004 A 
ENDROOT
TORSDOF 0
ENDMDL
