MODEL 1
REMARK minimizedAffinity -2.98027182
REMARK minimizedRMSD -1
REMARK  0 active torsions:
REMARK  status: ('A' for Active; 'I' for Inactive)
ROOT
ATOM      1  C   UNL d   1       1.792   3.386  -1.605  0.00  0.00     0.172 C 
ATOM      2  N   UNL d   1       1.401   2.167  -0.936  0.00  0.00    -0.070 N 
ATOM      3  C1  UNL d   1       1.087   2.051   0.392  0.00  0.00    -0.004 A 
ATOM      4  C2  UNL d   1       0.769   0.733   0.636  0.00  0.00    -0.047 A 
ATOM      5  C3  UNL d   1       0.896   0.032  -0.587  0.00  0.00    -0.047 A 
ATOM      6  C4  UNL d   1       1.289   0.945  -1.544  0.00  0.00    -0.004 A 
ENDROOT
TORSDOF 0
ENDMDL
