MODEL 1
REMARK minimizedAffinity -2.57021356
REMARK minimizedRMSD -1
REMARK  0 active torsions:
REMARK  status: ('A' for Active; 'I' for Inactive)
ROOT
ATOM      1  C   UNL d   1       1.758   4.859  -1.014  0.00  0.00     0.172 C 
ATOM      2  N   UNL d   1       1.406   3.462  -0.911  0.00  0.00    -0.070 N 
ATOM      3  C1  UNL d   1       1.645   2.657   0.171  0.00  0.00    -0.004 A 
ATOM      4  C2  UNL d   1       1.161   1.400  -0.124  0.00  0.00    -0.047 A 
ATOM      5  C3  UNL d   1       0.613   1.452  -1.428  0.00  0.00    -0.047 A 
ATOM      6  C4  UNL d   1       0.779   2.740  -1.891  0.00  0.00    -0.004 A 
ENDROOT
TORSDOF 0
ENDMDL
