MODEL 1
REMARK minimizedAffinity -2.50429487
REMARK minimizedRMSD -1
REMARK  0 active torsions:
REMARK  status: ('A' for Active; 'I' for Inactive)
ROOT
ATOM      1  C   UNL d   1       0.654   2.160   1.209  0.00  0.00     0.172 C 
ATOM      2  N   UNL d   1       0.989   1.429   0.011  0.00  0.00    -0.070 N 
ATOM      3  C1  UNL d   1       1.127   0.069  -0.083  0.00  0.00    -0.004 A 
ATOM      4  C2  UNL d   1       1.450  -0.233  -1.388  0.00  0.00    -0.047 A 
ATOM      5  C3  UNL d   1       1.509   0.986  -2.103  0.00  0.00    -0.047 A 
ATOM      6  C4  UNL d   1       1.220   1.999  -1.213  0.00  0.00    -0.004 A 
ENDROOT
TORSDOF 0
ENDMDL
