MODEL 1
REMARK minimizedAffinity 15.2921391
REMARK minimizedRMSD -1
REMARK  0 active torsions:
REMARK  status: ('A' for Active; 'I' for Inactive)
ROOT
ATOM      1  C2' OXE d   1       2.581  -2.246   3.316  0.00  0.00     0.078 C 
ATOM      2  C1' OXE d   1       4.957  -2.976   4.621  0.00  0.00     0.078 C 
ATOM      3  C1  OXE d   1       3.725  -3.807   4.884  0.00  0.00    -0.078 A 
ATOM      4  C2  OXE d   1       2.557  -3.415   4.277  0.00  0.00    -0.078 A 
ATOM      5  C3  OXE d   1       1.404  -4.178   4.442  0.00  0.00     0.003 A 
ATOM      6  C4  OXE d   1       1.388  -5.251   5.341  0.00  0.00    -0.002 A 
ATOM      7  C5  OXE d   1       2.558  -5.643   6.000  0.00  0.00    -0.002 A 
ATOM      8  C6  OXE d   1       3.742  -4.960   5.750  0.00  0.00     0.003 A 
ENDROOT
TORSDOF 0
ENDMDL
