MODEL 1
REMARK minimizedAffinity -1.45935488
REMARK minimizedRMSD -1
REMARK  0 active torsions:
REMARK  status: ('A' for Active; 'I' for Inactive)
ROOT
ATOM      1  C2' OXE d   1       0.042  -1.736   0.773  0.00  0.00     0.078 C 
ATOM      2  C1' OXE d   1       1.792   0.241   1.725  0.00  0.00     0.078 C 
ATOM      3  C1  OXE d   1       1.655  -1.025   2.533  0.00  0.00    -0.078 A 
ATOM      4  C2  OXE d   1       0.761  -1.967   2.084  0.00  0.00    -0.078 A 
ATOM      5  C3  OXE d   1       0.637  -3.177   2.762  0.00  0.00     0.003 A 
ATOM      6  C4  OXE d   1       1.298  -3.379   3.979  0.00  0.00    -0.002 A 
ATOM      7  C5  OXE d   1       2.182  -2.415   4.475  0.00  0.00    -0.002 A 
ATOM      8  C6  OXE d   1       2.404  -1.253   3.744  0.00  0.00     0.003 A 
ENDROOT
TORSDOF 0
ENDMDL
