MODEL 1
REMARK minimizedAffinity -0.449056029
REMARK minimizedRMSD -1
REMARK  0 active torsions:
REMARK  status: ('A' for Active; 'I' for Inactive)
ROOT
ATOM      1  C2' OXE d   1       2.575   1.743   3.271  0.00  0.00     0.078 C 
ATOM      2  C1' OXE d   1       1.144   1.285   0.899  0.00  0.00     0.078 C 
ATOM      3  C1  OXE d   1       1.233   0.157   1.897  0.00  0.00    -0.078 A 
ATOM      4  C2  OXE d   1       1.974   0.374   3.033  0.00  0.00    -0.078 A 
ATOM      5  C3  OXE d   1       2.043  -0.614   4.011  0.00  0.00     0.003 A 
ATOM      6  C4  OXE d   1       1.493  -1.880   3.779  0.00  0.00    -0.002 A 
ATOM      7  C5  OXE d   1       0.767  -2.136   2.610  0.00  0.00    -0.002 A 
ATOM      8  C6  OXE d   1       0.592  -1.117   1.680  0.00  0.00     0.003 A 
ENDROOT
TORSDOF 0
ENDMDL
