MODEL 1
REMARK minimizedAffinity 3.37876225
REMARK minimizedRMSD -1
REMARK  0 active torsions:
REMARK  status: ('A' for Active; 'I' for Inactive)
ROOT
ATOM      1  C2' OXE d   1       2.915   0.518   0.542  0.00  0.00     0.078 C 
ATOM      2  C1' OXE d   1       0.594  -0.932   1.163  0.00  0.00     0.078 C 
ATOM      3  C1  OXE d   1       0.433   0.511   0.754  0.00  0.00    -0.078 A 
ATOM      4  C2  OXE d   1       1.578   1.226   0.497  0.00  0.00    -0.078 A 
ATOM      5  C3  OXE d   1       1.484   2.545   0.063  0.00  0.00     0.003 A 
ATOM      6  C4  OXE d   1       0.244   3.195   0.033  0.00  0.00    -0.002 A 
ATOM      7  C5  OXE d   1      -0.931   2.496   0.329  0.00  0.00    -0.002 A 
ATOM      8  C6  OXE d   1      -0.858   1.145   0.649  0.00  0.00     0.003 A 
ENDROOT
TORSDOF 0
ENDMDL
