MODEL 1
REMARK minimizedAffinity 5.95789146
REMARK minimizedRMSD -1
REMARK  0 active torsions:
REMARK  status: ('A' for Active; 'I' for Inactive)
ROOT
ATOM      1  C2' OXE d   1      -0.613  -3.948  -1.962  0.00  0.00     0.078 C 
ATOM      2  C1' OXE d   1       1.080  -4.064   0.274  0.00  0.00     0.078 C 
ATOM      3  C1  OXE d   1       0.353  -2.769   0.008  0.00  0.00    -0.078 A 
ATOM      4  C2  OXE d   1      -0.437  -2.707  -1.115  0.00  0.00    -0.078 A 
ATOM      5  C3  OXE d   1      -1.173  -1.555  -1.377  0.00  0.00     0.003 A 
ATOM      6  C4  OXE d   1      -0.997  -0.408  -0.593  0.00  0.00    -0.002 A 
ATOM      7  C5  OXE d   1      -0.166  -0.438   0.532  0.00  0.00    -0.002 A 
ATOM      8  C6  OXE d   1       0.481  -1.621   0.870  0.00  0.00     0.003 A 
ENDROOT
TORSDOF 0
ENDMDL
