MODEL 1
REMARK minimizedAffinity -1.47535527
REMARK minimizedRMSD -1
REMARK  0 active torsions:
REMARK  status: ('A' for Active; 'I' for Inactive)
ROOT
ATOM      1  C2' OXE d   1       3.241   2.632   3.743  0.00  0.00     0.078 C 
ATOM      2  C1' OXE d   1       2.501   1.310   1.380  0.00  0.00     0.078 C 
ATOM      3  C1  OXE d   1       2.462   0.525   2.667  0.00  0.00    -0.078 A 
ATOM      4  C2  OXE d   1       2.871   1.166   3.812  0.00  0.00    -0.078 A 
ATOM      5  C3  OXE d   1       2.803   0.504   5.034  0.00  0.00     0.003 A 
ATOM      6  C4  OXE d   1       2.469  -0.854   5.088  0.00  0.00    -0.002 A 
ATOM      7  C5  OXE d   1       2.088  -1.538   3.928  0.00  0.00    -0.002 A 
ATOM      8  C6  OXE d   1       2.038  -0.853   2.719  0.00  0.00     0.003 A 
ENDROOT
TORSDOF 0
ENDMDL
