MODEL 1
REMARK minimizedAffinity -0.12227653
REMARK minimizedRMSD -1
REMARK  0 active torsions:
REMARK  status: ('A' for Active; 'I' for Inactive)
ROOT
ATOM      1  C2' OXE d   1       0.124  -1.391   0.747  0.00  0.00     0.078 C 
ATOM      2  C1' OXE d   1       1.887   0.747   1.200  0.00  0.00     0.078 C 
ATOM      3  C1  OXE d   1       1.772  -0.309   2.270  0.00  0.00    -0.078 A 
ATOM      4  C2  OXE d   1       0.873  -1.327   2.061  0.00  0.00    -0.078 A 
ATOM      5  C3  OXE d   1       0.767  -2.356   2.992  0.00  0.00     0.003 A 
ATOM      6  C4  OXE d   1       1.456  -2.284   4.209  0.00  0.00    -0.002 A 
ATOM      7  C5  OXE d   1       2.347  -1.236   4.460  0.00  0.00    -0.002 A 
ATOM      8  C6  OXE d   1       2.549  -0.265   3.485  0.00  0.00     0.003 A 
ENDROOT
TORSDOF 0
ENDMDL
