MODEL 1
REMARK minimizedAffinity 5.69504166
REMARK minimizedRMSD -1
REMARK  1 active torsions:
REMARK  status: ('A' for Active; 'I' for Inactive)
REMARK    1  A    between atoms: C1_2  and  C2_3 
ROOT
ATOM      1  C2  UNL d   1       0.857   2.202   1.500  0.00  0.00    -0.077 A 
ATOM      2  C3  UNL d   1       0.988   1.460   2.682  0.00  0.00     0.002 A 
ATOM      3  C4  UNL d   1      -0.113   1.265   3.518  0.00  0.00     0.002 A 
ATOM      4  C5  UNL d   1      -1.352   1.804   3.179  0.00  0.00    -0.004 A 
ATOM      5  C6  UNL d   1      -1.492   2.545   2.006  0.00  0.00     0.002 A 
ATOM      6  C7  UNL d   1      -0.392   2.742   1.170  0.00  0.00     0.002 A 
ENDROOT
BRANCH   1   7
ATOM      7  C1  UNL d   1       2.032   2.372   0.572  0.00  0.00     0.055 C 
ATOM      8  C   UNL d   1       2.561   1.027   0.097  0.00  0.00     0.019 C 
ENDBRANCH   1   7
TORSDOF 1
ENDMDL
