MODEL 1
REMARK minimizedAffinity 10.040266
REMARK minimizedRMSD -1
REMARK  1 active torsions:
REMARK  status: ('A' for Active; 'I' for Inactive)
REMARK    1  A    between atoms: C1_2  and  C2_3 
ROOT
ATOM      1  C2  UNL d   1       2.519   2.777   1.356  0.00  0.00    -0.077 A 
ATOM      2  C3  UNL d   1       2.499   1.450   0.907  0.00  0.00     0.002 A 
ATOM      3  C4  UNL d   1       1.314   0.881   0.435  0.00  0.00     0.002 A 
ATOM      4  C5  UNL d   1       0.142   1.635   0.404  0.00  0.00    -0.004 A 
ATOM      5  C6  UNL d   1       0.152   2.956   0.850  0.00  0.00     0.002 A 
ATOM      6  C7  UNL d   1       1.335   3.525   1.324  0.00  0.00     0.002 A 
ENDROOT
BRANCH   1   7
ATOM      7  C1  UNL d   1       3.807   3.407   1.820  0.00  0.00     0.055 C 
ATOM      8  C   UNL d   1       4.058   3.132   3.295  0.00  0.00     0.019 C 
ENDBRANCH   1   7
TORSDOF 1
ENDMDL
