MODEL 1
REMARK minimizedAffinity 2.75477362
REMARK minimizedRMSD -1
REMARK  1 active torsions:
REMARK  status: ('A' for Active; 'I' for Inactive)
REMARK    1  A    between atoms: C1_2  and  C2_3 
ROOT
ATOM      1  C2  UNL d   1       0.271  -2.575  -0.762  0.00  0.00    -0.077 A 
ATOM      2  C3  UNL d   1       1.341  -3.388  -0.362  0.00  0.00     0.002 A 
ATOM      3  C4  UNL d   1       2.547  -2.816   0.047  0.00  0.00     0.002 A 
ATOM      4  C5  UNL d   1       2.693  -1.430   0.064  0.00  0.00    -0.004 A 
ATOM      5  C6  UNL d   1       1.636  -0.614  -0.335  0.00  0.00     0.002 A 
ATOM      6  C7  UNL d   1       0.429  -1.184  -0.745  0.00  0.00     0.002 A 
ENDROOT
BRANCH   1   7
ATOM      7  C1  UNL d   1      -1.047  -3.189  -1.156  0.00  0.00     0.055 C 
ATOM      8  C   UNL d   1      -0.916  -4.688  -1.377  0.00  0.00     0.019 C 
ENDBRANCH   1   7
TORSDOF 1
ENDMDL
