MODEL 1
REMARK minimizedAffinity 2.657583
REMARK minimizedRMSD -1
REMARK  1 active torsions:
REMARK  status: ('A' for Active; 'I' for Inactive)
REMARK    1  A    between atoms: C1_2  and  C2_3 
ROOT
ATOM      1  C2  UNL d   1       3.921  -1.024   1.008  0.00  0.00    -0.077 A 
ATOM      2  C3  UNL d   1       3.438  -2.180   1.637  0.00  0.00     0.002 A 
ATOM      3  C4  UNL d   1       2.508  -2.999   0.993  0.00  0.00     0.002 A 
ATOM      4  C5  UNL d   1       2.057  -2.673  -0.284  0.00  0.00    -0.004 A 
ATOM      5  C6  UNL d   1       2.529  -1.525  -0.917  0.00  0.00     0.002 A 
ATOM      6  C7  UNL d   1       3.458  -0.704  -0.275  0.00  0.00     0.002 A 
ENDROOT
BRANCH   1   7
ATOM      7  C1  UNL d   1       4.960  -0.166   1.680  0.00  0.00     0.055 C 
ATOM      8  C   UNL d   1       5.998  -1.015   2.400  0.00  0.00     0.019 C 
ENDBRANCH   1   7
TORSDOF 1
ENDMDL
