MODEL 1
REMARK minimizedAffinity 3.9000175
REMARK minimizedRMSD -1
REMARK  1 active torsions:
REMARK  status: ('A' for Active; 'I' for Inactive)
REMARK    1  A    between atoms: C1_2  and  C2_3 
ROOT
ATOM      1  C2  UNL d   1       2.387   0.220  -0.046  0.00  0.00    -0.077 A 
ATOM      2  C3  UNL d   1       2.230  -0.744  -1.052  0.00  0.00     0.002 A 
ATOM      3  C4  UNL d   1       2.277  -2.104  -0.739  0.00  0.00     0.002 A 
ATOM      4  C5  UNL d   1       2.476  -2.512   0.578  0.00  0.00    -0.004 A 
ATOM      5  C6  UNL d   1       2.635  -1.561   1.585  0.00  0.00     0.002 A 
ATOM      6  C7  UNL d   1       2.590  -0.201   1.274  0.00  0.00     0.002 A 
ENDROOT
BRANCH   1   7
ATOM      7  C1  UNL d   1       2.288   1.687  -0.373  0.00  0.00     0.055 C 
ATOM      8  C   UNL d   1       1.345   2.405   0.582  0.00  0.00     0.019 C 
ENDBRANCH   1   7
TORSDOF 1
ENDMDL
