MODEL 1
REMARK minimizedAffinity 1.65790164
REMARK minimizedRMSD -1
REMARK  1 active torsions:
REMARK  status: ('A' for Active; 'I' for Inactive)
REMARK    1  A    between atoms: C1_2  and  C2_3 
ROOT
ATOM      1  C2  UNL d   1      -1.419   2.077   1.603  0.00  0.00    -0.077 A 
ATOM      2  C3  UNL d   1      -0.678   1.514   2.652  0.00  0.00     0.002 A 
ATOM      3  C4  UNL d   1       0.661   1.168   2.465  0.00  0.00     0.002 A 
ATOM      4  C5  UNL d   1       1.273   1.385   1.231  0.00  0.00    -0.004 A 
ATOM      5  C6  UNL d   1       0.544   1.942   0.181  0.00  0.00     0.002 A 
ATOM      6  C7  UNL d   1      -0.795   2.287   0.366  0.00  0.00     0.002 A 
ENDROOT
BRANCH   1   7
ATOM      7  C1  UNL d   1      -2.850   2.496   1.818  0.00  0.00     0.055 C 
ATOM      8  C   UNL d   1      -3.816   1.523   1.160  0.00  0.00     0.019 C 
ENDBRANCH   1   7
TORSDOF 1
ENDMDL
