MODEL 1
REMARK minimizedAffinity 5.13933182
REMARK minimizedRMSD -1
REMARK  1 active torsions:
REMARK  status: ('A' for Active; 'I' for Inactive)
REMARK    1  A    between atoms: C1_2  and  C2_3 
ROOT
ATOM      1  C2  UNL d   1       0.835  -1.275  -0.346  0.00  0.00    -0.077 A 
ATOM      2  C3  UNL d   1       0.413   0.052  -0.506  0.00  0.00     0.002 A 
ATOM      3  C4  UNL d   1      -0.541   0.378  -1.472  0.00  0.00     0.002 A 
ATOM      4  C5  UNL d   1      -1.083  -0.617  -2.283  0.00  0.00    -0.004 A 
ATOM      5  C6  UNL d   1      -0.668  -1.940  -2.133  0.00  0.00     0.002 A 
ATOM      6  C7  UNL d   1       0.286  -2.268  -1.168  0.00  0.00     0.002 A 
ENDROOT
BRANCH   1   7
ATOM      7  C1  UNL d   1       1.826  -1.637   0.729  0.00  0.00     0.055 C 
ATOM      8  C   UNL d   1       1.335  -1.206   2.103  0.00  0.00     0.019 C 
ENDBRANCH   1   7
TORSDOF 1
ENDMDL
