MODEL 1
REMARK minimizedAffinity 2.17549896
REMARK minimizedRMSD -1
REMARK  1 active torsions:
REMARK  status: ('A' for Active; 'I' for Inactive)
REMARK    1  A    between atoms: C1_2  and  C2_3 
ROOT
ATOM      1  C2  UNL d   1      -2.741   2.173   2.516  0.00  0.00    -0.077 A 
ATOM      2  C3  UNL d   1      -2.432   2.737   3.762  0.00  0.00     0.002 A 
ATOM      3  C4  UNL d   1      -1.139   3.190   4.031  0.00  0.00     0.002 A 
ATOM      4  C5  UNL d   1      -0.147   3.088   3.058  0.00  0.00    -0.004 A 
ATOM      5  C6  UNL d   1      -0.444   2.527   1.817  0.00  0.00     0.002 A 
ATOM      6  C7  UNL d   1      -1.735   2.072   1.547  0.00  0.00     0.002 A 
ENDROOT
BRANCH   1   7
ATOM      7  C1  UNL d   1      -4.147   1.729   2.207  0.00  0.00     0.055 C 
ATOM      8  C   UNL d   1      -4.159   0.598   1.189  0.00  0.00     0.019 C 
ENDBRANCH   1   7
TORSDOF 1
ENDMDL
