MODEL 1
REMARK minimizedAffinity 1.28818476
REMARK minimizedRMSD -1
REMARK  1 active torsions:
REMARK  status: ('A' for Active; 'I' for Inactive)
REMARK    1  A    between atoms: C1_2  and  C2_3 
ROOT
ATOM      1  C2  UNL d   1      -0.151  -0.097  -0.401  0.00  0.00    -0.077 A 
ATOM      2  C3  UNL d   1       0.746   0.851  -0.913  0.00  0.00     0.002 A 
ATOM      3  C4  UNL d   1       1.072   1.987  -0.170  0.00  0.00     0.002 A 
ATOM      4  C5  UNL d   1       0.510   2.184   1.089  0.00  0.00    -0.004 A 
ATOM      5  C6  UNL d   1      -0.385   1.248   1.607  0.00  0.00     0.002 A 
ATOM      6  C7  UNL d   1      -0.713   0.112   0.865  0.00  0.00     0.002 A 
ENDROOT
BRANCH   1   7
ATOM      7  C1  UNL d   1      -0.467  -1.348  -1.179  0.00  0.00     0.055 C 
ATOM      8  C   UNL d   1       0.502  -2.471  -0.838  0.00  0.00     0.019 C 
ENDBRANCH   1   7
TORSDOF 1
ENDMDL
