MODEL 1
REMARK minimizedAffinity 0.321347982
REMARK minimizedRMSD -1
REMARK  1 active torsions:
REMARK  status: ('A' for Active; 'I' for Inactive)
REMARK    1  A    between atoms: C1_2  and  C2_3 
ROOT
ATOM      1  C2  UNL d   1      -0.097  -3.408   5.491  0.00  0.00    -0.077 A 
ATOM      2  C3  UNL d   1       0.788  -4.495   5.524  0.00  0.00     0.002 A 
ATOM      3  C4  UNL d   1       0.315  -5.784   5.779  0.00  0.00     0.002 A 
ATOM      4  C5  UNL d   1      -1.044  -5.998   5.999  0.00  0.00    -0.004 A 
ATOM      5  C6  UNL d   1      -1.932  -4.923   5.970  0.00  0.00     0.002 A 
ATOM      6  C7  UNL d   1      -1.461  -3.634   5.717  0.00  0.00     0.002 A 
ENDROOT
BRANCH   1   7
ATOM      7  C1  UNL d   1       0.404  -2.025   5.167  0.00  0.00     0.055 C 
ATOM      8  C   UNL d   1       1.073  -1.984   3.801  0.00  0.00     0.019 C 
ENDBRANCH   1   7
TORSDOF 1
ENDMDL
