MODEL 1
REMARK minimizedAffinity -1.70810378
REMARK minimizedRMSD -1
REMARK  0 active torsions:
REMARK  status: ('A' for Active; 'I' for Inactive)
ROOT
ATOM      1  C2' OXE d   1       0.958  -2.376  -1.540  0.00  0.00     0.078 C 
ATOM      2  C1' OXE d   1      -1.368  -1.655  -0.144  0.00  0.00     0.078 C 
ATOM      3  C1  OXE d   1      -0.412  -0.555  -0.534  0.00  0.00    -0.078 A 
ATOM      4  C2  OXE d   1       0.746  -0.922  -1.176  0.00  0.00    -0.078 A 
ATOM      5  C3  OXE d   1       1.636   0.057  -1.606  0.00  0.00     0.003 A 
ATOM      6  C4  OXE d   1       1.438   1.399  -1.256  0.00  0.00    -0.002 A 
ATOM      7  C5  OXE d   1       0.284   1.789  -0.568  0.00  0.00    -0.002 A 
ATOM      8  C6  OXE d   1      -0.669   0.832  -0.237  0.00  0.00     0.003 A 
ENDROOT
TORSDOF 0
ENDMDL
