MODEL 1
REMARK minimizedAffinity -4.45260382
REMARK minimizedRMSD -1
REMARK  0 active torsions:
REMARK  status: ('A' for Active; 'I' for Inactive)
ROOT
ATOM      1  C2' OXE d   1      -1.157   2.459  -1.278  0.00  0.00     0.078 C 
ATOM      2  C1' OXE d   1      -2.182   2.203   1.322  0.00  0.00     0.078 C 
ATOM      3  C1  OXE d   1      -1.159   1.192   0.866  0.00  0.00    -0.078 A 
ATOM      4  C2  OXE d   1      -0.698   1.298  -0.424  0.00  0.00    -0.078 A 
ATOM      5  C3  OXE d   1       0.286   0.424  -0.877  0.00  0.00     0.003 A 
ATOM      6  C4  OXE d   1       0.698  -0.653  -0.084  0.00  0.00    -0.002 A 
ATOM      7  C5  OXE d   1       0.211  -0.802   1.219  0.00  0.00    -0.002 A 
ATOM      8  C6  OXE d   1      -0.684   0.134   1.723  0.00  0.00     0.003 A 
ENDROOT
TORSDOF 0
ENDMDL
