MODEL 1
REMARK minimizedAffinity -1.73657858
REMARK minimizedRMSD -1
REMARK  0 active torsions:
REMARK  status: ('A' for Active; 'I' for Inactive)
ROOT
ATOM      1  C2' OXE d   1       0.074  -1.436   2.027  0.00  0.00     0.078 C 
ATOM      2  C1' OXE d   1       0.765  -0.936  -0.648  0.00  0.00     0.078 C 
ATOM      3  C1  OXE d   1      -0.103   0.078   0.056  0.00  0.00    -0.078 A 
ATOM      4  C2  OXE d   1      -0.474  -0.198   1.350  0.00  0.00    -0.078 A 
ATOM      5  C3  OXE d   1      -1.228   0.729   2.064  0.00  0.00     0.003 A 
ATOM      6  C4  OXE d   1      -1.739   1.867   1.427  0.00  0.00    -0.002 A 
ATOM      7  C5  OXE d   1      -1.406   2.147   0.098  0.00  0.00    -0.002 A 
ATOM      8  C6  OXE d   1      -0.556   1.286  -0.587  0.00  0.00     0.003 A 
ENDROOT
TORSDOF 0
ENDMDL
