MODEL 1
REMARK minimizedAffinity -5.74787283
REMARK minimizedRMSD -1
REMARK  0 active torsions:
REMARK  status: ('A' for Active; 'I' for Inactive)
ROOT
ATOM      1  C2' OXE d   1       0.245   0.026  -0.992  0.00  0.00     0.078 C 
ATOM      2  C1' OXE d   1      -0.967  -0.052   1.538  0.00  0.00     0.078 C 
ATOM      3  C1  OXE d   1      -1.018   1.247   0.774  0.00  0.00    -0.078 A 
ATOM      4  C2  OXE d   1      -0.381   1.289  -0.443  0.00  0.00    -0.078 A 
ATOM      5  C3  OXE d   1      -0.444   2.447  -1.214  0.00  0.00     0.003 A 
ATOM      6  C4  OXE d   1      -1.017   3.614  -0.694  0.00  0.00    -0.002 A 
ATOM      7  C5  OXE d   1      -1.635   3.604   0.561  0.00  0.00    -0.002 A 
ATOM      8  C6  OXE d   1      -1.682   2.419   1.288  0.00  0.00     0.003 A 
ENDROOT
TORSDOF 0
ENDMDL
