MODEL 1
REMARK minimizedAffinity -4.37732363
REMARK minimizedRMSD -1
REMARK  0 active torsions:
REMARK  status: ('A' for Active; 'I' for Inactive)
ROOT
ATOM      1  C2' OXE d   1      -0.422   2.962  -1.446  0.00  0.00     0.078 C 
ATOM      2  C1' OXE d   1      -1.936   2.210   0.795  0.00  0.00     0.078 C 
ATOM      3  C1  OXE d   1      -0.883   1.249   0.303  0.00  0.00    -0.078 A 
ATOM      4  C2  OXE d   1      -0.179   1.604  -0.822  0.00  0.00    -0.078 A 
ATOM      5  C3  OXE d   1       0.842   0.779  -1.286  0.00  0.00     0.003 A 
ATOM      6  C4  OXE d   1       1.053  -0.479  -0.710  0.00  0.00    -0.002 A 
ATOM      7  C5  OXE d   1       0.320  -0.878   0.413  0.00  0.00    -0.002 A 
ATOM      8  C6  OXE d   1      -0.620  -0.010   0.956  0.00  0.00     0.003 A 
ENDROOT
TORSDOF 0
ENDMDL
