MODEL 1
REMARK minimizedAffinity -5.17602205
REMARK minimizedRMSD -1
REMARK  0 active torsions:
REMARK  status: ('A' for Active; 'I' for Inactive)
ROOT
ATOM      1  C2' OXE d   1      -0.901   2.531  -1.405  0.00  0.00     0.078 C 
ATOM      2  C1' OXE d   1      -2.034   2.527   1.163  0.00  0.00     0.078 C 
ATOM      3  C1  OXE d   1      -1.050   1.434   0.827  0.00  0.00    -0.078 A 
ATOM      4  C2  OXE d   1      -0.536   1.417  -0.448  0.00  0.00    -0.078 A 
ATOM      5  C3  OXE d   1       0.417   0.464  -0.794  0.00  0.00     0.003 A 
ATOM      6  C4  OXE d   1       0.741  -0.569   0.094  0.00  0.00    -0.002 A 
ATOM      7  C5  OXE d   1       0.199  -0.593   1.384  0.00  0.00    -0.002 A 
ATOM      8  C6  OXE d   1      -0.664   0.423   1.779  0.00  0.00     0.003 A 
ENDROOT
TORSDOF 0
ENDMDL
