MODEL 1
REMARK minimizedAffinity -1.46408963
REMARK minimizedRMSD -1
REMARK  0 active torsions:
REMARK  status: ('A' for Active; 'I' for Inactive)
ROOT
ATOM      1  C2' OXE d   1       0.939  -0.815   0.832  0.00  0.00     0.078 C 
ATOM      2  C1' OXE d   1       0.332   0.722  -1.437  0.00  0.00     0.078 C 
ATOM      3  C1  OXE d   1       0.688  -0.728  -1.645  0.00  0.00    -0.078 A 
ATOM      4  C2  OXE d   1       1.029  -1.461  -0.533  0.00  0.00    -0.078 A 
ATOM      5  C3  OXE d   1       1.313  -2.818  -0.662  0.00  0.00     0.003 A 
ATOM      6  C4  OXE d   1       1.404  -3.405  -1.930  0.00  0.00    -0.002 A 
ATOM      7  C5  OXE d   1       1.100  -2.667  -3.078  0.00  0.00    -0.002 A 
ATOM      8  C6  OXE d   1       0.699  -1.342  -2.950  0.00  0.00     0.003 A 
ENDROOT
TORSDOF 0
ENDMDL
