MODEL 1
REMARK minimizedAffinity -3.62445378
REMARK minimizedRMSD -1
REMARK  0 active torsions:
REMARK  status: ('A' for Active; 'I' for Inactive)
ROOT
ATOM      1  C2' OXE d   1      -1.942   2.034   1.347  0.00  0.00     0.078 C 
ATOM      2  C1' OXE d   1      -0.469   2.329  -1.025  0.00  0.00     0.078 C 
ATOM      3  C1  OXE d   1      -0.273   1.064  -0.228  0.00  0.00    -0.078 A 
ATOM      4  C2  OXE d   1      -0.963   0.948   0.955  0.00  0.00    -0.078 A 
ATOM      5  C3  OXE d   1      -0.860  -0.222   1.702  0.00  0.00     0.003 A 
ATOM      6  C4  OXE d   1       0.056  -1.217   1.338  0.00  0.00    -0.002 A 
ATOM      7  C5  OXE d   1       0.797  -1.101   0.158  0.00  0.00    -0.002 A 
ATOM      8  C6  OXE d   1       0.614   0.011  -0.657  0.00  0.00     0.003 A 
ENDROOT
TORSDOF 0
ENDMDL
