MODEL 1
REMARK minimizedAffinity -5.68155861
REMARK minimizedRMSD -1
REMARK  0 active torsions:
REMARK  status: ('A' for Active; 'I' for Inactive)
ROOT
ATOM      1  C2' OXE d   1       0.840  -1.099  -0.502  0.00  0.00     0.078 C 
ATOM      2  C1' OXE d   1       0.217  -1.178   2.234  0.00  0.00     0.078 C 
ATOM      3  C1  OXE d   1      -0.317  -0.023   1.424  0.00  0.00    -0.078 A 
ATOM      4  C2  OXE d   1       0.032   0.032   0.096  0.00  0.00    -0.078 A 
ATOM      5  C3  OXE d   1      -0.478   1.047  -0.709  0.00  0.00     0.003 A 
ATOM      6  C4  OXE d   1      -1.216   2.095  -0.146  0.00  0.00    -0.002 A 
ATOM      7  C5  OXE d   1      -1.549   2.079   1.213  0.00  0.00    -0.002 A 
ATOM      8  C6  OXE d   1      -1.144   1.007   2.001  0.00  0.00     0.003 A 
ENDROOT
TORSDOF 0
ENDMDL
