MODEL 1
REMARK minimizedAffinity -0.0101153627
REMARK minimizedRMSD -1
REMARK  0 active torsions:
REMARK  status: ('A' for Active; 'I' for Inactive)
ROOT
ATOM      1  C2' OXE d   1      -1.530   1.451   1.524  0.00  0.00     0.078 C 
ATOM      2  C1' OXE d   1      -0.474  -1.131   1.834  0.00  0.00     0.078 C 
ATOM      3  C1  OXE d   1      -0.149  -0.386   0.564  0.00  0.00    -0.078 A 
ATOM      4  C2  OXE d   1      -0.708   0.859   0.400  0.00  0.00    -0.078 A 
ATOM      5  C3  OXE d   1      -0.397   1.612  -0.728  0.00  0.00     0.003 A 
ATOM      6  C4  OXE d   1       0.356   1.053  -1.768  0.00  0.00    -0.002 A 
ATOM      7  C5  OXE d   1       0.902  -0.229  -1.639  0.00  0.00    -0.002 A 
ATOM      8  C6  OXE d   1       0.695  -0.943  -0.464  0.00  0.00     0.003 A 
ENDROOT
TORSDOF 0
ENDMDL
