MODEL 1
REMARK minimizedAffinity -4.7416811
REMARK minimizedRMSD -1
REMARK  0 active torsions:
REMARK  status: ('A' for Active; 'I' for Inactive)
ROOT
ATOM      1  C2' OXE d   1       0.336  -0.332  -0.210  0.00  0.00     0.078 C 
ATOM      2  C1' OXE d   1       0.934   1.885  -1.825  0.00  0.00     0.078 C 
ATOM      3  C1  OXE d   1       0.010   2.098  -0.652  0.00  0.00    -0.078 A 
ATOM      4  C2  OXE d   1      -0.314   0.998   0.106  0.00  0.00    -0.078 A 
ATOM      5  C3  OXE d   1      -1.119   1.149   1.231  0.00  0.00     0.003 A 
ATOM      6  C4  OXE d   1      -1.724   2.380   1.510  0.00  0.00    -0.002 A 
ATOM      7  C5  OXE d   1      -1.439   3.504   0.728  0.00  0.00    -0.002 A 
ATOM      8  C6  OXE d   1      -0.543   3.390  -0.329  0.00  0.00     0.003 A 
ENDROOT
TORSDOF 0
ENDMDL
