MODEL 1
REMARK minimizedAffinity -6.21334648
REMARK minimizedRMSD -1
REMARK  0 active torsions:
REMARK  status: ('A' for Active; 'I' for Inactive)
ROOT
ATOM      1  C2' OXE d   1      -0.137   2.928  -1.231  0.00  0.00     0.078 C 
ATOM      2  C1' OXE d   1      -1.724   2.829   1.082  0.00  0.00     0.078 C 
ATOM      3  C1  OXE d   1      -0.801   1.667   0.812  0.00  0.00    -0.078 A 
ATOM      4  C2  OXE d   1      -0.062   1.703  -0.346  0.00  0.00    -0.078 A 
ATOM      5  C3  OXE d   1       0.846   0.683  -0.616  0.00  0.00     0.003 A 
ATOM      6  C4  OXE d   1       0.902  -0.451   0.203  0.00  0.00    -0.002 A 
ATOM      7  C5  OXE d   1       0.129  -0.526   1.366  0.00  0.00    -0.002 A 
ATOM      8  C6  OXE d   1      -0.694   0.542   1.707  0.00  0.00     0.003 A 
ENDROOT
TORSDOF 0
ENDMDL
