MODEL 1
REMARK minimizedAffinity -4.07653332
REMARK minimizedRMSD -1
REMARK  0 active torsions:
REMARK  status: ('A' for Active; 'I' for Inactive)
ROOT
ATOM      1  C2' OXE d   1      -0.379  -0.876   2.256  0.00  0.00     0.078 C 
ATOM      2  C1' OXE d   1      -1.476   1.642   1.675  0.00  0.00     0.078 C 
ATOM      3  C1  OXE d   1      -0.553   1.024   0.654  0.00  0.00    -0.078 A 
ATOM      4  C2  OXE d   1       0.016  -0.187   0.968  0.00  0.00    -0.078 A 
ATOM      5  C3  OXE d   1       0.832  -0.826   0.039  0.00  0.00     0.003 A 
ATOM      6  C4  OXE d   1       1.201  -0.177  -1.146  0.00  0.00    -0.002 A 
ATOM      7  C5  OXE d   1       0.664   1.074  -1.467  0.00  0.00    -0.002 A 
ATOM      8  C6  OXE d   1      -0.246   1.668  -0.599  0.00  0.00     0.003 A 
ENDROOT
TORSDOF 0
ENDMDL
