MODEL 1
REMARK minimizedAffinity -5.88528252
REMARK minimizedRMSD -1
REMARK  0 active torsions:
REMARK  status: ('A' for Active; 'I' for Inactive)
ROOT
ATOM      1  C2' OXE d   1      -0.776  -0.956   1.534  0.00  0.00     0.078 C 
ATOM      2  C1' OXE d   1       0.787  -0.483  -0.750  0.00  0.00     0.078 C 
ATOM      3  C1  OXE d   1       0.000   0.673  -0.184  0.00  0.00    -0.078 A 
ATOM      4  C2  OXE d   1      -0.798   0.421   0.906  0.00  0.00    -0.078 A 
ATOM      5  C3  OXE d   1      -1.502   1.464   1.501  0.00  0.00     0.003 A 
ATOM      6  C4  OXE d   1      -1.525   2.732   0.908  0.00  0.00    -0.002 A 
ATOM      7  C5  OXE d   1      -0.750   3.000  -0.226  0.00  0.00    -0.002 A 
ATOM      8  C6  OXE d   1       0.050   1.995  -0.758  0.00  0.00     0.003 A 
ENDROOT
TORSDOF 0
ENDMDL
