MODEL 1
REMARK minimizedAffinity -4.72221375
REMARK minimizedRMSD -1
REMARK  0 active torsions:
REMARK  status: ('A' for Active; 'I' for Inactive)
ROOT
ATOM      1  C2' OXE d   1      -1.465   2.076   2.237  0.00  0.00     0.078 C 
ATOM      2  C1' OXE d   1      -0.221   3.731   0.341  0.00  0.00     0.078 C 
ATOM      3  C1  OXE d   1       0.034   2.247   0.255  0.00  0.00    -0.078 A 
ATOM      4  C2  OXE d   1      -0.541   1.450   1.215  0.00  0.00    -0.078 A 
ATOM      5  C3  OXE d   1      -0.382   0.069   1.149  0.00  0.00     0.003 A 
ATOM      6  C4  OXE d   1       0.482  -0.502   0.207  0.00  0.00    -0.002 A 
ATOM      7  C5  OXE d   1       1.110   0.297  -0.756  0.00  0.00    -0.002 A 
ATOM      8  C6  OXE d   1       0.863   1.665  -0.772  0.00  0.00     0.003 A 
ENDROOT
TORSDOF 0
ENDMDL
