MODEL 1
REMARK minimizedAffinity -3.99265337
REMARK minimizedRMSD -1
REMARK  0 active torsions:
REMARK  status: ('A' for Active; 'I' for Inactive)
ROOT
ATOM      1  C2' OXE d   1       0.828  -0.662   2.286  0.00  0.00     0.078 C 
ATOM      2  C1' OXE d   1       1.008  -0.480  -0.510  0.00  0.00     0.078 C 
ATOM      3  C1  OXE d   1      -0.106   0.274   0.174  0.00  0.00    -0.078 A 
ATOM      4  C2  OXE d   1      -0.214   0.141   1.538  0.00  0.00    -0.078 A 
ATOM      5  C3  OXE d   1      -1.190   0.858   2.224  0.00  0.00     0.003 A 
ATOM      6  C4  OXE d   1      -2.156   1.591   1.524  0.00  0.00    -0.002 A 
ATOM      7  C5  OXE d   1      -2.088   1.706   0.132  0.00  0.00    -0.002 A 
ATOM      8  C6  OXE d   1      -1.046   1.090  -0.553  0.00  0.00     0.003 A 
ENDROOT
TORSDOF 0
ENDMDL
