MODEL 1
REMARK minimizedAffinity -4.81785488
REMARK minimizedRMSD -1
REMARK  0 active torsions:
REMARK  status: ('A' for Active; 'I' for Inactive)
ROOT
ATOM      1  C2' OXE d   1       1.082   0.007  -0.779  0.00  0.00     0.078 C 
ATOM      2  C1' OXE d   1       0.450   2.591  -1.675  0.00  0.00     0.078 C 
ATOM      3  C1  OXE d   1      -0.265   2.077  -0.450  0.00  0.00    -0.078 A 
ATOM      4  C2  OXE d   1       0.016   0.794  -0.046  0.00  0.00    -0.078 A 
ATOM      5  C3  OXE d   1      -0.574   0.290   1.109  0.00  0.00     0.003 A 
ATOM      6  C4  OXE d   1      -1.566   1.020   1.775  0.00  0.00    -0.002 A 
ATOM      7  C5  OXE d   1      -1.896   2.314   1.357  0.00  0.00    -0.002 A 
ATOM      8  C6  OXE d   1      -1.226   2.872   0.274  0.00  0.00     0.003 A 
ENDROOT
TORSDOF 0
ENDMDL
