MODEL 1
REMARK minimizedAffinity -3.93693423
REMARK minimizedRMSD -1
REMARK  0 active torsions:
REMARK  status: ('A' for Active; 'I' for Inactive)
ROOT
ATOM      1  C2' OXE d   1      -2.385   2.632   1.139  0.00  0.00     0.078 C 
ATOM      2  C1' OXE d   1      -0.479   2.674  -0.922  0.00  0.00     0.078 C 
ATOM      3  C1  OXE d   1      -0.446   1.515   0.043  0.00  0.00    -0.078 A 
ATOM      4  C2  OXE d   1      -1.353   1.527   1.076  0.00  0.00    -0.078 A 
ATOM      5  C3  OXE d   1      -1.402   0.455   1.963  0.00  0.00     0.003 A 
ATOM      6  C4  OXE d   1      -0.437  -0.558   1.904  0.00  0.00    -0.002 A 
ATOM      7  C5  OXE d   1       0.520  -0.569   0.884  0.00  0.00    -0.002 A 
ATOM      8  C6  OXE d   1       0.502   0.436  -0.078  0.00  0.00     0.003 A 
ENDROOT
TORSDOF 0
ENDMDL
