MODEL 1
REMARK minimizedAffinity -5.15078068
REMARK minimizedRMSD -1
REMARK  0 active torsions:
REMARK  status: ('A' for Active; 'I' for Inactive)
ROOT
ATOM      1  C2' OXE d   1       1.043   1.896  -1.638  0.00  0.00     0.078 C 
ATOM      2  C1' OXE d   1       0.364  -0.659  -0.692  0.00  0.00     0.078 C 
ATOM      3  C1  OXE d   1      -0.364   0.525  -0.106  0.00  0.00    -0.078 A 
ATOM      4  C2  OXE d   1       0.007   1.774  -0.541  0.00  0.00    -0.078 A 
ATOM      5  C3  OXE d   1      -0.671   2.897  -0.074  0.00  0.00     0.003 A 
ATOM      6  C4  OXE d   1      -1.620   2.777   0.948  0.00  0.00    -0.002 A 
ATOM      7  C5  OXE d   1      -1.985   1.517   1.434  0.00  0.00    -0.002 A 
ATOM      8  C6  OXE d   1      -1.399   0.380   0.888  0.00  0.00     0.003 A 
ENDROOT
TORSDOF 0
ENDMDL
