MODEL 1
REMARK minimizedAffinity 13.6361284
REMARK minimizedRMSD -1
REMARK  0 active torsions:
REMARK  status: ('A' for Active; 'I' for Inactive)
ROOT
ATOM      1  C4' PXY d   1       5.956   5.352  -4.178  0.00  0.00     0.077 C 
ATOM      2  C1' PXY d   1       6.000   2.202   0.668  0.00  0.00     0.077 C 
ATOM      3  C1  PXY d   1       5.994   3.018  -0.609  0.00  0.00    -0.082 A 
ATOM      4  C2  PXY d   1       5.989   4.339  -0.541  0.00  0.00     0.003 A 
ATOM      5  C3  PXY d   1       5.951   5.093  -1.687  0.00  0.00     0.003 A 
ATOM      6  C4  PXY d   1       5.972   4.488  -2.915  0.00  0.00    -0.082 A 
ATOM      7  C5  PXY d   1       5.987   3.140  -2.992  0.00  0.00     0.003 A 
ATOM      8  C6  PXY d   1       5.984   2.393  -1.818  0.00  0.00     0.003 A 
ENDROOT
TORSDOF 0
ENDMDL
