MODEL 1
REMARK minimizedAffinity -3.96783423
REMARK minimizedRMSD -1
REMARK  0 active torsions:
REMARK  status: ('A' for Active; 'I' for Inactive)
ROOT
ATOM      1  C4' PXY d   1       2.466   0.619   0.071  0.00  0.00     0.077 C 
ATOM      2  C1' PXY d   1       6.000  -1.525   4.113  0.00  0.00     0.077 C 
ATOM      3  C1  PXY d   1       5.068  -0.974   3.051  0.00  0.00    -0.082 A 
ATOM      4  C2  PXY d   1       5.373   0.157   2.436  0.00  0.00     0.003 A 
ATOM      5  C3  PXY d   1       4.526   0.685   1.496  0.00  0.00     0.003 A 
ATOM      6  C4  PXY d   1       3.382   0.021   1.143  0.00  0.00    -0.082 A 
ATOM      7  C5  PXY d   1       3.069  -1.139   1.759  0.00  0.00     0.003 A 
ATOM      8  C6  PXY d   1       3.921  -1.637   2.740  0.00  0.00     0.003 A 
ENDROOT
TORSDOF 0
ENDMDL
