MODEL 1
REMARK minimizedAffinity 8.4104805
REMARK minimizedRMSD -1
REMARK  0 active torsions:
REMARK  status: ('A' for Active; 'I' for Inactive)
ROOT
ATOM      1  C4' PXY d   1      -0.239  -1.107  -0.841  0.00  0.00     0.077 C 
ATOM      2  C1' PXY d   1      -3.268  -1.955  -5.691  0.00  0.00     0.077 C 
ATOM      3  C1  PXY d   1      -2.473  -1.719  -4.422  0.00  0.00    -0.082 A 
ATOM      4  C2  PXY d   1      -1.767  -2.709  -3.900  0.00  0.00     0.003 A 
ATOM      5  C3  PXY d   1      -1.068  -2.523  -2.735  0.00  0.00     0.003 A 
ATOM      6  C4  PXY d   1      -1.049  -1.296  -2.127  0.00  0.00    -0.082 A 
ATOM      7  C5  PXY d   1      -1.758  -0.278  -2.659  0.00  0.00     0.003 A 
ATOM      8  C6  PXY d   1      -2.494  -0.499  -3.820  0.00  0.00     0.003 A 
ENDROOT
TORSDOF 0
ENDMDL
