MODEL 1
REMARK minimizedAffinity 5.18645859
REMARK minimizedRMSD -1
REMARK  0 active torsions:
REMARK  status: ('A' for Active; 'I' for Inactive)
ROOT
ATOM      1  C4' PXY d   1       3.391   1.593   1.424  0.00  0.00     0.077 C 
ATOM      2  C1' PXY d   1       5.982   2.872  -3.583  0.00  0.00     0.077 C 
ATOM      3  C1  PXY d   1       5.291   2.536  -2.276  0.00  0.00    -0.082 A 
ATOM      4  C2  PXY d   1       5.882   2.831  -1.129  0.00  0.00     0.003 A 
ATOM      5  C3  PXY d   1       5.285   2.506   0.062  0.00  0.00     0.003 A 
ATOM      6  C4  PXY d   1       4.048   1.921   0.080  0.00  0.00    -0.082 A 
ATOM      7  C5  PXY d   1       3.433   1.627  -1.085  0.00  0.00     0.003 A 
ATOM      8  C6  PXY d   1       4.074   1.928  -2.284  0.00  0.00     0.003 A 
ENDROOT
TORSDOF 0
ENDMDL
