MODEL 1
REMARK minimizedAffinity 7.79908514
REMARK minimizedRMSD -1
REMARK  0 active torsions:
REMARK  status: ('A' for Active; 'I' for Inactive)
ROOT
ATOM      1  C4' PXY d   1       2.508   0.097  -0.010  0.00  0.00     0.077 C 
ATOM      2  C1' PXY d   1       6.000  -1.871   4.156  0.00  0.00     0.077 C 
ATOM      3  C1  PXY d   1       5.078  -1.366   3.063  0.00  0.00    -0.082 A 
ATOM      4  C2  PXY d   1       5.477  -0.382   2.273  0.00  0.00     0.003 A 
ATOM      5  C3  PXY d   1       4.643   0.108   1.301  0.00  0.00     0.003 A 
ATOM      6  C4  PXY d   1       3.410  -0.451   1.100  0.00  0.00    -0.082 A 
ATOM      7  C5  PXY d   1       3.000  -1.462   1.895  0.00  0.00     0.003 A 
ATOM      8  C6  PXY d   1       3.844  -1.918   2.903  0.00  0.00     0.003 A 
ENDROOT
TORSDOF 0
ENDMDL
