MODEL 1
REMARK minimizedAffinity 2.84899354
REMARK minimizedRMSD -1
REMARK  0 active torsions:
REMARK  status: ('A' for Active; 'I' for Inactive)
ROOT
ATOM      1  C4' PXY d   1       5.998   3.272  -2.892  0.00  0.00     0.077 C 
ATOM      2  C1' PXY d   1       2.783   1.027   1.355  0.00  0.00     0.077 C 
ATOM      3  C1  PXY d   1       3.621   1.607   0.233  0.00  0.00    -0.082 A 
ATOM      4  C2  PXY d   1       4.728   2.273   0.520  0.00  0.00     0.003 A 
ATOM      5  C3  PXY d   1       5.480   2.831  -0.481  0.00  0.00     0.003 A 
ATOM      6  C4  PXY d   1       5.125   2.661  -1.792  0.00  0.00    -0.082 A 
ATOM      7  C5  PXY d   1       4.004   1.973  -2.094  0.00  0.00     0.003 A 
ATOM      8  C6  PXY d   1       3.231   1.450  -1.061  0.00  0.00     0.003 A 
ENDROOT
TORSDOF 0
ENDMDL
