MODEL 1
REMARK minimizedAffinity 5.44387531
REMARK minimizedRMSD -1
REMARK  0 active torsions:
REMARK  status: ('A' for Active; 'I' for Inactive)
ROOT
ATOM      1  C4' PXY d   1       1.421   3.363   3.735  0.00  0.00     0.077 C 
ATOM      2  C1' PXY d   1       2.511   0.992  -1.423  0.00  0.00     0.077 C 
ATOM      3  C1  PXY d   1       2.218   1.623  -0.076  0.00  0.00    -0.082 A 
ATOM      4  C2  PXY d   1       3.052   1.429   0.933  0.00  0.00     0.003 A 
ATOM      5  C3  PXY d   1       2.786   1.966   2.166  0.00  0.00     0.003 A 
ATOM      6  C4  PXY d   1       1.682   2.754   2.355  0.00  0.00    -0.082 A 
ATOM      7  C5  PXY d   1       0.832   2.965   1.328  0.00  0.00     0.003 A 
ATOM      8  C6  PXY d   1       1.098   2.377   0.095  0.00  0.00     0.003 A 
ENDROOT
TORSDOF 0
ENDMDL
