MODEL 1
REMARK minimizedAffinity 6.95209646
REMARK minimizedRMSD -1
REMARK  0 active torsions:
REMARK  status: ('A' for Active; 'I' for Inactive)
ROOT
ATOM      1  C4' PXY d   1       4.520  -0.752   4.516  0.00  0.00     0.077 C 
ATOM      2  C1' PXY d   1       2.629   0.791  -0.724  0.00  0.00     0.077 C 
ATOM      3  C1  PXY d   1       3.114   0.379   0.651  0.00  0.00    -0.082 A 
ATOM      4  C2  PXY d   1       3.950   1.163   1.312  0.00  0.00     0.003 A 
ATOM      5  C3  PXY d   1       4.424   0.791   2.544  0.00  0.00     0.003 A 
ATOM      6  C4  PXY d   1       3.997  -0.371   3.128  0.00  0.00    -0.082 A 
ATOM      7  C5  PXY d   1       3.136  -1.172   2.465  0.00  0.00     0.003 A 
ATOM      8  C6  PXY d   1       2.699  -0.796   1.198  0.00  0.00     0.003 A 
ENDROOT
TORSDOF 0
ENDMDL
