MODEL 1
REMARK minimizedAffinity 5.5946908
REMARK minimizedRMSD -1
REMARK  0 active torsions:
REMARK  status: ('A' for Active; 'I' for Inactive)
ROOT
ATOM      1  C4' PXY d   1       5.999   3.535  -1.872  0.00  0.00     0.077 C 
ATOM      2  C1' PXY d   1       2.387  -0.113   0.786  0.00  0.00     0.077 C 
ATOM      3  C1  PXY d   1       3.336   0.850   0.100  0.00  0.00    -0.082 A 
ATOM      4  C2  PXY d   1       3.254   1.030  -1.208  0.00  0.00     0.003 A 
ATOM      5  C3  PXY d   1       4.125   1.873  -1.849  0.00  0.00     0.003 A 
ATOM      6  C4  PXY d   1       5.055   2.580  -1.136  0.00  0.00    -0.082 A 
ATOM      7  C5  PXY d   1       5.139   2.410   0.201  0.00  0.00     0.003 A 
ATOM      8  C6  PXY d   1       4.273   1.518   0.827  0.00  0.00     0.003 A 
ENDROOT
TORSDOF 0
ENDMDL
