MODEL 1
REMARK minimizedAffinity 8.35585785
REMARK minimizedRMSD -1
REMARK  0 active torsions:
REMARK  status: ('A' for Active; 'I' for Inactive)
ROOT
ATOM      1  C4' PXY d   1       5.497   3.422   0.999  0.00  0.00     0.077 C 
ATOM      2  C1' PXY d   1       4.472   0.965  -4.132  0.00  0.00     0.077 C 
ATOM      3  C1  PXY d   1       4.728   1.607  -2.783  0.00  0.00    -0.082 A 
ATOM      4  C2  PXY d   1       5.734   2.455  -2.643  0.00  0.00     0.003 A 
ATOM      5  C3  PXY d   1       6.000   3.021  -1.423  0.00  0.00     0.003 A 
ATOM      6  C4  PXY d   1       5.195   2.757  -0.347  0.00  0.00    -0.082 A 
ATOM      7  C5  PXY d   1       4.161   1.901  -0.484  0.00  0.00     0.003 A 
ATOM      8  C6  PXY d   1       3.933   1.305  -1.721  0.00  0.00     0.003 A 
ENDROOT
TORSDOF 0
ENDMDL
