MODEL 1
REMARK minimizedAffinity -2.41119957
REMARK minimizedRMSD -1
REMARK  1 active torsions:
REMARK  status: ('A' for Active; 'I' for Inactive)
REMARK    1  A    between atoms: C1_2  and  C2_3 
ROOT
ATOM      1  C2  UNL d   1       4.529  -1.751   4.037  0.00  0.00    -0.077 A 
ATOM      2  C3  UNL d   1       4.221  -0.904   2.963  0.00  0.00     0.002 A 
ATOM      3  C4  UNL d   1       2.898  -0.746   2.545  0.00  0.00     0.002 A 
ATOM      4  C5  UNL d   1       1.874  -1.429   3.197  0.00  0.00    -0.004 A 
ATOM      5  C6  UNL d   1       2.170  -2.276   4.264  0.00  0.00     0.002 A 
ATOM      6  C7  UNL d   1       3.492  -2.436   4.683  0.00  0.00     0.002 A 
ENDROOT
BRANCH   1   7
ATOM      7  C1  UNL d   1       5.949  -1.885   4.521  0.00  0.00     0.055 C 
ATOM      8  C   UNL d   1       5.999  -2.249   5.998  0.00  0.00     0.019 C 
ENDBRANCH   1   7
TORSDOF 1
ENDMDL
