MODEL 1
REMARK minimizedAffinity 3.51307392
REMARK minimizedRMSD -1
REMARK  1 active torsions:
REMARK  status: ('A' for Active; 'I' for Inactive)
REMARK    1  A    between atoms: C1_2  and  C2_3 
ROOT
ATOM      1  C2  UNL d   1       2.998  -2.313   4.792  0.00  0.00    -0.077 A 
ATOM      2  C3  UNL d   1       2.617  -3.332   3.908  0.00  0.00     0.002 A 
ATOM      3  C4  UNL d   1       1.873  -3.034   2.764  0.00  0.00     0.002 A 
ATOM      4  C5  UNL d   1       1.509  -1.717   2.492  0.00  0.00    -0.004 A 
ATOM      5  C6  UNL d   1       1.882  -0.697   3.366  0.00  0.00     0.002 A 
ATOM      6  C7  UNL d   1       2.624  -0.993   4.510  0.00  0.00     0.002 A 
ENDROOT
BRANCH   1   7
ATOM      7  C1  UNL d   1       3.842  -2.627   6.000  0.00  0.00     0.055 C 
ATOM      8  C   UNL d   1       5.299  -2.252   5.770  0.00  0.00     0.019 C 
ENDBRANCH   1   7
TORSDOF 1
ENDMDL
