MODEL 1
REMARK minimizedAffinity -0.766300321
REMARK minimizedRMSD -1
REMARK  1 active torsions:
REMARK  status: ('A' for Active; 'I' for Inactive)
REMARK    1  A    between atoms: C1_2  and  C2_3 
ROOT
ATOM      1  C2  UNL d   1       4.519  -1.785   3.912  0.00  0.00    -0.077 A 
ATOM      2  C3  UNL d   1       4.118  -0.727   3.084  0.00  0.00     0.002 A 
ATOM      3  C4  UNL d   1       2.790  -0.621   2.667  0.00  0.00     0.002 A 
ATOM      4  C5  UNL d   1       1.852  -1.566   3.076  0.00  0.00    -0.004 A 
ATOM      5  C6  UNL d   1       2.241  -2.623   3.898  0.00  0.00     0.002 A 
ATOM      6  C7  UNL d   1       3.568  -2.732   4.315  0.00  0.00     0.002 A 
ENDROOT
BRANCH   1   7
ATOM      7  C1  UNL d   1       5.940  -1.874   4.403  0.00  0.00     0.055 C 
ATOM      8  C   UNL d   1       5.999  -1.917   5.923  0.00  0.00     0.019 C 
ENDBRANCH   1   7
TORSDOF 1
ENDMDL
