MODEL 1
REMARK minimizedAffinity 3.06168652
REMARK minimizedRMSD -1
REMARK  1 active torsions:
REMARK  status: ('A' for Active; 'I' for Inactive)
REMARK    1  A    between atoms: C1_2  and  C2_3 
ROOT
ATOM      1  C2  UNL d   1       3.669  -2.348   4.965  0.00  0.00    -0.077 A 
ATOM      2  C3  UNL d   1       2.462  -3.006   4.688  0.00  0.00     0.002 A 
ATOM      3  C4  UNL d   1       1.605  -2.524   3.697  0.00  0.00     0.002 A 
ATOM      4  C5  UNL d   1       1.947  -1.384   2.972  0.00  0.00    -0.004 A 
ATOM      5  C6  UNL d   1       3.144  -0.721   3.241  0.00  0.00     0.002 A 
ATOM      6  C7  UNL d   1       4.001  -1.201   4.233  0.00  0.00     0.002 A 
ENDROOT
BRANCH   1   7
ATOM      7  C1  UNL d   1       4.617  -2.894   5.999  0.00  0.00     0.055 C 
ATOM      8  C   UNL d   1       5.999  -2.271   5.867  0.00  0.00     0.019 C 
ENDBRANCH   1   7
TORSDOF 1
ENDMDL
