MODEL 1
REMARK minimizedAffinity -3.9979856
REMARK minimizedRMSD -1
REMARK  0 active torsions:
REMARK  status: ('A' for Active; 'I' for Inactive)
ROOT
ATOM      1  C   UNL d   1      -0.919  -2.041  -0.374  0.00  0.00     0.078 C 
ATOM      2  C1  UNL d   1      -0.729  -0.589  -0.051  0.00  0.00    -0.077 A 
ATOM      3  C2  UNL d   1       0.553  -0.044   0.091  0.00  0.00    -0.001 A 
ATOM      4  C3  UNL d   1       0.715   1.307   0.402  0.00  0.00     0.003 A 
ATOM      5  C4  UNL d   1      -0.400   2.124   0.574  0.00  0.00    -0.005 A 
ATOM      6  C5  UNL d   1      -1.680   1.590   0.437  0.00  0.00     0.003 A 
ATOM      7  C6  UNL d   1      -1.844   0.239   0.127  0.00  0.00    -0.001 A 
ENDROOT
TORSDOF 0
ENDMDL
