MODEL 1
REMARK minimizedAffinity -0.316466063
REMARK minimizedRMSD -1
REMARK  0 active torsions:
REMARK  status: ('A' for Active; 'I' for Inactive)
ROOT
ATOM      1  C   UNL d   1       2.483   1.752   0.994  0.00  0.00     0.078 C 
ATOM      2  C1  UNL d   1       1.047   1.395   0.747  0.00  0.00    -0.077 A 
ATOM      3  C2  UNL d   1       0.053   2.380   0.722  0.00  0.00    -0.001 A 
ATOM      4  C3  UNL d   1      -1.280   2.032   0.501  0.00  0.00     0.003 A 
ATOM      5  C4  UNL d   1      -1.632   0.698   0.304  0.00  0.00    -0.005 A 
ATOM      6  C5  UNL d   1      -0.649  -0.290   0.329  0.00  0.00     0.003 A 
ATOM      7  C6  UNL d   1       0.684   0.057   0.550  0.00  0.00    -0.001 A 
ENDROOT
TORSDOF 0
ENDMDL
