MODEL 1
REMARK minimizedAffinity -3.83251023
REMARK minimizedRMSD -1
REMARK  0 active torsions:
REMARK  status: ('A' for Active; 'I' for Inactive)
ROOT
ATOM      1  C   UNL d   1       0.047  -1.130  -0.466  0.00  0.00     0.078 C 
ATOM      2  C1  UNL d   1       0.140   0.293  -0.003  0.00  0.00    -0.077 A 
ATOM      3  C2  UNL d   1      -0.949   1.164  -0.126  0.00  0.00    -0.001 A 
ATOM      4  C3  UNL d   1      -0.845   2.489   0.300  0.00  0.00     0.003 A 
ATOM      5  C4  UNL d   1       0.347   2.956   0.850  0.00  0.00    -0.005 A 
ATOM      6  C5  UNL d   1       1.437   2.098   0.973  0.00  0.00     0.003 A 
ATOM      7  C6  UNL d   1       1.335   0.772   0.548  0.00  0.00    -0.001 A 
ENDROOT
TORSDOF 0
ENDMDL
