MODEL 1
REMARK minimizedAffinity -3.6397202
REMARK minimizedRMSD -1
REMARK  0 active torsions:
REMARK  status: ('A' for Active; 'I' for Inactive)
ROOT
ATOM      1  C   UNL d   1      -0.025  -1.678   0.278  0.00  0.00     0.078 C 
ATOM      2  C1  UNL d   1      -0.368  -0.218   0.309  0.00  0.00    -0.077 A 
ATOM      3  C2  UNL d   1       0.629   0.755   0.448  0.00  0.00    -0.001 A 
ATOM      4  C3  UNL d   1       0.294   2.109   0.484  0.00  0.00     0.003 A 
ATOM      5  C4  UNL d   1      -1.039   2.503   0.383  0.00  0.00    -0.005 A 
ATOM      6  C5  UNL d   1      -2.038   1.542   0.247  0.00  0.00     0.003 A 
ATOM      7  C6  UNL d   1      -1.705   0.187   0.210  0.00  0.00    -0.001 A 
ENDROOT
TORSDOF 0
ENDMDL
