MODEL 1
REMARK minimizedAffinity -3.70115471
REMARK minimizedRMSD -1
REMARK  0 active torsions:
REMARK  status: ('A' for Active; 'I' for Inactive)
ROOT
ATOM      1  C   UNL d   1      -0.431  -1.776  -0.385  0.00  0.00     0.078 C 
ATOM      2  C1  UNL d   1      -0.332  -0.335   0.020  0.00  0.00    -0.077 A 
ATOM      3  C2  UNL d   1      -1.474   0.396   0.368  0.00  0.00    -0.001 A 
ATOM      4  C3  UNL d   1      -1.368   1.739   0.733  0.00  0.00     0.003 A 
ATOM      5  C4  UNL d   1      -0.122   2.363   0.754  0.00  0.00    -0.005 A 
ATOM      6  C5  UNL d   1       1.020   1.643   0.407  0.00  0.00     0.003 A 
ATOM      7  C6  UNL d   1       0.916   0.301   0.041  0.00  0.00    -0.001 A 
ENDROOT
TORSDOF 0
ENDMDL
