MODEL 1
REMARK minimizedAffinity -1.75286663
REMARK minimizedRMSD -1
REMARK  0 active torsions:
REMARK  status: ('A' for Active; 'I' for Inactive)
ROOT
ATOM      1  C   UNL d   1      -0.061   3.126   0.361  0.00  0.00     0.078 C 
ATOM      2  C1  UNL d   1      -0.230   1.636   0.402  0.00  0.00    -0.077 A 
ATOM      3  C2  UNL d   1      -1.441   1.058   0.801  0.00  0.00    -0.001 A 
ATOM      4  C3  UNL d   1      -1.581  -0.330   0.843  0.00  0.00     0.003 A 
ATOM      5  C4  UNL d   1      -0.512  -1.152   0.490  0.00  0.00    -0.005 A 
ATOM      6  C5  UNL d   1       0.698  -0.586   0.094  0.00  0.00     0.003 A 
ATOM      7  C6  UNL d   1       0.839   0.802   0.051  0.00  0.00    -0.001 A 
ENDROOT
TORSDOF 0
ENDMDL
