MODEL 1
REMARK minimizedAffinity -4.49961329
REMARK minimizedRMSD -1
REMARK  0 active torsions:
REMARK  status: ('A' for Active; 'I' for Inactive)
ROOT
ATOM      1  C   UNL d   1       2.686   2.264   1.031  0.00  0.00     0.078 C 
ATOM      2  C1  UNL d   1       1.356   1.634   0.744  0.00  0.00    -0.077 A 
ATOM      3  C2  UNL d   1       1.268   0.325   0.257  0.00  0.00    -0.001 A 
ATOM      4  C3  UNL d   1       0.023  -0.245  -0.015  0.00  0.00     0.003 A 
ATOM      5  C4  UNL d   1      -1.143   0.488   0.196  0.00  0.00    -0.005 A 
ATOM      6  C5  UNL d   1      -1.065   1.792   0.678  0.00  0.00     0.003 A 
ATOM      7  C6  UNL d   1       0.178   2.364   0.951  0.00  0.00    -0.001 A 
ENDROOT
TORSDOF 0
ENDMDL
