MODEL 1
REMARK minimizedAffinity 0.0648942515
REMARK minimizedRMSD -1
REMARK  0 active torsions:
REMARK  status: ('A' for Active; 'I' for Inactive)
ROOT
ATOM      1  C   UNL d   1       2.323   2.255   1.701  0.00  0.00     0.078 C 
ATOM      2  C1  UNL d   1       1.052   1.637   1.198  0.00  0.00    -0.077 A 
ATOM      3  C2  UNL d   1       1.033   0.328   0.703  0.00  0.00    -0.001 A 
ATOM      4  C3  UNL d   1      -0.155  -0.231   0.230  0.00  0.00     0.003 A 
ATOM      5  C4  UNL d   1      -1.333   0.512   0.246  0.00  0.00    -0.005 A 
ATOM      6  C5  UNL d   1      -1.324   1.817   0.735  0.00  0.00     0.003 A 
ATOM      7  C6  UNL d   1      -0.137   2.378   1.209  0.00  0.00    -0.001 A 
ENDROOT
TORSDOF 0
ENDMDL
