MODEL 1
REMARK minimizedAffinity -3.45287299
REMARK minimizedRMSD -1
REMARK  0 active torsions:
REMARK  status: ('A' for Active; 'I' for Inactive)
ROOT
ATOM      1  C   UNL d   1      -2.231   0.593   0.587  0.00  0.00     0.078 C 
ATOM      2  C1  UNL d   1      -0.787   0.192   0.561  0.00  0.00    -0.077 A 
ATOM      3  C2  UNL d   1       0.227   1.153   0.473  0.00  0.00    -0.001 A 
ATOM      4  C3  UNL d   1       1.567   0.765   0.440  0.00  0.00     0.003 A 
ATOM      5  C4  UNL d   1       1.906  -0.586   0.493  0.00  0.00    -0.005 A 
ATOM      6  C5  UNL d   1       0.904  -1.550   0.578  0.00  0.00     0.003 A 
ATOM      7  C6  UNL d   1      -0.437  -1.163   0.612  0.00  0.00    -0.001 A 
ENDROOT
TORSDOF 0
ENDMDL
