MODEL 1
REMARK minimizedAffinity -2.24277735
REMARK minimizedRMSD -1
REMARK  0 active torsions:
REMARK  status: ('A' for Active; 'I' for Inactive)
ROOT
ATOM      1  C   UNL d   1      -0.043   2.677   0.613  0.00  0.00     0.078 C 
ATOM      2  C1  UNL d   1       0.307   1.249   0.318  0.00  0.00    -0.077 A 
ATOM      3  C2  UNL d   1      -0.676   0.252   0.314  0.00  0.00    -0.001 A 
ATOM      4  C3  UNL d   1      -0.335  -1.075   0.048  0.00  0.00     0.003 A 
ATOM      5  C4  UNL d   1       0.990  -1.418  -0.215  0.00  0.00    -0.005 A 
ATOM      6  C5  UNL d   1       1.976  -0.433  -0.210  0.00  0.00     0.003 A 
ATOM      7  C6  UNL d   1       1.636   0.895   0.056  0.00  0.00    -0.001 A 
ENDROOT
TORSDOF 0
ENDMDL
