MODEL 1
REMARK minimizedAffinity -5.4243679
REMARK minimizedRMSD -1
REMARK  0 active torsions:
REMARK  status: ('A' for Active; 'I' for Inactive)
ROOT
ATOM      1  C   UNL d   1       0.504  -1.227  -0.383  0.00  0.00     0.078 C 
ATOM      2  C1  UNL d   1       0.914   0.161   0.010  0.00  0.00    -0.077 A 
ATOM      3  C2  UNL d   1       2.229   0.442   0.399  0.00  0.00    -0.001 A 
ATOM      4  C3  UNL d   1       2.594   1.737   0.772  0.00  0.00     0.003 A 
ATOM      5  C4  UNL d   1       1.649   2.761   0.761  0.00  0.00    -0.005 A 
ATOM      6  C5  UNL d   1       0.337   2.490   0.377  0.00  0.00     0.003 A 
ATOM      7  C6  UNL d   1      -0.030   1.196   0.004  0.00  0.00    -0.001 A 
ENDROOT
TORSDOF 0
ENDMDL
