MODEL 1
REMARK minimizedAffinity -3.22580624
REMARK minimizedRMSD -1
REMARK  0 active torsions:
REMARK  status: ('A' for Active; 'I' for Inactive)
ROOT
ATOM      1  C   UNL d   1      -0.217  -1.049  -0.202  0.00  0.00     0.078 C 
ATOM      2  C1  UNL d   1      -0.115   0.400   0.168  0.00  0.00    -0.077 A 
ATOM      3  C2  UNL d   1       1.026   0.904   0.805  0.00  0.00    -0.001 A 
ATOM      4  C3  UNL d   1       1.103   2.253   1.152  0.00  0.00     0.003 A 
ATOM      5  C4  UNL d   1       0.042   3.111   0.869  0.00  0.00    -0.005 A 
ATOM      6  C5  UNL d   1      -1.098   2.619   0.238  0.00  0.00     0.003 A 
ATOM      7  C6  UNL d   1      -1.178   1.269  -0.111  0.00  0.00    -0.001 A 
ENDROOT
TORSDOF 0
ENDMDL
