MODEL 1
REMARK minimizedAffinity -4.05869436
REMARK minimizedRMSD -1
REMARK  0 active torsions:
REMARK  status: ('A' for Active; 'I' for Inactive)
ROOT
ATOM      1  C   UNL d   1      -1.094   0.665   0.152  0.00  0.00     0.078 C 
ATOM      2  C1  UNL d   1      -0.727  -0.620  -0.528  0.00  0.00    -0.077 A 
ATOM      3  C2  UNL d   1      -0.446  -0.655  -1.899  0.00  0.00    -0.001 A 
ATOM      4  C3  UNL d   1      -0.115  -1.860  -2.521  0.00  0.00     0.003 A 
ATOM      5  C4  UNL d   1      -0.063  -3.039  -1.780  0.00  0.00    -0.005 A 
ATOM      6  C5  UNL d   1      -0.343  -3.014  -0.416  0.00  0.00     0.003 A 
ATOM      7  C6  UNL d   1      -0.674  -1.810   0.208  0.00  0.00    -0.001 A 
ENDROOT
TORSDOF 0
ENDMDL
