MODEL 1
REMARK minimizedAffinity -2.94586349
REMARK minimizedRMSD -1
REMARK  0 active torsions:
REMARK  status: ('A' for Active; 'I' for Inactive)
ROOT
ATOM      1  C   UNL d   1      -1.571  -3.339  -2.208  0.00  0.00     0.078 C 
ATOM      2  C1  UNL d   1      -0.763  -2.654  -1.146  0.00  0.00    -0.077 A 
ATOM      3  C2  UNL d   1      -1.020  -1.324  -0.791  0.00  0.00    -0.001 A 
ATOM      4  C3  UNL d   1      -0.254  -0.695   0.192  0.00  0.00     0.003 A 
ATOM      5  C4  UNL d   1       0.775  -1.388   0.827  0.00  0.00    -0.005 A 
ATOM      6  C5  UNL d   1       1.039  -2.711   0.478  0.00  0.00     0.003 A 
ATOM      7  C6  UNL d   1       0.274  -3.341  -0.504  0.00  0.00    -0.001 A 
ENDROOT
TORSDOF 0
ENDMDL
