MODEL 1
REMARK minimizedAffinity 5.09532976
REMARK minimizedRMSD -1
REMARK  1 active torsions:
REMARK  status: ('A' for Active; 'I' for Inactive)
REMARK    1  A    between atoms: C1_2  and  C2_3 
ROOT
ATOM      1  C2  UNL d   1       0.381  -1.451   3.294  0.00  0.00    -0.077 A 
ATOM      2  C3  UNL d   1       1.302  -1.156   2.278  0.00  0.00     0.002 A 
ATOM      3  C4  UNL d   1       0.905  -0.431   1.153  0.00  0.00     0.002 A 
ATOM      4  C5  UNL d   1      -0.412   0.008   1.034  0.00  0.00    -0.004 A 
ATOM      5  C6  UNL d   1      -1.336  -0.281   2.038  0.00  0.00     0.002 A 
ATOM      6  C7  UNL d   1      -0.941  -1.007   3.162  0.00  0.00     0.002 A 
ENDROOT
BRANCH   1   7
ATOM      7  C1  UNL d   1       0.819  -2.190   4.531  0.00  0.00     0.055 C 
ATOM      8  C   UNL d   1       2.335  -2.206   4.658  0.00  0.00     0.019 C 
ENDBRANCH   1   7
TORSDOF 1
ENDMDL
