MODEL 1
REMARK minimizedAffinity 0.2062096
REMARK minimizedRMSD -1
REMARK  1 active torsions:
REMARK  status: ('A' for Active; 'I' for Inactive)
REMARK    1  A    between atoms: C1_2  and  C2_3 
ROOT
ATOM      1  C2  UNL d   1      -1.290   0.013   1.904  0.00  0.00    -0.077 A 
ATOM      2  C3  UNL d   1      -1.812  -1.126   1.274  0.00  0.00     0.002 A 
ATOM      3  C4  UNL d   1      -2.261  -1.059  -0.046  0.00  0.00     0.002 A 
ATOM      4  C5  UNL d   1      -2.188   0.141  -0.749  0.00  0.00    -0.004 A 
ATOM      5  C6  UNL d   1      -1.672   1.280  -0.131  0.00  0.00     0.002 A 
ATOM      6  C7  UNL d   1      -1.224   1.216   1.189  0.00  0.00     0.002 A 
ENDROOT
BRANCH   1   7
ATOM      7  C1  UNL d   1      -0.760  -0.068   3.311  0.00  0.00     0.055 C 
ATOM      8  C   UNL d   1       0.161  -1.267   3.488  0.00  0.00     0.019 C 
ENDBRANCH   1   7
TORSDOF 1
ENDMDL
