MODEL 1
REMARK minimizedAffinity 4.45867777
REMARK minimizedRMSD -1
REMARK  1 active torsions:
REMARK  status: ('A' for Active; 'I' for Inactive)
REMARK    1  A    between atoms: C1_2  and  C2_3 
ROOT
ATOM      1  C2  UNL d   1       0.532  -1.283   3.615  0.00  0.00    -0.077 A 
ATOM      2  C3  UNL d   1      -0.792  -0.899   3.361  0.00  0.00     0.002 A 
ATOM      3  C4  UNL d   1      -1.122  -0.244   2.173  0.00  0.00     0.002 A 
ATOM      4  C5  UNL d   1      -0.134   0.030   1.229  0.00  0.00    -0.004 A 
ATOM      5  C6  UNL d   1       1.186  -0.346   1.474  0.00  0.00     0.002 A 
ATOM      6  C7  UNL d   1       1.517  -1.001   2.661  0.00  0.00     0.002 A 
ENDROOT
BRANCH   1   7
ATOM      7  C1  UNL d   1       0.880  -2.035   4.874  0.00  0.00     0.055 C 
ATOM      8  C   UNL d   1       2.368  -1.939   5.181  0.00  0.00     0.019 C 
ENDBRANCH   1   7
TORSDOF 1
ENDMDL
