MODEL 1
REMARK minimizedAffinity 0.563821912
REMARK minimizedRMSD -1
REMARK  1 active torsions:
REMARK  status: ('A' for Active; 'I' for Inactive)
REMARK    1  A    between atoms: C1_2  and  C2_3 
ROOT
ATOM      1  C2  UNL d   1       2.157  -4.750  -4.417  0.00  0.00    -0.077 A 
ATOM      2  C3  UNL d   1       1.875  -4.875  -3.049  0.00  0.00     0.002 A 
ATOM      3  C4  UNL d   1       0.699  -5.496  -2.624  0.00  0.00     0.002 A 
ATOM      4  C5  UNL d   1      -0.203  -5.999  -3.560  0.00  0.00    -0.004 A 
ATOM      5  C6  UNL d   1       0.067  -5.878  -4.922  0.00  0.00     0.002 A 
ATOM      6  C7  UNL d   1       1.242  -5.257  -5.349  0.00  0.00     0.002 A 
ENDROOT
BRANCH   1   7
ATOM      7  C1  UNL d   1       3.448  -4.125  -4.876  0.00  0.00     0.055 C 
ATOM      8  C   UNL d   1       3.516  -2.653  -4.498  0.00  0.00     0.019 C 
ENDBRANCH   1   7
TORSDOF 1
ENDMDL
