MODEL 1
REMARK minimizedAffinity 0.865032077
REMARK minimizedRMSD -1
REMARK  1 active torsions:
REMARK  status: ('A' for Active; 'I' for Inactive)
REMARK    1  A    between atoms: C1_2  and  C2_3 
ROOT
ATOM      1  C2  UNL d   1       0.498  -1.397   3.159  0.00  0.00    -0.077 A 
ATOM      2  C3  UNL d   1      -0.819  -0.999   2.890  0.00  0.00     0.002 A 
ATOM      3  C4  UNL d   1      -1.107  -0.226   1.763  0.00  0.00     0.002 A 
ATOM      4  C5  UNL d   1      -0.085   0.151   0.895  0.00  0.00    -0.004 A 
ATOM      5  C6  UNL d   1       1.228  -0.238   1.155  0.00  0.00     0.002 A 
ATOM      6  C7  UNL d   1       1.518  -1.009   2.282  0.00  0.00     0.002 A 
ENDROOT
BRANCH   1   7
ATOM      7  C1  UNL d   1       0.803  -2.272   4.347  0.00  0.00     0.055 C 
ATOM      8  C   UNL d   1       2.302  -2.361   4.597  0.00  0.00     0.019 C 
ENDBRANCH   1   7
TORSDOF 1
ENDMDL
