MODEL 1
REMARK minimizedAffinity 1.53323579
REMARK minimizedRMSD -1
REMARK  1 active torsions:
REMARK  status: ('A' for Active; 'I' for Inactive)
REMARK    1  A    between atoms: C1_2  and  C2_3 
ROOT
ATOM      1  C2  UNL d   1       0.680  -1.348   3.216  0.00  0.00    -0.077 A 
ATOM      2  C3  UNL d   1       1.303  -0.492   2.297  0.00  0.00     0.002 A 
ATOM      3  C4  UNL d   1       0.542   0.378   1.514  0.00  0.00     0.002 A 
ATOM      4  C5  UNL d   1      -0.845   0.402   1.643  0.00  0.00    -0.004 A 
ATOM      5  C6  UNL d   1      -1.474  -0.447   2.553  0.00  0.00     0.002 A 
ATOM      6  C7  UNL d   1      -0.716  -1.317   3.336  0.00  0.00     0.002 A 
ENDROOT
BRANCH   1   7
ATOM      7  C1  UNL d   1       1.502  -2.251   4.098  0.00  0.00     0.055 C 
ATOM      8  C   UNL d   1       1.788  -1.601   5.443  0.00  0.00     0.019 C 
ENDBRANCH   1   7
TORSDOF 1
ENDMDL
