MODEL 1
REMARK minimizedAffinity 5.28268099
REMARK minimizedRMSD -1
REMARK  2 active torsions:
REMARK  status: ('A' for Active; 'I' for Inactive)
REMARK    1  A    between atoms: C1_2  and  C2_3 
REMARK    2  A    between atoms: C2_3  and  C3_4 
ROOT
ATOM      1  C3  UNL d   1       0.752   0.246   3.617  0.00  0.00    -0.075 A 
ATOM      2  C4  UNL d   1       1.900  -0.157   2.920  0.00  0.00     0.002 A 
ATOM      3  C5  UNL d   1       2.586  -1.313   3.294  0.00  0.00     0.002 A 
ATOM      4  C6  UNL d   1       2.142  -2.072   4.374  0.00  0.00    -0.004 A 
ATOM      5  C7  UNL d   1       1.012  -1.671   5.085  0.00  0.00     0.002 A 
ATOM      6  C8  UNL d   1       0.321  -0.518   4.709  0.00  0.00     0.002 A 
ENDROOT
BRANCH   1   7
ATOM      7  C2  UNL d   1      -0.012   1.480   3.198  0.00  0.00     0.056 C 
BRANCH   7   8
ATOM      8  C1  UNL d   1       0.807   2.468   2.362  0.00  0.00     0.007 C 
ATOM      9  C   UNL d   1       0.188   2.761   1.002  0.00  0.00     0.009 C 
ENDBRANCH   7   8
ENDBRANCH   1   7
TORSDOF 2
ENDMDL
