MODEL 1
REMARK minimizedAffinity 4.01860952
REMARK minimizedRMSD -1
REMARK  2 active torsions:
REMARK  status: ('A' for Active; 'I' for Inactive)
REMARK    1  A    between atoms: C1_2  and  C2_3 
REMARK    2  A    between atoms: C2_3  and  C3_4 
ROOT
ATOM      1  C3  UNL d   1      -0.266   4.924  -0.758  0.00  0.00    -0.075 A 
ATOM      2  C4  UNL d   1       0.549   5.470  -1.760  0.00  0.00     0.002 A 
ATOM      3  C5  UNL d   1      -0.015   5.997  -2.922  0.00  0.00     0.002 A 
ATOM      4  C6  UNL d   1      -1.397   5.975  -3.102  0.00  0.00    -0.004 A 
ATOM      5  C7  UNL d   1      -2.214   5.420  -2.120  0.00  0.00     0.002 A 
ATOM      6  C8  UNL d   1      -1.653   4.896  -0.954  0.00  0.00     0.002 A 
ENDROOT
BRANCH   1   7
ATOM      7  C2  UNL d   1       0.336   4.379   0.515  0.00  0.00     0.056 C 
BRANCH   7   8
ATOM      8  C1  UNL d   1      -0.344   3.107   1.032  0.00  0.00     0.007 C 
ATOM      9  C   UNL d   1      -1.071   3.310   2.355  0.00  0.00     0.009 C 
ENDBRANCH   7   8
ENDBRANCH   1   7
TORSDOF 2
ENDMDL
