MODEL 1
REMARK minimizedAffinity 8.82819653
REMARK minimizedRMSD -1
REMARK  2 active torsions:
REMARK  status: ('A' for Active; 'I' for Inactive)
REMARK    1  A    between atoms: C1_2  and  C2_3 
REMARK    2  A    between atoms: C2_3  and  C3_4 
ROOT
ATOM      1  C3  UNL d   1       0.334   3.308   0.116  0.00  0.00    -0.075 A 
ATOM      2  C4  UNL d   1      -0.749   3.907   0.775  0.00  0.00     0.002 A 
ATOM      3  C5  UNL d   1      -1.071   5.244   0.539  0.00  0.00     0.002 A 
ATOM      4  C6  UNL d   1      -0.311   6.000  -0.350  0.00  0.00    -0.004 A 
ATOM      5  C7  UNL d   1       0.778   5.420  -0.998  0.00  0.00     0.002 A 
ATOM      6  C8  UNL d   1       1.100   4.082  -0.767  0.00  0.00     0.002 A 
ENDROOT
BRANCH   1   7
ATOM      7  C2  UNL d   1       0.670   1.854   0.345  0.00  0.00     0.056 C 
BRANCH   7   8
ATOM      8  C1  UNL d   1       0.898   1.056  -0.943  0.00  0.00     0.007 C 
ATOM      9  C   UNL d   1      -0.170   0.000  -1.192  0.00  0.00     0.009 C 
ENDBRANCH   7   8
ENDBRANCH   1   7
TORSDOF 2
ENDMDL
