MODEL 1
REMARK minimizedAffinity 5.7533884
REMARK minimizedRMSD -1
REMARK  0 active torsions:
REMARK  status: ('A' for Active; 'I' for Inactive)
ROOT
ATOM      1  C1  BNZ d   1       1.584   2.726   3.050  0.00  0.00     0.000 A 
ATOM      2  C2  BNZ d   1       0.736   3.077   2.033  0.00  0.00     0.000 A 
ATOM      3  C3  BNZ d   1       0.846   4.293   1.419  0.00  0.00     0.000 A 
ATOM      4  C4  BNZ d   1       1.776   5.170   1.847  0.00  0.00     0.000 A 
ATOM      5  C5  BNZ d   1       2.632   4.835   2.877  0.00  0.00     0.000 A 
ATOM      6  C6  BNZ d   1       2.544   3.595   3.467  0.00  0.00     0.000 A 
ENDROOT
TORSDOF 0
ENDMDL
