MODEL 1
REMARK minimizedAffinity 13.1542969
REMARK minimizedRMSD -1
REMARK  0 active torsions:
REMARK  status: ('A' for Active; 'I' for Inactive)
ROOT
ATOM      1  C1  BNZ d   1      -4.751   4.766  -2.679  0.00  0.00     0.000 A 
ATOM      2  C2  BNZ d   1      -5.172   5.398  -3.818  0.00  0.00     0.000 A 
ATOM      3  C3  BNZ d   1      -5.811   4.704  -4.808  0.00  0.00     0.000 A 
ATOM      4  C4  BNZ d   1      -5.992   3.375  -4.675  0.00  0.00     0.000 A 
ATOM      5  C5  BNZ d   1      -5.564   2.721  -3.536  0.00  0.00     0.000 A 
ATOM      6  C6  BNZ d   1      -4.956   3.430  -2.525  0.00  0.00     0.000 A 
ENDROOT
TORSDOF 0
ENDMDL
