MODEL 1
REMARK minimizedAffinity 3.21896768
REMARK minimizedRMSD -1
REMARK  0 active torsions:
REMARK  status: ('A' for Active; 'I' for Inactive)
ROOT
ATOM      1  C1  BNZ d   1      -5.998  -2.265   2.020  0.00  0.00     0.000 A 
ATOM      2  C2  BNZ d   1      -5.968  -1.113   2.758  0.00  0.00     0.000 A 
ATOM      3  C3  BNZ d   1      -5.929  -1.157   4.124  0.00  0.00     0.000 A 
ATOM      4  C4  BNZ d   1      -5.960  -2.351   4.750  0.00  0.00     0.000 A 
ATOM      5  C5  BNZ d   1      -6.000  -3.522   4.019  0.00  0.00     0.000 A 
ATOM      6  C6  BNZ d   1      -6.000  -3.475   2.644  0.00  0.00     0.000 A 
ENDROOT
TORSDOF 0
ENDMDL
