MODEL 1
REMARK minimizedAffinity 4.19089508
REMARK minimizedRMSD -1
REMARK  0 active torsions:
REMARK  status: ('A' for Active; 'I' for Inactive)
ROOT
ATOM      1  C1  BNZ d   1       0.506   2.532   2.224  0.00  0.00     0.000 A 
ATOM      2  C2  BNZ d   1       1.351   2.058   3.192  0.00  0.00     0.000 A 
ATOM      3  C3  BNZ d   1       2.359   2.839   3.685  0.00  0.00     0.000 A 
ATOM      4  C4  BNZ d   1       2.545   4.076   3.182  0.00  0.00     0.000 A 
ATOM      5  C5  BNZ d   1       1.707   4.565   2.199  0.00  0.00     0.000 A 
ATOM      6  C6  BNZ d   1       0.670   3.790   1.733  0.00  0.00     0.000 A 
ENDROOT
TORSDOF 0
ENDMDL
