MODEL 1
REMARK minimizedAffinity 3.78717661
REMARK minimizedRMSD -1
REMARK  0 active torsions:
REMARK  status: ('A' for Active; 'I' for Inactive)
ROOT
ATOM      1  C1  BNZ d   1      -5.999  -2.284   3.391  0.00  0.00     0.000 A 
ATOM      2  C2  BNZ d   1      -6.000  -3.074   4.510  0.00  0.00     0.000 A 
ATOM      3  C3  BNZ d   1      -5.235  -2.750   5.595  0.00  0.00     0.000 A 
ATOM      4  C4  BNZ d   1      -4.441  -1.661   5.546  0.00  0.00     0.000 A 
ATOM      5  C5  BNZ d   1      -4.422  -0.860   4.422  0.00  0.00     0.000 A 
ATOM      6  C6  BNZ d   1      -5.223  -1.167   3.346  0.00  0.00     0.000 A 
ENDROOT
TORSDOF 0
ENDMDL
