MODEL 1
REMARK minimizedAffinity -3.18627071
REMARK minimizedRMSD -1
REMARK  0 active torsions:
REMARK  status: ('A' for Active; 'I' for Inactive)
ROOT
ATOM      1  C1  BNZ d   1      -0.816   3.727   1.173  0.00  0.00     0.000 A 
ATOM      2  C2  BNZ d   1      -1.638   2.779   0.624  0.00  0.00     0.000 A 
ATOM      3  C3  BNZ d   1      -1.546   2.456  -0.700  0.00  0.00     0.000 A 
ATOM      4  C4  BNZ d   1      -0.661   3.108  -1.482  0.00  0.00     0.000 A 
ATOM      5  C5  BNZ d   1       0.168   4.072  -0.945  0.00  0.00     0.000 A 
ATOM      6  C6  BNZ d   1       0.100   4.368   0.397  0.00  0.00     0.000 A 
ENDROOT
TORSDOF 0
ENDMDL
