MODEL 1
REMARK minimizedAffinity -3.30283356
REMARK minimizedRMSD -1
REMARK  0 active torsions:
REMARK  status: ('A' for Active; 'I' for Inactive)
ROOT
ATOM      1  C1  BNZ d   1      -1.320   3.233   1.035  0.00  0.00     0.000 A 
ATOM      2  C2  BNZ d   1      -0.604   4.121   1.794  0.00  0.00     0.000 A 
ATOM      3  C3  BNZ d   1       0.625   3.787   2.289  0.00  0.00     0.000 A 
ATOM      4  C4  BNZ d   1       1.120   2.553   2.059  0.00  0.00     0.000 A 
ATOM      5  C5  BNZ d   1       0.406   1.644   1.304  0.00  0.00     0.000 A 
ATOM      6  C6  BNZ d   1      -0.814   1.997   0.775  0.00  0.00     0.000 A 
ENDROOT
TORSDOF 0
ENDMDL
