MODEL 1
REMARK minimizedAffinity -3.85084486
REMARK minimizedRMSD -1
REMARK  0 active torsions:
REMARK  status: ('A' for Active; 'I' for Inactive)
ROOT
ATOM      1  C1  BNZ d   1      -1.380   3.205  -1.055  0.00  0.00     0.000 A 
ATOM      2  C2  BNZ d   1      -0.632   2.072  -1.238  0.00  0.00     0.000 A 
ATOM      3  C3  BNZ d   1      -0.248   1.308  -0.172  0.00  0.00     0.000 A 
ATOM      4  C4  BNZ d   1      -0.577   1.697   1.077  0.00  0.00     0.000 A 
ATOM      5  C5  BNZ d   1      -1.323   2.842   1.278  0.00  0.00     0.000 A 
ATOM      6  C6  BNZ d   1      -1.741   3.588   0.200  0.00  0.00     0.000 A 
ENDROOT
TORSDOF 0
ENDMDL
