MODEL 1
REMARK minimizedAffinity 17.251955
REMARK minimizedRMSD -1
REMARK  0 active torsions:
REMARK  status: ('A' for Active; 'I' for Inactive)
ROOT
ATOM      1  C2' OXE d   1      -2.677   0.717   5.994  0.00  0.00     0.078 C 
ATOM      2  C1' OXE d   1      -3.455   0.070   3.376  0.00  0.00     0.078 C 
ATOM      3  C1  OXE d   1      -4.132   1.242   4.042  0.00  0.00    -0.078 A 
ATOM      4  C2  OXE d   1      -3.778   1.522   5.340  0.00  0.00    -0.078 A 
ATOM      5  C3  OXE d   1      -4.332   2.626   5.982  0.00  0.00     0.003 A 
ATOM      6  C4  OXE d   1      -5.357   3.360   5.373  0.00  0.00    -0.002 A 
ATOM      7  C5  OXE d   1      -5.761   3.066   4.066  0.00  0.00    -0.002 A 
ATOM      8  C6  OXE d   1      -5.130   2.039   3.373  0.00  0.00     0.003 A 
ENDROOT
TORSDOF 0
ENDMDL
