MODEL 1
REMARK minimizedAffinity 8.00507259
REMARK minimizedRMSD -1
REMARK  0 active torsions:
REMARK  status: ('A' for Active; 'I' for Inactive)
ROOT
ATOM      1  C2' OXE d   1      -4.046  -3.009   4.724  0.00  0.00     0.078 C 
ATOM      2  C1' OXE d   1      -5.490  -2.123   2.485  0.00  0.00     0.078 C 
ATOM      3  C1  OXE d   1      -4.792  -1.085   3.328  0.00  0.00    -0.078 A 
ATOM      4  C2  OXE d   1      -4.127  -1.523   4.448  0.00  0.00    -0.078 A 
ATOM      5  C3  OXE d   1      -3.420  -0.613   5.229  0.00  0.00     0.003 A 
ATOM      6  C4  OXE d   1      -3.508   0.760   4.972  0.00  0.00    -0.002 A 
ATOM      7  C5  OXE d   1      -4.213   1.231   3.859  0.00  0.00    -0.002 A 
ATOM      8  C6  OXE d   1      -4.823   0.320   3.005  0.00  0.00     0.003 A 
ENDROOT
TORSDOF 0
ENDMDL
