MODEL 1
REMARK minimizedAffinity 9.50857067
REMARK minimizedRMSD -1
REMARK  0 active torsions:
REMARK  status: ('A' for Active; 'I' for Inactive)
ROOT
ATOM      1  C2' OXE d   1       3.499  -4.313  -0.594  0.00  0.00     0.078 C 
ATOM      2  C1' OXE d   1       1.222  -4.180  -2.231  0.00  0.00     0.078 C 
ATOM      3  C1  OXE d   1       1.746  -2.892  -1.647  0.00  0.00    -0.078 A 
ATOM      4  C2  OXE d   1       2.832  -2.972  -0.810  0.00  0.00    -0.078 A 
ATOM      5  C3  OXE d   1       3.388  -1.808  -0.288  0.00  0.00     0.003 A 
ATOM      6  C4  OXE d   1       2.759  -0.572  -0.485  0.00  0.00    -0.002 A 
ATOM      7  C5  OXE d   1       1.628  -0.473  -1.302  0.00  0.00    -0.002 A 
ATOM      8  C6  OXE d   1       1.135  -1.615  -1.924  0.00  0.00     0.003 A 
ENDROOT
TORSDOF 0
ENDMDL
