MODEL 1
REMARK minimizedAffinity 20.5005703
REMARK minimizedRMSD -1
REMARK  0 active torsions:
REMARK  status: ('A' for Active; 'I' for Inactive)
ROOT
ATOM      1  C2' OXE d   1       3.010   2.016  -1.989  0.00  0.00     0.078 C 
ATOM      2  C1' OXE d   1       3.952   1.014   0.458  0.00  0.00     0.078 C 
ATOM      3  C1  OXE d   1       3.058   0.125  -0.369  0.00  0.00    -0.078 A 
ATOM      4  C2  OXE d   1       2.564   0.641  -1.543  0.00  0.00    -0.078 A 
ATOM      5  C3  OXE d   1       1.779  -0.157  -2.370  0.00  0.00     0.003 A 
ATOM      6  C4  OXE d   1       1.362  -1.424  -1.945  0.00  0.00    -0.002 A 
ATOM      7  C5  OXE d   1       1.821  -1.954  -0.735  0.00  0.00    -0.002 A 
ATOM      8  C6  OXE d   1       2.702  -1.211   0.044  0.00  0.00     0.003 A 
ENDROOT
TORSDOF 0
ENDMDL
