MODEL 1
REMARK minimizedAffinity 14.3321877
REMARK minimizedRMSD -1
REMARK  0 active torsions:
REMARK  status: ('A' for Active; 'I' for Inactive)
ROOT
ATOM      1  C2' OXE d   1      -1.715   2.033   2.827  0.00  0.00     0.078 C 
ATOM      2  C1' OXE d   1      -4.192   2.231   4.134  0.00  0.00     0.078 C 
ATOM      3  C1  OXE d   1      -3.847   0.919   3.476  0.00  0.00    -0.078 A 
ATOM      4  C2  OXE d   1      -2.653   0.846   2.798  0.00  0.00    -0.078 A 
ATOM      5  C3  OXE d   1      -2.262  -0.358   2.219  0.00  0.00     0.003 A 
ATOM      6  C4  OXE d   1      -3.140  -1.448   2.189  0.00  0.00    -0.002 A 
ATOM      7  C5  OXE d   1      -4.377  -1.382   2.838  0.00  0.00    -0.002 A 
ATOM      8  C6  OXE d   1      -4.727  -0.223   3.521  0.00  0.00     0.003 A 
ENDROOT
TORSDOF 0
ENDMDL
