MODEL 1
REMARK minimizedAffinity 14.4899979
REMARK minimizedRMSD -1
REMARK  0 active torsions:
REMARK  status: ('A' for Active; 'I' for Inactive)
ROOT
ATOM      1  C2' OXE d   1      -2.231  -3.743   2.642  0.00  0.00     0.078 C 
ATOM      2  C1' OXE d   1      -4.069  -1.632   2.841  0.00  0.00     0.078 C 
ATOM      3  C1  OXE d   1      -4.456  -2.825   2.004  0.00  0.00    -0.078 A 
ATOM      4  C2  OXE d   1      -3.532  -3.833   1.874  0.00  0.00    -0.078 A 
ATOM      5  C3  OXE d   1      -3.859  -4.981   1.158  0.00  0.00     0.003 A 
ATOM      6  C4  OXE d   1      -5.060  -5.052   0.443  0.00  0.00    -0.002 A 
ATOM      7  C5  OXE d   1      -6.000  -4.019   0.529  0.00  0.00    -0.002 A 
ATOM      8  C6  OXE d   1      -5.732  -2.920   1.337  0.00  0.00     0.003 A 
ENDROOT
TORSDOF 0
ENDMDL
