MODEL 1
REMARK minimizedAffinity 6.48305511
REMARK minimizedRMSD -1
REMARK  0 active torsions:
REMARK  status: ('A' for Active; 'I' for Inactive)
ROOT
ATOM      1  C2' OXE d   1      -1.909   5.561  -5.999  0.00  0.00     0.078 C 
ATOM      2  C1' OXE d   1      -4.334   4.146  -6.000  0.00  0.00     0.078 C 
ATOM      3  C1  OXE d   1      -3.112   3.448  -5.457  0.00  0.00    -0.078 A 
ATOM      4  C2  OXE d   1      -1.920   4.131  -5.504  0.00  0.00    -0.078 A 
ATOM      5  C3  OXE d   1      -0.773   3.554  -4.966  0.00  0.00     0.003 A 
ATOM      6  C4  OXE d   1      -0.790   2.227  -4.519  0.00  0.00    -0.002 A 
ATOM      7  C5  OXE d   1      -1.985   1.500  -4.500  0.00  0.00    -0.002 A 
ATOM      8  C6  OXE d   1      -3.160   2.109  -4.925  0.00  0.00     0.003 A 
ENDROOT
TORSDOF 0
ENDMDL
