MODEL 1
REMARK minimizedAffinity 10.4104452
REMARK minimizedRMSD -1
REMARK  0 active torsions:
REMARK  status: ('A' for Active; 'I' for Inactive)
ROOT
ATOM      1  C2' OXE d   1      -0.696   2.140   2.942  0.00  0.00     0.078 C 
ATOM      2  C1' OXE d   1      -0.126  -0.475   2.094  0.00  0.00     0.078 C 
ATOM      3  C1  OXE d   1      -1.545  -0.159   2.494  0.00  0.00    -0.078 A 
ATOM      4  C2  OXE d   1      -1.805   1.110   2.952  0.00  0.00    -0.078 A 
ATOM      5  C3  OXE d   1      -3.109   1.470   3.283  0.00  0.00     0.003 A 
ATOM      6  C4  OXE d   1      -4.127   0.510   3.299  0.00  0.00    -0.002 A 
ATOM      7  C5  OXE d   1      -3.875  -0.799   2.874  0.00  0.00    -0.002 A 
ATOM      8  C6  OXE d   1      -2.602  -1.138   2.429  0.00  0.00     0.003 A 
ENDROOT
TORSDOF 0
ENDMDL
