MODEL 1
REMARK minimizedAffinity 8.84226894
REMARK minimizedRMSD -1
REMARK  0 active torsions:
REMARK  status: ('A' for Active; 'I' for Inactive)
ROOT
ATOM      1  C2' OXE d   1       2.755   1.522  -1.805  0.00  0.00     0.078 C 
ATOM      2  C1' OXE d   1       5.079   1.008  -0.318  0.00  0.00     0.078 C 
ATOM      3  C1  OXE d   1       4.067  -0.102  -0.447  0.00  0.00    -0.078 A 
ATOM      4  C2  OXE d   1       2.911   0.173  -1.137  0.00  0.00    -0.078 A 
ATOM      5  C3  OXE d   1       1.969  -0.832  -1.332  0.00  0.00     0.003 A 
ATOM      6  C4  OXE d   1       2.116  -2.074  -0.703  0.00  0.00    -0.002 A 
ATOM      7  C5  OXE d   1       3.267  -2.362   0.038  0.00  0.00    -0.002 A 
ATOM      8  C6  OXE d   1       4.270  -1.404   0.140  0.00  0.00     0.003 A 
ENDROOT
TORSDOF 0
ENDMDL
