MODEL 1
REMARK minimizedAffinity 9.89216042
REMARK minimizedRMSD -1
REMARK  0 active torsions:
REMARK  status: ('A' for Active; 'I' for Inactive)
ROOT
ATOM      1  C2' OXE d   1      -3.906  -2.329   5.256  0.00  0.00     0.078 C 
ATOM      2  C1' OXE d   1      -3.221   0.291   5.995  0.00  0.00     0.078 C 
ATOM      3  C1  OXE d   1      -3.513   0.024   4.540  0.00  0.00    -0.078 A 
ATOM      4  C2  OXE d   1      -3.802  -1.270   4.180  0.00  0.00    -0.078 A 
ATOM      5  C3  OXE d   1      -4.132  -1.561   2.859  0.00  0.00     0.003 A 
ATOM      6  C4  OXE d   1      -4.023  -0.577   1.868  0.00  0.00    -0.002 A 
ATOM      7  C5  OXE d   1      -3.691   0.739   2.207  0.00  0.00    -0.002 A 
ATOM      8  C6  OXE d   1      -3.475   1.065   3.542  0.00  0.00     0.003 A 
ENDROOT
TORSDOF 0
ENDMDL
