MODEL 1
REMARK minimizedAffinity 8.74046326
REMARK minimizedRMSD -1
REMARK  0 active torsions:
REMARK  status: ('A' for Active; 'I' for Inactive)
ROOT
ATOM      1  C2' OXE d   1      -3.385  -1.933  -5.930  0.00  0.00     0.078 C 
ATOM      2  C1' OXE d   1      -1.737  -4.205  -5.922  0.00  0.00     0.078 C 
ATOM      3  C1  OXE d   1      -3.229  -4.419  -5.951  0.00  0.00    -0.078 A 
ATOM      4  C2  OXE d   1      -4.029  -3.302  -5.907  0.00  0.00    -0.078 A 
ATOM      5  C3  OXE d   1      -5.412  -3.441  -5.986  0.00  0.00     0.003 A 
ATOM      6  C4  OXE d   1      -6.000  -4.712  -5.955  0.00  0.00    -0.002 A 
ATOM      7  C5  OXE d   1      -5.204  -5.862  -5.959  0.00  0.00    -0.002 A 
ATOM      8  C6  OXE d   1      -3.820  -5.734  -6.000  0.00  0.00     0.003 A 
ENDROOT
TORSDOF 0
ENDMDL
