MODEL 1
REMARK minimizedAffinity 4.22115469
REMARK minimizedRMSD -1
REMARK  0 active torsions:
REMARK  status: ('A' for Active; 'I' for Inactive)
ROOT
ATOM      1  C2' OXE d   1       2.298  -3.940  -0.229  0.00  0.00     0.078 C 
ATOM      2  C1' OXE d   1       0.818  -3.167  -2.485  0.00  0.00     0.078 C 
ATOM      3  C1  OXE d   1       1.704  -2.133  -1.837  0.00  0.00    -0.078 A 
ATOM      4  C2  OXE d   1       2.388  -2.506  -0.706  0.00  0.00    -0.078 A 
ATOM      5  C3  OXE d   1       3.262  -1.607  -0.101  0.00  0.00     0.003 A 
ATOM      6  C4  OXE d   1       3.332  -0.281  -0.542  0.00  0.00    -0.002 A 
ATOM      7  C5  OXE d   1       2.612   0.132  -1.669  0.00  0.00    -0.002 A 
ATOM      8  C6  OXE d   1       1.828  -0.792  -2.352  0.00  0.00     0.003 A 
ENDROOT
TORSDOF 0
ENDMDL
