MODEL 1
REMARK minimizedAffinity 6.54425287
REMARK minimizedRMSD -1
REMARK  0 active torsions:
REMARK  status: ('A' for Active; 'I' for Inactive)
ROOT
ATOM      1  C2' OXE d   1       1.769   0.545  -2.952  0.00  0.00     0.078 C 
ATOM      2  C1' OXE d   1       3.327   0.898  -0.644  0.00  0.00     0.078 C 
ATOM      3  C1  OXE d   1       2.837  -0.494  -0.956  0.00  0.00    -0.078 A 
ATOM      4  C2  OXE d   1       2.036  -0.649  -2.062  0.00  0.00    -0.078 A 
ATOM      5  C3  OXE d   1       1.602  -1.921  -2.426  0.00  0.00     0.003 A 
ATOM      6  C4  OXE d   1       1.846  -3.019  -1.592  0.00  0.00    -0.002 A 
ATOM      7  C5  OXE d   1       2.627  -2.876  -0.440  0.00  0.00    -0.002 A 
ATOM      8  C6  OXE d   1       3.164  -1.631  -0.131  0.00  0.00     0.003 A 
ENDROOT
TORSDOF 0
ENDMDL
