MODEL 1
REMARK minimizedAffinity 4.0853281
REMARK minimizedRMSD -1
REMARK  0 active torsions:
REMARK  status: ('A' for Active; 'I' for Inactive)
ROOT
ATOM      1  C2' OXE d   1       1.671  -4.626  -1.720  0.00  0.00     0.078 C 
ATOM      2  C1' OXE d   1       2.487  -3.388  -4.104  0.00  0.00     0.078 C 
ATOM      3  C1  OXE d   1       2.316  -2.520  -2.883  0.00  0.00    -0.078 A 
ATOM      4  C2  OXE d   1       1.871  -3.126  -1.733  0.00  0.00    -0.078 A 
ATOM      5  C3  OXE d   1       1.749  -2.381  -0.563  0.00  0.00     0.003 A 
ATOM      6  C4  OXE d   1       1.927  -0.993  -0.586  0.00  0.00    -0.002 A 
ATOM      7  C5  OXE d   1       2.341  -0.349  -1.757  0.00  0.00    -0.002 A 
ATOM      8  C6  OXE d   1       2.581  -1.102  -2.900  0.00  0.00     0.003 A 
ENDROOT
TORSDOF 0
ENDMDL
