MODEL 1
REMARK minimizedAffinity 10.4950123
REMARK minimizedRMSD -1
REMARK  0 active torsions:
REMARK  status: ('A' for Active; 'I' for Inactive)
ROOT
ATOM      1  C2' OXE d   1       2.768  -3.126   0.179  0.00  0.00     0.078 C 
ATOM      2  C1' OXE d   1       2.699  -0.326  -0.007  0.00  0.00     0.078 C 
ATOM      3  C1  OXE d   1       2.264  -1.122  -1.212  0.00  0.00    -0.078 A 
ATOM      4  C2  OXE d   1       2.345  -2.491  -1.128  0.00  0.00    -0.078 A 
ATOM      5  C3  OXE d   1       1.904  -3.274  -2.191  0.00  0.00     0.003 A 
ATOM      6  C4  OXE d   1       1.524  -2.679  -3.400  0.00  0.00    -0.002 A 
ATOM      7  C5  OXE d   1       1.472  -1.286  -3.520  0.00  0.00    -0.002 A 
ATOM      8  C6  OXE d   1       1.797  -0.495  -2.424  0.00  0.00     0.003 A 
ENDROOT
TORSDOF 0
ENDMDL
