MODEL 1
REMARK minimizedAffinity 9.83436108
REMARK minimizedRMSD -1
REMARK  0 active torsions:
REMARK  status: ('A' for Active; 'I' for Inactive)
ROOT
ATOM      1  C2' OXE d   1       2.422  -0.595  -0.155  0.00  0.00     0.078 C 
ATOM      2  C1' OXE d   1       3.785  -3.050  -0.171  0.00  0.00     0.078 C 
ATOM      3  C1  OXE d   1       3.265  -2.526  -1.486  0.00  0.00    -0.078 A 
ATOM      4  C2  OXE d   1       2.558  -1.347  -1.462  0.00  0.00    -0.078 A 
ATOM      5  C3  OXE d   1       2.103  -0.792  -2.654  0.00  0.00     0.003 A 
ATOM      6  C4  OXE d   1       2.224  -1.499  -3.857  0.00  0.00    -0.002 A 
ATOM      7  C5  OXE d   1       2.905  -2.720  -3.897  0.00  0.00    -0.002 A 
ATOM      8  C6  OXE d   1       3.467  -3.226  -2.730  0.00  0.00     0.003 A 
ENDROOT
TORSDOF 0
ENDMDL
