MODEL 1
REMARK minimizedAffinity 6.37620211
REMARK minimizedRMSD -1
REMARK  0 active torsions:
REMARK  status: ('A' for Active; 'I' for Inactive)
ROOT
ATOM      1  C2' OXE d   1       1.511  -3.670  -2.863  0.00  0.00     0.078 C 
ATOM      2  C1' OXE d   1       2.674  -3.599  -0.309  0.00  0.00     0.078 C 
ATOM      3  C1  OXE d   1       2.301  -2.285  -0.949  0.00  0.00    -0.078 A 
ATOM      4  C2  OXE d   1       1.775  -2.327  -2.218  0.00  0.00    -0.078 A 
ATOM      5  C3  OXE d   1       1.363  -1.148  -2.833  0.00  0.00     0.003 A 
ATOM      6  C4  OXE d   1       1.621   0.091  -2.234  0.00  0.00    -0.002 A 
ATOM      7  C5  OXE d   1       2.191   0.158  -0.958  0.00  0.00    -0.002 A 
ATOM      8  C6  OXE d   1       2.497  -1.020  -0.286  0.00  0.00     0.003 A 
ENDROOT
TORSDOF 0
ENDMDL
