MODEL 1
REMARK minimizedAffinity 12.1781263
REMARK minimizedRMSD -1
REMARK  0 active torsions:
REMARK  status: ('A' for Active; 'I' for Inactive)
ROOT
ATOM      1  C2' OXE d   1      -0.816   3.606   2.392  0.00  0.00     0.078 C 
ATOM      2  C1' OXE d   1      -2.512   2.281   0.590  0.00  0.00     0.078 C 
ATOM      3  C1  OXE d   1      -2.356   1.694   1.971  0.00  0.00    -0.078 A 
ATOM      4  C2  OXE d   1      -1.488   2.323   2.831  0.00  0.00    -0.078 A 
ATOM      5  C3  OXE d   1      -1.348   1.854   4.134  0.00  0.00     0.003 A 
ATOM      6  C4  OXE d   1      -1.966   0.661   4.528  0.00  0.00    -0.002 A 
ATOM      7  C5  OXE d   1      -2.823  -0.017   3.655  0.00  0.00    -0.002 A 
ATOM      8  C6  OXE d   1      -3.061   0.508   2.390  0.00  0.00     0.003 A 
ENDROOT
TORSDOF 0
ENDMDL
