MODEL 1
REMARK minimizedAffinity 4.78788376
REMARK minimizedRMSD -1
REMARK  0 active torsions:
REMARK  status: ('A' for Active; 'I' for Inactive)
ROOT
ATOM      1  C   UNL d   1      -1.079  -1.680  -1.985  0.00  0.00     0.023 A 
ATOM      2  C1  UNL d   1      -1.504  -1.451  -0.676  0.00  0.00     0.003 A 
ATOM      3  C2  UNL d   1      -0.609  -1.597   0.385  0.00  0.00     0.048 A 
ATOM      4  C3  UNL d   1       0.711  -1.971   0.130  0.00  0.00     0.023 A 
ATOM      5  C4  UNL d   1       1.140  -2.199  -1.178  0.00  0.00     0.048 A 
ATOM      6  C5  UNL d   1       0.241  -2.053  -2.236  0.00  0.00     0.003 A 
ATOM      7  I   UNL d   1       2.045  -2.188   1.708  0.00  0.00    -0.146 I 
ENDROOT
TORSDOF 0
ENDMDL
