MODEL 1
REMARK minimizedAffinity -0.620679259
REMARK minimizedRMSD -1
REMARK  0 active torsions:
REMARK  status: ('A' for Active; 'I' for Inactive)
ROOT
ATOM      1  C   UNL d   1      -1.128  -2.394  -1.768  0.00  0.00     0.023 A 
ATOM      2  C1  UNL d   1       0.213  -2.593  -2.097  0.00  0.00     0.003 A 
ATOM      3  C2  UNL d   1       1.188  -2.579  -1.097  0.00  0.00     0.048 A 
ATOM      4  C3  UNL d   1       0.815  -2.367   0.230  0.00  0.00     0.023 A 
ATOM      5  C4  UNL d   1      -0.526  -2.168   0.563  0.00  0.00     0.048 A 
ATOM      6  C5  UNL d   1      -1.497  -2.182  -0.440  0.00  0.00     0.003 A 
ATOM      7  I   UNL d   1       2.264  -2.345   1.719  0.00  0.00    -0.146 I 
ENDROOT
TORSDOF 0
ENDMDL
