MODEL 1
REMARK minimizedAffinity 10.2497559
REMARK minimizedRMSD -1
REMARK  0 active torsions:
REMARK  status: ('A' for Active; 'I' for Inactive)
ROOT
ATOM      1  C   UNL d   1      -5.315   2.254   2.023  0.00  0.00     0.023 A 
ATOM      2  C1  UNL d   1      -5.978   2.996   1.045  0.00  0.00     0.003 A 
ATOM      3  C2  UNL d   1      -5.475   3.045  -0.257  0.00  0.00     0.048 A 
ATOM      4  C3  UNL d   1      -4.308   2.349  -0.573  0.00  0.00     0.023 A 
ATOM      5  C4  UNL d   1      -3.642   1.605   0.402  0.00  0.00     0.048 A 
ATOM      6  C5  UNL d   1      -4.149   1.560   1.702  0.00  0.00     0.003 A 
ATOM      7  I   UNL d   1      -3.557   2.421  -2.510  0.00  0.00    -0.146 I 
ENDROOT
TORSDOF 0
ENDMDL
