MODEL 1
REMARK minimizedAffinity 4.82097101
REMARK minimizedRMSD -1
REMARK  0 active torsions:
REMARK  status: ('A' for Active; 'I' for Inactive)
ROOT
ATOM      1  C   UNL d   1      -4.307   1.999   0.741  0.00  0.00     0.023 A 
ATOM      2  C1  UNL d   1      -3.729   2.289  -0.495  0.00  0.00     0.003 A 
ATOM      3  C2  UNL d   1      -4.111   3.436  -1.193  0.00  0.00     0.048 A 
ATOM      4  C3  UNL d   1      -5.069   4.290  -0.649  0.00  0.00     0.023 A 
ATOM      5  C4  UNL d   1      -5.649   4.005   0.588  0.00  0.00     0.048 A 
ATOM      6  C5  UNL d   1      -5.265   2.856   1.282  0.00  0.00     0.003 A 
ATOM      7  I   UNL d   1      -5.638   5.999  -1.686  0.00  0.00    -0.146 I 
ENDROOT
TORSDOF 0
ENDMDL
