MODEL 1
REMARK minimizedAffinity 3.98753858
REMARK minimizedRMSD -1
REMARK  0 active torsions:
REMARK  status: ('A' for Active; 'I' for Inactive)
ROOT
ATOM      1  C   UNL d   1       2.800   1.174   1.357  0.00  0.00     0.023 A 
ATOM      2  C1  UNL d   1       1.540   1.602   1.775  0.00  0.00     0.003 A 
ATOM      3  C2  UNL d   1       0.487   0.690   1.869  0.00  0.00     0.048 A 
ATOM      4  C3  UNL d   1       0.701  -0.649   1.543  0.00  0.00     0.023 A 
ATOM      5  C4  UNL d   1       1.960  -1.082   1.125  0.00  0.00     0.048 A 
ATOM      6  C5  UNL d   1       3.010  -0.166   1.032  0.00  0.00     0.003 A 
ATOM      7  I   UNL d   1      -0.865  -2.009   1.682  0.00  0.00    -0.146 I 
ENDROOT
TORSDOF 0
ENDMDL
