MODEL 1
REMARK minimizedAffinity 3.68388844
REMARK minimizedRMSD -1
REMARK  0 active torsions:
REMARK  status: ('A' for Active; 'I' for Inactive)
ROOT
ATOM      1  C   UNL d   1      -0.359  -0.945   1.354  0.00  0.00     0.023 A 
ATOM      2  C1  UNL d   1       0.106  -2.185   0.917  0.00  0.00     0.003 A 
ATOM      3  C2  UNL d   1       1.476  -2.403   0.760  0.00  0.00     0.048 A 
ATOM      4  C3  UNL d   1       2.376  -1.376   1.044  0.00  0.00     0.023 A 
ATOM      5  C4  UNL d   1       1.915  -0.134   1.483  0.00  0.00     0.048 A 
ATOM      6  C5  UNL d   1       0.544   0.079   1.637  0.00  0.00     0.003 A 
ATOM      7  I   UNL d   1       4.416  -1.697   0.812  0.00  0.00    -0.146 I 
ENDROOT
TORSDOF 0
ENDMDL
