MODEL 1
REMARK minimizedAffinity 15.5165176
REMARK minimizedRMSD -1
REMARK  0 active torsions:
REMARK  status: ('A' for Active; 'I' for Inactive)
ROOT
ATOM      1  C   UNL d   1       3.752   0.901   1.172  0.00  0.00     0.023 A 
ATOM      2  C1  UNL d   1       2.542   1.132   1.826  0.00  0.00     0.003 A 
ATOM      3  C2  UNL d   1       1.553   0.146   1.837  0.00  0.00     0.048 A 
ATOM      4  C3  UNL d   1       1.781  -1.069   1.193  0.00  0.00     0.023 A 
ATOM      5  C4  UNL d   1       2.991  -1.306   0.538  0.00  0.00     0.048 A 
ATOM      6  C5  UNL d   1       3.977  -0.317   0.529  0.00  0.00     0.003 A 
ATOM      7  I   UNL d   1       0.311  -2.538   1.207  0.00  0.00    -0.146 I 
ENDROOT
TORSDOF 0
ENDMDL
