MODEL 1
REMARK minimizedAffinity -3.76256847
REMARK minimizedRMSD -1
REMARK  0 active torsions:
REMARK  status: ('A' for Active; 'I' for Inactive)
ROOT
ATOM      1  C   UNL d   1       3.191  -1.151   1.671  0.00  0.00     0.023 A 
ATOM      2  C1  UNL d   1       2.896   0.098   1.124  0.00  0.00     0.003 A 
ATOM      3  C2  UNL d   1       1.674   0.309   0.482  0.00  0.00     0.048 A 
ATOM      4  C3  UNL d   1       0.751  -0.732   0.391  0.00  0.00     0.023 A 
ATOM      5  C4  UNL d   1       1.042  -1.983   0.938  0.00  0.00     0.048 A 
ATOM      6  C5  UNL d   1       2.265  -2.190   1.578  0.00  0.00     0.003 A 
ATOM      7  I   UNL d   1      -1.068  -0.420  -0.564  0.00  0.00    -0.146 I 
ENDROOT
TORSDOF 0
ENDMDL
