MODEL 1
REMARK minimizedAffinity 15.070034
REMARK minimizedRMSD -1
REMARK  0 active torsions:
REMARK  status: ('A' for Active; 'I' for Inactive)
ROOT
ATOM      1  C1  DEN d   1      -0.590  -4.178  -0.583  0.00  0.00     0.130 A 
ATOM      2  C2  DEN d   1      -0.750  -3.561   0.731  0.00  0.00    -0.031 A 
ATOM      3  C3  DEN d   1      -1.366  -2.233   0.539  0.00  0.00     0.027 A 
ATOM      4  C4  DEN d   1      -2.087  -1.079  -1.652  0.00  0.00     0.027 A 
ATOM      5  C5  DEN d   1      -2.140  -1.206  -3.022  0.00  0.00    -0.003 A 
ATOM      6  C6  DEN d   1      -1.654  -2.309  -3.673  0.00  0.00     0.001 A 
ATOM      7  C7  DEN d   1      -1.133  -3.349  -2.950  0.00  0.00     0.017 A 
ATOM      8  C8  DEN d   1      -1.069  -3.225  -1.568  0.00  0.00    -0.094 A 
ATOM      9  C9  DEN d   1      -1.577  -2.108  -0.928  0.00  0.00    -0.072 A 
ENDROOT
TORSDOF 0
ENDMDL
