MODEL 1
REMARK minimizedAffinity 19.0547199
REMARK minimizedRMSD -1
REMARK  0 active torsions:
REMARK  status: ('A' for Active; 'I' for Inactive)
ROOT
ATOM      1  C1  DEN d   1      -2.695   3.934  -3.665  0.00  0.00     0.130 A 
ATOM      2  C2  DEN d   1      -2.522   2.551  -4.102  0.00  0.00    -0.031 A 
ATOM      3  C3  DEN d   1      -3.574   2.251  -5.094  0.00  0.00     0.027 A 
ATOM      4  C4  DEN d   1      -5.440   3.786  -5.995  0.00  0.00     0.027 A 
ATOM      5  C5  DEN d   1      -5.997   5.043  -5.913  0.00  0.00    -0.003 A 
ATOM      6  C6  DEN d   1      -5.518   5.999  -5.058  0.00  0.00     0.001 A 
ATOM      7  C7  DEN d   1      -4.421   5.729  -4.283  0.00  0.00     0.017 A 
ATOM      8  C8  DEN d   1      -3.858   4.461  -4.355  0.00  0.00    -0.094 A 
ATOM      9  C9  DEN d   1      -4.350   3.512  -5.235  0.00  0.00    -0.072 A 
ENDROOT
TORSDOF 0
ENDMDL
