MODEL 1
REMARK minimizedAffinity 13.6190891
REMARK minimizedRMSD -1
REMARK  0 active torsions:
REMARK  status: ('A' for Active; 'I' for Inactive)
ROOT
ATOM      1  C1  DEN d   1       4.943   4.854   3.491  0.00  0.00     0.130 A 
ATOM      2  C2  DEN d   1       4.548   3.604   4.136  0.00  0.00    -0.031 A 
ATOM      3  C3  DEN d   1       4.124   2.661   3.082  0.00  0.00     0.027 A 
ATOM      4  C4  DEN d   1       4.046   3.010   0.528  0.00  0.00     0.027 A 
ATOM      5  C5  DEN d   1       4.274   3.910  -0.490  0.00  0.00    -0.003 A 
ATOM      6  C6  DEN d   1       4.705   5.188  -0.252  0.00  0.00     0.001 A 
ATOM      7  C7  DEN d   1       4.965   5.588   1.033  0.00  0.00     0.017 A 
ATOM      8  C8  DEN d   1       4.731   4.688   2.064  0.00  0.00    -0.094 A 
ATOM      9  C9  DEN d   1       4.306   3.397   1.802  0.00  0.00    -0.072 A 
ENDROOT
TORSDOF 0
ENDMDL
