MODEL 1
REMARK minimizedAffinity 21.1075287
REMARK minimizedRMSD -1
REMARK  0 active torsions:
REMARK  status: ('A' for Active; 'I' for Inactive)
ROOT
ATOM      1  C1  DEN d   1      -5.176   0.824   5.992  0.00  0.00     0.130 A 
ATOM      2  C2  DEN d   1      -4.801   2.235   6.000  0.00  0.00    -0.031 A 
ATOM      3  C3  DEN d   1      -3.326   2.316   5.977  0.00  0.00     0.027 A 
ATOM      4  C4  DEN d   1      -1.597   0.402   5.926  0.00  0.00     0.027 A 
ATOM      5  C5  DEN d   1      -1.437  -0.966   5.921  0.00  0.00    -0.003 A 
ATOM      6  C6  DEN d   1      -2.501  -1.826   5.973  0.00  0.00     0.001 A 
ATOM      7  C7  DEN d   1      -3.777  -1.327   5.987  0.00  0.00     0.017 A 
ATOM      8  C8  DEN d   1      -3.947   0.051   6.000  0.00  0.00    -0.094 A 
ATOM      9  C9  DEN d   1      -2.858   0.904   5.934  0.00  0.00    -0.072 A 
ENDROOT
TORSDOF 0
ENDMDL
