MODEL 1
REMARK minimizedAffinity 5.90741444
REMARK minimizedRMSD -1
REMARK  0 active torsions:
REMARK  status: ('A' for Active; 'I' for Inactive)
ROOT
ATOM      1  C1  DEN d   1       4.708   3.657   5.800  0.00  0.00     0.130 A 
ATOM      2  C2  DEN d   1       3.294   4.022   5.816  0.00  0.00    -0.031 A 
ATOM      3  C3  DEN d   1       2.546   2.979   5.086  0.00  0.00     0.027 A 
ATOM      4  C4  DEN d   1       3.434   0.845   3.942  0.00  0.00     0.027 A 
ATOM      5  C5  DEN d   1       4.565   0.114   3.653  0.00  0.00    -0.003 A 
ATOM      6  C6  DEN d   1       5.817   0.526   4.028  0.00  0.00     0.001 A 
ATOM      7  C7  DEN d   1       5.963   1.680   4.752  0.00  0.00     0.017 A 
ATOM      8  C8  DEN d   1       4.828   2.426   5.040  0.00  0.00    -0.094 A 
ATOM      9  C9  DEN d   1       3.570   1.986   4.663  0.00  0.00    -0.072 A 
ENDROOT
TORSDOF 0
ENDMDL
