MODEL 1
REMARK minimizedAffinity 14.6155663
REMARK minimizedRMSD -1
REMARK  0 active torsions:
REMARK  status: ('A' for Active; 'I' for Inactive)
ROOT
ATOM      1  C1  DEN d   1      -2.940   0.205   3.656  0.00  0.00     0.130 A 
ATOM      2  C2  DEN d   1      -3.007   1.022   4.865  0.00  0.00    -0.031 A 
ATOM      3  C3  DEN d   1      -2.540   0.199   5.999  0.00  0.00     0.027 A 
ATOM      4  C4  DEN d   1      -1.719  -2.246   6.000  0.00  0.00     0.027 A 
ATOM      5  C5  DEN d   1      -1.495  -3.355   5.215  0.00  0.00    -0.003 A 
ATOM      6  C6  DEN d   1      -1.766  -3.366   3.872  0.00  0.00     0.001 A 
ATOM      7  C7  DEN d   1      -2.236  -2.231   3.265  0.00  0.00     0.017 A 
ATOM      8  C8  DEN d   1      -2.471  -1.111   4.052  0.00  0.00    -0.094 A 
ATOM      9  C9  DEN d   1      -2.179  -1.116   5.405  0.00  0.00    -0.072 A 
ENDROOT
TORSDOF 0
ENDMDL
