MODEL 1
REMARK minimizedAffinity 11.0155258
REMARK minimizedRMSD -1
REMARK  0 active torsions:
REMARK  status: ('A' for Active; 'I' for Inactive)
ROOT
ATOM      1  C1  DEN d   1      -1.685  -2.052   0.795  0.00  0.00     0.130 A 
ATOM      2  C2  DEN d   1      -1.285  -1.739  -0.575  0.00  0.00    -0.031 A 
ATOM      3  C3  DEN d   1      -0.540  -2.897  -1.109  0.00  0.00     0.027 A 
ATOM      4  C4  DEN d   1       0.024  -5.134   0.044  0.00  0.00     0.027 A 
ATOM      5  C5  DEN d   1      -0.094  -5.858   1.210  0.00  0.00    -0.003 A 
ATOM      6  C6  DEN d   1      -0.716  -5.354   2.322  0.00  0.00     0.001 A 
ATOM      7  C7  DEN d   1      -1.283  -4.108   2.276  0.00  0.00     0.017 A 
ATOM      8  C8  DEN d   1      -1.162  -3.370   1.106  0.00  0.00    -0.094 A 
ATOM      9  C9  DEN d   1      -0.540  -3.901  -0.011  0.00  0.00    -0.072 A 
ENDROOT
TORSDOF 0
ENDMDL
