MODEL 1
REMARK minimizedAffinity 6.96835899
REMARK minimizedRMSD -1
REMARK  0 active torsions:
REMARK  status: ('A' for Active; 'I' for Inactive)
ROOT
ATOM      1  C1  DEN d   1      -2.641  -2.642   2.508  0.00  0.00     0.130 A 
ATOM      2  C2  DEN d   1      -2.454  -1.880   1.277  0.00  0.00    -0.031 A 
ATOM      3  C3  DEN d   1      -1.572  -2.661   0.386  0.00  0.00     0.027 A 
ATOM      4  C4  DEN d   1      -0.490  -4.967   0.789  0.00  0.00     0.027 A 
ATOM      5  C5  DEN d   1      -0.349  -5.999   1.691  0.00  0.00    -0.003 A 
ATOM      6  C6  DEN d   1      -0.929  -5.969   2.931  0.00  0.00     0.001 A 
ATOM      7  C7  DEN d   1      -1.716  -4.905   3.287  0.00  0.00     0.017 A 
ATOM      8  C8  DEN d   1      -1.857  -3.858   2.386  0.00  0.00    -0.094 A 
ATOM      9  C9  DEN d   1      -1.272  -3.912   1.132  0.00  0.00    -0.072 A 
ENDROOT
TORSDOF 0
ENDMDL
