MODEL 1
REMARK minimizedAffinity 13.9519548
REMARK minimizedRMSD -1
REMARK  0 active torsions:
REMARK  status: ('A' for Active; 'I' for Inactive)
ROOT
ATOM      1  C1  DEN d   1      -1.166  -2.823  -0.500  0.00  0.00     0.130 A 
ATOM      2  C2  DEN d   1      -1.886  -3.197   0.714  0.00  0.00    -0.031 A 
ATOM      3  C3  DEN d   1      -3.061  -2.311   0.839  0.00  0.00     0.027 A 
ATOM      4  C4  DEN d   1      -3.834  -0.411  -0.724  0.00  0.00     0.027 A 
ATOM      5  C5  DEN d   1      -3.539   0.286  -1.875  0.00  0.00    -0.003 A 
ATOM      6  C6  DEN d   1      -2.423   0.020  -2.624  0.00  0.00     0.001 A 
ATOM      7  C7  DEN d   1      -1.585  -0.998  -2.255  0.00  0.00     0.017 A 
ATOM      8  C8  DEN d   1      -1.872  -1.700  -1.091  0.00  0.00    -0.094 A 
ATOM      9  C9  DEN d   1      -3.011  -1.425  -0.355  0.00  0.00    -0.072 A 
ENDROOT
TORSDOF 0
ENDMDL
