MODEL 1
REMARK minimizedAffinity 13.317956
REMARK minimizedRMSD -1
REMARK  0 active torsions:
REMARK  status: ('A' for Active; 'I' for Inactive)
ROOT
ATOM      1  C1  DEN d   1      -2.193   4.566  -4.329  0.00  0.00     0.130 A 
ATOM      2  C2  DEN d   1      -2.052   3.125  -4.139  0.00  0.00    -0.031 A 
ATOM      3  C3  DEN d   1      -3.290   2.478  -4.617  0.00  0.00     0.027 A 
ATOM      4  C4  DEN d   1      -5.399   3.562  -5.632  0.00  0.00     0.027 A 
ATOM      5  C5  DEN d   1      -5.989   4.756  -5.982  0.00  0.00    -0.003 A 
ATOM      6  C6  DEN d   1      -5.375   5.963  -5.777  0.00  0.00     0.001 A 
ATOM      7  C7  DEN d   1      -4.112   6.000  -5.246  0.00  0.00     0.017 A 
ATOM      8  C8  DEN d   1      -3.514   4.801  -4.883  0.00  0.00    -0.094 A 
ATOM      9  C9  DEN d   1      -4.146   3.590  -5.110  0.00  0.00    -0.072 A 
ENDROOT
TORSDOF 0
ENDMDL
