MODEL 1
REMARK minimizedAffinity 12.1405687
REMARK minimizedRMSD -1
REMARK  0 active torsions:
REMARK  status: ('A' for Active; 'I' for Inactive)
ROOT
ATOM      1  C1  DEN d   1      -4.907   5.992  -3.947  0.00  0.00     0.130 A 
ATOM      2  C2  DEN d   1      -5.989   6.000  -4.927  0.00  0.00    -0.031 A 
ATOM      3  C3  DEN d   1      -5.953   4.717  -5.657  0.00  0.00     0.027 A 
ATOM      4  C4  DEN d   1      -4.339   2.727  -5.363  0.00  0.00     0.027 A 
ATOM      5  C5  DEN d   1      -3.248   2.261  -4.664  0.00  0.00    -0.003 A 
ATOM      6  C6  DEN d   1      -2.618   3.012  -3.707  0.00  0.00     0.001 A 
ATOM      7  C7  DEN d   1      -3.102   4.255  -3.393  0.00  0.00     0.017 A 
ATOM      8  C8  DEN d   1      -4.197   4.735  -4.099  0.00  0.00    -0.094 A 
ATOM      9  C9  DEN d   1      -4.827   3.955  -5.054  0.00  0.00    -0.072 A 
ENDROOT
TORSDOF 0
ENDMDL
