MODEL 1
REMARK minimizedAffinity 24.1401463
REMARK minimizedRMSD -1
REMARK  0 active torsions:
REMARK  status: ('A' for Active; 'I' for Inactive)
ROOT
ATOM      1  C1  DEN d   1      -2.963   3.508  -3.479  0.00  0.00     0.130 A 
ATOM      2  C2  DEN d   1      -2.794   2.264  -4.225  0.00  0.00    -0.031 A 
ATOM      3  C3  DEN d   1      -3.756   2.269  -5.345  0.00  0.00     0.027 A 
ATOM      4  C4  DEN d   1      -5.478   4.076  -5.997  0.00  0.00     0.027 A 
ATOM      5  C5  DEN d   1      -6.000   5.304  -5.656  0.00  0.00    -0.003 A 
ATOM      6  C6  DEN d   1      -5.573   5.999  -4.555  0.00  0.00     0.001 A 
ATOM      7  C7  DEN d   1      -4.564   5.490  -3.781  0.00  0.00     0.017 A 
ATOM      8  C8  DEN d   1      -4.038   4.249  -4.114  0.00  0.00    -0.094 A 
ATOM      9  C9  DEN d   1      -4.474   3.568  -5.237  0.00  0.00    -0.072 A 
ENDROOT
TORSDOF 0
ENDMDL
