MODEL 1
REMARK minimizedAffinity 8.22991085
REMARK minimizedRMSD -1
REMARK  0 active torsions:
REMARK  status: ('A' for Active; 'I' for Inactive)
ROOT
ATOM      1  C1  DEN d   1      -2.390  -1.987   0.920  0.00  0.00     0.130 A 
ATOM      2  C2  DEN d   1      -1.477  -3.076   1.254  0.00  0.00    -0.031 A 
ATOM      3  C3  DEN d   1      -0.703  -3.412   0.042  0.00  0.00     0.027 A 
ATOM      4  C4  DEN d   1      -0.824  -2.352  -2.306  0.00  0.00     0.027 A 
ATOM      5  C5  DEN d   1      -1.456  -1.402  -3.077  0.00  0.00    -0.003 A 
ATOM      6  C6  DEN d   1      -2.459  -0.610  -2.584  0.00  0.00     0.001 A 
ATOM      7  C7  DEN d   1      -2.828  -0.722  -1.270  0.00  0.00     0.017 A 
ATOM      8  C8  DEN d   1      -2.201  -1.683  -0.488  0.00  0.00    -0.094 A 
ATOM      9  C9  DEN d   1      -1.181  -2.466  -1.002  0.00  0.00    -0.072 A 
ENDROOT
TORSDOF 0
ENDMDL
