MODEL 1
REMARK minimizedAffinity 11.8680429
REMARK minimizedRMSD -1
REMARK  0 active torsions:
REMARK  status: ('A' for Active; 'I' for Inactive)
ROOT
ATOM      1  C1  DEN d   1      -0.721  -4.779   0.382  0.00  0.00     0.130 A 
ATOM      2  C2  DEN d   1      -0.491  -6.000  -0.386  0.00  0.00    -0.031 A 
ATOM      3  C3  DEN d   1      -0.627  -5.670  -1.819  0.00  0.00     0.027 A 
ATOM      4  C4  DEN d   1      -1.164  -3.399  -2.918  0.00  0.00     0.027 A 
ATOM      5  C5  DEN d   1      -1.451  -2.075  -2.675  0.00  0.00    -0.003 A 
ATOM      6  C6  DEN d   1      -1.548  -1.570  -1.405  0.00  0.00     0.001 A 
ATOM      7  C7  DEN d   1      -1.312  -2.386  -0.330  0.00  0.00     0.017 A 
ATOM      8  C8  DEN d   1      -1.029  -3.724  -0.568  0.00  0.00    -0.094 A 
ATOM      9  C9  DEN d   1      -0.923  -4.213  -1.859  0.00  0.00    -0.072 A 
ENDROOT
TORSDOF 0
ENDMDL
