MODEL 1
REMARK minimizedAffinity 18.9789009
REMARK minimizedRMSD -1
REMARK  0 active torsions:
REMARK  status: ('A' for Active; 'I' for Inactive)
ROOT
ATOM      1  C1  DEN d   1       3.375   1.796   0.970  0.00  0.00     0.130 A 
ATOM      2  C2  DEN d   1       3.750   3.161   0.613  0.00  0.00    -0.031 A 
ATOM      3  C3  DEN d   1       3.250   3.430  -0.750  0.00  0.00     0.027 A 
ATOM      4  C4  DEN d   1       1.933   1.876  -2.332  0.00  0.00     0.027 A 
ATOM      5  C5  DEN d   1       1.391   0.618  -2.474  0.00  0.00    -0.003 A 
ATOM      6  C6  DEN d   1       1.500  -0.339  -1.500  0.00  0.00     0.001 A 
ATOM      7  C7  DEN d   1       2.129  -0.038  -0.320  0.00  0.00     0.017 A 
ATOM      8  C8  DEN d   1       2.685   1.226  -0.173  0.00  0.00    -0.094 A 
ATOM      9  C9  DEN d   1       2.553   2.183  -1.164  0.00  0.00    -0.072 A 
ENDROOT
TORSDOF 0
ENDMDL
