MODEL 1
REMARK minimizedAffinity 14.0949163
REMARK minimizedRMSD -1
REMARK  0 active torsions:
REMARK  status: ('A' for Active; 'I' for Inactive)
ROOT
ATOM      1  C1  DEN d   1      -3.726   5.299  -6.000  0.00  0.00     0.130 A 
ATOM      2  C2  DEN d   1      -4.846   4.524  -5.474  0.00  0.00    -0.031 A 
ATOM      3  C3  DEN d   1      -4.300   3.315  -4.824  0.00  0.00     0.027 A 
ATOM      4  C4  DEN d   1      -1.842   2.576  -4.577  0.00  0.00     0.027 A 
ATOM      5  C5  DEN d   1      -0.536   2.902  -4.873  0.00  0.00    -0.003 A 
ATOM      6  C6  DEN d   1      -0.208   4.023  -5.588  0.00  0.00     0.001 A 
ATOM      7  C7  DEN d   1      -1.194   4.882  -5.994  0.00  0.00     0.017 A 
ATOM      8  C8  DEN d   1      -2.513   4.557  -5.706  0.00  0.00    -0.094 A 
ATOM      9  C9  DEN d   1      -2.824   3.425  -4.971  0.00  0.00    -0.072 A 
ENDROOT
TORSDOF 0
ENDMDL
