MODEL 1
REMARK minimizedAffinity 13.0527
REMARK minimizedRMSD -1
REMARK  0 active torsions:
REMARK  status: ('A' for Active; 'I' for Inactive)
ROOT
ATOM      1  C1  DEN d   1      -5.820   4.794  -5.998  0.00  0.00     0.130 A 
ATOM      2  C2  DEN d   1      -5.999   5.995  -5.187  0.00  0.00    -0.031 A 
ATOM      3  C3  DEN d   1      -4.956   6.000  -4.142  0.00  0.00     0.027 A 
ATOM      4  C4  DEN d   1      -3.087   4.276  -3.706  0.00  0.00     0.027 A 
ATOM      5  C5  DEN d   1      -2.540   3.084  -4.126  0.00  0.00    -0.003 A 
ATOM      6  C6  DEN d   1      -3.064   2.367  -5.168  0.00  0.00     0.001 A 
ATOM      7  C7  DEN d   1      -4.142   2.858  -5.856  0.00  0.00     0.017 A 
ATOM      8  C8  DEN d   1      -4.704   4.056  -5.435  0.00  0.00    -0.094 A 
ATOM      9  C9  DEN d   1      -4.152   4.773  -4.386  0.00  0.00    -0.072 A 
ENDROOT
TORSDOF 0
ENDMDL
