MODEL 1
REMARK minimizedAffinity 14.7354488
REMARK minimizedRMSD -1
REMARK  0 active torsions:
REMARK  status: ('A' for Active; 'I' for Inactive)
ROOT
ATOM      1  C1  DEN d   1      -5.053  -1.517   5.330  0.00  0.00     0.130 A 
ATOM      2  C2  DEN d   1      -3.851  -2.321   5.124  0.00  0.00    -0.031 A 
ATOM      3  C3  DEN d   1      -2.679  -1.432   5.254  0.00  0.00     0.027 A 
ATOM      4  C4  DEN d   1      -2.609   1.097   5.758  0.00  0.00     0.027 A 
ATOM      5  C5  DEN d   1      -3.376   2.215   5.999  0.00  0.00    -0.003 A 
ATOM      6  C6  DEN d   1      -4.745   2.175   6.000  0.00  0.00     0.001 A 
ATOM      7  C7  DEN d   1      -5.389   0.983   5.800  0.00  0.00     0.017 A 
ATOM      8  C8  DEN d   1      -4.623  -0.148   5.549  0.00  0.00    -0.094 A 
ATOM      9  C9  DEN d   1      -3.240  -0.089   5.565  0.00  0.00    -0.072 A 
ENDROOT
TORSDOF 0
ENDMDL
