MODEL 1
REMARK minimizedAffinity -4.48472404
REMARK minimizedRMSD -1
REMARK  1 active torsions:
REMARK  status: ('A' for Active; 'I' for Inactive)
REMARK    1  A    between atoms: C1_2  and  C2_3 
ROOT
ATOM      1  C2  UNL d   1       1.949  -0.467   0.103  0.00  0.00    -0.073 A 
ATOM      2  C3  UNL d   1       1.316   0.768  -0.076  0.00  0.00    -0.002 A 
ATOM      3  C4  UNL d   1       1.769   1.658  -1.051  0.00  0.00     0.004 A 
ATOM      4  C5  UNL d   1       2.854   1.320  -1.860  0.00  0.00    -0.004 A 
ATOM      5  C6  UNL d   1       3.492   0.085  -1.704  0.00  0.00    -0.075 A 
ATOM      6  C7  UNL d   1       4.662  -0.292  -2.565  0.00  0.00     0.076 C 
ATOM      7  C8  UNL d   1       3.033  -0.802  -0.722  0.00  0.00     0.001 A 
ENDROOT
BRANCH   1   8
ATOM      8  C1  UNL d   1       1.459  -1.434   1.150  0.00  0.00     0.053 C 
ATOM      9  C   UNL d   1       0.309  -0.861   1.962  0.00  0.00     0.018 C 
ENDBRANCH   1   8
TORSDOF 1
ENDMDL
