MODEL 1
REMARK minimizedAffinity -3.04556751
REMARK minimizedRMSD -1
REMARK  1 active torsions:
REMARK  status: ('A' for Active; 'I' for Inactive)
REMARK    1  A    between atoms: C1_2  and  C2_3 
ROOT
ATOM      1  C2  UNL d   1       1.659  -0.551  -0.029  0.00  0.00    -0.073 A 
ATOM      2  C3  UNL d   1       1.513   0.836   0.085  0.00  0.00    -0.002 A 
ATOM      3  C4  UNL d   1       2.437   1.694  -0.512  0.00  0.00     0.004 A 
ATOM      4  C5  UNL d   1       3.511   1.176  -1.234  0.00  0.00    -0.004 A 
ATOM      5  C6  UNL d   1       3.668  -0.207  -1.370  0.00  0.00    -0.075 A 
ATOM      6  C7  UNL d   1       4.820  -0.781  -2.142  0.00  0.00     0.076 C 
ATOM      7  C8  UNL d   1       2.738  -1.063  -0.765  0.00  0.00     0.001 A 
ENDROOT
BRANCH   1   8
ATOM      8  C1  UNL d   1       0.660  -1.481   0.609  0.00  0.00     0.053 C 
ATOM      9  C   UNL d   1      -0.215  -0.767   1.627  0.00  0.00     0.018 C 
ENDBRANCH   1   8
TORSDOF 1
ENDMDL
