MODEL 1
REMARK minimizedAffinity -2.53177285
REMARK minimizedRMSD -1
REMARK  1 active torsions:
REMARK  status: ('A' for Active; 'I' for Inactive)
REMARK    1  A    between atoms: C1_2  and  C2_3 
ROOT
ATOM      1  C2  UNL d   1       2.981  -0.386  -0.862  0.00  0.00    -0.073 A 
ATOM      2  C3  UNL d   1       2.862   0.993  -1.071  0.00  0.00    -0.002 A 
ATOM      3  C4  UNL d   1       1.780   1.696  -0.540  0.00  0.00     0.004 A 
ATOM      4  C5  UNL d   1       0.811   1.030   0.210  0.00  0.00    -0.004 A 
ATOM      5  C6  UNL d   1       0.918  -0.345   0.441  0.00  0.00    -0.075 A 
ATOM      6  C7  UNL d   1      -0.117  -1.076   1.244  0.00  0.00     0.076 C 
ATOM      7  C8  UNL d   1       2.007  -1.045  -0.098  0.00  0.00     0.001 A 
ENDROOT
BRANCH   1   8
ATOM      8  C1  UNL d   1       4.151  -1.148  -1.427  0.00  0.00     0.053 C 
ATOM      9  C   UNL d   1       4.976  -0.300  -2.383  0.00  0.00     0.018 C 
ENDBRANCH   1   8
TORSDOF 1
ENDMDL
