MODEL 1
REMARK minimizedAffinity -2.65367436
REMARK minimizedRMSD -1
REMARK  1 active torsions:
REMARK  status: ('A' for Active; 'I' for Inactive)
REMARK    1  A    between atoms: C1_2  and  C2_3 
ROOT
ATOM      1  C2  UNL d   1       3.779  -0.252  -1.870  0.00  0.00    -0.073 A 
ATOM      2  C3  UNL d   1       4.068  -1.514  -1.337  0.00  0.00    -0.002 A 
ATOM      3  C4  UNL d   1       3.345  -2.001  -0.248  0.00  0.00     0.004 A 
ATOM      4  C5  UNL d   1       2.323  -1.238   0.315  0.00  0.00    -0.004 A 
ATOM      5  C6  UNL d   1       2.011   0.020  -0.210  0.00  0.00    -0.075 A 
ATOM      6  C7  UNL d   1       0.916   0.855   0.385  0.00  0.00     0.076 C 
ATOM      7  C8  UNL d   1       2.743   0.504  -1.303  0.00  0.00     0.001 A 
ENDROOT
BRANCH   1   8
ATOM      8  C1  UNL d   1       4.552   0.276  -3.050  0.00  0.00     0.053 C 
ATOM      9  C   UNL d   1       5.960  -0.296  -3.112  0.00  0.00     0.018 C 
ENDBRANCH   1   8
TORSDOF 1
ENDMDL
