MODEL 1
REMARK minimizedAffinity -1.55725336
REMARK minimizedRMSD -1
REMARK  1 active torsions:
REMARK  status: ('A' for Active; 'I' for Inactive)
REMARK    1  A    between atoms: C1_2  and  C2_3 
ROOT
ATOM      1  C2  UNL d   1       0.690  -1.553   1.001  0.00  0.00    -0.073 A 
ATOM      2  C3  UNL d   1       1.554  -2.516   0.470  0.00  0.00    -0.002 A 
ATOM      3  C4  UNL d   1       2.686  -2.128  -0.250  0.00  0.00     0.004 A 
ATOM      4  C5  UNL d   1       2.967  -0.775  -0.438  0.00  0.00    -0.004 A 
ATOM      5  C6  UNL d   1       2.122   0.203   0.096  0.00  0.00    -0.075 A 
ATOM      6  C7  UNL d   1       2.410   1.663  -0.100  0.00  0.00     0.076 C 
ATOM      7  C8  UNL d   1       0.986  -0.195   0.814  0.00  0.00     0.001 A 
ENDROOT
BRANCH   1   8
ATOM      8  C1  UNL d   1      -0.529  -1.967   1.784  0.00  0.00     0.053 C 
ATOM      9  C   UNL d   1      -1.723  -1.071   1.496  0.00  0.00     0.018 C 
ENDBRANCH   1   8
TORSDOF 1
ENDMDL
