MODEL 1
REMARK minimizedAffinity -1.06937003
REMARK minimizedRMSD -1
REMARK  1 active torsions:
REMARK  status: ('A' for Active; 'I' for Inactive)
REMARK    1  A    between atoms: C1_2  and  C2_3 
ROOT
ATOM      1  C2  UNL d   1       2.296  -0.956  -0.652  0.00  0.00    -0.073 A 
ATOM      2  C3  UNL d   1       1.962   0.390  -0.466  0.00  0.00    -0.002 A 
ATOM      3  C4  UNL d   1       2.714   1.394  -1.076  0.00  0.00     0.004 A 
ATOM      4  C5  UNL d   1       3.802   1.064  -1.883  0.00  0.00    -0.004 A 
ATOM      5  C6  UNL d   1       4.145  -0.276  -2.091  0.00  0.00    -0.075 A 
ATOM      6  C7  UNL d   1       5.314  -0.647  -2.955  0.00  0.00     0.076 C 
ATOM      7  C8  UNL d   1       3.387  -1.279  -1.473  0.00  0.00     0.001 A 
ENDROOT
BRANCH   1   8
ATOM      8  C1  UNL d   1       1.483  -2.044   0.000  0.00  0.00     0.053 C 
ATOM      9  C   UNL d   1       0.410  -1.482   0.918  0.00  0.00     0.018 C 
ENDBRANCH   1   8
TORSDOF 1
ENDMDL
