MODEL 1
REMARK minimizedAffinity -4.377707
REMARK minimizedRMSD -1
REMARK  1 active torsions:
REMARK  status: ('A' for Active; 'I' for Inactive)
REMARK    1  A    between atoms: C1_2  and  C2_3 
ROOT
ATOM      1  C2  UNL d   1       2.502  -0.823  -0.437  0.00  0.00    -0.073 A 
ATOM      2  C3  UNL d   1       2.484   0.547  -0.722  0.00  0.00    -0.002 A 
ATOM      3  C4  UNL d   1       1.584   1.391  -0.069  0.00  0.00     0.004 A 
ATOM      4  C5  UNL d   1       0.700   0.876   0.879  0.00  0.00    -0.004 A 
ATOM      5  C6  UNL d   1       0.711  -0.488   1.186  0.00  0.00    -0.075 A 
ATOM      6  C7  UNL d   1      -0.235  -1.058   2.202  0.00  0.00     0.076 C 
ATOM      7  C8  UNL d   1       1.616  -1.330   0.524  0.00  0.00     0.001 A 
ENDROOT
BRANCH   1   8
ATOM      8  C1  UNL d   1       3.476  -1.737  -1.134  0.00  0.00     0.053 C 
ATOM      9  C   UNL d   1       4.447  -0.968  -2.017  0.00  0.00     0.018 C 
ENDBRANCH   1   8
TORSDOF 1
ENDMDL
