MODEL 1
REMARK minimizedAffinity 3.11062956
REMARK minimizedRMSD -1
REMARK  1 active torsions:
REMARK  status: ('A' for Active; 'I' for Inactive)
REMARK    1  A    between atoms: C1_2  and  C2_3 
ROOT
ATOM      1  C2  UNL d   1       2.619  -1.202  -0.977  0.00  0.00    -0.073 A 
ATOM      2  C3  UNL d   1       1.532  -1.909  -0.449  0.00  0.00    -0.002 A 
ATOM      3  C4  UNL d   1       0.650  -1.288   0.436  0.00  0.00     0.004 A 
ATOM      4  C5  UNL d   1       0.841   0.046   0.797  0.00  0.00    -0.004 A 
ATOM      5  C6  UNL d   1       1.915   0.772   0.271  0.00  0.00    -0.075 A 
ATOM      6  C7  UNL d   1       2.136   2.207   0.651  0.00  0.00     0.076 C 
ATOM      7  C8  UNL d   1       2.798   0.141  -0.615  0.00  0.00     0.001 A 
ENDROOT
BRANCH   1   8
ATOM      8  C1  UNL d   1       3.571  -1.867  -1.938  0.00  0.00     0.053 C 
ATOM      9  C   UNL d   1       4.713  -0.947  -2.337  0.00  0.00     0.018 C 
ENDBRANCH   1   8
TORSDOF 1
ENDMDL
