MODEL 1
REMARK minimizedAffinity -3.0003655
REMARK minimizedRMSD -1
REMARK  1 active torsions:
REMARK  status: ('A' for Active; 'I' for Inactive)
REMARK    1  A    between atoms: C1_2  and  C2_3 
ROOT
ATOM      1  C2  UNL d   1       3.417  -0.504  -0.828  0.00  0.00    -0.073 A 
ATOM      2  C3  UNL d   1       2.700   0.599  -0.350  0.00  0.00    -0.002 A 
ATOM      3  C4  UNL d   1       1.520   0.413   0.371  0.00  0.00     0.004 A 
ATOM      4  C5  UNL d   1       1.049  -0.874   0.628  0.00  0.00    -0.004 A 
ATOM      5  C6  UNL d   1       1.758  -1.989   0.168  0.00  0.00    -0.075 A 
ATOM      6  C7  UNL d   1       1.263  -3.381   0.434  0.00  0.00     0.076 C 
ATOM      7  C8  UNL d   1       2.941  -1.795  -0.558  0.00  0.00     0.001 A 
ENDROOT
BRANCH   1   8
ATOM      8  C1  UNL d   1       4.695  -0.309  -1.602  0.00  0.00     0.053 C 
ATOM      9  C   UNL d   1       4.788   1.082  -2.209  0.00  0.00     0.018 C 
ENDBRANCH   1   8
TORSDOF 1
ENDMDL
