MODEL 1
REMARK minimizedAffinity -3.1771071
REMARK minimizedRMSD -1
REMARK  1 active torsions:
REMARK  status: ('A' for Active; 'I' for Inactive)
REMARK    1  A    between atoms: C1_2  and  C2_3 
ROOT
ATOM      1  C2  UNL d   1       2.908  -0.669  -0.747  0.00  0.00    -0.073 A 
ATOM      2  C3  UNL d   1       2.474   0.660  -0.810  0.00  0.00    -0.002 A 
ATOM      3  C4  UNL d   1       3.183   1.598  -1.562  0.00  0.00     0.004 A 
ATOM      4  C5  UNL d   1       4.327   1.215  -2.264  0.00  0.00    -0.004 A 
ATOM      5  C6  UNL d   1       4.769  -0.111  -2.222  0.00  0.00    -0.075 A 
ATOM      6  C7  UNL d   1       5.998  -0.538  -2.969  0.00  0.00     0.076 C 
ATOM      7  C8  UNL d   1       4.053  -1.046  -1.463  0.00  0.00     0.001 A 
ENDROOT
BRANCH   1   8
ATOM      8  C1  UNL d   1       2.142  -1.686   0.059  0.00  0.00     0.053 C 
ATOM      9  C   UNL d   1       1.148  -1.032   1.006  0.00  0.00     0.018 C 
ENDBRANCH   1   8
TORSDOF 1
ENDMDL
