MODEL 1
REMARK minimizedAffinity -3.91490054
REMARK minimizedRMSD -1
REMARK  1 active torsions:
REMARK  status: ('A' for Active; 'I' for Inactive)
REMARK    1  A    between atoms: C1_2  and  C2_3 
ROOT
ATOM      1  C2  UNL d   1       3.241  -0.420  -1.430  0.00  0.00    -0.073 A 
ATOM      2  C3  UNL d   1       3.038   0.960  -1.541  0.00  0.00    -0.002 A 
ATOM      3  C4  UNL d   1       1.974   1.571  -0.875  0.00  0.00     0.004 A 
ATOM      4  C5  UNL d   1       1.109   0.812  -0.088  0.00  0.00    -0.004 A 
ATOM      5  C6  UNL d   1       1.303  -0.567   0.044  0.00  0.00    -0.075 A 
ATOM      6  C7  UNL d   1       0.379  -1.399   0.885  0.00  0.00     0.076 C 
ATOM      7  C8  UNL d   1       2.371  -1.174  -0.630  0.00  0.00     0.001 A 
ENDROOT
BRANCH   1   8
ATOM      8  C1  UNL d   1       4.392  -1.084  -2.142  0.00  0.00     0.053 C 
ATOM      9  C   UNL d   1       5.257  -0.079  -2.886  0.00  0.00     0.018 C 
ENDBRANCH   1   8
TORSDOF 1
ENDMDL
