MODEL 1
REMARK minimizedAffinity -5.12872601
REMARK minimizedRMSD -1
REMARK  1 active torsions:
REMARK  status: ('A' for Active; 'I' for Inactive)
REMARK    1  A    between atoms: C1_2  and  C2_3 
ROOT
ATOM      1  C2  UNL d   1       3.546  -0.127  -1.583  0.00  0.00    -0.073 A 
ATOM      2  C3  UNL d   1       3.236  -1.383  -1.050  0.00  0.00    -0.002 A 
ATOM      3  C4  UNL d   1       2.231  -1.512  -0.090  0.00  0.00     0.004 A 
ATOM      4  C5  UNL d   1       1.523  -0.389   0.340  0.00  0.00    -0.004 A 
ATOM      5  C6  UNL d   1       1.811   0.872  -0.190  0.00  0.00    -0.075 A 
ATOM      6  C7  UNL d   1       1.060   2.090   0.263  0.00  0.00     0.076 C 
ATOM      7  C8  UNL d   1       2.823   0.994  -1.152  0.00  0.00     0.001 A 
ENDROOT
BRANCH   1   8
ATOM      8  C1  UNL d   1       4.626   0.016  -2.625  0.00  0.00     0.053 C 
ATOM      9  C   UNL d   1       5.999  -0.335  -2.074  0.00  0.00     0.018 C 
ENDBRANCH   1   8
TORSDOF 1
ENDMDL
