MODEL 1
REMARK minimizedAffinity -4.46033669
REMARK minimizedRMSD -1
REMARK  1 active torsions:
REMARK  status: ('A' for Active; 'I' for Inactive)
REMARK    1  A    between atoms: C1_2  and  C2_3 
ROOT
ATOM      1  C2  UNL d   1       0.490  -0.780  -0.287  0.00  0.00    -0.081 A 
ATOM      2  C3  UNL d   1       0.048  -1.044   1.015  0.00  0.00     0.006 A 
ATOM      3  C4  UNL d   1      -0.760  -0.126   1.688  0.00  0.00     0.002 A 
ATOM      4  C5  UNL d   1      -1.146   1.068   1.069  0.00  0.00    -0.080 A 
ATOM      5  C6  UNL d   1      -2.039   2.049   1.770  0.00  0.00     0.076 C 
ATOM      6  C7  UNL d   1      -0.690   1.341  -0.225  0.00  0.00     0.002 A 
ATOM      7  C8  UNL d   1       0.119   0.423  -0.899  0.00  0.00     0.006 A 
ENDROOT
BRANCH   1   8
ATOM      8  C1  UNL d   1       1.309  -1.797  -1.040  0.00  0.00     0.054 C 
ATOM      9  C   UNL d   1       0.420  -2.753  -1.822  0.00  0.00     0.018 C 
ENDBRANCH   1   8
TORSDOF 1
ENDMDL
