MODEL 1
REMARK minimizedAffinity -3.14971209
REMARK minimizedRMSD -1
REMARK  1 active torsions:
REMARK  status: ('A' for Active; 'I' for Inactive)
REMARK    1  A    between atoms: C1_2  and  C2_3 
ROOT
ATOM      1  C2  UNL d   1      -0.557   0.865   2.650  0.00  0.00    -0.081 A 
ATOM      2  C3  UNL d   1       0.224  -0.068   1.958  0.00  0.00     0.006 A 
ATOM      3  C4  UNL d   1       0.091  -0.216   0.575  0.00  0.00     0.002 A 
ATOM      4  C5  UNL d   1      -0.818   0.572  -0.139  0.00  0.00    -0.080 A 
ATOM      5  C6  UNL d   1      -0.949   0.444  -1.627  0.00  0.00     0.076 C 
ATOM      6  C7  UNL d   1      -1.611   1.492   0.556  0.00  0.00     0.002 A 
ATOM      7  C8  UNL d   1      -1.479   1.640   1.938  0.00  0.00     0.006 A 
ENDROOT
BRANCH   1   8
ATOM      8  C1  UNL d   1      -0.370   1.073   4.132  0.00  0.00     0.054 C 
ATOM      9  C   UNL d   1       0.229   2.440   4.428  0.00  0.00     0.018 C 
ENDBRANCH   1   8
TORSDOF 1
ENDMDL
