MODEL 1
REMARK minimizedAffinity -3.97667313
REMARK minimizedRMSD -1
REMARK  1 active torsions:
REMARK  status: ('A' for Active; 'I' for Inactive)
REMARK    1  A    between atoms: C1_2  and  C2_3 
ROOT
ATOM      1  C2  UNL d   1       0.517  -1.145  -0.360  0.00  0.00    -0.081 A 
ATOM      2  C3  UNL d   1       0.334  -1.258   1.024  0.00  0.00     0.006 A 
ATOM      3  C4  UNL d   1      -0.392  -0.291   1.723  0.00  0.00     0.002 A 
ATOM      4  C5  UNL d   1      -0.953   0.800   1.050  0.00  0.00    -0.080 A 
ATOM      5  C6  UNL d   1      -1.760   1.829   1.784  0.00  0.00     0.076 C 
ATOM      6  C7  UNL d   1      -0.756   0.922  -0.329  0.00  0.00     0.002 A 
ATOM      7  C8  UNL d   1      -0.029  -0.045  -1.029  0.00  0.00     0.006 A 
ENDROOT
BRANCH   1   8
ATOM      8  C1  UNL d   1       1.244  -2.220  -1.126  0.00  0.00     0.054 C 
ATOM      9  C   UNL d   1       0.341  -2.861  -2.171  0.00  0.00     0.018 C 
ENDBRANCH   1   8
TORSDOF 1
ENDMDL
