MODEL 1
REMARK minimizedAffinity -4.0316143
REMARK minimizedRMSD -1
REMARK  1 active torsions:
REMARK  status: ('A' for Active; 'I' for Inactive)
REMARK    1  A    between atoms: C1_2  and  C2_3 
ROOT
ATOM      1  C2  UNL d   1       0.489  -0.314  -0.088  0.00  0.00    -0.081 A 
ATOM      2  C3  UNL d   1       0.036  -0.520   1.221  0.00  0.00     0.006 A 
ATOM      3  C4  UNL d   1      -0.981   0.276   1.752  0.00  0.00     0.002 A 
ATOM      4  C5  UNL d   1      -1.567   1.286   0.982  0.00  0.00    -0.080 A 
ATOM      5  C6  UNL d   1      -2.681   2.128   1.531  0.00  0.00     0.076 C 
ATOM      6  C7  UNL d   1      -1.103   1.504  -0.319  0.00  0.00     0.002 A 
ATOM      7  C8  UNL d   1      -0.085   0.709  -0.851  0.00  0.00     0.006 A 
ENDROOT
BRANCH   1   8
ATOM      8  C1  UNL d   1       1.541  -1.213  -0.686  0.00  0.00     0.054 C 
ATOM      9  C   UNL d   1       0.914  -2.422  -1.364  0.00  0.00     0.018 C 
ENDBRANCH   1   8
TORSDOF 1
ENDMDL
