MODEL 1
REMARK minimizedAffinity -2.37525797
REMARK minimizedRMSD -1
REMARK  1 active torsions:
REMARK  status: ('A' for Active; 'I' for Inactive)
REMARK    1  A    between atoms: C1_2  and  C2_3 
ROOT
ATOM      1  C2  UNL d   1       1.012  -3.304  -0.823  0.00  0.00    -0.081 A 
ATOM      2  C3  UNL d   1       0.137  -2.735  -1.756  0.00  0.00     0.006 A 
ATOM      3  C4  UNL d   1      -0.242  -1.395  -1.645  0.00  0.00     0.002 A 
ATOM      4  C5  UNL d   1       0.254  -0.601  -0.606  0.00  0.00    -0.080 A 
ATOM      5  C6  UNL d   1      -0.121   0.847  -0.493  0.00  0.00     0.076 C 
ATOM      6  C7  UNL d   1       1.115  -1.174   0.336  0.00  0.00     0.002 A 
ATOM      7  C8  UNL d   1       1.493  -2.514   0.226  0.00  0.00     0.006 A 
ENDROOT
BRANCH   1   8
ATOM      8  C1  UNL d   1       1.474  -4.731  -0.977  0.00  0.00     0.054 C 
ATOM      9  C   UNL d   1       2.086  -5.257   0.314  0.00  0.00     0.018 C 
ENDBRANCH   1   8
TORSDOF 1
ENDMDL
