MODEL 1
REMARK minimizedAffinity -3.86556029
REMARK minimizedRMSD -1
REMARK  1 active torsions:
REMARK  status: ('A' for Active; 'I' for Inactive)
REMARK    1  A    between atoms: C1_2  and  C2_3 
ROOT
ATOM      1  C2  UNL d   1      -0.103  -0.373   0.551  0.00  0.00    -0.081 A 
ATOM      2  C3  UNL d   1       0.048  -1.747   0.326  0.00  0.00     0.006 A 
ATOM      3  C4  UNL d   1       0.661  -2.211  -0.840  0.00  0.00     0.002 A 
ATOM      4  C5  UNL d   1       1.140  -1.309  -1.796  0.00  0.00    -0.080 A 
ATOM      5  C6  UNL d   1       1.827  -1.793  -3.039  0.00  0.00     0.076 C 
ATOM      6  C7  UNL d   1       0.974   0.063  -1.580  0.00  0.00     0.002 A 
ATOM      7  C8  UNL d   1       0.361   0.527  -0.414  0.00  0.00     0.006 A 
ENDROOT
BRANCH   1   8
ATOM      8  C1  UNL d   1      -0.705   0.132   1.838  0.00  0.00     0.054 C 
ATOM      9  C   UNL d   1      -1.895   1.042   1.571  0.00  0.00     0.018 C 
ENDBRANCH   1   8
TORSDOF 1
ENDMDL
