MODEL 1
REMARK minimizedAffinity -4.62176085
REMARK minimizedRMSD -1
REMARK  1 active torsions:
REMARK  status: ('A' for Active; 'I' for Inactive)
REMARK    1  A    between atoms: C1_2  and  C2_3 
ROOT
ATOM      1  C2  UNL d   1       0.509  -0.991  -0.215  0.00  0.00    -0.081 A 
ATOM      2  C3  UNL d   1       0.179  -1.301   1.110  0.00  0.00     0.006 A 
ATOM      3  C4  UNL d   1      -0.637  -0.447   1.855  0.00  0.00     0.002 A 
ATOM      4  C5  UNL d   1      -1.142   0.727   1.286  0.00  0.00    -0.080 A 
ATOM      5  C6  UNL d   1      -2.044   1.638   2.065  0.00  0.00     0.076 C 
ATOM      6  C7  UNL d   1      -0.799   1.046  -0.032  0.00  0.00     0.002 A 
ATOM      7  C8  UNL d   1       0.018   0.192  -0.778  0.00  0.00     0.006 A 
ENDROOT
BRANCH   1   8
ATOM      8  C1  UNL d   1       1.336  -1.943  -1.042  0.00  0.00     0.054 C 
ATOM      9  C   UNL d   1       0.660  -2.252  -2.371  0.00  0.00     0.018 C 
ENDBRANCH   1   8
TORSDOF 1
ENDMDL
