MODEL 1
REMARK minimizedAffinity -3.5776906
REMARK minimizedRMSD -1
REMARK  1 active torsions:
REMARK  status: ('A' for Active; 'I' for Inactive)
REMARK    1  A    between atoms: C1_2  and  C2_3 
ROOT
ATOM      1  C2  UNL d   1       0.694  -0.989  -0.407  0.00  0.00    -0.081 A 
ATOM      2  C3  UNL d   1       1.238  -0.965   0.883  0.00  0.00     0.006 A 
ATOM      3  C4  UNL d   1       0.620  -0.232   1.899  0.00  0.00     0.002 A 
ATOM      4  C5  UNL d   1      -0.556   0.483   1.644  0.00  0.00    -0.080 A 
ATOM      5  C6  UNL d   1      -1.246   1.250   2.733  0.00  0.00     0.076 C 
ATOM      6  C7  UNL d   1      -1.089   0.474   0.351  0.00  0.00     0.002 A 
ATOM      7  C8  UNL d   1      -0.472  -0.259  -0.665  0.00  0.00     0.006 A 
ENDROOT
BRANCH   1   8
ATOM      8  C1  UNL d   1       1.322  -1.831  -1.488  0.00  0.00     0.054 C 
ATOM      9  C   UNL d   1       0.275  -2.650  -2.230  0.00  0.00     0.018 C 
ENDBRANCH   1   8
TORSDOF 1
ENDMDL
