MODEL 1
REMARK minimizedAffinity -4.45695496
REMARK minimizedRMSD -1
REMARK  1 active torsions:
REMARK  status: ('A' for Active; 'I' for Inactive)
REMARK    1  A    between atoms: C1_2  and  C2_3 
ROOT
ATOM      1  C2  UNL d   1       0.708  -2.846  -0.476  0.00  0.00    -0.081 A 
ATOM      2  C3  UNL d   1       0.250  -2.059   0.588  0.00  0.00     0.006 A 
ATOM      3  C4  UNL d   1       0.233  -0.666   0.482  0.00  0.00     0.002 A 
ATOM      4  C5  UNL d   1       0.665  -0.038  -0.691  0.00  0.00    -0.080 A 
ATOM      5  C6  UNL d   1       0.623   1.455  -0.829  0.00  0.00     0.076 C 
ATOM      6  C7  UNL d   1       1.138  -0.824  -1.748  0.00  0.00     0.002 A 
ATOM      7  C8  UNL d   1       1.157  -2.216  -1.642  0.00  0.00     0.006 A 
ENDROOT
BRANCH   1   8
ATOM      8  C1  UNL d   1       0.667  -4.351  -0.389  0.00  0.00     0.054 C 
ATOM      9  C   UNL d   1       1.640  -4.871   0.659  0.00  0.00     0.018 C 
ENDBRANCH   1   8
TORSDOF 1
ENDMDL
