MODEL 1
REMARK minimizedAffinity -3.80295134
REMARK minimizedRMSD -1
REMARK  1 active torsions:
REMARK  status: ('A' for Active; 'I' for Inactive)
REMARK    1  A    between atoms: C1_2  and  C2_3 
ROOT
ATOM      1  C2  UNL d   1       0.338  -0.566  -0.322  0.00  0.00    -0.081 A 
ATOM      2  C3  UNL d   1      -0.060  -0.863   0.987  0.00  0.00     0.006 A 
ATOM      3  C4  UNL d   1      -0.934  -0.015   1.672  0.00  0.00     0.002 A 
ATOM      4  C5  UNL d   1      -1.430   1.139   1.057  0.00  0.00    -0.080 A 
ATOM      5  C6  UNL d   1      -2.392   2.042   1.770  0.00  0.00     0.076 C 
ATOM      6  C7  UNL d   1      -1.018   1.446  -0.245  0.00  0.00     0.002 A 
ATOM      7  C8  UNL d   1      -0.144   0.599  -0.929  0.00  0.00     0.006 A 
ENDROOT
BRANCH   1   8
ATOM      8  C1  UNL d   1       1.229  -1.511  -1.086  0.00  0.00     0.054 C 
ATOM      9  C   UNL d   1       0.419  -2.411  -2.008  0.00  0.00     0.018 C 
ENDBRANCH   1   8
TORSDOF 1
ENDMDL
