MODEL 1
REMARK minimizedAffinity -2.48486996
REMARK minimizedRMSD -1
REMARK  0 active torsions:
REMARK  status: ('A' for Active; 'I' for Inactive)
ROOT
ATOM      1  C2' OXE d   1      -0.296  -0.003   0.433  0.00  0.00     0.078 C 
ATOM      2  C1' OXE d   1      -0.119  -0.698  -2.281  0.00  0.00     0.078 C 
ATOM      3  C1  OXE d   1      -0.368   0.750  -1.941  0.00  0.00    -0.078 A 
ATOM      4  C2  OXE d   1      -0.499   1.073  -0.612  0.00  0.00    -0.078 A 
ATOM      5  C3  OXE d   1      -0.675   2.403  -0.240  0.00  0.00     0.003 A 
ATOM      6  C4  OXE d   1      -0.872   3.391  -1.212  0.00  0.00    -0.002 A 
ATOM      7  C5  OXE d   1      -0.782   3.076  -2.572  0.00  0.00    -0.002 A 
ATOM      8  C6  OXE d   1      -0.489   1.771  -2.952  0.00  0.00     0.003 A 
ENDROOT
TORSDOF 0
ENDMDL
