MODEL 1
REMARK minimizedAffinity -4.39812326
REMARK minimizedRMSD -1
REMARK  0 active torsions:
REMARK  status: ('A' for Active; 'I' for Inactive)
ROOT
ATOM      1  C2' OXE d   1       0.445  -1.005  -1.779  0.00  0.00     0.078 C 
ATOM      2  C1' OXE d   1       2.421  -2.042  -0.076  0.00  0.00     0.078 C 
ATOM      3  C1  OXE d   1       1.215  -1.396   0.558  0.00  0.00    -0.078 A 
ATOM      4  C2  OXE d   1       0.275  -0.850  -0.283  0.00  0.00    -0.078 A 
ATOM      5  C3  OXE d   1      -0.884  -0.291   0.248  0.00  0.00     0.003 A 
ATOM      6  C4  OXE d   1      -1.029  -0.142   1.632  0.00  0.00    -0.002 A 
ATOM      7  C5  OXE d   1      -0.065  -0.656   2.506  0.00  0.00    -0.002 A 
ATOM      8  C6  OXE d   1       1.040  -1.322   1.987  0.00  0.00     0.003 A 
ENDROOT
TORSDOF 0
ENDMDL
