MODEL 1
REMARK minimizedAffinity -3.80628514
REMARK minimizedRMSD -1
REMARK  0 active torsions:
REMARK  status: ('A' for Active; 'I' for Inactive)
ROOT
ATOM      1  C2' OXE d   1      -1.495   0.431   1.503  0.00  0.00     0.078 C 
ATOM      2  C1' OXE d   1      -0.308   0.447  -1.041  0.00  0.00     0.078 C 
ATOM      3  C1  OXE d   1       0.334  -0.400   0.030  0.00  0.00    -0.078 A 
ATOM      4  C2  OXE d   1      -0.227  -0.365   1.284  0.00  0.00    -0.078 A 
ATOM      5  C3  OXE d   1       0.293  -1.169   2.294  0.00  0.00     0.003 A 
ATOM      6  C4  OXE d   1       1.472  -1.895   2.086  0.00  0.00    -0.002 A 
ATOM      7  C5  OXE d   1       2.082  -1.913   0.827  0.00  0.00    -0.002 A 
ATOM      8  C6  OXE d   1       1.503  -1.206  -0.221  0.00  0.00     0.003 A 
ENDROOT
TORSDOF 0
ENDMDL
