MODEL 1
REMARK minimizedAffinity -5.90851355
REMARK minimizedRMSD -1
REMARK  0 active torsions:
REMARK  status: ('A' for Active; 'I' for Inactive)
ROOT
ATOM      1  C2' OXE d   1       2.934  -2.172   0.492  0.00  0.00     0.078 C 
ATOM      2  C1' OXE d   1       1.710  -1.149   2.802  0.00  0.00     0.078 C 
ATOM      3  C1  OXE d   1       1.127  -0.761   1.466  0.00  0.00    -0.078 A 
ATOM      4  C2  OXE d   1       1.761  -1.228   0.340  0.00  0.00    -0.078 A 
ATOM      5  C3  OXE d   1       1.232  -0.944  -0.916  0.00  0.00     0.003 A 
ATOM      6  C4  OXE d   1       0.153  -0.062  -1.048  0.00  0.00    -0.002 A 
ATOM      7  C5  OXE d   1      -0.483   0.457   0.085  0.00  0.00    -0.002 A 
ATOM      8  C6  OXE d   1      -0.035   0.085   1.348  0.00  0.00     0.003 A 
ENDROOT
TORSDOF 0
ENDMDL
