MODEL 1
REMARK minimizedAffinity -3.99295378
REMARK minimizedRMSD -1
REMARK  0 active torsions:
REMARK  status: ('A' for Active; 'I' for Inactive)
ROOT
ATOM      1  C2' OXE d   1      -0.491   0.338  -1.267  0.00  0.00     0.078 C 
ATOM      2  C1' OXE d   1       1.955  -0.746  -0.416  0.00  0.00     0.078 C 
ATOM      3  C1  OXE d   1       0.904  -0.474   0.631  0.00  0.00    -0.078 A 
ATOM      4  C2  OXE d   1      -0.272   0.099   0.212  0.00  0.00    -0.078 A 
ATOM      5  C3  OXE d   1      -1.297   0.320   1.128  0.00  0.00     0.003 A 
ATOM      6  C4  OXE d   1      -1.083   0.107   2.495  0.00  0.00    -0.002 A 
ATOM      7  C5  OXE d   1       0.122  -0.440   2.948  0.00  0.00    -0.002 A 
ATOM      8  C6  OXE d   1       1.108  -0.775   2.026  0.00  0.00     0.003 A 
ENDROOT
TORSDOF 0
ENDMDL
