MODEL 1
REMARK minimizedAffinity -3.17800307
REMARK minimizedRMSD -1
REMARK  0 active torsions:
REMARK  status: ('A' for Active; 'I' for Inactive)
ROOT
ATOM      1  C2' OXE d   1       2.006  -2.772   2.184  0.00  0.00     0.078 C 
ATOM      2  C1' OXE d   1       2.114  -1.864  -0.471  0.00  0.00     0.078 C 
ATOM      3  C1  OXE d   1       0.972  -1.386   0.391  0.00  0.00    -0.078 A 
ATOM      4  C2  OXE d   1       0.901  -1.873   1.674  0.00  0.00    -0.078 A 
ATOM      5  C3  OXE d   1      -0.102  -1.421   2.528  0.00  0.00     0.003 A 
ATOM      6  C4  OXE d   1      -1.126  -0.597   2.046  0.00  0.00    -0.002 A 
ATOM      7  C5  OXE d   1      -1.095  -0.122   0.730  0.00  0.00    -0.002 A 
ATOM      8  C6  OXE d   1      -0.032  -0.472  -0.096  0.00  0.00     0.003 A 
ENDROOT
TORSDOF 0
ENDMDL
