MODEL 1
REMARK minimizedAffinity 9.06909657
REMARK minimizedRMSD -1
REMARK  1 active torsions:
REMARK  status: ('A' for Active; 'I' for Inactive)
REMARK    1  A    between atoms: C1_2  and  C2_3 
ROOT
ATOM      1  C2  UNL d   1       1.463  -0.773   1.959  0.00  0.00    -0.073 A 
ATOM      2  C3  UNL d   1       0.079  -0.628   2.112  0.00  0.00    -0.002 A 
ATOM      3  C4  UNL d   1      -0.781  -0.910   1.050  0.00  0.00     0.004 A 
ATOM      4  C5  UNL d   1      -0.268  -1.346  -0.172  0.00  0.00    -0.004 A 
ATOM      5  C6  UNL d   1       1.111  -1.509  -0.341  0.00  0.00    -0.075 A 
ATOM      6  C7  UNL d   1       1.678  -1.975  -1.649  0.00  0.00     0.076 C 
ATOM      7  C8  UNL d   1       1.968  -1.221   0.730  0.00  0.00     0.001 A 
ENDROOT
BRANCH   1   8
ATOM      8  C1  UNL d   1       2.395  -0.476   3.105  0.00  0.00     0.053 C 
ATOM      9  C   UNL d   1       1.980  -1.195   4.378  0.00  0.00     0.018 C 
ENDBRANCH   1   8
TORSDOF 1
ENDMDL
