MODEL 1
REMARK minimizedAffinity 14.1497641
REMARK minimizedRMSD -1
REMARK  1 active torsions:
REMARK  status: ('A' for Active; 'I' for Inactive)
REMARK    1  A    between atoms: C1_2  and  C2_3 
ROOT
ATOM      1  C2  UNL d   1       2.379   0.014   2.748  0.00  0.00    -0.073 A 
ATOM      2  C3  UNL d   1       2.009   1.329   3.054  0.00  0.00    -0.002 A 
ATOM      3  C4  UNL d   1       2.458   2.389   2.265  0.00  0.00     0.004 A 
ATOM      4  C5  UNL d   1       3.274   2.146   1.160  0.00  0.00    -0.004 A 
ATOM      5  C6  UNL d   1       3.644   0.838   0.831  0.00  0.00    -0.075 A 
ATOM      6  C7  UNL d   1       4.523   0.559  -0.353  0.00  0.00     0.076 C 
ATOM      7  C8  UNL d   1       3.192  -0.221   1.630  0.00  0.00     0.001 A 
ENDROOT
BRANCH   1   8
ATOM      8  C1  UNL d   1       1.891  -1.134   3.593  0.00  0.00     0.053 C 
ATOM      9  C   UNL d   1       1.838  -0.773   5.069  0.00  0.00     0.018 C 
ENDBRANCH   1   8
TORSDOF 1
ENDMDL
