MODEL 1
REMARK minimizedAffinity 7.59075356
REMARK minimizedRMSD -1
REMARK  1 active torsions:
REMARK  status: ('A' for Active; 'I' for Inactive)
REMARK    1  A    between atoms: C1_2  and  C2_3 
ROOT
ATOM      1  C2  UNL d   1       2.898  -0.258   2.162  0.00  0.00    -0.073 A 
ATOM      2  C3  UNL d   1       1.867   0.320   2.911  0.00  0.00    -0.002 A 
ATOM      3  C4  UNL d   1       1.314  -0.364   3.995  0.00  0.00     0.004 A 
ATOM      4  C5  UNL d   1       1.789  -1.628   4.344  0.00  0.00    -0.004 A 
ATOM      5  C6  UNL d   1       2.827  -2.218   3.614  0.00  0.00    -0.075 A 
ATOM      6  C7  UNL d   1       3.348  -3.578   3.975  0.00  0.00     0.076 C 
ATOM      7  C8  UNL d   1       3.376  -1.526   2.526  0.00  0.00     0.001 A 
ENDROOT
BRANCH   1   8
ATOM      8  C1  UNL d   1       3.503   0.479   0.996  0.00  0.00     0.053 C 
ATOM      9  C   UNL d   1       3.242   1.975   1.070  0.00  0.00     0.018 C 
ENDBRANCH   1   8
TORSDOF 1
ENDMDL
