MODEL 1
REMARK minimizedAffinity 6.51281881
REMARK minimizedRMSD -1
REMARK  1 active torsions:
REMARK  status: ('A' for Active; 'I' for Inactive)
REMARK    1  A    between atoms: C1_2  and  C2_3 
ROOT
ATOM      1  C2  UNL d   1       3.422  -1.926   3.246  0.00  0.00    -0.073 A 
ATOM      2  C3  UNL d   1       2.137  -1.856   3.794  0.00  0.00    -0.002 A 
ATOM      3  C4  UNL d   1       1.253  -0.853   3.395  0.00  0.00     0.004 A 
ATOM      4  C5  UNL d   1       1.643   0.086   2.440  0.00  0.00    -0.004 A 
ATOM      5  C6  UNL d   1       2.919   0.026   1.871  0.00  0.00    -0.075 A 
ATOM      6  C7  UNL d   1       3.354   1.030   0.844  0.00  0.00     0.076 C 
ATOM      7  C8  UNL d   1       3.801  -0.983   2.279  0.00  0.00     0.001 A 
ENDROOT
BRANCH   1   8
ATOM      8  C1  UNL d   1       4.378  -3.011   3.669  0.00  0.00     0.053 C 
ATOM      9  C   UNL d   1       4.644  -2.985   5.166  0.00  0.00     0.018 C 
ENDBRANCH   1   8
TORSDOF 1
ENDMDL
