MODEL 1
REMARK minimizedAffinity 7.99510813
REMARK minimizedRMSD -1
REMARK  1 active torsions:
REMARK  status: ('A' for Active; 'I' for Inactive)
REMARK    1  A    between atoms: C1_2  and  C2_3 
ROOT
ATOM      1  C2  UNL d   1       2.765  -3.698   4.991  0.00  0.00    -0.073 A 
ATOM      2  C3  UNL d   1       4.136  -3.483   5.169  0.00  0.00    -0.002 A 
ATOM      3  C4  UNL d   1       4.745  -2.342   4.644  0.00  0.00     0.004 A 
ATOM      4  C5  UNL d   1       3.989  -1.402   3.945  0.00  0.00    -0.004 A 
ATOM      5  C6  UNL d   1       2.615  -1.592   3.767  0.00  0.00    -0.075 A 
ATOM      6  C7  UNL d   1       1.788  -0.591   3.015  0.00  0.00     0.076 C 
ATOM      7  C8  UNL d   1       2.011  -2.742   4.294  0.00  0.00     0.001 A 
ENDROOT
BRANCH   1   8
ATOM      8  C1  UNL d   1       2.102  -4.925   5.561  0.00  0.00     0.053 C 
ATOM      9  C   UNL d   1       0.595  -4.903   5.363  0.00  0.00     0.018 C 
ENDBRANCH   1   8
TORSDOF 1
ENDMDL
