MODEL 1
REMARK minimizedAffinity 9.1383276
REMARK minimizedRMSD -1
REMARK  1 active torsions:
REMARK  status: ('A' for Active; 'I' for Inactive)
REMARK    1  A    between atoms: C1_2  and  C2_3 
ROOT
ATOM      1  C2  UNL d   1       2.016  -1.937   1.906  0.00  0.00    -0.073 A 
ATOM      2  C3  UNL d   1       2.368  -3.279   2.086  0.00  0.00    -0.002 A 
ATOM      3  C4  UNL d   1       1.923  -4.251   1.189  0.00  0.00     0.004 A 
ATOM      4  C5  UNL d   1       1.130  -3.890   0.100  0.00  0.00    -0.004 A 
ATOM      5  C6  UNL d   1       0.778  -2.552  -0.104  0.00  0.00    -0.075 A 
ATOM      6  C7  UNL d   1      -0.077  -2.148  -1.269  0.00  0.00     0.076 C 
ATOM      7  C8  UNL d   1       1.226  -1.583   0.803  0.00  0.00     0.001 A 
ENDROOT
BRANCH   1   8
ATOM      8  C1  UNL d   1       2.499  -0.883   2.869  0.00  0.00     0.053 C 
ATOM      9  C   UNL d   1       1.708  -0.892   4.167  0.00  0.00     0.018 C 
ENDBRANCH   1   8
TORSDOF 1
ENDMDL
