MODEL 1
REMARK minimizedAffinity 8.27020645
REMARK minimizedRMSD -1
REMARK  1 active torsions:
REMARK  status: ('A' for Active; 'I' for Inactive)
REMARK    1  A    between atoms: C1_2  and  C2_3 
ROOT
ATOM      1  C2  UNL d   1       2.169  -2.254   4.338  0.00  0.00    -0.073 A 
ATOM      2  C3  UNL d   1       3.452  -2.802   4.230  0.00  0.00    -0.002 A 
ATOM      3  C4  UNL d   1       3.710  -4.091   4.699  0.00  0.00     0.004 A 
ATOM      4  C5  UNL d   1       2.688  -4.846   5.273  0.00  0.00    -0.004 A 
ATOM      5  C6  UNL d   1       1.396  -4.321   5.380  0.00  0.00    -0.075 A 
ATOM      6  C7  UNL d   1       0.286  -5.120   5.997  0.00  0.00     0.076 C 
ATOM      7  C8  UNL d   1       1.146  -3.025   4.909  0.00  0.00     0.001 A 
ENDROOT
BRANCH   1   8
ATOM      8  C1  UNL d   1       1.884  -0.865   3.828  0.00  0.00     0.053 C 
ATOM      9  C   UNL d   1       1.973  -0.786   2.312  0.00  0.00     0.018 C 
ENDBRANCH   1   8
TORSDOF 1
ENDMDL
