MODEL 1
REMARK minimizedAffinity 5.51365995
REMARK minimizedRMSD -1
REMARK  0 active torsions:
REMARK  status: ('A' for Active; 'I' for Inactive)
ROOT
ATOM      1  O1  BZF d   1      -0.529  -0.523   1.487  0.00  0.00    -0.204 OA
ATOM      2  C2  BZF d   1      -0.910  -1.759   0.999  0.00  0.00     0.174 A 
ATOM      3  C3  BZF d   1       0.168  -2.486   0.643  0.00  0.00    -0.012 A 
ATOM      4  C3A BZF d   1       1.298  -1.689   1.013  0.00  0.00    -0.107 A 
ATOM      5  C4  BZF d   1       2.648  -1.878   0.927  0.00  0.00     0.055 A 
ATOM      6  C5  BZF d   1       3.480  -0.874   1.309  0.00  0.00    -0.016 A 
ATOM      7  C6  BZF d   1       2.998   0.331   1.776  0.00  0.00     0.022 A 
ATOM      8  C7  BZF d   1       1.667   0.563   1.883  0.00  0.00     0.029 A 
ATOM      9  C7A BZF d   1       0.823  -0.461   1.529  0.00  0.00     0.058 A 
ENDROOT
TORSDOF 0
ENDMDL
