MODEL 1
REMARK minimizedAffinity 5.02288151
REMARK minimizedRMSD -1
REMARK  0 active torsions:
REMARK  status: ('A' for Active; 'I' for Inactive)
ROOT
ATOM      1  O1  BZF d   1      -5.907   3.444   1.421  0.00  0.00    -0.204 OA
ATOM      2  C2  BZF d   1      -5.487   2.576   2.411  0.00  0.00     0.174 A 
ATOM      3  C3  BZF d   1      -4.458   1.819   1.979  0.00  0.00    -0.012 A 
ATOM      4  C3A BZF d   1      -4.160   2.304   0.666  0.00  0.00    -0.107 A 
ATOM      5  C4  BZF d   1      -3.226   1.963  -0.271  0.00  0.00     0.055 A 
ATOM      6  C5  BZF d   1      -3.248   2.582  -1.480  0.00  0.00    -0.016 A 
ATOM      7  C6  BZF d   1      -4.191   3.541  -1.789  0.00  0.00     0.022 A 
ATOM      8  C7  BZF d   1      -5.134   3.915  -0.890  0.00  0.00     0.029 A 
ATOM      9  C7A BZF d   1      -5.094   3.316   0.345  0.00  0.00     0.058 A 
ENDROOT
TORSDOF 0
ENDMDL
