MODEL 1
REMARK minimizedAffinity 11.4634962
REMARK minimizedRMSD -1
REMARK  0 active torsions:
REMARK  status: ('A' for Active; 'I' for Inactive)
ROOT
ATOM      1  O1  BZF d   1       1.290  -0.570   1.912  0.00  0.00    -0.204 OA
ATOM      2  C2  BZF d   1       2.663  -0.663   1.794  0.00  0.00     0.174 A 
ATOM      3  C3  BZF d   1       3.007  -1.160   0.589  0.00  0.00    -0.012 A 
ATOM      4  C3A BZF d   1       1.775  -1.307  -0.123  0.00  0.00    -0.107 A 
ATOM      5  C4  BZF d   1       1.463  -1.741  -1.380  0.00  0.00     0.055 A 
ATOM      6  C5  BZF d   1       0.156  -1.832  -1.742  0.00  0.00    -0.016 A 
ATOM      7  C6  BZF d   1      -0.863  -1.502  -0.872  0.00  0.00     0.022 A 
ATOM      8  C7  BZF d   1      -0.602  -1.062   0.383  0.00  0.00     0.029 A 
ATOM      9  C7A BZF d   1       0.718  -0.938   0.740  0.00  0.00     0.058 A 
ENDROOT
TORSDOF 0
ENDMDL
