MODEL 1
REMARK minimizedAffinity 0.373544037
REMARK minimizedRMSD -1
REMARK  0 active torsions:
REMARK  status: ('A' for Active; 'I' for Inactive)
ROOT
ATOM      1  O1  BZF d   1       0.480   0.249   1.485  0.00  0.00    -0.204 OA
ATOM      2  C2  BZF d   1       1.763  -0.065   1.888  0.00  0.00     0.174 A 
ATOM      3  C3  BZF d   1       2.649   0.831   1.409  0.00  0.00    -0.012 A 
ATOM      4  C3A BZF d   1       1.860   1.816   0.734  0.00  0.00    -0.107 A 
ATOM      5  C4  BZF d   1       2.165   2.967   0.066  0.00  0.00     0.055 A 
ATOM      6  C5  BZF d   1       1.168   3.663  -0.540  0.00  0.00    -0.016 A 
ATOM      7  C6  BZF d   1      -0.143   3.235  -0.503  0.00  0.00     0.022 A 
ATOM      8  C7  BZF d   1      -0.495   2.101   0.151  0.00  0.00     0.029 A 
ATOM      9  C7A BZF d   1       0.505   1.414   0.793  0.00  0.00     0.058 A 
ENDROOT
TORSDOF 0
ENDMDL
