MODEL 1
REMARK minimizedAffinity -1.99294126
REMARK minimizedRMSD -1
REMARK  1 active torsions:
REMARK  status: ('A' for Active; 'I' for Inactive)
REMARK    1  A    between atoms: C1_2  and  C2_3 
ROOT
ATOM      1  C2  UNL d   1       0.702  -0.093  -3.628  0.00  0.00    -0.073 A 
ATOM      2  C3  UNL d   1       1.213   1.056  -3.013  0.00  0.00    -0.002 A 
ATOM      3  C4  UNL d   1       0.364   2.110  -2.673  0.00  0.00     0.004 A 
ATOM      4  C5  UNL d   1      -1.002   2.024  -2.937  0.00  0.00    -0.004 A 
ATOM      5  C6  UNL d   1      -1.534   0.879  -3.539  0.00  0.00    -0.075 A 
ATOM      6  C7  UNL d   1      -3.002   0.771  -3.831  0.00  0.00     0.076 C 
ATOM      7  C8  UNL d   1      -0.675  -0.175  -3.880  0.00  0.00     0.001 A 
ENDROOT
BRANCH   1   8
ATOM      8  C1  UNL d   1       1.614  -1.237  -3.991  0.00  0.00     0.053 C 
ATOM      9  C   UNL d   1       3.070  -0.923  -3.687  0.00  0.00     0.018 C 
ENDBRANCH   1   8
TORSDOF 1
ENDMDL
