MODEL 1
REMARK minimizedAffinity 7.71484327
REMARK minimizedRMSD -1
REMARK  1 active torsions:
REMARK  status: ('A' for Active; 'I' for Inactive)
REMARK    1  A    between atoms: C1_2  and  C2_3 
ROOT
ATOM      1  C2  UNL d   1      -4.820   3.567   5.270  0.00  0.00    -0.073 A 
ATOM      2  C3  UNL d   1      -5.532   2.598   5.986  0.00  0.00    -0.002 A 
ATOM      3  C4  UNL d   1      -6.000   1.450   5.345  0.00  0.00     0.004 A 
ATOM      4  C5  UNL d   1      -5.755   1.256   3.986  0.00  0.00    -0.004 A 
ATOM      5  C6  UNL d   1      -5.035   2.207   3.255  0.00  0.00    -0.075 A 
ATOM      6  C7  UNL d   1      -4.766   2.014   1.792  0.00  0.00     0.076 C 
ATOM      7  C8  UNL d   1      -4.571   3.358   3.906  0.00  0.00     0.001 A 
ENDROOT
BRANCH   1   8
ATOM      8  C1  UNL d   1      -4.308   4.805   5.959  0.00  0.00     0.053 C 
ATOM      9  C   UNL d   1      -5.336   5.925   5.958  0.00  0.00     0.018 C 
ENDBRANCH   1   8
TORSDOF 1
ENDMDL
