MODEL 1
REMARK minimizedAffinity 2.96784878
REMARK minimizedRMSD -1
REMARK  1 active torsions:
REMARK  status: ('A' for Active; 'I' for Inactive)
REMARK    1  A    between atoms: C1_2  and  C2_3 
ROOT
ATOM      1  C2  UNL d   1      -1.805   0.819  -1.795  0.00  0.00    -0.073 A 
ATOM      2  C3  UNL d   1      -0.456   0.860  -1.425  0.00  0.00    -0.002 A 
ATOM      3  C4  UNL d   1      -0.090   1.236  -0.132  0.00  0.00     0.004 A 
ATOM      4  C5  UNL d   1      -1.068   1.567   0.806  0.00  0.00    -0.004 A 
ATOM      5  C6  UNL d   1      -2.423   1.520   0.459  0.00  0.00    -0.075 A 
ATOM      6  C7  UNL d   1      -3.487   1.875   1.456  0.00  0.00     0.076 C 
ATOM      7  C8  UNL d   1      -2.781   1.144  -0.842  0.00  0.00     0.001 A 
ENDROOT
BRANCH   1   8
ATOM      8  C1  UNL d   1      -2.204   0.408  -3.188  0.00  0.00     0.053 C 
ATOM      9  C   UNL d   1      -2.943   1.517  -3.920  0.00  0.00     0.018 C 
ENDBRANCH   1   8
TORSDOF 1
ENDMDL
