MODEL 1
REMARK minimizedAffinity 3.62028909
REMARK minimizedRMSD -1
REMARK  1 active torsions:
REMARK  status: ('A' for Active; 'I' for Inactive)
REMARK    1  A    between atoms: C1_2  and  C2_3 
ROOT
ATOM      1  C2  UNL d   1       0.932   1.570   0.337  0.00  0.00    -0.073 A 
ATOM      2  C3  UNL d   1       0.935   1.296  -1.036  0.00  0.00    -0.002 A 
ATOM      3  C4  UNL d   1      -0.264   1.055  -1.709  0.00  0.00     0.004 A 
ATOM      4  C5  UNL d   1      -1.476   1.093  -1.020  0.00  0.00    -0.004 A 
ATOM      5  C6  UNL d   1      -1.500   1.376   0.349  0.00  0.00    -0.075 A 
ATOM      6  C7  UNL d   1      -2.795   1.418   1.106  0.00  0.00     0.076 C 
ATOM      7  C8  UNL d   1      -0.292   1.614   1.019  0.00  0.00     0.001 A 
ENDROOT
BRANCH   1   8
ATOM      8  C1  UNL d   1       2.223   1.836   1.066  0.00  0.00     0.053 C 
ATOM      9  C   UNL d   1       3.380   1.035   0.490  0.00  0.00     0.018 C 
ENDBRANCH   1   8
TORSDOF 1
ENDMDL
