MODEL 1
REMARK minimizedAffinity 12.2632885
REMARK minimizedRMSD -1
REMARK  1 active torsions:
REMARK  status: ('A' for Active; 'I' for Inactive)
REMARK    1  A    between atoms: C1_2  and  C2_3 
ROOT
ATOM      1  C2  UNL d   1       3.877   1.372   0.071  0.00  0.00    -0.073 A 
ATOM      2  C3  UNL d   1       2.958   2.415   0.230  0.00  0.00    -0.002 A 
ATOM      3  C4  UNL d   1       1.957   2.623  -0.720  0.00  0.00     0.004 A 
ATOM      4  C5  UNL d   1       1.860   1.787  -1.832  0.00  0.00    -0.004 A 
ATOM      5  C6  UNL d   1       2.762   0.732  -2.002  0.00  0.00    -0.075 A 
ATOM      6  C7  UNL d   1       2.673  -0.175  -3.194  0.00  0.00     0.076 C 
ATOM      7  C8  UNL d   1       3.766   0.531  -1.045  0.00  0.00     0.001 A 
ENDROOT
BRANCH   1   8
ATOM      8  C1  UNL d   1       4.956   1.140   1.098  0.00  0.00     0.053 C 
ATOM      9  C   UNL d   1       4.489   0.224   2.218  0.00  0.00     0.018 C 
ENDBRANCH   1   8
TORSDOF 1
ENDMDL
