MODEL 1
REMARK minimizedAffinity 9.70274925
REMARK minimizedRMSD -1
REMARK  1 active torsions:
REMARK  status: ('A' for Active; 'I' for Inactive)
REMARK    1  A    between atoms: C1_2  and  C2_3 
ROOT
ATOM      1  C2  UNL d   1       2.421   0.235  -1.529  0.00  0.00    -0.073 A 
ATOM      2  C3  UNL d   1       1.536   1.314  -1.419  0.00  0.00    -0.002 A 
ATOM      3  C4  UNL d   1       1.553   2.127  -0.285  0.00  0.00     0.004 A 
ATOM      4  C5  UNL d   1       2.457   1.874   0.747  0.00  0.00    -0.004 A 
ATOM      5  C6  UNL d   1       3.357   0.807   0.650  0.00  0.00    -0.075 A 
ATOM      6  C7  UNL d   1       4.334   0.520   1.752  0.00  0.00     0.076 C 
ATOM      7  C8  UNL d   1       3.332  -0.006  -0.491  0.00  0.00     0.001 A 
ENDROOT
BRANCH   1   8
ATOM      8  C1  UNL d   1       2.411  -0.641  -2.755  0.00  0.00     0.053 C 
ATOM      9  C   UNL d   1       3.621  -0.395  -3.641  0.00  0.00     0.018 C 
ENDBRANCH   1   8
TORSDOF 1
ENDMDL
