MODEL 1
REMARK minimizedAffinity 10.5987148
REMARK minimizedRMSD -1
REMARK  1 active torsions:
REMARK  status: ('A' for Active; 'I' for Inactive)
REMARK    1  A    between atoms: C1_2  and  C2_3 
ROOT
ATOM      1  C2  UNL d   1      -4.859   3.153   5.323  0.00  0.00    -0.073 A 
ATOM      2  C3  UNL d   1      -5.619   2.192   6.000  0.00  0.00    -0.002 A 
ATOM      3  C4  UNL d   1      -5.960   0.993   5.372  0.00  0.00     0.004 A 
ATOM      4  C5  UNL d   1      -5.539   0.740   4.067  0.00  0.00    -0.004 A 
ATOM      5  C6  UNL d   1      -4.769   1.682   3.378  0.00  0.00    -0.075 A 
ATOM      6  C7  UNL d   1      -4.310   1.425   1.973  0.00  0.00     0.076 C 
ATOM      7  C8  UNL d   1      -4.433   2.885   4.014  0.00  0.00     0.001 A 
ENDROOT
BRANCH   1   8
ATOM      8  C1  UNL d   1      -4.483   4.446   5.999  0.00  0.00     0.053 C 
ATOM      9  C   UNL d   1      -3.331   5.143   5.294  0.00  0.00     0.018 C 
ENDBRANCH   1   8
TORSDOF 1
ENDMDL
