MODEL 1
REMARK minimizedAffinity 6.572227
REMARK minimizedRMSD -1
REMARK  1 active torsions:
REMARK  status: ('A' for Active; 'I' for Inactive)
REMARK    1  A    between atoms: C1_2  and  C2_3 
ROOT
ATOM      1  C2  UNL d   1       2.731   1.799  -2.680  0.00  0.00    -0.073 A 
ATOM      2  C3  UNL d   1       3.562   1.602  -3.789  0.00  0.00    -0.002 A 
ATOM      3  C4  UNL d   1       3.462   2.437  -4.902  0.00  0.00     0.004 A 
ATOM      4  C5  UNL d   1       2.536   3.481  -4.916  0.00  0.00    -0.004 A 
ATOM      5  C6  UNL d   1       1.705   3.701  -3.813  0.00  0.00    -0.075 A 
ATOM      6  C7  UNL d   1       0.703   4.818  -3.813  0.00  0.00     0.076 C 
ATOM      7  C8  UNL d   1       1.810   2.856  -2.700  0.00  0.00     0.001 A 
ENDROOT
BRANCH   1   8
ATOM      8  C1  UNL d   1       2.840   0.904  -1.473  0.00  0.00     0.053 C 
ATOM      9  C   UNL d   1       3.107   1.692  -0.201  0.00  0.00     0.018 C 
ENDBRANCH   1   8
TORSDOF 1
ENDMDL
