MODEL 1
REMARK minimizedAffinity 9.19986629
REMARK minimizedRMSD -1
REMARK  1 active torsions:
REMARK  status: ('A' for Active; 'I' for Inactive)
REMARK    1  A    between atoms: C1_2  and  C2_3 
ROOT
ATOM      1  C2  UNL d   1      -1.087   2.286  -3.668  0.00  0.00    -0.073 A 
ATOM      2  C3  UNL d   1      -0.438   2.105  -2.441  0.00  0.00    -0.002 A 
ATOM      3  C4  UNL d   1       0.937   2.319  -2.333  0.00  0.00     0.004 A 
ATOM      4  C5  UNL d   1       1.675   2.721  -3.447  0.00  0.00    -0.004 A 
ATOM      5  C6  UNL d   1       1.042   2.919  -4.678  0.00  0.00    -0.075 A 
ATOM      6  C7  UNL d   1       1.821   3.350  -5.886  0.00  0.00     0.076 C 
ATOM      7  C8  UNL d   1      -0.339   2.700  -4.779  0.00  0.00     0.001 A 
ENDROOT
BRANCH   1   8
ATOM      8  C1  UNL d   1      -2.572   2.063  -3.788  0.00  0.00     0.053 C 
ATOM      9  C   UNL d   1      -2.918   1.137  -4.943  0.00  0.00     0.018 C 
ENDBRANCH   1   8
TORSDOF 1
ENDMDL
