MODEL 1
REMARK minimizedAffinity -3.23701525
REMARK minimizedRMSD -1
REMARK  1 active torsions:
REMARK  status: ('A' for Active; 'I' for Inactive)
REMARK    1  A    between atoms: C1_2  and  C2_3 
ROOT
ATOM      1  C2  UNL d   1      -0.481   2.631  -0.356  0.00  0.00    -0.077 A 
ATOM      2  C3  UNL d   1      -0.817   1.892   0.787  0.00  0.00     0.002 A 
ATOM      3  C4  UNL d   1      -1.903   2.271   1.579  0.00  0.00     0.002 A 
ATOM      4  C5  UNL d   1      -2.663   3.387   1.235  0.00  0.00    -0.004 A 
ATOM      5  C6  UNL d   1      -2.335   4.130   0.101  0.00  0.00     0.002 A 
ATOM      6  C7  UNL d   1      -1.249   3.753  -0.691  0.00  0.00     0.002 A 
ENDROOT
BRANCH   1   7
ATOM      7  C1  UNL d   1       0.659   2.195  -1.238  0.00  0.00     0.055 C 
ATOM      8  C   UNL d   1       0.916   0.700  -1.114  0.00  0.00     0.019 C 
ENDBRANCH   1   7
TORSDOF 1
ENDMDL
