MODEL 1
REMARK minimizedAffinity -1.9158541
REMARK minimizedRMSD -1
REMARK  1 active torsions:
REMARK  status: ('A' for Active; 'I' for Inactive)
REMARK    1  A    between atoms: C1_2  and  C2_3 
ROOT
ATOM      1  C2  UNL d   1      -2.197   2.637   0.398  0.00  0.00    -0.077 A 
ATOM      2  C3  UNL d   1      -2.252   3.980  -0.001  0.00  0.00     0.002 A 
ATOM      3  C4  UNL d   1      -1.131   4.595  -0.563  0.00  0.00     0.002 A 
ATOM      4  C5  UNL d   1       0.049   3.875  -0.734  0.00  0.00    -0.004 A 
ATOM      5  C6  UNL d   1       0.114   2.540  -0.337  0.00  0.00     0.002 A 
ATOM      6  C7  UNL d   1      -1.004   1.923   0.225  0.00  0.00     0.002 A 
ENDROOT
BRANCH   1   7
ATOM      7  C1  UNL d   1      -3.419   1.957   0.959  0.00  0.00     0.055 C 
ATOM      8  C   UNL d   1      -4.062   1.039  -0.070  0.00  0.00     0.019 C 
ENDBRANCH   1   7
TORSDOF 1
ENDMDL
