MODEL 1
REMARK minimizedAffinity -2.27345538
REMARK minimizedRMSD -1
REMARK  1 active torsions:
REMARK  status: ('A' for Active; 'I' for Inactive)
REMARK    1  A    between atoms: C1_2  and  C2_3 
ROOT
ATOM      1  C2  UNL d   1      -1.090   2.543   0.583  0.00  0.00    -0.077 A 
ATOM      2  C3  UNL d   1      -0.873   1.541  -0.374  0.00  0.00     0.002 A 
ATOM      3  C4  UNL d   1      -0.218   1.837  -1.571  0.00  0.00     0.002 A 
ATOM      4  C5  UNL d   1       0.229   3.133  -1.821  0.00  0.00    -0.004 A 
ATOM      5  C6  UNL d   1       0.016   4.137  -0.877  0.00  0.00     0.002 A 
ATOM      6  C7  UNL d   1      -0.639   3.843   0.320  0.00  0.00     0.002 A 
ENDROOT
BRANCH   1   7
ATOM      7  C1  UNL d   1      -1.752   2.215   1.895  0.00  0.00     0.055 C 
ATOM      8  C   UNL d   1      -1.085   1.025   2.570  0.00  0.00     0.019 C 
ENDBRANCH   1   7
TORSDOF 1
ENDMDL
