MODEL 1
REMARK minimizedAffinity 1.75078654
REMARK minimizedRMSD -1
REMARK  1 active torsions:
REMARK  status: ('A' for Active; 'I' for Inactive)
REMARK    1  A    between atoms: C1_2  and  C2_3 
ROOT
ATOM      1  C2  UNL d   1       2.888  -1.214   0.108  0.00  0.00    -0.077 A 
ATOM      2  C3  UNL d   1       2.672  -2.597   0.036  0.00  0.00     0.002 A 
ATOM      3  C4  UNL d   1       3.744  -3.471  -0.153  0.00  0.00     0.002 A 
ATOM      4  C5  UNL d   1       5.040  -2.971  -0.267  0.00  0.00    -0.004 A 
ATOM      5  C6  UNL d   1       5.265  -1.597  -0.198  0.00  0.00     0.002 A 
ATOM      6  C7  UNL d   1       4.194  -0.722  -0.010  0.00  0.00     0.002 A 
ENDROOT
BRANCH   1   7
ATOM      7  C1  UNL d   1       1.738  -0.274   0.362  0.00  0.00     0.055 C 
ATOM      8  C   UNL d   1       1.209   0.317  -0.937  0.00  0.00     0.019 C 
ENDBRANCH   1   7
TORSDOF 1
ENDMDL
