MODEL 1
REMARK minimizedAffinity -2.69266009
REMARK minimizedRMSD -1
REMARK  1 active torsions:
REMARK  status: ('A' for Active; 'I' for Inactive)
REMARK    1  A    between atoms: C1_2  and  C2_3 
ROOT
ATOM      1  C2  UNL d   1       0.601   1.522  -0.696  0.00  0.00    -0.077 A 
ATOM      2  C3  UNL d   1       0.998   2.629  -1.459  0.00  0.00     0.002 A 
ATOM      3  C4  UNL d   1       0.622   3.919  -1.080  0.00  0.00     0.002 A 
ATOM      4  C5  UNL d   1      -0.150   4.114   0.064  0.00  0.00    -0.004 A 
ATOM      5  C6  UNL d   1      -0.552   3.019   0.827  0.00  0.00     0.002 A 
ATOM      6  C7  UNL d   1      -0.178   1.729   0.450  0.00  0.00     0.002 A 
ENDROOT
BRANCH   1   7
ATOM      7  C1  UNL d   1       1.047   0.134  -1.075  0.00  0.00     0.055 C 
ATOM      8  C   UNL d   1       0.173  -0.447  -2.177  0.00  0.00     0.019 C 
ENDBRANCH   1   7
TORSDOF 1
ENDMDL
