MODEL 1
REMARK minimizedAffinity -3.91401982
REMARK minimizedRMSD -1
REMARK  1 active torsions:
REMARK  status: ('A' for Active; 'I' for Inactive)
REMARK    1  A    between atoms: C1_2  and  C2_3 
ROOT
ATOM      1  C2  UNL d   1      -0.124   2.084  -1.099  0.00  0.00    -0.077 A 
ATOM      2  C3  UNL d   1      -0.480   1.810   0.229  0.00  0.00     0.002 A 
ATOM      3  C4  UNL d   1      -1.285   2.700   0.943  0.00  0.00     0.002 A 
ATOM      4  C5  UNL d   1      -1.746   3.866   0.335  0.00  0.00    -0.004 A 
ATOM      5  C6  UNL d   1      -1.396   4.149  -0.985  0.00  0.00     0.002 A 
ATOM      6  C7  UNL d   1      -0.590   3.261  -1.699  0.00  0.00     0.002 A 
ENDROOT
BRANCH   1   7
ATOM      7  C1  UNL d   1       0.704   1.102  -1.886  0.00  0.00     0.055 C 
ATOM      8  C   UNL d   1      -0.143  -0.058  -2.389  0.00  0.00     0.019 C 
ENDBRANCH   1   7
TORSDOF 1
ENDMDL
