MODEL 1
REMARK minimizedAffinity 2.11870289
REMARK minimizedRMSD -1
REMARK  1 active torsions:
REMARK  status: ('A' for Active; 'I' for Inactive)
REMARK    1  A    between atoms: C1_2  and  C2_3 
ROOT
ATOM      1  C2  UNL d   1      -0.383   1.259  -0.887  0.00  0.00    -0.077 A 
ATOM      2  C3  UNL d   1       0.885   0.671  -0.766  0.00  0.00     0.002 A 
ATOM      3  C4  UNL d   1       1.171  -0.531  -1.416  0.00  0.00     0.002 A 
ATOM      4  C5  UNL d   1       0.196  -1.153  -2.194  0.00  0.00    -0.004 A 
ATOM      5  C6  UNL d   1      -1.068  -0.578  -2.318  0.00  0.00     0.002 A 
ATOM      6  C7  UNL d   1      -1.356   0.623  -1.668  0.00  0.00     0.002 A 
ENDROOT
BRANCH   1   7
ATOM      7  C1  UNL d   1      -0.677   2.580  -0.226  0.00  0.00     0.055 C 
ATOM      8  C   UNL d   1      -1.148   2.390   1.208  0.00  0.00     0.019 C 
ENDBRANCH   1   7
TORSDOF 1
ENDMDL
