MODEL 1
REMARK minimizedAffinity 4.28843594
REMARK minimizedRMSD -1
REMARK  1 active torsions:
REMARK  status: ('A' for Active; 'I' for Inactive)
REMARK    1  A    between atoms: C1_2  and  C2_3 
ROOT
ATOM      1  C2  UNL d   1      -0.846   2.414   1.027  0.00  0.00    -0.077 A 
ATOM      2  C3  UNL d   1      -2.017   1.744   1.410  0.00  0.00     0.002 A 
ATOM      3  C4  UNL d   1      -1.948   0.613   2.225  0.00  0.00     0.002 A 
ATOM      4  C5  UNL d   1      -0.713   0.144   2.667  0.00  0.00    -0.004 A 
ATOM      5  C6  UNL d   1       0.457   0.802   2.290  0.00  0.00     0.002 A 
ATOM      6  C7  UNL d   1       0.391   1.932   1.474  0.00  0.00     0.002 A 
ENDROOT
BRANCH   1   7
ATOM      7  C1  UNL d   1      -0.921   3.663   0.188  0.00  0.00     0.055 C 
ATOM      8  C   UNL d   1       0.462   4.246  -0.061  0.00  0.00     0.019 C 
ENDBRANCH   1   7
TORSDOF 1
ENDMDL
