MODEL 1
REMARK minimizedAffinity -0.137387693
REMARK minimizedRMSD -1
REMARK  1 active torsions:
REMARK  status: ('A' for Active; 'I' for Inactive)
REMARK    1  A    between atoms: C1_2  and  C2_3 
ROOT
ATOM      1  C2  UNL d   1      -0.071   2.048  -0.262  0.00  0.00    -0.077 A 
ATOM      2  C3  UNL d   1       0.231   3.417  -0.268  0.00  0.00     0.002 A 
ATOM      3  C4  UNL d   1      -0.117   4.222   0.818  0.00  0.00     0.002 A 
ATOM      4  C5  UNL d   1      -0.765   3.666   1.920  0.00  0.00    -0.004 A 
ATOM      5  C6  UNL d   1      -1.071   2.306   1.934  0.00  0.00     0.002 A 
ATOM      6  C7  UNL d   1      -0.725   1.500   0.848  0.00  0.00     0.002 A 
ENDROOT
BRANCH   1   7
ATOM      7  C1  UNL d   1       0.347   1.169  -1.412  0.00  0.00     0.055 C 
ATOM      8  C   UNL d   1       1.468   0.223  -1.006  0.00  0.00     0.019 C 
ENDBRANCH   1   7
TORSDOF 1
ENDMDL
