MODEL 1
REMARK minimizedAffinity 2.06880569
REMARK minimizedRMSD -1
REMARK  1 active torsions:
REMARK  status: ('A' for Active; 'I' for Inactive)
REMARK    1  A    between atoms: C1_2  and  C2_3 
ROOT
ATOM      1  C2  UNL d   1      -0.273   3.012   0.119  0.00  0.00    -0.077 A 
ATOM      2  C3  UNL d   1      -0.078   3.025  -1.270  0.00  0.00     0.002 A 
ATOM      3  C4  UNL d   1       0.421   4.166  -1.901  0.00  0.00     0.002 A 
ATOM      4  C5  UNL d   1       0.732   5.300  -1.153  0.00  0.00    -0.004 A 
ATOM      5  C6  UNL d   1       0.539   5.297   0.228  0.00  0.00     0.002 A 
ATOM      6  C7  UNL d   1       0.039   4.158   0.861  0.00  0.00     0.002 A 
ENDROOT
BRANCH   1   7
ATOM      7  C1  UNL d   1      -0.765   1.766   0.808  0.00  0.00     0.055 C 
ATOM      8  C   UNL d   1      -1.210   2.061   2.233  0.00  0.00     0.019 C 
ENDBRANCH   1   7
TORSDOF 1
ENDMDL
