MODEL 1
REMARK minimizedAffinity 5.75046539
REMARK minimizedRMSD -1
REMARK  1 active torsions:
REMARK  status: ('A' for Active; 'I' for Inactive)
REMARK    1  A    between atoms: C1_2  and  C2_3 
ROOT
ATOM      1  C2  UNL d   1      -1.040   2.166   0.851  0.00  0.00    -0.077 A 
ATOM      2  C3  UNL d   1      -0.773   3.534   1.005  0.00  0.00     0.002 A 
ATOM      3  C4  UNL d   1      -0.205   4.265  -0.040  0.00  0.00     0.002 A 
ATOM      4  C5  UNL d   1       0.099   3.637  -1.246  0.00  0.00    -0.004 A 
ATOM      5  C6  UNL d   1      -0.160   2.277  -1.408  0.00  0.00     0.002 A 
ATOM      6  C7  UNL d   1      -0.728   1.545  -0.365  0.00  0.00     0.002 A 
ENDROOT
BRANCH   1   7
ATOM      7  C1  UNL d   1      -1.699   1.387   1.960  0.00  0.00     0.055 C 
ATOM      8  C   UNL d   1      -0.818   0.238   2.428  0.00  0.00     0.019 C 
ENDBRANCH   1   7
TORSDOF 1
ENDMDL
