MODEL 1
REMARK minimizedAffinity 7.29093504
REMARK minimizedRMSD -1
REMARK  1 active torsions:
REMARK  status: ('A' for Active; 'I' for Inactive)
REMARK    1  A    between atoms: C1_2  and  C2_3 
ROOT
ATOM      1  C2  UNL d   1      -0.161   0.901  -2.159  0.00  0.00    -0.077 A 
ATOM      2  C3  UNL d   1       0.322  -0.200  -2.881  0.00  0.00     0.002 A 
ATOM      3  C4  UNL d   1      -0.535  -1.244  -3.233  0.00  0.00     0.002 A 
ATOM      4  C5  UNL d   1      -1.880  -1.196  -2.873  0.00  0.00    -0.004 A 
ATOM      5  C6  UNL d   1      -2.369  -0.107  -2.153  0.00  0.00     0.002 A 
ATOM      6  C7  UNL d   1      -1.514   0.937  -1.799  0.00  0.00     0.002 A 
ENDROOT
BRANCH   1   7
ATOM      7  C1  UNL d   1       0.751   2.051  -1.821  0.00  0.00     0.055 C 
ATOM      8  C   UNL d   1      -0.027   3.219  -1.231  0.00  0.00     0.019 C 
ENDBRANCH   1   7
TORSDOF 1
ENDMDL
