MODEL 1
REMARK minimizedAffinity 0.376919776
REMARK minimizedRMSD -1
REMARK  1 active torsions:
REMARK  status: ('A' for Active; 'I' for Inactive)
REMARK    1  A    between atoms: C1_2  and  C2_3 
ROOT
ATOM      1  C2  UNL d   1       0.166   1.931  -0.710  0.00  0.00    -0.077 A 
ATOM      2  C3  UNL d   1      -0.042   3.300  -0.928  0.00  0.00     0.002 A 
ATOM      3  C4  UNL d   1      -0.886   4.028  -0.087  0.00  0.00     0.002 A 
ATOM      4  C5  UNL d   1      -1.525   3.398   0.978  0.00  0.00    -0.004 A 
ATOM      5  C6  UNL d   1      -1.326   2.036   1.202  0.00  0.00     0.002 A 
ATOM      6  C7  UNL d   1      -0.484   1.306   0.363  0.00  0.00     0.002 A 
ENDROOT
BRANCH   1   7
ATOM      7  C1  UNL d   1       1.114   1.154  -1.585  0.00  0.00     0.055 C 
ATOM      8  C   UNL d   1       1.793   0.034  -0.809  0.00  0.00     0.019 C 
ENDBRANCH   1   7
TORSDOF 1
ENDMDL
