MODEL 1
REMARK minimizedAffinity 15.2364912
REMARK minimizedRMSD -1
REMARK  0 active torsions:
REMARK  status: ('A' for Active; 'I' for Inactive)
ROOT
ATOM      1  C   UNL d   1       2.581  -0.359  -0.725  0.00  0.00    -0.002 A 
ATOM      2  C1  UNL d   1       3.011  -0.078   0.564  0.00  0.00     0.010 A 
ATOM      3  C2  UNL d   1       4.058   0.819   0.784  0.00  0.00     0.041 A 
ATOM      4  C3  UNL d   1       4.671   1.436  -0.324  0.00  0.00    -0.075 A 
ATOM      5  S   UNL d   1       5.971   2.569  -0.296  0.00  0.00     0.015 SA
ATOM      6  C4  UNL d   1       5.985   2.707  -1.995  0.00  0.00     0.022 A 
ATOM      7  C5  UNL d   1       5.029   1.915  -2.585  0.00  0.00     0.026 A 
ATOM      8  C6  UNL d   1       4.255   1.170  -1.632  0.00  0.00    -0.082 A 
ATOM      9  C7  UNL d   1       3.191   0.255  -1.822  0.00  0.00     0.045 A 
ENDROOT
TORSDOF 0
ENDMDL
