MODEL 1
REMARK minimizedAffinity 22.7948837
REMARK minimizedRMSD -1
REMARK  0 active torsions:
REMARK  status: ('A' for Active; 'I' for Inactive)
ROOT
ATOM      1  C   UNL d   1      -0.709   4.429   2.041  0.00  0.00    -0.002 A 
ATOM      2  C1  UNL d   1       0.169   4.191   0.992  0.00  0.00     0.010 A 
ATOM      3  C2  UNL d   1       1.292   3.382   1.176  0.00  0.00     0.041 A 
ATOM      4  C3  UNL d   1       1.520   2.809   2.443  0.00  0.00    -0.075 A 
ATOM      5  S   UNL d   1       2.828   1.784   2.900  0.00  0.00     0.015 SA
ATOM      6  C4  UNL d   1       2.253   1.637   4.498  0.00  0.00     0.022 A 
ATOM      7  C5  UNL d   1       1.092   2.347   4.695  0.00  0.00     0.026 A 
ATOM      8  C6  UNL d   1       0.650   3.033   3.514  0.00  0.00    -0.082 A 
ATOM      9  C7  UNL d   1      -0.479   3.859   3.296  0.00  0.00     0.045 A 
ENDROOT
TORSDOF 0
ENDMDL
