MODEL 1
REMARK minimizedAffinity 9.20523548
REMARK minimizedRMSD -1
REMARK  0 active torsions:
REMARK  status: ('A' for Active; 'I' for Inactive)
ROOT
ATOM      1  C   UNL d   1       5.997   2.662  -1.624  0.00  0.00    -0.002 A 
ATOM      2  C1  UNL d   1       5.326   2.017  -2.654  0.00  0.00     0.010 A 
ATOM      3  C2  UNL d   1       4.189   1.252  -2.391  0.00  0.00     0.041 A 
ATOM      4  C3  UNL d   1       3.730   1.146  -1.063  0.00  0.00    -0.075 A 
ATOM      5  S   UNL d   1       2.358   0.264  -0.505  0.00  0.00     0.015 SA
ATOM      6  C4  UNL d   1       2.629   0.723   1.114  0.00  0.00     0.022 A 
ATOM      7  C5  UNL d   1       3.735   1.529   1.244  0.00  0.00     0.026 A 
ATOM      8  C6  UNL d   1       4.388   1.786  -0.009  0.00  0.00    -0.082 A 
ATOM      9  C7  UNL d   1       5.539   2.554  -0.308  0.00  0.00     0.045 A 
ENDROOT
TORSDOF 0
ENDMDL
