MODEL 1
REMARK minimizedAffinity 8.98178864
REMARK minimizedRMSD -1
REMARK  0 active torsions:
REMARK  status: ('A' for Active; 'I' for Inactive)
ROOT
ATOM      1  C   UNL d   1       3.442   1.219   0.892  0.00  0.00    -0.002 A 
ATOM      2  C1  UNL d   1       2.676   0.378   0.098  0.00  0.00     0.010 A 
ATOM      3  C2  UNL d   1       3.003   0.177  -1.245  0.00  0.00     0.041 A 
ATOM      4  C3  UNL d   1       4.125   0.841  -1.780  0.00  0.00    -0.075 A 
ATOM      5  S   UNL d   1       4.716   0.745  -3.397  0.00  0.00     0.015 SA
ATOM      6  C4  UNL d   1       6.000   1.817  -3.070  0.00  0.00     0.022 A 
ATOM      7  C5  UNL d   1       5.993   2.248  -1.764  0.00  0.00     0.026 A 
ATOM      8  C6  UNL d   1       4.912   1.692  -0.999  0.00  0.00    -0.082 A 
ATOM      9  C7  UNL d   1       4.554   1.875   0.358  0.00  0.00     0.045 A 
ENDROOT
TORSDOF 0
ENDMDL
