MODEL 1
REMARK minimizedAffinity 17.2122211
REMARK minimizedRMSD -1
REMARK  0 active torsions:
REMARK  status: ('A' for Active; 'I' for Inactive)
ROOT
ATOM      1  C   UNL d   1      -0.015   4.202   0.823  0.00  0.00    -0.002 A 
ATOM      2  C1  UNL d   1       0.955   4.430   1.788  0.00  0.00     0.010 A 
ATOM      3  C2  UNL d   1       2.025   3.547   1.942  0.00  0.00     0.041 A 
ATOM      4  C3  UNL d   1       2.106   2.421   1.099  0.00  0.00    -0.075 A 
ATOM      5  S   UNL d   1       3.328   1.204   1.104  0.00  0.00     0.015 SA
ATOM      6  C4  UNL d   1       2.592   0.354  -0.177  0.00  0.00     0.022 A 
ATOM      7  C5  UNL d   1       1.441   0.969  -0.610  0.00  0.00     0.026 A 
ATOM      8  C6  UNL d   1       1.142   2.171   0.118  0.00  0.00    -0.082 A 
ATOM      9  C7  UNL d   1       0.069   3.084  -0.012  0.00  0.00     0.045 A 
ENDROOT
TORSDOF 0
ENDMDL
