MODEL 1
REMARK minimizedAffinity 8.29439259
REMARK minimizedRMSD -1
REMARK  0 active torsions:
REMARK  status: ('A' for Active; 'I' for Inactive)
ROOT
ATOM      1  C1  BNZ d   1      -0.915  -2.425  -3.896  0.00  0.00     0.000 A 
ATOM      2  C2  BNZ d   1      -1.882  -3.395  -3.899  0.00  0.00     0.000 A 
ATOM      3  C3  BNZ d   1      -1.980  -4.282  -4.934  0.00  0.00     0.000 A 
ATOM      4  C4  BNZ d   1      -1.138  -4.174  -5.982  0.00  0.00     0.000 A 
ATOM      5  C5  BNZ d   1      -0.164  -3.195  -5.999  0.00  0.00     0.000 A 
ATOM      6  C6  BNZ d   1      -0.044  -2.328  -4.937  0.00  0.00     0.000 A 
ENDROOT
TORSDOF 0
ENDMDL
