MODEL 1
REMARK minimizedAffinity 4.68072414
REMARK minimizedRMSD -1
REMARK  0 active torsions:
REMARK  status: ('A' for Active; 'I' for Inactive)
ROOT
ATOM      1  C1  BNZ d   1       2.741  -1.619  -5.615  0.00  0.00     0.000 A 
ATOM      2  C2  BNZ d   1       1.576  -2.226  -6.000  0.00  0.00     0.000 A 
ATOM      3  C3  BNZ d   1       0.374  -1.593  -5.849  0.00  0.00     0.000 A 
ATOM      4  C4  BNZ d   1       0.334  -0.373  -5.278  0.00  0.00     0.000 A 
ATOM      5  C5  BNZ d   1       1.500   0.249  -4.876  0.00  0.00     0.000 A 
ATOM      6  C6  BNZ d   1       2.712  -0.375  -5.065  0.00  0.00     0.000 A 
ENDROOT
TORSDOF 0
ENDMDL
