MODEL 1
REMARK minimizedAffinity 10.4903088
REMARK minimizedRMSD -1
REMARK  0 active torsions:
REMARK  status: ('A' for Active; 'I' for Inactive)
ROOT
ATOM      1  C1  BNZ d   1      -1.455  -2.780  -3.956  0.00  0.00     0.000 A 
ATOM      2  C2  BNZ d   1      -1.041  -1.524  -3.600  0.00  0.00     0.000 A 
ATOM      3  C3  BNZ d   1      -0.274  -0.774  -4.446  0.00  0.00     0.000 A 
ATOM      4  C4  BNZ d   1       0.111  -1.294  -5.630  0.00  0.00     0.000 A 
ATOM      5  C5  BNZ d   1      -0.291  -2.562  -6.000  0.00  0.00     0.000 A 
ATOM      6  C6  BNZ d   1      -1.096  -3.300  -5.161  0.00  0.00     0.000 A 
ENDROOT
TORSDOF 0
ENDMDL
