MODEL 1
REMARK minimizedAffinity 7.51496792
REMARK minimizedRMSD -1
REMARK  0 active torsions:
REMARK  status: ('A' for Active; 'I' for Inactive)
ROOT
ATOM      1  C1  BNZ d   1       1.818   0.250   2.615  0.00  0.00     0.000 A 
ATOM      2  C2  BNZ d   1       2.119  -0.739   3.513  0.00  0.00     0.000 A 
ATOM      3  C3  BNZ d   1       1.137  -1.534   4.034  0.00  0.00     0.000 A 
ATOM      4  C4  BNZ d   1      -0.148  -1.313   3.688  0.00  0.00     0.000 A 
ATOM      5  C5  BNZ d   1      -0.469  -0.314   2.791  0.00  0.00     0.000 A 
ATOM      6  C6  BNZ d   1       0.527   0.459   2.238  0.00  0.00     0.000 A 
ENDROOT
TORSDOF 0
ENDMDL
