MODEL 1
REMARK minimizedAffinity 2.76713943
REMARK minimizedRMSD -1
REMARK  0 active torsions:
REMARK  status: ('A' for Active; 'I' for Inactive)
ROOT
ATOM      1  C1  BNZ d   1       3.032  -1.578  -5.457  0.00  0.00     0.000 A 
ATOM      2  C2  BNZ d   1       2.666  -0.387  -4.890  0.00  0.00     0.000 A 
ATOM      3  C3  BNZ d   1       1.355  -0.004  -4.850  0.00  0.00     0.000 A 
ATOM      4  C4  BNZ d   1       0.416  -0.792  -5.413  0.00  0.00     0.000 A 
ATOM      5  C5  BNZ d   1       0.770  -1.993  -5.996  0.00  0.00     0.000 A 
ATOM      6  C6  BNZ d   1       2.086  -2.393  -6.000  0.00  0.00     0.000 A 
ENDROOT
TORSDOF 0
ENDMDL
