MODEL 1
REMARK minimizedAffinity 6.60471964
REMARK minimizedRMSD -1
REMARK  0 active torsions:
REMARK  status: ('A' for Active; 'I' for Inactive)
ROOT
ATOM      1  C1  BNZ d   1       1.693  -2.568  -5.284  0.00  0.00     0.000 A 
ATOM      2  C2  BNZ d   1       0.535  -1.842  -5.363  0.00  0.00     0.000 A 
ATOM      3  C3  BNZ d   1       0.568  -0.481  -5.489  0.00  0.00     0.000 A 
ATOM      4  C4  BNZ d   1       1.758   0.154  -5.495  0.00  0.00     0.000 A 
ATOM      5  C5  BNZ d   1       2.934  -0.562  -5.407  0.00  0.00     0.000 A 
ATOM      6  C6  BNZ d   1       2.898  -1.935  -5.320  0.00  0.00     0.000 A 
ENDROOT
TORSDOF 0
ENDMDL
