MODEL 1
REMARK minimizedAffinity 10.3132696
REMARK minimizedRMSD -1
REMARK  0 active torsions:
REMARK  status: ('A' for Active; 'I' for Inactive)
ROOT
ATOM      1  C1  BNZ d   1       1.840  -0.007  -4.502  0.00  0.00     0.000 A 
ATOM      2  C2  BNZ d   1       0.723  -0.000  -3.709  0.00  0.00     0.000 A 
ATOM      3  C3  BNZ d   1      -0.376  -0.742  -4.042  0.00  0.00     0.000 A 
ATOM      4  C4  BNZ d   1      -0.372  -1.457  -5.185  0.00  0.00     0.000 A 
ATOM      5  C5  BNZ d   1       0.743  -1.467  -6.000  0.00  0.00     0.000 A 
ATOM      6  C6  BNZ d   1       1.862  -0.750  -5.642  0.00  0.00     0.000 A 
ENDROOT
TORSDOF 0
ENDMDL
