MODEL 1
REMARK minimizedAffinity 6.11181545
REMARK minimizedRMSD -1
REMARK  0 active torsions:
REMARK  status: ('A' for Active; 'I' for Inactive)
ROOT
ATOM      1  C1  BNZ d   1       6.000   4.529   4.123  0.00  0.00     0.000 A 
ATOM      2  C2  BNZ d   1       6.000   5.722   3.451  0.00  0.00     0.000 A 
ATOM      3  C3  BNZ d   1       5.076   5.977   2.476  0.00  0.00     0.000 A 
ATOM      4  C4  BNZ d   1       4.180   5.025   2.147  0.00  0.00     0.000 A 
ATOM      5  C5  BNZ d   1       4.173   3.813   2.808  0.00  0.00     0.000 A 
ATOM      6  C6  BNZ d   1       5.079   3.575   3.816  0.00  0.00     0.000 A 
ENDROOT
TORSDOF 0
ENDMDL
