MODEL 1
REMARK minimizedAffinity 6.68545485
REMARK minimizedRMSD -1
REMARK  1 active torsions:
REMARK  status: ('A' for Active; 'I' for Inactive)
REMARK    1  A    between atoms: C1_2  and  C2_3 
ROOT
ATOM      1  C2  UNL d   1       0.975   0.935   0.831  0.00  0.00    -0.077 A 
ATOM      2  C3  UNL d   1      -0.047   1.238  -0.079  0.00  0.00     0.002 A 
ATOM      3  C4  UNL d   1      -1.351   1.458   0.370  0.00  0.00     0.002 A 
ATOM      4  C5  UNL d   1      -1.643   1.381   1.730  0.00  0.00    -0.004 A 
ATOM      5  C6  UNL d   1      -0.633   1.078   2.643  0.00  0.00     0.002 A 
ATOM      6  C7  UNL d   1       0.670   0.857   2.196  0.00  0.00     0.002 A 
ENDROOT
BRANCH   1   7
ATOM      7  C1  UNL d   1       2.391   0.746   0.353  0.00  0.00     0.055 C 
ATOM      8  C   UNL d   1       2.680  -0.715   0.041  0.00  0.00     0.019 C 
ENDBRANCH   1   7
TORSDOF 1
ENDMDL
