MODEL 1
REMARK minimizedAffinity 0.13704741
REMARK minimizedRMSD -1
REMARK  1 active torsions:
REMARK  status: ('A' for Active; 'I' for Inactive)
REMARK    1  A    between atoms: C1_2  and  C2_3 
ROOT
ATOM      1  C2  UNL d   1       2.124  -1.760  -0.351  0.00  0.00    -0.077 A 
ATOM      2  C3  UNL d   1       2.361  -0.437   0.049  0.00  0.00     0.002 A 
ATOM      3  C4  UNL d   1       3.386   0.306  -0.540  0.00  0.00     0.002 A 
ATOM      4  C5  UNL d   1       4.178  -0.262  -1.535  0.00  0.00    -0.004 A 
ATOM      5  C6  UNL d   1       3.951  -1.578  -1.939  0.00  0.00     0.002 A 
ATOM      6  C7  UNL d   1       2.928  -2.323  -1.350  0.00  0.00     0.002 A 
ENDROOT
BRANCH   1   7
ATOM      7  C1  UNL d   1       0.988  -2.547   0.248  0.00  0.00     0.055 C 
ATOM      8  C   UNL d   1      -0.023  -2.955  -0.813  0.00  0.00     0.019 C 
ENDBRANCH   1   7
TORSDOF 1
ENDMDL
