MODEL 1
REMARK minimizedAffinity 6.28344917
REMARK minimizedRMSD -1
REMARK  1 active torsions:
REMARK  status: ('A' for Active; 'I' for Inactive)
REMARK    1  A    between atoms: C1_2  and  C2_3 
ROOT
ATOM      1  C2  UNL d   1       2.725  -0.408  -0.261  0.00  0.00    -0.077 A 
ATOM      2  C3  UNL d   1       2.668  -1.013  -1.525  0.00  0.00     0.002 A 
ATOM      3  C4  UNL d   1       2.197  -2.320  -1.661  0.00  0.00     0.002 A 
ATOM      4  C5  UNL d   1       1.777  -3.031  -0.539  0.00  0.00    -0.004 A 
ATOM      5  C6  UNL d   1       1.832  -2.439   0.722  0.00  0.00     0.002 A 
ATOM      6  C7  UNL d   1       2.303  -1.133   0.860  0.00  0.00     0.002 A 
ENDROOT
BRANCH   1   7
ATOM      7  C1  UNL d   1       3.186   1.020  -0.119  0.00  0.00     0.055 C 
ATOM      8  C   UNL d   1       4.667   1.158  -0.439  0.00  0.00     0.019 C 
ENDBRANCH   1   7
TORSDOF 1
ENDMDL
