MODEL 1
REMARK minimizedAffinity -0.394404471
REMARK minimizedRMSD -1
REMARK  1 active torsions:
REMARK  status: ('A' for Active; 'I' for Inactive)
REMARK    1  A    between atoms: C1_2  and  C2_3 
ROOT
ATOM      1  C2  UNL d   1       1.187   0.561   0.780  0.00  0.00    -0.077 A 
ATOM      2  C3  UNL d   1       1.116   0.389   2.169  0.00  0.00     0.002 A 
ATOM      3  C4  UNL d   1      -0.040   0.748   2.867  0.00  0.00     0.002 A 
ATOM      4  C5  UNL d   1      -1.133   1.276   2.183  0.00  0.00    -0.004 A 
ATOM      5  C6  UNL d   1      -1.071   1.453   0.802  0.00  0.00     0.002 A 
ATOM      6  C7  UNL d   1       0.083   1.096   0.103  0.00  0.00     0.002 A 
ENDROOT
BRANCH   1   7
ATOM      7  C1  UNL d   1       2.413   0.129   0.019  0.00  0.00     0.055 C 
ATOM      8  C   UNL d   1       3.524   1.164   0.126  0.00  0.00     0.019 C 
ENDBRANCH   1   7
TORSDOF 1
ENDMDL
