MODEL 1
REMARK minimizedAffinity 5.23685884
REMARK minimizedRMSD -1
REMARK  1 active torsions:
REMARK  status: ('A' for Active; 'I' for Inactive)
REMARK    1  A    between atoms: C1_2  and  C2_3 
ROOT
ATOM      1  C2  UNL d   1       3.858   0.563  -0.200  0.00  0.00    -0.077 A 
ATOM      2  C3  UNL d   1       2.792   1.224   0.426  0.00  0.00     0.002 A 
ATOM      3  C4  UNL d   1       1.672   0.509   0.855  0.00  0.00     0.002 A 
ATOM      4  C5  UNL d   1       1.610  -0.870   0.666  0.00  0.00    -0.004 A 
ATOM      5  C6  UNL d   1       2.664  -1.536   0.042  0.00  0.00     0.002 A 
ATOM      6  C7  UNL d   1       3.783  -0.823  -0.388  0.00  0.00     0.002 A 
ENDROOT
BRANCH   1   7
ATOM      7  C1  UNL d   1       5.088   1.325  -0.619  0.00  0.00     0.055 C 
ATOM      8  C   UNL d   1       5.293   2.563   0.243  0.00  0.00     0.019 C 
ENDBRANCH   1   7
TORSDOF 1
ENDMDL
