MODEL 1
REMARK minimizedAffinity 3.24214172
REMARK minimizedRMSD -1
REMARK  1 active torsions:
REMARK  status: ('A' for Active; 'I' for Inactive)
REMARK    1  A    between atoms: C1_2  and  C2_3 
ROOT
ATOM      1  C2  UNL d   1       0.897   0.773   0.477  0.00  0.00    -0.077 A 
ATOM      2  C3  UNL d   1       0.659   0.735   1.858  0.00  0.00     0.002 A 
ATOM      3  C4  UNL d   1      -0.554   1.188   2.379  0.00  0.00     0.002 A 
ATOM      4  C5  UNL d   1      -1.541   1.678   1.526  0.00  0.00    -0.004 A 
ATOM      5  C6  UNL d   1      -1.314   1.721   0.151  0.00  0.00     0.002 A 
ATOM      6  C7  UNL d   1      -0.101   1.270  -0.371  0.00  0.00     0.002 A 
ENDROOT
BRANCH   1   7
ATOM      7  C1  UNL d   1       2.186   0.239  -0.091  0.00  0.00     0.055 C 
ATOM      8  C   UNL d   1       3.308   1.260   0.028  0.00  0.00     0.019 C 
ENDBRANCH   1   7
TORSDOF 1
ENDMDL
