MODEL 1
REMARK minimizedAffinity -3.35714865
REMARK minimizedRMSD -1
REMARK  1 active torsions:
REMARK  status: ('A' for Active; 'I' for Inactive)
REMARK    1  A    between atoms: C1_2  and  C2_3 
ROOT
ATOM      1  C2  UNL d   1       1.933  -0.776   1.202  0.00  0.00    -0.077 A 
ATOM      2  C3  UNL d   1       2.598  -1.855   0.604  0.00  0.00     0.002 A 
ATOM      3  C4  UNL d   1       3.513  -1.636  -0.428  0.00  0.00     0.002 A 
ATOM      4  C5  UNL d   1       3.774  -0.340  -0.867  0.00  0.00    -0.004 A 
ATOM      5  C6  UNL d   1       3.115   0.740  -0.280  0.00  0.00     0.002 A 
ATOM      6  C7  UNL d   1       2.200   0.523   0.751  0.00  0.00     0.002 A 
ENDROOT
BRANCH   1   7
ATOM      7  C1  UNL d   1       0.982  -1.005   2.348  0.00  0.00     0.055 C 
ATOM      8  C   UNL d   1       0.486   0.311   2.929  0.00  0.00     0.019 C 
ENDBRANCH   1   7
TORSDOF 1
ENDMDL
