MODEL 1
REMARK minimizedAffinity 8.33847237
REMARK minimizedRMSD -1
REMARK  0 active torsions:
REMARK  status: ('A' for Active; 'I' for Inactive)
ROOT
ATOM      1  C4' PXY d   1       1.385  -1.294   2.263  0.00  0.00     0.077 C 
ATOM      2  C1' PXY d   1      -2.070  -1.214  -2.371  0.00  0.00     0.077 C 
ATOM      3  C1  PXY d   1      -1.158  -1.245  -1.160  0.00  0.00    -0.082 A 
ATOM      4  C2  PXY d   1      -1.554  -0.686  -0.028  0.00  0.00     0.003 A 
ATOM      5  C3  PXY d   1      -0.729  -0.677   1.067  0.00  0.00     0.003 A 
ATOM      6  C4  PXY d   1       0.493  -1.294   1.019  0.00  0.00    -0.082 A 
ATOM      7  C5  PXY d   1       0.899  -1.876  -0.129  0.00  0.00     0.003 A 
ATOM      8  C6  PXY d   1       0.064  -1.838  -1.242  0.00  0.00     0.003 A 
ENDROOT
TORSDOF 0
ENDMDL
