MODEL 1
REMARK minimizedAffinity 4.45411158
REMARK minimizedRMSD -1
REMARK  0 active torsions:
REMARK  status: ('A' for Active; 'I' for Inactive)
ROOT
ATOM      1  C4' PXY d   1       1.344  -2.225  -0.589  0.00  0.00     0.077 C 
ATOM      2  C1' PXY d   1       2.156  -1.746   5.114  0.00  0.00     0.077 C 
ATOM      3  C1  PXY d   1       1.953  -1.881   3.618  0.00  0.00    -0.082 A 
ATOM      4  C2  PXY d   1       1.431  -0.874   2.935  0.00  0.00     0.003 A 
ATOM      5  C3  PXY d   1       1.210  -0.991   1.587  0.00  0.00     0.003 A 
ATOM      6  C4  PXY d   1       1.576  -2.130   0.921  0.00  0.00    -0.082 A 
ATOM      7  C5  PXY d   1       2.119  -3.157   1.609  0.00  0.00     0.003 A 
ATOM      8  C6  PXY d   1       2.297  -3.034   2.984  0.00  0.00     0.003 A 
ENDROOT
TORSDOF 0
ENDMDL
