MODEL 1
REMARK minimizedAffinity 7.96386003
REMARK minimizedRMSD -1
REMARK  0 active torsions:
REMARK  status: ('A' for Active; 'I' for Inactive)
ROOT
ATOM      1  C4' PXY d   1      -1.607  -2.595  -0.938  0.00  0.00     0.077 C 
ATOM      2  C1' PXY d   1       2.536  -0.119   2.244  0.00  0.00     0.077 C 
ATOM      3  C1  PXY d   1       1.457  -0.767   1.399  0.00  0.00    -0.082 A 
ATOM      4  C2  PXY d   1       0.192  -0.690   1.780  0.00  0.00     0.003 A 
ATOM      5  C3  PXY d   1      -0.792  -1.298   1.045  0.00  0.00     0.003 A 
ATOM      6  C4  PXY d   1      -0.486  -1.947  -0.121  0.00  0.00    -0.082 A 
ATOM      7  C5  PXY d   1       0.801  -2.021  -0.522  0.00  0.00     0.003 A 
ATOM      8  C6  PXY d   1       1.791  -1.433   0.260  0.00  0.00     0.003 A 
ENDROOT
TORSDOF 0
ENDMDL
