MODEL 1
REMARK minimizedAffinity 11.9945173
REMARK minimizedRMSD -1
REMARK  0 active torsions:
REMARK  status: ('A' for Active; 'I' for Inactive)
ROOT
ATOM      1  C4' PXY d   1       3.419   2.319   0.723  0.00  0.00     0.077 C 
ATOM      2  C1' PXY d   1       1.519  -1.369   4.749  0.00  0.00     0.077 C 
ATOM      3  C1  PXY d   1       2.010  -0.393   3.698  0.00  0.00    -0.082 A 
ATOM      4  C2  PXY d   1       2.420  -0.845   2.525  0.00  0.00     0.003 A 
ATOM      5  C3  PXY d   1       2.897   0.021   1.575  0.00  0.00     0.003 A 
ATOM      6  C4  PXY d   1       2.906   1.370   1.810  0.00  0.00    -0.082 A 
ATOM      7  C5  PXY d   1       2.480   1.841   3.001  0.00  0.00     0.003 A 
ATOM      8  C6  PXY d   1       2.037   0.941   3.967  0.00  0.00     0.003 A 
ENDROOT
TORSDOF 0
ENDMDL
