MODEL 1
REMARK minimizedAffinity -0.557219028
REMARK minimizedRMSD -1
REMARK  0 active torsions:
REMARK  status: ('A' for Active; 'I' for Inactive)
ROOT
ATOM      1  C4' PXY d   1       3.358  -0.690   1.182  0.00  0.00     0.077 C 
ATOM      2  C1' PXY d   1       1.619  -3.373   5.998  0.00  0.00     0.077 C 
ATOM      3  C1  PXY d   1       2.063  -2.664   4.733  0.00  0.00    -0.082 A 
ATOM      4  C2  PXY d   1       3.115  -3.113   4.068  0.00  0.00     0.003 A 
ATOM      5  C3  PXY d   1       3.549  -2.465   2.940  0.00  0.00     0.003 A 
ATOM      6  C4  PXY d   1       2.868  -1.379   2.459  0.00  0.00    -0.082 A 
ATOM      7  C5  PXY d   1       1.788  -0.922   3.126  0.00  0.00     0.003 A 
ATOM      8  C6  PXY d   1       1.387  -1.569   4.292  0.00  0.00     0.003 A 
ENDROOT
TORSDOF 0
ENDMDL
