MODEL 1
REMARK minimizedAffinity 6.70488262
REMARK minimizedRMSD -1
REMARK  0 active torsions:
REMARK  status: ('A' for Active; 'I' for Inactive)
ROOT
ATOM      1  C4' PXY d   1       5.983  -1.960   3.291  0.00  0.00     0.077 C 
ATOM      2  C1' PXY d   1       0.593  -0.567   1.737  0.00  0.00     0.077 C 
ATOM      3  C1  PXY d   1       2.011  -0.926   2.134  0.00  0.00    -0.082 A 
ATOM      4  C2  PXY d   1       2.227  -1.975   2.911  0.00  0.00     0.003 A 
ATOM      5  C3  PXY d   1       3.500  -2.296   3.305  0.00  0.00     0.003 A 
ATOM      6  C4  PXY d   1       4.569  -1.566   2.857  0.00  0.00    -0.082 A 
ATOM      7  C5  PXY d   1       4.358  -0.500   2.056  0.00  0.00     0.003 A 
ATOM      8  C6  PXY d   1       3.054  -0.167   1.700  0.00  0.00     0.003 A 
ENDROOT
TORSDOF 0
ENDMDL
