MODEL 1
REMARK minimizedAffinity 11.4218836
REMARK minimizedRMSD -1
REMARK  0 active torsions:
REMARK  status: ('A' for Active; 'I' for Inactive)
ROOT
ATOM      1  C4' PXY d   1       3.122   1.164   1.675  0.00  0.00     0.077 C 
ATOM      2  C1' PXY d   1       2.422  -4.062   4.045  0.00  0.00     0.077 C 
ATOM      3  C1  PXY d   1       2.595  -2.693   3.417  0.00  0.00    -0.082 A 
ATOM      4  C2  PXY d   1       3.806  -2.173   3.304  0.00  0.00     0.003 A 
ATOM      5  C3  PXY d   1       3.977  -0.923   2.768  0.00  0.00     0.003 A 
ATOM      6  C4  PXY d   1       2.902  -0.219   2.294  0.00  0.00    -0.082 A 
ATOM      7  C5  PXY d   1       1.664  -0.747   2.397  0.00  0.00     0.003 A 
ATOM      8  C6  PXY d   1       1.507  -2.001   2.982  0.00  0.00     0.003 A 
ENDROOT
TORSDOF 0
ENDMDL
