MODEL 1
REMARK minimizedAffinity 12.6996269
REMARK minimizedRMSD -1
REMARK  0 active torsions:
REMARK  status: ('A' for Active; 'I' for Inactive)
ROOT
ATOM      1  C4' PXY d   1      -6.000   2.419   3.914  0.00  0.00     0.077 C 
ATOM      2  C1' PXY d   1      -2.858   3.271  -0.863  0.00  0.00     0.077 C 
ATOM      3  C1  PXY d   1      -3.692   3.055   0.385  0.00  0.00    -0.082 A 
ATOM      4  C2  PXY d   1      -3.094   2.760   1.528  0.00  0.00     0.003 A 
ATOM      5  C3  PXY d   1      -3.835   2.530   2.659  0.00  0.00     0.003 A 
ATOM      6  C4  PXY d   1      -5.198   2.655   2.632  0.00  0.00    -0.082 A 
ATOM      7  C5  PXY d   1      -5.814   2.966   1.472  0.00  0.00     0.003 A 
ATOM      8  C6  PXY d   1      -5.047   3.155   0.326  0.00  0.00     0.003 A 
ENDROOT
TORSDOF 0
ENDMDL
