MODEL 1
REMARK minimizedAffinity 9.41883469
REMARK minimizedRMSD -1
REMARK  0 active torsions:
REMARK  status: ('A' for Active; 'I' for Inactive)
ROOT
ATOM      1  C4' PXY d   1       1.851  -4.287   5.541  0.00  0.00     0.077 C 
ATOM      2  C1' PXY d   1       2.549  -0.016   1.709  0.00  0.00     0.077 C 
ATOM      3  C1  PXY d   1       2.365  -1.145   2.704  0.00  0.00    -0.082 A 
ATOM      4  C2  PXY d   1       1.956  -0.873   3.933  0.00  0.00     0.003 A 
ATOM      5  C3  PXY d   1       1.814  -1.878   4.855  0.00  0.00     0.003 A 
ATOM      6  C4  PXY d   1       2.042  -3.181   4.501  0.00  0.00    -0.082 A 
ATOM      7  C5  PXY d   1       2.449  -3.467   3.246  0.00  0.00     0.003 A 
ATOM      8  C6  PXY d   1       2.627  -2.428   2.337  0.00  0.00     0.003 A 
ENDROOT
TORSDOF 0
ENDMDL
