MODEL 1
REMARK minimizedAffinity 9.0036974
REMARK minimizedRMSD -1
REMARK  0 active torsions:
REMARK  status: ('A' for Active; 'I' for Inactive)
ROOT
ATOM      1  C4' PXY d   1      -0.229  -2.129  -1.251  0.00  0.00     0.077 C 
ATOM      2  C1' PXY d   1       1.861  -0.539   3.899  0.00  0.00     0.077 C 
ATOM      3  C1  PXY d   1       1.301  -0.953   2.553  0.00  0.00    -0.082 A 
ATOM      4  C2  PXY d   1       1.970  -1.813   1.802  0.00  0.00     0.003 A 
ATOM      5  C3  PXY d   1       1.494  -2.173   0.568  0.00  0.00     0.003 A 
ATOM      6  C4  PXY d   1       0.294  -1.690   0.120  0.00  0.00    -0.082 A 
ATOM      7  C5  PXY d   1      -0.400  -0.820   0.884  0.00  0.00     0.003 A 
ATOM      8  C6  PXY d   1       0.121  -0.435   2.116  0.00  0.00     0.003 A 
ENDROOT
TORSDOF 0
ENDMDL
