MODEL 1
REMARK minimizedAffinity 10.5762281
REMARK minimizedRMSD -1
REMARK  0 active torsions:
REMARK  status: ('A' for Active; 'I' for Inactive)
ROOT
ATOM      1  C4' PXY d   1       2.915   2.235   0.767  0.00  0.00     0.077 C 
ATOM      2  C1' PXY d   1       2.053  -2.522   3.936  0.00  0.00     0.077 C 
ATOM      3  C1  PXY d   1       2.277  -1.281   3.094  0.00  0.00    -0.082 A 
ATOM      4  C2  PXY d   1       3.008  -0.288   3.574  0.00  0.00     0.003 A 
ATOM      5  C3  PXY d   1       3.194   0.854   2.838  0.00  0.00     0.003 A 
ATOM      6  C4  PXY d   1       2.671   0.959   1.578  0.00  0.00    -0.082 A 
ATOM      7  C5  PXY d   1       1.932  -0.054   1.077  0.00  0.00     0.003 A 
ATOM      8  C6  PXY d   1       1.721  -1.188   1.856  0.00  0.00     0.003 A 
ENDROOT
TORSDOF 0
ENDMDL
