MODEL 1
REMARK minimizedAffinity 8.05968571
REMARK minimizedRMSD -1
REMARK  0 active torsions:
REMARK  status: ('A' for Active; 'I' for Inactive)
ROOT
ATOM      1  C4' PXY d   1      -5.914   3.985  -4.731  0.00  0.00     0.077 C 
ATOM      2  C1' PXY d   1      -6.000  -1.794  -4.846  0.00  0.00     0.077 C 
ATOM      3  C1  PXY d   1      -5.971  -0.279  -4.828  0.00  0.00    -0.082 A 
ATOM      4  C2  PXY d   1      -5.983   0.362  -3.670  0.00  0.00     0.003 A 
ATOM      5  C3  PXY d   1      -5.991   1.733  -3.636  0.00  0.00     0.003 A 
ATOM      6  C4  PXY d   1      -5.932   2.455  -4.798  0.00  0.00    -0.082 A 
ATOM      7  C5  PXY d   1      -5.908   1.809  -5.983  0.00  0.00     0.003 A 
ATOM      8  C6  PXY d   1      -5.943   0.417  -5.997  0.00  0.00     0.003 A 
ENDROOT
TORSDOF 0
ENDMDL
