MODEL 1
REMARK minimizedAffinity 7.75777054
REMARK minimizedRMSD -1
REMARK  0 active torsions:
REMARK  status: ('A' for Active; 'I' for Inactive)
ROOT
ATOM      1  C4' PXY d   1      -0.065  -4.535   5.983  0.00  0.00     0.077 C 
ATOM      2  C1' PXY d   1       5.233  -3.236   4.069  0.00  0.00     0.077 C 
ATOM      3  C1  PXY d   1       3.842  -3.564   4.574  0.00  0.00    -0.082 A 
ATOM      4  C2  PXY d   1       3.553  -4.803   4.938  0.00  0.00     0.003 A 
ATOM      5  C3  PXY d   1       2.291  -5.124   5.367  0.00  0.00     0.003 A 
ATOM      6  C4  PXY d   1       1.329  -4.156   5.475  0.00  0.00    -0.082 A 
ATOM      7  C5  PXY d   1       1.619  -2.887   5.117  0.00  0.00     0.003 A 
ATOM      8  C6  PXY d   1       2.894  -2.590   4.645  0.00  0.00     0.003 A 
ENDROOT
TORSDOF 0
ENDMDL
