MODEL 1
REMARK minimizedAffinity -0.305821627
REMARK minimizedRMSD -1
REMARK  1 active torsions:
REMARK  status: ('A' for Active; 'I' for Inactive)
REMARK    1  A    between atoms: N_2  and  C1_3 
ROOT
ATOM      1  C1  UNL d   1       0.360   0.136   0.476  0.00  0.00     0.143 A 
ATOM      2  C2  UNL d   1      -0.266  -0.884   1.199  0.00  0.00    -0.057 A 
ATOM      3  C3  UNL d   1       0.306  -1.403   2.368  0.00  0.00     0.033 A 
ATOM      4  C4  UNL d   1       1.532  -0.927   2.819  0.00  0.00    -0.042 A 
ATOM      5  C5  UNL d   1       2.185   0.070   2.102  0.00  0.00     0.033 A 
ATOM      6  C6  UNL d   1       1.606   0.588   0.940  0.00  0.00    -0.057 A 
ENDROOT
BRANCH   1   7
ATOM      7  N   UNL d   1      -0.109   0.624  -0.746  0.00  0.00    -0.732 N 
ATOM      8  C   UNL d   1      -1.103  -0.109  -1.500  0.00  0.00     0.284 C 
ATOM      9  H3  UNL d   1      -0.257   1.631  -0.731  0.00  0.00     0.395 HD
ENDBRANCH   1   7
TORSDOF 1
ENDMDL
