MODEL 1
REMARK minimizedAffinity -0.773340821
REMARK minimizedRMSD -1
REMARK  1 active torsions:
REMARK  status: ('A' for Active; 'I' for Inactive)
REMARK    1  A    between atoms: N_2  and  C1_3 
ROOT
ATOM      1  C1  UNL d   1      -0.145  -1.379   2.034  0.00  0.00     0.143 A 
ATOM      2  C2  UNL d   1      -1.330  -1.161   1.323  0.00  0.00    -0.057 A 
ATOM      3  C3  UNL d   1      -1.383  -0.248   0.262  0.00  0.00     0.033 A 
ATOM      4  C4  UNL d   1      -0.255   0.487  -0.087  0.00  0.00    -0.042 A 
ATOM      5  C5  UNL d   1       0.927   0.306   0.622  0.00  0.00     0.033 A 
ATOM      6  C6  UNL d   1       0.975  -0.612   1.675  0.00  0.00    -0.057 A 
ENDROOT
BRANCH   1   7
ATOM      7  N   UNL d   1      -0.054  -2.200   3.161  0.00  0.00    -0.732 N 
ATOM      8  C   UNL d   1      -0.866  -3.392   3.272  0.00  0.00     0.284 C 
ATOM      9  H3  UNL d   1       0.906  -2.319   3.477  0.00  0.00     0.395 HD
ENDBRANCH   1   7
TORSDOF 1
ENDMDL
