MODEL 1
REMARK minimizedAffinity -3.70807123
REMARK minimizedRMSD -1
REMARK  1 active torsions:
REMARK  status: ('A' for Active; 'I' for Inactive)
REMARK    1  A    between atoms: N_2  and  C1_3 
ROOT
ATOM      1  C1  UNL d   1       0.178  -0.023  -0.151  0.00  0.00     0.143 A 
ATOM      2  C2  UNL d   1      -0.552   0.182   1.025  0.00  0.00    -0.057 A 
ATOM      3  C3  UNL d   1       0.024  -0.029   2.283  0.00  0.00     0.033 A 
ATOM      4  C4  UNL d   1       1.337  -0.478   2.387  0.00  0.00    -0.042 A 
ATOM      5  C5  UNL d   1       2.073  -0.712   1.232  0.00  0.00     0.033 A 
ATOM      6  C6  UNL d   1       1.494  -0.493  -0.022  0.00  0.00    -0.057 A 
ENDROOT
BRANCH   1   7
ATOM      7  N   UNL d   1      -0.369   0.074  -1.433  0.00  0.00    -0.732 N 
ATOM      8  C   UNL d   1      -0.231   1.292  -2.203  0.00  0.00     0.284 C 
ATOM      9  H3  UNL d   1      -0.241  -0.777  -1.976  0.00  0.00     0.395 HD
ENDBRANCH   1   7
TORSDOF 1
ENDMDL
