MODEL 1
REMARK minimizedAffinity -4.73817968
REMARK minimizedRMSD -1
REMARK  1 active torsions:
REMARK  status: ('A' for Active; 'I' for Inactive)
REMARK    1  A    between atoms: N_2  and  C1_3 
ROOT
ATOM      1  C1  UNL d   1      -0.239   0.134   0.029  0.00  0.00     0.143 A 
ATOM      2  C2  UNL d   1      -1.252   0.112   0.994  0.00  0.00    -0.057 A 
ATOM      3  C3  UNL d   1      -0.985  -0.252   2.319  0.00  0.00     0.033 A 
ATOM      4  C4  UNL d   1       0.299  -0.629   2.698  0.00  0.00    -0.042 A 
ATOM      5  C5  UNL d   1       1.317  -0.638   1.750  0.00  0.00     0.033 A 
ATOM      6  C6  UNL d   1       1.045  -0.268   0.430  0.00  0.00    -0.057 A 
ENDROOT
BRANCH   1   7
ATOM      7  N   UNL d   1      -0.461   0.391  -1.326  0.00  0.00    -0.732 N 
ATOM      8  C   UNL d   1      -0.436   1.746  -1.833  0.00  0.00     0.284 C 
ATOM      9  H3  UNL d   1      -0.002  -0.287  -1.930  0.00  0.00     0.395 HD
ENDBRANCH   1   7
TORSDOF 1
ENDMDL
