MODEL 1
REMARK minimizedAffinity -2.57543206
REMARK minimizedRMSD -1
REMARK  1 active torsions:
REMARK  status: ('A' for Active; 'I' for Inactive)
REMARK    1  A    between atoms: N_2  and  C1_3 
ROOT
ATOM      1  C1  UNL d   1       0.379   0.083   1.696  0.00  0.00     0.143 A 
ATOM      2  C2  UNL d   1       0.722   0.480   0.399  0.00  0.00    -0.057 A 
ATOM      3  C3  UNL d   1      -0.212   0.438  -0.644  0.00  0.00     0.033 A 
ATOM      4  C4  UNL d   1      -1.501  -0.031  -0.412  0.00  0.00    -0.042 A 
ATOM      5  C5  UNL d   1      -1.856  -0.455   0.864  0.00  0.00     0.033 A 
ATOM      6  C6  UNL d   1      -0.921  -0.404   1.902  0.00  0.00    -0.057 A 
ENDROOT
BRANCH   1   7
ATOM      7  N   UNL d   1       1.291   0.009   2.752  0.00  0.00    -0.732 N 
ATOM      8  C   UNL d   1       2.240  -1.081   2.832  0.00  0.00     0.284 C 
ATOM      9  H3  UNL d   1       1.679   0.917   2.995  0.00  0.00     0.395 HD
ENDBRANCH   1   7
TORSDOF 1
ENDMDL
