MODEL 1
REMARK minimizedAffinity -1.7634486
REMARK minimizedRMSD -1
REMARK  1 active torsions:
REMARK  status: ('A' for Active; 'I' for Inactive)
REMARK    1  A    between atoms: N_2  and  C1_3 
ROOT
ATOM      1  C1  UNL d   1      -0.221   0.189  -0.621  0.00  0.00     0.143 A 
ATOM      2  C2  UNL d   1      -1.354   0.007   0.180  0.00  0.00    -0.057 A 
ATOM      3  C3  UNL d   1      -1.243  -0.425   1.507  0.00  0.00     0.033 A 
ATOM      4  C4  UNL d   1       0.005  -0.712   2.050  0.00  0.00    -0.042 A 
ATOM      5  C5  UNL d   1       1.143  -0.562   1.265  0.00  0.00     0.033 A 
ATOM      6  C6  UNL d   1       1.026  -0.124  -0.058  0.00  0.00    -0.057 A 
ENDROOT
BRANCH   1   7
ATOM      7  N   UNL d   1      -0.272   0.522  -1.976  0.00  0.00    -0.732 N 
ATOM      8  C   UNL d   1      -0.849   1.777  -2.406  0.00  0.00     0.284 C 
ATOM      9  H3  UNL d   1       0.579   0.264  -2.472  0.00  0.00     0.395 HD
ENDBRANCH   1   7
TORSDOF 1
ENDMDL
