MODEL 1
REMARK minimizedAffinity 6.02275133
REMARK minimizedRMSD -1
REMARK  1 active torsions:
REMARK  status: ('A' for Active; 'I' for Inactive)
REMARK    1  A    between atoms: C1_2  and  C2_3 
ROOT
ATOM      1  C2  UNL d   1      -4.474  -3.045  -4.910  0.00  0.00    -0.077 A 
ATOM      2  C3  UNL d   1      -5.647  -3.610  -4.389  0.00  0.00     0.002 A 
ATOM      3  C4  UNL d   1      -5.978  -4.936  -4.672  0.00  0.00     0.002 A 
ATOM      4  C5  UNL d   1      -5.139  -5.710  -5.472  0.00  0.00    -0.004 A 
ATOM      5  C6  UNL d   1      -3.971  -5.156  -5.996  0.00  0.00     0.002 A 
ATOM      6  C7  UNL d   1      -3.640  -3.830  -5.715  0.00  0.00     0.002 A 
ENDROOT
BRANCH   1   7
ATOM      7  C1  UNL d   1      -4.091  -1.629  -4.565  0.00  0.00     0.055 C 
ATOM      8  C   UNL d   1      -4.073  -1.411  -3.059  0.00  0.00     0.019 C 
ENDBRANCH   1   7
TORSDOF 1
ENDMDL
