MODEL 1
REMARK minimizedAffinity -2.79283619
REMARK minimizedRMSD -1
REMARK  1 active torsions:
REMARK  status: ('A' for Active; 'I' for Inactive)
REMARK    1  A    between atoms: C1_2  and  C2_3 
ROOT
ATOM      1  C2  UNL d   1       4.963   4.826  -4.595  0.00  0.00    -0.077 A 
ATOM      2  C3  UNL d   1       5.891   5.611  -3.896  0.00  0.00     0.002 A 
ATOM      3  C4  UNL d   1       5.637   6.000  -2.580  0.00  0.00     0.002 A 
ATOM      4  C5  UNL d   1       4.459   5.606  -1.949  0.00  0.00    -0.004 A 
ATOM      5  C6  UNL d   1       3.529   4.827  -2.636  0.00  0.00     0.002 A 
ATOM      6  C7  UNL d   1       3.780   4.437  -3.953  0.00  0.00     0.002 A 
ENDROOT
BRANCH   1   7
ATOM      7  C1  UNL d   1       5.257   4.363  -5.998  0.00  0.00     0.055 C 
ATOM      8  C   UNL d   1       5.987   3.028  -6.000  0.00  0.00     0.019 C 
ENDBRANCH   1   7
TORSDOF 1
ENDMDL
