MODEL 1
REMARK minimizedAffinity 14.7415867
REMARK minimizedRMSD -1
REMARK  1 active torsions:
REMARK  status: ('A' for Active; 'I' for Inactive)
REMARK    1  A    between atoms: C1_2  and  C2_3 
ROOT
ATOM      1  C2  UNL d   1       0.490  -2.219   3.161  0.00  0.00    -0.077 A 
ATOM      2  C3  UNL d   1       1.230  -3.080   2.337  0.00  0.00     0.002 A 
ATOM      3  C4  UNL d   1       1.781  -2.613   1.142  0.00  0.00     0.002 A 
ATOM      4  C5  UNL d   1       1.602  -1.285   0.762  0.00  0.00    -0.004 A 
ATOM      5  C6  UNL d   1       0.867  -0.422   1.574  0.00  0.00     0.002 A 
ATOM      6  C7  UNL d   1       0.314  -0.886   2.768  0.00  0.00     0.002 A 
ENDROOT
BRANCH   1   7
ATOM      7  C1  UNL d   1      -0.063  -2.708   4.474  0.00  0.00     0.055 C 
ATOM      8  C   UNL d   1       0.464  -1.881   5.638  0.00  0.00     0.019 C 
ENDBRANCH   1   7
TORSDOF 1
ENDMDL
