MODEL 1
REMARK minimizedAffinity 0.830056012
REMARK minimizedRMSD -1
REMARK  1 active torsions:
REMARK  status: ('A' for Active; 'I' for Inactive)
REMARK    1  A    between atoms: C1_2  and  C2_3 
ROOT
ATOM      1  C2  UNL d   1       1.882   0.190   2.725  0.00  0.00    -0.077 A 
ATOM      2  C3  UNL d   1       1.521  -0.936   1.971  0.00  0.00     0.002 A 
ATOM      3  C4  UNL d   1       0.866  -2.010   2.575  0.00  0.00     0.002 A 
ATOM      4  C5  UNL d   1       0.562  -1.968   3.935  0.00  0.00    -0.004 A 
ATOM      5  C6  UNL d   1       0.919  -0.854   4.693  0.00  0.00     0.002 A 
ATOM      6  C7  UNL d   1       1.575   0.220   4.091  0.00  0.00     0.002 A 
ENDROOT
BRANCH   1   7
ATOM      7  C1  UNL d   1       2.544   1.371   2.065  0.00  0.00     0.055 C 
ATOM      8  C   UNL d   1       2.889   1.072   0.613  0.00  0.00     0.019 C 
ENDBRANCH   1   7
TORSDOF 1
ENDMDL
