MODEL 1
REMARK minimizedAffinity 1.47721779
REMARK minimizedRMSD -1
REMARK  1 active torsions:
REMARK  status: ('A' for Active; 'I' for Inactive)
REMARK    1  A    between atoms: C1_2  and  C2_3 
ROOT
ATOM      1  C2  UNL d   1       4.249   4.917  -3.729  0.00  0.00    -0.077 A 
ATOM      2  C3  UNL d   1       5.126   3.845  -3.944  0.00  0.00     0.002 A 
ATOM      3  C4  UNL d   1       5.995   3.852  -5.036  0.00  0.00     0.002 A 
ATOM      4  C5  UNL d   1       6.000   4.929  -5.919  0.00  0.00    -0.004 A 
ATOM      5  C6  UNL d   1       5.130   6.000  -5.715  0.00  0.00     0.002 A 
ATOM      6  C7  UNL d   1       4.259   5.994  -4.625  0.00  0.00     0.002 A 
ENDROOT
BRANCH   1   7
ATOM      7  C1  UNL d   1       3.344   4.935  -2.525  0.00  0.00     0.055 C 
ATOM      8  C   UNL d   1       3.742   3.865  -1.518  0.00  0.00     0.019 C 
ENDBRANCH   1   7
TORSDOF 1
ENDMDL
