MODEL 1
REMARK minimizedAffinity 9.04782677
REMARK minimizedRMSD -1
REMARK  1 active torsions:
REMARK  status: ('A' for Active; 'I' for Inactive)
REMARK    1  A    between atoms: C1_2  and  C2_3 
ROOT
ATOM      1  C2  UNL d   1       1.945  -1.462   2.331  0.00  0.00    -0.077 A 
ATOM      2  C3  UNL d   1       1.718  -0.963   3.622  0.00  0.00     0.002 A 
ATOM      3  C4  UNL d   1       1.152  -1.778   4.605  0.00  0.00     0.002 A 
ATOM      4  C5  UNL d   1       0.813  -3.096   4.309  0.00  0.00    -0.004 A 
ATOM      5  C6  UNL d   1       1.033  -3.601   3.028  0.00  0.00     0.002 A 
ATOM      6  C7  UNL d   1       1.597  -2.788   2.044  0.00  0.00     0.002 A 
ENDROOT
BRANCH   1   7
ATOM      7  C1  UNL d   1       2.600  -0.601   1.284  0.00  0.00     0.055 C 
ATOM      8  C   UNL d   1       2.348   0.877   1.545  0.00  0.00     0.019 C 
ENDBRANCH   1   7
TORSDOF 1
ENDMDL
