MODEL 1
REMARK minimizedAffinity 0.231347725
REMARK minimizedRMSD -1
REMARK  1 active torsions:
REMARK  status: ('A' for Active; 'I' for Inactive)
REMARK    1  A    between atoms: C1_2  and  C2_3 
ROOT
ATOM      1  C2  UNL d   1       5.033   4.839  -4.005  0.00  0.00    -0.077 A 
ATOM      2  C3  UNL d   1       3.880   4.090  -3.734  0.00  0.00     0.002 A 
ATOM      3  C4  UNL d   1       3.171   4.288  -2.547  0.00  0.00     0.002 A 
ATOM      4  C5  UNL d   1       3.606   5.237  -1.624  0.00  0.00    -0.004 A 
ATOM      5  C6  UNL d   1       4.753   5.986  -1.884  0.00  0.00     0.002 A 
ATOM      6  C7  UNL d   1       5.463   5.789  -3.069  0.00  0.00     0.002 A 
ENDROOT
BRANCH   1   7
ATOM      7  C1  UNL d   1       5.770   4.662  -5.307  0.00  0.00     0.055 C 
ATOM      8  C   UNL d   1       6.000   5.997  -5.999  0.00  0.00     0.019 C 
ENDBRANCH   1   7
TORSDOF 1
ENDMDL
