MODEL 1
REMARK minimizedAffinity 9.28989792
REMARK minimizedRMSD -1
REMARK  0 active torsions:
REMARK  status: ('A' for Active; 'I' for Inactive)
ROOT
ATOM      1  O1  BZF d   1      -5.205  -0.052   3.068  0.00  0.00    -0.204 OA
ATOM      2  C2  BZF d   1      -3.957  -0.113   3.657  0.00  0.00     0.174 A 
ATOM      3  C3  BZF d   1      -2.985   0.067   2.740  0.00  0.00    -0.012 A 
ATOM      4  C3A BZF d   1      -3.671   0.344   1.515  0.00  0.00    -0.107 A 
ATOM      5  C4  BZF d   1      -3.250   0.625   0.246  0.00  0.00     0.055 A 
ATOM      6  C5  BZF d   1      -4.174   0.773  -0.739  0.00  0.00    -0.016 A 
ATOM      7  C6  BZF d   1      -5.525   0.641  -0.492  0.00  0.00     0.022 A 
ATOM      8  C7  BZF d   1      -5.991   0.368   0.751  0.00  0.00     0.029 A 
ATOM      9  C7A BZF d   1      -5.061   0.251   1.755  0.00  0.00     0.058 A 
ENDROOT
TORSDOF 0
ENDMDL
