MODEL 1
REMARK minimizedAffinity 4.36196661
REMARK minimizedRMSD -1
REMARK  0 active torsions:
REMARK  status: ('A' for Active; 'I' for Inactive)
ROOT
ATOM      1  O1  BZF d   1      -2.335   0.797   3.206  0.00  0.00    -0.204 OA
ATOM      2  C2  BZF d   1      -2.361  -0.573   3.383  0.00  0.00     0.174 A 
ATOM      3  C3  BZF d   1      -2.771  -1.193   2.258  0.00  0.00    -0.012 A 
ATOM      4  C3A BZF d   1      -2.928  -0.151   1.290  0.00  0.00    -0.107 A 
ATOM      5  C4  BZF d   1      -3.300  -0.139  -0.024  0.00  0.00     0.055 A 
ATOM      6  C5  BZF d   1      -3.424   1.054  -0.664  0.00  0.00    -0.016 A 
ATOM      7  C6  BZF d   1      -3.191   2.251  -0.020  0.00  0.00     0.022 A 
ATOM      8  C7  BZF d   1      -2.815   2.289   1.282  0.00  0.00     0.029 A 
ATOM      9  C7A BZF d   1      -2.656   1.084   1.922  0.00  0.00     0.058 A 
ENDROOT
TORSDOF 0
ENDMDL
