MODEL 1
REMARK minimizedAffinity -3.4307096
REMARK minimizedRMSD -1
REMARK  0 active torsions:
REMARK  status: ('A' for Active; 'I' for Inactive)
ROOT
ATOM      1  O1  BZF d   1       4.578   0.518  -4.354  0.00  0.00    -0.204 OA
ATOM      2  C2  BZF d   1       4.810   1.138  -5.566  0.00  0.00     0.174 A 
ATOM      3  C3  BZF d   1       3.701   1.772  -5.999  0.00  0.00    -0.012 A 
ATOM      4  C3A BZF d   1       2.742   1.611  -4.950  0.00  0.00    -0.107 A 
ATOM      5  C4  BZF d   1       1.454   2.032  -4.783  0.00  0.00     0.055 A 
ATOM      6  C5  BZF d   1       0.770   1.643  -3.675  0.00  0.00    -0.016 A 
ATOM      7  C6  BZF d   1       1.341   0.832  -2.717  0.00  0.00     0.022 A 
ATOM      8  C7  BZF d   1       2.618   0.393  -2.836  0.00  0.00     0.029 A 
ATOM      9  C7A BZF d   1       3.322   0.811  -3.939  0.00  0.00     0.058 A 
ENDROOT
TORSDOF 0
ENDMDL
