MODEL 1
REMARK minimizedAffinity 0.859652817
REMARK minimizedRMSD -1
REMARK  0 active torsions:
REMARK  status: ('A' for Active; 'I' for Inactive)
ROOT
ATOM      1  O1  BZF d   1      -3.365   5.969   0.869  0.00  0.00    -0.204 OA
ATOM      2  C2  BZF d   1      -3.707   5.999   2.207  0.00  0.00     0.174 A 
ATOM      3  C3  BZF d   1      -3.705   4.755   2.730  0.00  0.00    -0.012 A 
ATOM      4  C3A BZF d   1      -3.248   3.904   1.674  0.00  0.00    -0.107 A 
ATOM      5  C4  BZF d   1      -3.019   2.561   1.583  0.00  0.00     0.055 A 
ATOM      6  C5  BZF d   1      -2.647   2.034   0.387  0.00  0.00    -0.016 A 
ATOM      7  C6  BZF d   1      -2.499   2.819  -0.738  0.00  0.00     0.022 A 
ATOM      8  C7  BZF d   1      -2.710   4.157  -0.696  0.00  0.00     0.029 A 
ATOM      9  C7A BZF d   1      -3.055   4.697   0.519  0.00  0.00     0.058 A 
ENDROOT
TORSDOF 0
ENDMDL
