MODEL 1
REMARK minimizedAffinity 3.01098108
REMARK minimizedRMSD -1
REMARK  0 active torsions:
REMARK  status: ('A' for Active; 'I' for Inactive)
ROOT
ATOM      1  O1  BZF d   1      -2.879   4.419  -0.260  0.00  0.00    -0.204 OA
ATOM      2  C2  BZF d   1      -4.058   4.819   0.339  0.00  0.00     0.174 A 
ATOM      3  C3  BZF d   1      -4.781   3.750   0.732  0.00  0.00    -0.012 A 
ATOM      4  C3A BZF d   1      -3.964   2.613   0.437  0.00  0.00    -0.107 A 
ATOM      5  C4  BZF d   1      -4.127   1.269   0.613  0.00  0.00     0.055 A 
ATOM      6  C5  BZF d   1      -3.170   0.422   0.150  0.00  0.00    -0.016 A 
ATOM      7  C6  BZF d   1      -2.042   0.883  -0.496  0.00  0.00     0.022 A 
ATOM      8  C7  BZF d   1      -1.834   2.209  -0.688  0.00  0.00     0.029 A 
ATOM      9  C7A BZF d   1      -2.783   3.069  -0.193  0.00  0.00     0.058 A 
ENDROOT
TORSDOF 0
ENDMDL
