MODEL 1
REMARK minimizedAffinity -2.01620626
REMARK minimizedRMSD -1
REMARK  0 active torsions:
REMARK  status: ('A' for Active; 'I' for Inactive)
ROOT
ATOM      1  O1  BZF d   1      -2.650   3.676   1.856  0.00  0.00    -0.204 OA
ATOM      2  C2  BZF d   1      -2.872   4.287   0.637  0.00  0.00     0.174 A 
ATOM      3  C3  BZF d   1      -3.076   3.367  -0.329  0.00  0.00    -0.012 A 
ATOM      4  C3A BZF d   1      -3.066   2.105   0.345  0.00  0.00    -0.107 A 
ATOM      5  C4  BZF d   1      -3.232   0.816  -0.074  0.00  0.00     0.055 A 
ATOM      6  C5  BZF d   1      -3.091  -0.194   0.825  0.00  0.00    -0.016 A 
ATOM      7  C6  BZF d   1      -2.781   0.049   2.147  0.00  0.00     0.022 A 
ATOM      8  C7  BZF d   1      -2.613   1.312   2.611  0.00  0.00     0.029 A 
ATOM      9  C7A BZF d   1      -2.786   2.336   1.712  0.00  0.00     0.058 A 
ENDROOT
TORSDOF 0
ENDMDL
