MODEL 1
REMARK minimizedAffinity 5.76772642
REMARK minimizedRMSD -1
REMARK  0 active torsions:
REMARK  status: ('A' for Active; 'I' for Inactive)
ROOT
ATOM      1  O1  BZF d   1      -4.893   1.414   5.997  0.00  0.00    -0.204 OA
ATOM      2  C2  BZF d   1      -4.555   2.754   5.990  0.00  0.00     0.174 A 
ATOM      3  C3  BZF d   1      -3.769   3.043   4.934  0.00  0.00    -0.012 A 
ATOM      4  C3A BZF d   1      -3.679   1.826   4.186  0.00  0.00    -0.107 A 
ATOM      5  C4  BZF d   1      -3.050   1.482   3.024  0.00  0.00     0.055 A 
ATOM      6  C5  BZF d   1      -3.100   0.191   2.603  0.00  0.00    -0.016 A 
ATOM      7  C6  BZF d   1      -3.765  -0.781   3.321  0.00  0.00     0.022 A 
ATOM      8  C7  BZF d   1      -4.409  -0.487   4.477  0.00  0.00     0.029 A 
ATOM      9  C7A BZF d   1      -4.388   0.823   4.888  0.00  0.00     0.058 A 
ENDROOT
TORSDOF 0
ENDMDL
