MODEL 1
REMARK minimizedAffinity 7.74650621
REMARK minimizedRMSD -1
REMARK  0 active torsions:
REMARK  status: ('A' for Active; 'I' for Inactive)
ROOT
ATOM      1  O1  BZF d   1      -3.084   0.473   4.287  0.00  0.00    -0.204 OA
ATOM      2  C2  BZF d   1      -3.558  -0.807   4.502  0.00  0.00     0.174 A 
ATOM      3  C3  BZF d   1      -3.785  -1.436   3.331  0.00  0.00    -0.012 A 
ATOM      4  C3A BZF d   1      -3.342  -0.523   2.322  0.00  0.00    -0.107 A 
ATOM      5  C4  BZF d   1      -3.295  -0.582   0.958  0.00  0.00     0.055 A 
ATOM      6  C5  BZF d   1      -2.875   0.509   0.264  0.00  0.00    -0.016 A 
ATOM      7  C6  BZF d   1      -2.501   1.674   0.900  0.00  0.00     0.022 A 
ATOM      8  C7  BZF d   1      -2.526   1.779   2.251  0.00  0.00     0.029 A 
ATOM      9  C7A BZF d   1      -2.919   0.667   2.957  0.00  0.00     0.058 A 
ENDROOT
TORSDOF 0
ENDMDL
