MODEL 1
REMARK minimizedAffinity -3.74874115
REMARK minimizedRMSD -1
REMARK  0 active torsions:
REMARK  status: ('A' for Active; 'I' for Inactive)
ROOT
ATOM      1  O1  BZF d   1      -2.521   2.959   1.715  0.00  0.00    -0.204 OA
ATOM      2  C2  BZF d   1      -2.780   3.302   0.403  0.00  0.00     0.174 A 
ATOM      3  C3  BZF d   1      -2.938   2.200  -0.358  0.00  0.00    -0.012 A 
ATOM      4  C3A BZF d   1      -2.859   1.099   0.553  0.00  0.00    -0.107 A 
ATOM      5  C4  BZF d   1      -2.957  -0.254   0.402  0.00  0.00     0.055 A 
ATOM      6  C5  BZF d   1      -2.759  -1.056   1.481  0.00  0.00    -0.016 A 
ATOM      7  C6  BZF d   1      -2.457  -0.539   2.724  0.00  0.00     0.022 A 
ATOM      8  C7  BZF d   1      -2.355   0.798   2.925  0.00  0.00     0.029 A 
ATOM      9  C7A BZF d   1      -2.586   1.612   1.843  0.00  0.00     0.058 A 
ENDROOT
TORSDOF 0
ENDMDL
