MODEL 1
REMARK minimizedAffinity -3.01100922
REMARK minimizedRMSD -1
REMARK  0 active torsions:
REMARK  status: ('A' for Active; 'I' for Inactive)
ROOT
ATOM      1  O1  BZF d   1      -2.574   2.816   2.628  0.00  0.00    -0.204 OA
ATOM      2  C2  BZF d   1      -3.375   3.669   3.363  0.00  0.00     0.174 A 
ATOM      3  C3  BZF d   1      -4.277   2.973   4.085  0.00  0.00    -0.012 A 
ATOM      4  C3A BZF d   1      -3.963   1.596   3.855  0.00  0.00    -0.107 A 
ATOM      5  C4  BZF d   1      -4.494   0.423   4.309  0.00  0.00     0.055 A 
ATOM      6  C5  BZF d   1      -4.003  -0.752   3.835  0.00  0.00    -0.016 A 
ATOM      7  C6  BZF d   1      -2.986  -0.790   2.903  0.00  0.00     0.022 A 
ATOM      8  C7  BZF d   1      -2.424   0.347   2.426  0.00  0.00     0.029 A 
ATOM      9  C7A BZF d   1      -2.896   1.535   2.928  0.00  0.00     0.058 A 
ENDROOT
TORSDOF 0
ENDMDL
