MODEL 1
REMARK minimizedAffinity -4.24857521
REMARK minimizedRMSD -1
REMARK  0 active torsions:
REMARK  status: ('A' for Active; 'I' for Inactive)
ROOT
ATOM      1  O1  BZF d   1      -2.669   2.918   1.854  0.00  0.00    -0.204 OA
ATOM      2  C2  BZF d   1      -2.922   3.223   0.530  0.00  0.00     0.174 A 
ATOM      3  C3  BZF d   1      -3.152   2.102  -0.183  0.00  0.00    -0.012 A 
ATOM      4  C3A BZF d   1      -3.128   1.036   0.771  0.00  0.00    -0.107 A 
ATOM      5  C4  BZF d   1      -3.307  -0.314   0.675  0.00  0.00     0.055 A 
ATOM      6  C5  BZF d   1      -3.146  -1.082   1.785  0.00  0.00    -0.016 A 
ATOM      7  C6  BZF d   1      -2.801  -0.534   3.003  0.00  0.00     0.022 A 
ATOM      8  C7  BZF d   1      -2.618   0.801   3.148  0.00  0.00     0.029 A 
ATOM      9  C7A BZF d   1      -2.812   1.583   2.036  0.00  0.00     0.058 A 
ENDROOT
TORSDOF 0
ENDMDL
