MODEL 1
REMARK minimizedAffinity -1.64695776
REMARK minimizedRMSD -1
REMARK  0 active torsions:
REMARK  status: ('A' for Active; 'I' for Inactive)
ROOT
ATOM      1  O1  BZF d   1      -3.303   2.565  -0.698  0.00  0.00    -0.204 OA
ATOM      2  C2  BZF d   1      -3.023   3.719   0.009  0.00  0.00     0.174 A 
ATOM      3  C3  BZF d   1      -2.591   3.425   1.252  0.00  0.00    -0.012 A 
ATOM      4  C3A BZF d   1      -2.513   1.997   1.295  0.00  0.00    -0.107 A 
ATOM      5  C4  BZF d   1      -2.133   1.106   2.258  0.00  0.00     0.055 A 
ATOM      6  C5  BZF d   1      -2.242  -0.225   2.007  0.00  0.00    -0.016 A 
ATOM      7  C6  BZF d   1      -2.732  -0.700   0.808  0.00  0.00     0.022 A 
ATOM      8  C7  BZF d   1      -3.116   0.145  -0.179  0.00  0.00     0.029 A 
ATOM      9  C7A BZF d   1      -2.976   1.490   0.059  0.00  0.00     0.058 A 
ENDROOT
TORSDOF 0
ENDMDL
