MODEL 1
REMARK minimizedAffinity 0.822105467
REMARK minimizedRMSD -1
REMARK  0 active torsions:
REMARK  status: ('A' for Active; 'I' for Inactive)
ROOT
ATOM      1  O1  BZF d   1      -2.525   1.487   3.526  0.00  0.00    -0.204 OA
ATOM      2  C2  BZF d   1      -2.843   0.157   3.719  0.00  0.00     0.174 A 
ATOM      3  C3  BZF d   1      -3.324  -0.390   2.584  0.00  0.00    -0.012 A 
ATOM      4  C3A BZF d   1      -3.220   0.640   1.597  0.00  0.00    -0.107 A 
ATOM      5  C4  BZF d   1      -3.524   0.700   0.267  0.00  0.00     0.055 A 
ATOM      6  C5  BZF d   1      -3.371   1.878  -0.393  0.00  0.00    -0.016 A 
ATOM      7  C6  BZF d   1      -2.922   3.015   0.245  0.00  0.00     0.022 A 
ATOM      8  C7  BZF d   1      -2.602   3.003   1.562  0.00  0.00     0.029 A 
ATOM      9  C7A BZF d   1      -2.724   1.806   2.225  0.00  0.00     0.058 A 
ENDROOT
TORSDOF 0
ENDMDL
