MODEL 1
REMARK minimizedAffinity 13.7666378
REMARK minimizedRMSD -1
REMARK  0 active torsions:
REMARK  status: ('A' for Active; 'I' for Inactive)
ROOT
ATOM      1  O1  BZF d   1      -4.488  -0.872   4.923  0.00  0.00    -0.204 OA
ATOM      2  C2  BZF d   1      -5.434  -1.575   4.203  0.00  0.00     0.174 A 
ATOM      3  C3  BZF d   1      -5.198  -1.476   2.879  0.00  0.00    -0.012 A 
ATOM      4  C3A BZF d   1      -3.978  -0.736   2.768  0.00  0.00    -0.107 A 
ATOM      5  C4  BZF d   1      -3.220  -0.327   1.708  0.00  0.00     0.055 A 
ATOM      6  C5  BZF d   1      -2.124   0.442   1.938  0.00  0.00    -0.016 A 
ATOM      7  C6  BZF d   1      -1.759   0.825   3.212  0.00  0.00     0.022 A 
ATOM      8  C7  BZF d   1      -2.477   0.440   4.295  0.00  0.00     0.029 A 
ATOM      9  C7A BZF d   1      -3.567  -0.365   4.069  0.00  0.00     0.058 A 
ENDROOT
TORSDOF 0
ENDMDL
