MODEL 1
REMARK minimizedAffinity 0.165216565
REMARK minimizedRMSD -1
REMARK  0 active torsions:
REMARK  status: ('A' for Active; 'I' for Inactive)
ROOT
ATOM      1  O1  BZF d   1      -2.608   1.326   3.599  0.00  0.00    -0.204 OA
ATOM      2  C2  BZF d   1      -2.816   0.198   4.370  0.00  0.00     0.174 A 
ATOM      3  C3  BZF d   1      -3.195  -0.843   3.601  0.00  0.00    -0.012 A 
ATOM      4  C3A BZF d   1      -3.137  -0.359   2.256  0.00  0.00    -0.107 A 
ATOM      5  C4  BZF d   1      -3.385  -0.930   1.041  0.00  0.00     0.055 A 
ATOM      6  C5  BZF d   1      -3.307  -0.163  -0.078  0.00  0.00    -0.016 A 
ATOM      7  C6  BZF d   1      -2.988   1.178  -0.018  0.00  0.00     0.022 A 
ATOM      8  C7  BZF d   1      -2.729   1.788   1.164  0.00  0.00     0.029 A 
ATOM      9  C7A BZF d   1      -2.775   1.008   2.293  0.00  0.00     0.058 A 
ENDROOT
TORSDOF 0
ENDMDL
