MODEL 1
REMARK minimizedAffinity 2.7602551
REMARK minimizedRMSD -1
REMARK  0 active torsions:
REMARK  status: ('A' for Active; 'I' for Inactive)
ROOT
ATOM      1  C1  BNZ d   1       1.968  -3.267  -2.577  0.00  0.00     0.000 A 
ATOM      2  C2  BNZ d   1       1.027  -2.273  -2.617  0.00  0.00     0.000 A 
ATOM      3  C3  BNZ d   1       1.108  -1.197  -1.777  0.00  0.00     0.000 A 
ATOM      4  C4  BNZ d   1       2.107  -1.137  -0.873  0.00  0.00     0.000 A 
ATOM      5  C5  BNZ d   1       3.058  -2.136  -0.814  0.00  0.00     0.000 A 
ATOM      6  C6  BNZ d   1       2.995  -3.197  -1.687  0.00  0.00     0.000 A 
ENDROOT
TORSDOF 0
ENDMDL
