MODEL 1
REMARK minimizedAffinity 2.55907845
REMARK minimizedRMSD -1
REMARK  0 active torsions:
REMARK  status: ('A' for Active; 'I' for Inactive)
ROOT
ATOM      1  C1  BNZ d   1       1.548  -4.205  -1.518  0.00  0.00     0.000 A 
ATOM      2  C2  BNZ d   1       0.755  -3.223  -2.050  0.00  0.00     0.000 A 
ATOM      3  C3  BNZ d   1       1.029  -1.903  -1.824  0.00  0.00     0.000 A 
ATOM      4  C4  BNZ d   1       2.070  -1.567  -1.035  0.00  0.00     0.000 A 
ATOM      5  C5  BNZ d   1       2.873  -2.545  -0.484  0.00  0.00     0.000 A 
ATOM      6  C6  BNZ d   1       2.618  -3.872  -0.745  0.00  0.00     0.000 A 
ENDROOT
TORSDOF 0
ENDMDL
