MODEL 1
REMARK minimizedAffinity 5.36600065
REMARK minimizedRMSD -1
REMARK  0 active torsions:
REMARK  status: ('A' for Active; 'I' for Inactive)
ROOT
ATOM      1  C1  BNZ d   1       2.066  -1.543  -4.874  0.00  0.00     0.000 A 
ATOM      2  C2  BNZ d   1       2.748  -1.921  -6.000  0.00  0.00     0.000 A 
ATOM      3  C3  BNZ d   1       3.532  -3.041  -6.000  0.00  0.00     0.000 A 
ATOM      4  C4  BNZ d   1       3.665  -3.757  -4.865  0.00  0.00     0.000 A 
ATOM      5  C5  BNZ d   1       2.991  -3.383  -3.719  0.00  0.00     0.000 A 
ATOM      6  C6  BNZ d   1       2.172  -2.278  -3.734  0.00  0.00     0.000 A 
ENDROOT
TORSDOF 0
ENDMDL
