MODEL 1
REMARK minimizedAffinity 2.6234591
REMARK minimizedRMSD -1
REMARK  0 active torsions:
REMARK  status: ('A' for Active; 'I' for Inactive)
ROOT
ATOM      1  C1  BNZ d   1       2.953  -3.079  -0.629  0.00  0.00     0.000 A 
ATOM      2  C2  BNZ d   1       1.837  -2.561  -1.231  0.00  0.00     0.000 A 
ATOM      3  C3  BNZ d   1       1.698  -1.212  -1.405  0.00  0.00     0.000 A 
ATOM      4  C4  BNZ d   1       2.655  -0.382  -0.941  0.00  0.00     0.000 A 
ATOM      5  C5  BNZ d   1       3.781  -0.889  -0.323  0.00  0.00     0.000 A 
ATOM      6  C6  BNZ d   1       3.935  -2.249  -0.185  0.00  0.00     0.000 A 
ENDROOT
TORSDOF 0
ENDMDL
