MODEL 1
REMARK minimizedAffinity 2.78370833
REMARK minimizedRMSD -1
REMARK  0 active torsions:
REMARK  status: ('A' for Active; 'I' for Inactive)
ROOT
ATOM      1  C1  BNZ d   1       1.088  -2.844  -1.052  0.00  0.00     0.000 A 
ATOM      2  C2  BNZ d   1       1.071  -1.514  -1.376  0.00  0.00     0.000 A 
ATOM      3  C3  BNZ d   1       2.233  -0.839  -1.623  0.00  0.00     0.000 A 
ATOM      4  C4  BNZ d   1       3.412  -1.483  -1.507  0.00  0.00     0.000 A 
ATOM      5  C5  BNZ d   1       3.446  -2.822  -1.172  0.00  0.00     0.000 A 
ATOM      6  C6  BNZ d   1       2.272  -3.508  -0.961  0.00  0.00     0.000 A 
ENDROOT
TORSDOF 0
ENDMDL
