MODEL 1
REMARK minimizedAffinity 3.04874492
REMARK minimizedRMSD -1
REMARK  0 active torsions:
REMARK  status: ('A' for Active; 'I' for Inactive)
ROOT
ATOM      1  C1  BNZ d   1       2.402  -3.368  -1.335  0.00  0.00     0.000 A 
ATOM      2  C2  BNZ d   1       1.599  -2.386  -1.850  0.00  0.00     0.000 A 
ATOM      3  C3  BNZ d   1       0.514  -1.933  -1.153  0.00  0.00     0.000 A 
ATOM      4  C4  BNZ d   1       0.211  -2.489   0.038  0.00  0.00     0.000 A 
ATOM      5  C5  BNZ d   1       1.006  -3.487   0.566  0.00  0.00     0.000 A 
ATOM      6  C6  BNZ d   1       2.120  -3.913  -0.121  0.00  0.00     0.000 A 
ENDROOT
TORSDOF 0
ENDMDL
