MODEL 1
REMARK minimizedAffinity 5.14152098
REMARK minimizedRMSD -1
REMARK  0 active torsions:
REMARK  status: ('A' for Active; 'I' for Inactive)
ROOT
ATOM      1  C1  BNZ d   1      -4.082   0.793   3.550  0.00  0.00     0.000 A 
ATOM      2  C2  BNZ d   1      -3.730  -0.154   2.625  0.00  0.00     0.000 A 
ATOM      3  C3  BNZ d   1      -2.494  -0.136   2.041  0.00  0.00     0.000 A 
ATOM      4  C4  BNZ d   1      -1.628   0.850   2.352  0.00  0.00     0.000 A 
ATOM      5  C5  BNZ d   1      -1.972   1.817   3.276  0.00  0.00     0.000 A 
ATOM      6  C6  BNZ d   1      -3.202   1.773   3.891  0.00  0.00     0.000 A 
ENDROOT
TORSDOF 0
ENDMDL
