MODEL 1
REMARK minimizedAffinity 3.15769577
REMARK minimizedRMSD -1
REMARK  0 active torsions:
REMARK  status: ('A' for Active; 'I' for Inactive)
ROOT
ATOM      1  C1  BNZ d   1      -4.183  -6.000  -1.866  0.00  0.00     0.000 A 
ATOM      2  C2  BNZ d   1      -3.136  -5.995  -0.983  0.00  0.00     0.000 A 
ATOM      3  C3  BNZ d   1      -3.358  -6.000   0.366  0.00  0.00     0.000 A 
ATOM      4  C4  BNZ d   1      -4.624  -5.970   0.829  0.00  0.00     0.000 A 
ATOM      5  C5  BNZ d   1      -5.690  -5.966  -0.048  0.00  0.00     0.000 A 
ATOM      6  C6  BNZ d   1      -5.463  -6.000  -1.405  0.00  0.00     0.000 A 
ENDROOT
TORSDOF 0
ENDMDL
