MODEL 1
REMARK minimizedAffinity 3.92688322
REMARK minimizedRMSD -1
REMARK  0 active torsions:
REMARK  status: ('A' for Active; 'I' for Inactive)
ROOT
ATOM      1  C1  BNZ d   1       3.001  -0.233  -0.929  0.00  0.00     0.000 A 
ATOM      2  C2  BNZ d   1       2.503   0.983  -1.315  0.00  0.00     0.000 A 
ATOM      3  C3  BNZ d   1       1.638   1.082  -2.369  0.00  0.00     0.000 A 
ATOM      4  C4  BNZ d   1       1.305  -0.027  -3.060  0.00  0.00     0.000 A 
ATOM      5  C5  BNZ d   1       1.807  -1.259  -2.689  0.00  0.00     0.000 A 
ATOM      6  C6  BNZ d   1       2.646  -1.360  -1.604  0.00  0.00     0.000 A 
ENDROOT
TORSDOF 0
ENDMDL
