MODEL 1
REMARK minimizedAffinity 0.563821852
REMARK minimizedRMSD -1
REMARK  0 active torsions:
REMARK  status: ('A' for Active; 'I' for Inactive)
ROOT
ATOM      1  C1  BNZ d   1      -2.322  -4.183  -4.898  0.00  0.00     0.000 A 
ATOM      2  C2  BNZ d   1      -3.006  -2.997  -4.916  0.00  0.00     0.000 A 
ATOM      3  C3  BNZ d   1      -4.262  -2.921  -5.450  0.00  0.00     0.000 A 
ATOM      4  C4  BNZ d   1      -4.816  -4.021  -6.000  0.00  0.00     0.000 A 
ATOM      5  C5  BNZ d   1      -4.136  -5.222  -5.997  0.00  0.00     0.000 A 
ATOM      6  C6  BNZ d   1      -2.887  -5.304  -5.425  0.00  0.00     0.000 A 
ENDROOT
TORSDOF 0
ENDMDL
