MODEL 1
REMARK minimizedAffinity 5.4897871
REMARK minimizedRMSD -1
REMARK  0 active torsions:
REMARK  status: ('A' for Active; 'I' for Inactive)
ROOT
ATOM      1  C1  BNZ d   1       1.962  -0.112  -2.996  0.00  0.00     0.000 A 
ATOM      2  C2  BNZ d   1       1.843  -1.193  -2.164  0.00  0.00     0.000 A 
ATOM      3  C3  BNZ d   1       2.074  -1.072  -0.822  0.00  0.00     0.000 A 
ATOM      4  C4  BNZ d   1       2.462   0.119  -0.321  0.00  0.00     0.000 A 
ATOM      5  C5  BNZ d   1       2.595   1.216  -1.149  0.00  0.00     0.000 A 
ATOM      6  C6  BNZ d   1       2.324   1.099  -2.493  0.00  0.00     0.000 A 
ENDROOT
TORSDOF 0
ENDMDL
