MODEL 1
REMARK minimizedAffinity 1.80503523
REMARK minimizedRMSD -1
REMARK  0 active torsions:
REMARK  status: ('A' for Active; 'I' for Inactive)
ROOT
ATOM      1  C1  BNZ d   1       0.348  -2.229  -1.463  0.00  0.00     0.000 A 
ATOM      2  C2  BNZ d   1       0.690  -3.520  -1.157  0.00  0.00     0.000 A 
ATOM      3  C3  BNZ d   1       1.977  -3.844  -0.829  0.00  0.00     0.000 A 
ATOM      4  C4  BNZ d   1       2.927  -2.886  -0.845  0.00  0.00     0.000 A 
ATOM      5  C5  BNZ d   1       2.600  -1.582  -1.161  0.00  0.00     0.000 A 
ATOM      6  C6  BNZ d   1       1.296  -1.252  -1.453  0.00  0.00     0.000 A 
ENDROOT
TORSDOF 0
ENDMDL
