MODEL 1
REMARK minimizedAffinity 4.94256067
REMARK minimizedRMSD -1
REMARK  0 active torsions:
REMARK  status: ('A' for Active; 'I' for Inactive)
ROOT
ATOM      1  C1  BNZ d   1      -2.429   3.880  -5.988  0.00  0.00     0.000 A 
ATOM      2  C2  BNZ d   1      -2.742   5.213  -6.000  0.00  0.00     0.000 A 
ATOM      3  C3  BNZ d   1      -4.044   5.627  -5.984  0.00  0.00     0.000 A 
ATOM      4  C4  BNZ d   1      -5.032   4.708  -5.997  0.00  0.00     0.000 A 
ATOM      5  C5  BNZ d   1      -4.732   3.360  -5.994  0.00  0.00     0.000 A 
ATOM      6  C6  BNZ d   1      -3.420   2.948  -5.971  0.00  0.00     0.000 A 
ENDROOT
TORSDOF 0
ENDMDL
