MODEL 1
REMARK minimizedAffinity -0.304683954
REMARK minimizedRMSD -1
REMARK  0 active torsions:
REMARK  status: ('A' for Active; 'I' for Inactive)
ROOT
ATOM      1  C1  BNZ d   1      -0.117  -2.759  -1.302  0.00  0.00     0.000 A 
ATOM      2  C2  BNZ d   1       0.892  -2.955  -0.396  0.00  0.00     0.000 A 
ATOM      3  C3  BNZ d   1       2.150  -2.480  -0.637  0.00  0.00     0.000 A 
ATOM      4  C4  BNZ d   1       2.409  -1.845  -1.799  0.00  0.00     0.000 A 
ATOM      5  C5  BNZ d   1       1.405  -1.648  -2.726  0.00  0.00     0.000 A 
ATOM      6  C6  BNZ d   1       0.130  -2.094  -2.463  0.00  0.00     0.000 A 
ENDROOT
TORSDOF 0
ENDMDL
