MODEL 1
REMARK minimizedAffinity 3.92143059
REMARK minimizedRMSD -1
REMARK  0 active torsions:
REMARK  status: ('A' for Active; 'I' for Inactive)
ROOT
ATOM      1  C1  BNZ d   1       1.032  -1.727  -1.533  0.00  0.00     0.000 A 
ATOM      2  C2  BNZ d   1       2.157  -2.215  -0.923  0.00  0.00     0.000 A 
ATOM      3  C3  BNZ d   1       2.250  -3.535  -0.580  0.00  0.00     0.000 A 
ATOM      4  C4  BNZ d   1       1.205  -4.355  -0.811  0.00  0.00     0.000 A 
ATOM      5  C5  BNZ d   1       0.061  -3.876  -1.417  0.00  0.00     0.000 A 
ATOM      6  C6  BNZ d   1      -0.014  -2.555  -1.796  0.00  0.00     0.000 A 
ENDROOT
TORSDOF 0
ENDMDL
