MODEL 1
REMARK minimizedAffinity 5.41162729
REMARK minimizedRMSD -1
REMARK  0 active torsions:
REMARK  status: ('A' for Active; 'I' for Inactive)
ROOT
ATOM      1  C1  BNZ d   1       2.305   0.218  -2.772  0.00  0.00     0.000 A 
ATOM      2  C2  BNZ d   1       2.274  -1.093  -2.379  0.00  0.00     0.000 A 
ATOM      3  C3  BNZ d   1       2.821  -1.479  -1.187  0.00  0.00     0.000 A 
ATOM      4  C4  BNZ d   1       3.431  -0.562  -0.409  0.00  0.00     0.000 A 
ATOM      5  C5  BNZ d   1       3.478   0.763  -0.796  0.00  0.00     0.000 A 
ATOM      6  C6  BNZ d   1       2.893   1.154  -1.978  0.00  0.00     0.000 A 
ENDROOT
TORSDOF 0
ENDMDL
