MODEL 1
REMARK minimizedAffinity -3.47108793
REMARK minimizedRMSD -1
REMARK  1 active torsions:
REMARK  status: ('A' for Active; 'I' for Inactive)
REMARK    1  A    between atoms: N_2  and  C1_3 
ROOT
ATOM      1  C1  UNL d   1       0.707  -1.554  -1.059  0.00  0.00     0.143 A 
ATOM      2  C2  UNL d   1       0.724  -2.861  -0.560  0.00  0.00    -0.057 A 
ATOM      3  C3  UNL d   1       0.395  -3.953  -1.373  0.00  0.00     0.033 A 
ATOM      4  C4  UNL d   1       0.014  -3.753  -2.695  0.00  0.00    -0.042 A 
ATOM      5  C5  UNL d   1      -0.035  -2.461  -3.205  0.00  0.00     0.033 A 
ATOM      6  C6  UNL d   1       0.301  -1.375  -2.391  0.00  0.00    -0.057 A 
ENDROOT
BRANCH   1   7
ATOM      7  N   UNL d   1       0.928  -0.420  -0.275  0.00  0.00    -0.732 N 
ATOM      8  C   UNL d   1      -0.180   0.279   0.340  0.00  0.00     0.284 C 
ATOM      9  H3  UNL d   1       1.744  -0.516   0.326  0.00  0.00     0.395 HD
ENDBRANCH   1   7
TORSDOF 1
ENDMDL
