MODEL 1
REMARK minimizedAffinity -3.94002271
REMARK minimizedRMSD -1
REMARK  1 active torsions:
REMARK  status: ('A' for Active; 'I' for Inactive)
REMARK    1  A    between atoms: N_2  and  C1_3 
ROOT
ATOM      1  C1  UNL d   1      -0.748   0.611   0.340  0.00  0.00     0.143 A 
ATOM      2  C2  UNL d   1      -1.544   0.973   1.432  0.00  0.00    -0.057 A 
ATOM      3  C3  UNL d   1      -1.762   2.317   1.757  0.00  0.00     0.033 A 
ATOM      4  C4  UNL d   1      -1.162   3.326   1.011  0.00  0.00    -0.042 A 
ATOM      5  C5  UNL d   1      -0.346   2.989  -0.063  0.00  0.00     0.033 A 
ATOM      6  C6  UNL d   1      -0.138   1.645  -0.388  0.00  0.00    -0.057 A 
ENDROOT
BRANCH   1   7
ATOM      7  N   UNL d   1      -0.413  -0.709   0.024  0.00  0.00    -0.732 N 
ATOM      8  C   UNL d   1       0.793  -1.006  -0.717  0.00  0.00     0.284 C 
ATOM      9  H3  UNL d   1      -0.598  -1.350   0.792  0.00  0.00     0.395 HD
ENDBRANCH   1   7
TORSDOF 1
ENDMDL
