MODEL 1
REMARK minimizedAffinity -5.24799585
REMARK minimizedRMSD -1
REMARK  1 active torsions:
REMARK  status: ('A' for Active; 'I' for Inactive)
REMARK    1  A    between atoms: N_2  and  C1_3 
ROOT
ATOM      1  C1  UNL d   1      -0.077   1.057   0.032  0.00  0.00     0.143 A 
ATOM      2  C2  UNL d   1      -0.919   0.733   1.101  0.00  0.00    -0.057 A 
ATOM      3  C3  UNL d   1      -1.833   1.661   1.613  0.00  0.00     0.033 A 
ATOM      4  C4  UNL d   1      -1.902   2.945   1.081  0.00  0.00    -0.042 A 
ATOM      5  C5  UNL d   1      -1.058   3.297   0.034  0.00  0.00     0.033 A 
ATOM      6  C6  UNL d   1      -0.151   2.363  -0.477  0.00  0.00    -0.057 A 
ENDROOT
BRANCH   1   7
ATOM      7  N   UNL d   1       0.921   0.211  -0.457  0.00  0.00    -0.732 N 
ATOM      8  C   UNL d   1       0.749  -1.226  -0.427  0.00  0.00     0.284 C 
ATOM      9  H3  UNL d   1       1.343   0.561  -1.314  0.00  0.00     0.395 HD
ENDBRANCH   1   7
TORSDOF 1
ENDMDL
