MODEL 1
REMARK minimizedAffinity -3.7750237
REMARK minimizedRMSD -1
REMARK  1 active torsions:
REMARK  status: ('A' for Active; 'I' for Inactive)
REMARK    1  A    between atoms: N_2  and  C1_3 
ROOT
ATOM      1  C1  UNL d   1      -0.260   0.913   0.458  0.00  0.00     0.143 A 
ATOM      2  C2  UNL d   1      -0.109   1.972  -0.443  0.00  0.00    -0.057 A 
ATOM      3  C3  UNL d   1       0.678   1.841  -1.593  0.00  0.00     0.033 A 
ATOM      4  C4  UNL d   1       1.354   0.652  -1.848  0.00  0.00    -0.042 A 
ATOM      5  C5  UNL d   1       1.239  -0.406  -0.954  0.00  0.00     0.033 A 
ATOM      6  C6  UNL d   1       0.446  -0.271   0.190  0.00  0.00    -0.057 A 
ENDROOT
BRANCH   1   7
ATOM      7  N   UNL d   1      -0.950   1.014   1.669  0.00  0.00    -0.732 N 
ATOM      8  C   UNL d   1      -1.160   2.303   2.292  0.00  0.00     0.284 C 
ATOM      9  H3  UNL d   1      -1.757   0.396   1.709  0.00  0.00     0.395 HD
ENDBRANCH   1   7
TORSDOF 1
ENDMDL
