MODEL 1
REMARK minimizedAffinity -3.05878448
REMARK minimizedRMSD -1
REMARK  1 active torsions:
REMARK  status: ('A' for Active; 'I' for Inactive)
REMARK    1  A    between atoms: N_2  and  C1_3 
ROOT
ATOM      1  C1  UNL d   1       0.017  -1.200  -1.334  0.00  0.00     0.143 A 
ATOM      2  C2  UNL d   1      -0.275  -2.390  -0.659  0.00  0.00    -0.057 A 
ATOM      3  C3  UNL d   1      -0.338  -3.613  -1.338  0.00  0.00     0.033 A 
ATOM      4  C4  UNL d   1      -0.138  -3.663  -2.714  0.00  0.00    -0.042 A 
ATOM      5  C5  UNL d   1       0.129  -2.488  -3.409  0.00  0.00     0.033 A 
ATOM      6  C6  UNL d   1       0.197  -1.271  -2.724  0.00  0.00    -0.057 A 
ENDROOT
BRANCH   1   7
ATOM      7  N   UNL d   1      -0.003   0.060  -0.731  0.00  0.00    -0.732 N 
ATOM      8  C   UNL d   1       0.647   1.189  -1.362  0.00  0.00     0.284 C 
ATOM      9  H3  UNL d   1      -0.907   0.279  -0.318  0.00  0.00     0.395 HD
ENDBRANCH   1   7
TORSDOF 1
ENDMDL
