MODEL 1
REMARK minimizedAffinity -3.94344187
REMARK minimizedRMSD -1
REMARK  1 active torsions:
REMARK  status: ('A' for Active; 'I' for Inactive)
REMARK    1  A    between atoms: N_2  and  C1_3 
ROOT
ATOM      1  C1  UNL d   1      -0.659   1.159  -0.348  0.00  0.00     0.143 A 
ATOM      2  C2  UNL d   1      -1.603   1.093   0.683  0.00  0.00    -0.057 A 
ATOM      3  C3  UNL d   1      -2.175   2.253   1.219  0.00  0.00     0.033 A 
ATOM      4  C4  UNL d   1      -1.790   3.506   0.752  0.00  0.00    -0.042 A 
ATOM      5  C5  UNL d   1      -0.835   3.596  -0.254  0.00  0.00     0.033 A 
ATOM      6  C6  UNL d   1      -0.272   2.434  -0.790  0.00  0.00    -0.057 A 
ENDROOT
BRANCH   1   7
ATOM      7  N   UNL d   1       0.018   0.048  -0.855  0.00  0.00    -0.732 N 
ATOM      8  C   UNL d   1       0.835  -0.776   0.011  0.00  0.00     0.284 C 
ATOM      9  H3  UNL d   1      -0.542  -0.478  -1.521  0.00  0.00     0.395 HD
ENDBRANCH   1   7
TORSDOF 1
ENDMDL
