MODEL 1
REMARK minimizedAffinity -4.53534174
REMARK minimizedRMSD -1
REMARK  1 active torsions:
REMARK  status: ('A' for Active; 'I' for Inactive)
REMARK    1  A    between atoms: N_2  and  C1_3 
ROOT
ATOM      1  C1  UNL d   1      -0.223   0.472   0.221  0.00  0.00     0.143 A 
ATOM      2  C2  UNL d   1      -0.132   0.616   1.610  0.00  0.00    -0.057 A 
ATOM      3  C3  UNL d   1      -0.905   1.561   2.294  0.00  0.00     0.033 A 
ATOM      4  C4  UNL d   1      -1.764   2.403   1.596  0.00  0.00    -0.042 A 
ATOM      5  C5  UNL d   1      -1.853   2.295   0.213  0.00  0.00     0.033 A 
ATOM      6  C6  UNL d   1      -1.083   1.344  -0.464  0.00  0.00    -0.057 A 
ENDROOT
BRANCH   1   7
ATOM      7  N   UNL d   1       0.591  -0.382  -0.528  0.00  0.00    -0.732 N 
ATOM      8  C   UNL d   1       2.029  -0.359  -0.367  0.00  0.00     0.284 C 
ATOM      9  H3  UNL d   1       0.197  -1.316  -0.615  0.00  0.00     0.395 HD
ENDBRANCH   1   7
TORSDOF 1
ENDMDL
