MODEL 1
REMARK minimizedAffinity -4.95722389
REMARK minimizedRMSD -1
REMARK  1 active torsions:
REMARK  status: ('A' for Active; 'I' for Inactive)
REMARK    1  A    between atoms: N_2  and  C1_3 
ROOT
ATOM      1  C1  UNL d   1      -1.101   1.208   1.054  0.00  0.00     0.143 A 
ATOM      2  C2  UNL d   1      -1.931   2.130   1.700  0.00  0.00    -0.057 A 
ATOM      3  C3  UNL d   1      -2.167   3.399   1.157  0.00  0.00     0.033 A 
ATOM      4  C4  UNL d   1      -1.553   3.779  -0.032  0.00  0.00    -0.042 A 
ATOM      5  C5  UNL d   1      -0.704   2.888  -0.678  0.00  0.00     0.033 A 
ATOM      6  C6  UNL d   1      -0.477   1.620  -0.135  0.00  0.00    -0.057 A 
ENDROOT
BRANCH   1   7
ATOM      7  N   UNL d   1      -0.749  -0.032   1.592  0.00  0.00    -0.732 N 
ATOM      8  C   UNL d   1       0.378  -0.771   1.065  0.00  0.00     0.284 C 
ATOM      9  H3  UNL d   1      -0.819  -0.049   2.607  0.00  0.00     0.395 HD
ENDBRANCH   1   7
TORSDOF 1
ENDMDL
