MODEL 1
REMARK minimizedAffinity -3.97755599
REMARK minimizedRMSD -1
REMARK  1 active torsions:
REMARK  status: ('A' for Active; 'I' for Inactive)
REMARK    1  A    between atoms: N_2  and  C1_3 
ROOT
ATOM      1  C1  UNL d   1      -0.148   1.472   0.017  0.00  0.00     0.143 A 
ATOM      2  C2  UNL d   1       0.541   0.255   0.025  0.00  0.00    -0.057 A 
ATOM      3  C3  UNL d   1       0.254  -0.736   0.972  0.00  0.00     0.033 A 
ATOM      4  C4  UNL d   1      -0.711  -0.513   1.949  0.00  0.00    -0.042 A 
ATOM      5  C5  UNL d   1      -1.391   0.699   1.976  0.00  0.00     0.033 A 
ATOM      6  C6  UNL d   1      -1.104   1.682   1.023  0.00  0.00    -0.057 A 
ENDROOT
BRANCH   1   7
ATOM      7  N   UNL d   1       0.159   2.534  -0.837  0.00  0.00    -0.732 N 
ATOM      8  C   UNL d   1       0.430   3.853  -0.306  0.00  0.00     0.284 C 
ATOM      9  H3  UNL d   1       0.779   2.256  -1.595  0.00  0.00     0.395 HD
ENDBRANCH   1   7
TORSDOF 1
ENDMDL
