MODEL 1
REMARK minimizedAffinity -5.10683346
REMARK minimizedRMSD -1
REMARK  1 active torsions:
REMARK  status: ('A' for Active; 'I' for Inactive)
REMARK    1  A    between atoms: N_2  and  C1_3 
ROOT
ATOM      1  C1  UNL d   1       0.601  -1.562  -0.889  0.00  0.00     0.143 A 
ATOM      2  C2  UNL d   1       0.513  -2.772  -0.193  0.00  0.00    -0.057 A 
ATOM      3  C3  UNL d   1       0.252  -3.976  -0.859  0.00  0.00     0.033 A 
ATOM      4  C4  UNL d   1       0.046  -3.986  -2.234  0.00  0.00    -0.042 A 
ATOM      5  C5  UNL d   1       0.104  -2.791  -2.943  0.00  0.00     0.033 A 
ATOM      6  C6  UNL d   1       0.371  -1.593  -2.273  0.00  0.00    -0.057 A 
ENDROOT
BRANCH   1   7
ATOM      7  N   UNL d   1       0.759  -0.319  -0.271  0.00  0.00    -0.732 N 
ATOM      8  C   UNL d   1      -0.318   0.648  -0.272  0.00  0.00     0.284 C 
ATOM      9  H3  UNL d   1       1.257  -0.385   0.614  0.00  0.00     0.395 HD
ENDBRANCH   1   7
TORSDOF 1
ENDMDL
