MODEL 1
REMARK minimizedAffinity -5.12368298
REMARK minimizedRMSD -1
REMARK  1 active torsions:
REMARK  status: ('A' for Active; 'I' for Inactive)
REMARK    1  A    between atoms: N_2  and  C1_3 
ROOT
ATOM      1  C1  UNL d   1      -0.121   0.387   0.151  0.00  0.00     0.143 A 
ATOM      2  C2  UNL d   1      -0.936   1.270  -0.565  0.00  0.00    -0.057 A 
ATOM      3  C3  UNL d   1      -1.864   2.092   0.086  0.00  0.00     0.033 A 
ATOM      4  C4  UNL d   1      -2.015   2.023   1.467  0.00  0.00    -0.042 A 
ATOM      5  C5  UNL d   1      -1.234   1.134   2.196  0.00  0.00     0.033 A 
ATOM      6  C6  UNL d   1      -0.304   0.321   1.541  0.00  0.00    -0.057 A 
ENDROOT
BRANCH   1   7
ATOM      7  N   UNL d   1       0.751  -0.526  -0.447  0.00  0.00    -0.732 N 
ATOM      8  C   UNL d   1       0.246  -1.742  -1.049  0.00  0.00     0.284 C 
ATOM      9  H3  UNL d   1       1.482  -0.069  -0.986  0.00  0.00     0.395 HD
ENDBRANCH   1   7
TORSDOF 1
ENDMDL
