MODEL 1
REMARK minimizedAffinity -4.26350927
REMARK minimizedRMSD -1
REMARK  1 active torsions:
REMARK  status: ('A' for Active; 'I' for Inactive)
REMARK    1  A    between atoms: N_2  and  C1_3 
ROOT
ATOM      1  C1  UNL d   1      -0.079   0.866  -0.195  0.00  0.00     0.143 A 
ATOM      2  C2  UNL d   1      -0.335   2.080  -0.842  0.00  0.00    -0.057 A 
ATOM      3  C3  UNL d   1      -1.252   3.001  -0.322  0.00  0.00     0.033 A 
ATOM      4  C4  UNL d   1      -1.954   2.710   0.843  0.00  0.00    -0.042 A 
ATOM      5  C5  UNL d   1      -1.735   1.499   1.490  0.00  0.00     0.033 A 
ATOM      6  C6  UNL d   1      -0.812   0.586   0.969  0.00  0.00    -0.057 A 
ENDROOT
BRANCH   1   7
ATOM      7  N   UNL d   1       0.748  -0.133  -0.715  0.00  0.00    -0.732 N 
ATOM      8  C   UNL d   1       0.314  -0.940  -1.835  0.00  0.00     0.284 C 
ATOM      9  H3  UNL d   1       1.722   0.156  -0.763  0.00  0.00     0.395 HD
ENDBRANCH   1   7
TORSDOF 1
ENDMDL
