MODEL 1
REMARK minimizedAffinity -3.44907618
REMARK minimizedRMSD -1
REMARK  1 active torsions:
REMARK  status: ('A' for Active; 'I' for Inactive)
REMARK    1  A    between atoms: N_2  and  C1_3 
ROOT
ATOM      1  C1  UNL d   1      -0.634   1.571  -0.114  0.00  0.00     0.143 A 
ATOM      2  C2  UNL d   1       0.227   1.570  -1.217  0.00  0.00    -0.057 A 
ATOM      3  C3  UNL d   1       0.943   0.423  -1.577  0.00  0.00     0.033 A 
ATOM      4  C4  UNL d   1       0.833  -0.739  -0.821  0.00  0.00    -0.042 A 
ATOM      5  C5  UNL d   1       0.003  -0.754   0.294  0.00  0.00     0.033 A 
ATOM      6  C6  UNL d   1      -0.716   0.393   0.644  0.00  0.00    -0.057 A 
ENDROOT
BRANCH   1   7
ATOM      7  N   UNL d   1      -1.299   2.708   0.353  0.00  0.00    -0.732 N 
ATOM      8  C   UNL d   1      -1.703   2.808   1.738  0.00  0.00     0.284 C 
ATOM      9  H3  UNL d   1      -0.913   3.568  -0.031  0.00  0.00     0.395 HD
ENDBRANCH   1   7
TORSDOF 1
ENDMDL
