MODEL 1
REMARK minimizedAffinity -4.47927761
REMARK minimizedRMSD -1
REMARK  1 active torsions:
REMARK  status: ('A' for Active; 'I' for Inactive)
REMARK    1  A    between atoms: C3_4  and  O_7 
ROOT
ATOM      1  C   UNL d   1      -0.131  -0.142   0.191  0.00  0.00    -0.033 A 
ATOM      2  C1  UNL d   1       1.139  -0.720   0.131  0.00  0.00     0.039 A 
ATOM      3  C2  UNL d   1       1.787  -1.108   1.305  0.00  0.00    -0.080 A 
ATOM      4  C3  UNL d   1       1.156  -0.914   2.531  0.00  0.00     0.150 A 
ATOM      5  C4  UNL d   1      -0.110  -0.343   2.598  0.00  0.00    -0.007 A 
ATOM      6  C5  UNL d   1      -0.756   0.045   1.424  0.00  0.00     0.039 A 
ENDROOT
BRANCH   4   7
ATOM      7  O   UNL d   1       1.752  -1.272   3.703  0.00  0.00    -0.526 OA
ATOM      8  H5  UNL d   1       2.634  -1.626   3.505  0.00  0.00     0.418 HD
ENDBRANCH   4   7
TORSDOF 1
ENDMDL
