MODEL 1
REMARK minimizedAffinity 0.421905637
REMARK minimizedRMSD -1
REMARK  1 active torsions:
REMARK  status: ('A' for Active; 'I' for Inactive)
REMARK    1  A    between atoms: C3_4  and  O_7 
ROOT
ATOM      1  C   UNL d   1      -1.526   2.714  -3.339  0.00  0.00    -0.033 A 
ATOM      2  C1  UNL d   1      -0.320   2.927  -2.669  0.00  0.00     0.039 A 
ATOM      3  C2  UNL d   1       0.146   1.986  -1.749  0.00  0.00    -0.080 A 
ATOM      4  C3  UNL d   1      -0.603   0.837  -1.509  0.00  0.00     0.150 A 
ATOM      5  C4  UNL d   1      -1.804   0.616  -2.176  0.00  0.00    -0.007 A 
ATOM      6  C5  UNL d   1      -2.267   1.558  -3.093  0.00  0.00     0.039 A 
ENDROOT
BRANCH   4   7
ATOM      7  O   UNL d   1      -0.191  -0.108  -0.617  0.00  0.00    -0.526 OA
ATOM      8  H5  UNL d   1       0.640   0.192  -0.212  0.00  0.00     0.418 HD
ENDBRANCH   4   7
TORSDOF 1
ENDMDL
