MODEL 1
REMARK minimizedAffinity -3.64102912
REMARK minimizedRMSD -1
REMARK  1 active torsions:
REMARK  status: ('A' for Active; 'I' for Inactive)
REMARK    1  A    between atoms: C3_4  and  O_7 
ROOT
ATOM      1  C   UNL d   1      -1.168  -0.105  -0.093  0.00  0.00    -0.033 A 
ATOM      2  C1  UNL d   1      -1.669  -0.201   1.207  0.00  0.00     0.039 A 
ATOM      3  C2  UNL d   1      -0.793  -0.223   2.294  0.00  0.00    -0.080 A 
ATOM      4  C3  UNL d   1       0.579  -0.147   2.069  0.00  0.00     0.150 A 
ATOM      5  C4  UNL d   1       1.084  -0.047   0.776  0.00  0.00    -0.007 A 
ATOM      6  C5  UNL d   1       0.208  -0.027  -0.308  0.00  0.00     0.039 A 
ENDROOT
BRANCH   4   7
ATOM      7  O   UNL d   1       1.472  -0.169   3.098  0.00  0.00    -0.526 OA
ATOM      8  H5  UNL d   1       0.981  -0.270   3.930  0.00  0.00     0.418 HD
ENDBRANCH   4   7
TORSDOF 1
ENDMDL
