MODEL 1
REMARK minimizedAffinity 1.4245044
REMARK minimizedRMSD -1
REMARK  1 active torsions:
REMARK  status: ('A' for Active; 'I' for Inactive)
REMARK    1  A    between atoms: C3_4  and  O_7 
ROOT
ATOM      1  C   UNL d   1       2.052  -0.630   3.822  0.00  0.00    -0.033 A 
ATOM      2  C1  UNL d   1       1.177  -1.710   3.951  0.00  0.00     0.039 A 
ATOM      3  C2  UNL d   1       0.028  -1.778   3.161  0.00  0.00    -0.080 A 
ATOM      4  C3  UNL d   1      -0.234  -0.761   2.246  0.00  0.00     0.150 A 
ATOM      5  C4  UNL d   1       0.636   0.316   2.110  0.00  0.00    -0.007 A 
ATOM      6  C5  UNL d   1       1.782   0.382   2.901  0.00  0.00     0.039 A 
ENDROOT
BRANCH   4   7
ATOM      7  O   UNL d   1      -1.345  -0.781   1.457  0.00  0.00    -0.526 OA
ATOM      8  H5  UNL d   1      -1.867  -1.569   1.681  0.00  0.00     0.418 HD
ENDBRANCH   4   7
TORSDOF 1
ENDMDL
