MODEL 1
REMARK minimizedAffinity -1.97112381
REMARK minimizedRMSD -1
REMARK  1 active torsions:
REMARK  status: ('A' for Active; 'I' for Inactive)
REMARK    1  A    between atoms: C3_4  and  O_7 
ROOT
ATOM      1  C   UNL d   1      -0.675  -0.011  -0.271  0.00  0.00    -0.033 A 
ATOM      2  C1  UNL d   1       0.721  -0.020  -0.317  0.00  0.00     0.039 A 
ATOM      3  C2  UNL d   1       1.456  -0.340   0.826  0.00  0.00    -0.080 A 
ATOM      4  C3  UNL d   1       0.785  -0.649   2.006  0.00  0.00     0.150 A 
ATOM      5  C4  UNL d   1      -0.605  -0.646   2.057  0.00  0.00    -0.007 A 
ATOM      6  C5  UNL d   1      -1.338  -0.326   0.915  0.00  0.00     0.039 A 
ENDROOT
BRANCH   4   7
ATOM      7  O   UNL d   1       1.460  -0.963   3.148  0.00  0.00    -0.526 OA
ATOM      8  H5  UNL d   1       2.413  -0.897   2.971  0.00  0.00     0.418 HD
ENDBRANCH   4   7
TORSDOF 1
ENDMDL
