MODEL 1
REMARK minimizedAffinity -3.81334138
REMARK minimizedRMSD -1
REMARK  1 active torsions:
REMARK  status: ('A' for Active; 'I' for Inactive)
REMARK    1  A    between atoms: C3_4  and  O_7 
ROOT
ATOM      1  C   UNL d   1      -0.550   0.289   0.091  0.00  0.00    -0.033 A 
ATOM      2  C1  UNL d   1       0.781  -0.117  -0.013  0.00  0.00     0.039 A 
ATOM      3  C2  UNL d   1       1.486  -0.505   1.128  0.00  0.00    -0.080 A 
ATOM      4  C3  UNL d   1       0.849  -0.483   2.365  0.00  0.00     0.150 A 
ATOM      5  C4  UNL d   1      -0.479  -0.083   2.476  0.00  0.00    -0.007 A 
ATOM      6  C5  UNL d   1      -1.181   0.305   1.336  0.00  0.00     0.039 A 
ENDROOT
BRANCH   4   7
ATOM      7  O   UNL d   1       1.497  -0.848   3.508  0.00  0.00    -0.526 OA
ATOM      8  H5  UNL d   1       2.415  -1.072   3.282  0.00  0.00     0.418 HD
ENDBRANCH   4   7
TORSDOF 1
ENDMDL
