MODEL 1
REMARK minimizedAffinity -2.604424
REMARK minimizedRMSD -1
REMARK  0 active torsions:
REMARK  status: ('A' for Active; 'I' for Inactive)
ROOT
ATOM      1  C   UNL d   1       2.636   0.725   0.792  0.00  0.00     0.172 C 
ATOM      2  N   UNL d   1       1.269   0.559   0.357  0.00  0.00    -0.070 N 
ATOM      3  C1  UNL d   1       0.401   1.571   0.045  0.00  0.00    -0.004 A 
ATOM      4  C2  UNL d   1      -0.798   1.001  -0.324  0.00  0.00    -0.047 A 
ATOM      5  C3  UNL d   1      -0.646  -0.403  -0.230  0.00  0.00    -0.047 A 
ATOM      6  C4  UNL d   1       0.643  -0.649   0.193  0.00  0.00    -0.004 A 
ENDROOT
TORSDOF 0
ENDMDL
