MODEL 1
REMARK minimizedAffinity -3.82108641
REMARK minimizedRMSD -1
REMARK  0 active torsions:
REMARK  status: ('A' for Active; 'I' for Inactive)
ROOT
ATOM      1  C   UNL d   1      -1.271  -0.098  -0.337  0.00  0.00     0.172 C 
ATOM      2  N   UNL d   1       0.077  -0.045   0.179  0.00  0.00    -0.070 N 
ATOM      3  C1  UNL d   1       0.975   0.965  -0.038  0.00  0.00    -0.004 A 
ATOM      4  C2  UNL d   1       2.141   0.641   0.621  0.00  0.00    -0.047 A 
ATOM      5  C3  UNL d   1       1.937  -0.607   1.256  0.00  0.00    -0.047 A 
ATOM      6  C4  UNL d   1       0.650  -1.009   0.965  0.00  0.00    -0.004 A 
ENDROOT
TORSDOF 0
ENDMDL
