MODEL 1
REMARK minimizedAffinity -3.13185334
REMARK minimizedRMSD -1
REMARK  0 active torsions:
REMARK  status: ('A' for Active; 'I' for Inactive)
ROOT
ATOM      1  C   UNL d   1      -1.394   0.042  -0.781  0.00  0.00     0.172 C 
ATOM      2  N   UNL d   1      -0.087   0.296  -0.222  0.00  0.00    -0.070 N 
ATOM      3  C1  UNL d   1       0.526   1.518  -0.149  0.00  0.00    -0.004 A 
ATOM      4  C2  UNL d   1       1.755   1.339   0.449  0.00  0.00    -0.047 A 
ATOM      5  C3  UNL d   1       1.885  -0.039   0.745  0.00  0.00    -0.047 A 
ATOM      6  C4  UNL d   1       0.730  -0.661   0.319  0.00  0.00    -0.004 A 
ENDROOT
TORSDOF 0
ENDMDL
