MODEL 1
REMARK minimizedAffinity -1.88101685
REMARK minimizedRMSD -1
REMARK  0 active torsions:
REMARK  status: ('A' for Active; 'I' for Inactive)
ROOT
ATOM      1  C   UNL d   1      -0.618   0.620  -0.068  0.00  0.00     0.172 C 
ATOM      2  N   UNL d   1      -1.505   0.096  -1.080  0.00  0.00    -0.070 N 
ATOM      3  C1  UNL d   1      -2.520  -0.797  -0.866  0.00  0.00    -0.004 A 
ATOM      4  C2  UNL d   1      -3.127  -1.044  -2.078  0.00  0.00    -0.047 A 
ATOM      5  C3  UNL d   1      -2.452  -0.273  -3.055  0.00  0.00    -0.047 A 
ATOM      6  C4  UNL d   1      -1.452   0.423  -2.409  0.00  0.00    -0.004 A 
ENDROOT
TORSDOF 0
ENDMDL
