MODEL 1
REMARK minimizedAffinity -3.52272201
REMARK minimizedRMSD -1
REMARK  0 active torsions:
REMARK  status: ('A' for Active; 'I' for Inactive)
ROOT
ATOM      1  C   UNL d   1      -0.584  -0.082  -0.170  0.00  0.00     0.172 C 
ATOM      2  N   UNL d   1       0.522  -0.299   0.733  0.00  0.00    -0.070 N 
ATOM      3  C1  UNL d   1       1.642   0.483   0.827  0.00  0.00    -0.004 A 
ATOM      4  C2  UNL d   1       2.452  -0.056   1.802  0.00  0.00    -0.047 A 
ATOM      5  C3  UNL d   1       1.797  -1.202   2.312  0.00  0.00    -0.047 A 
ATOM      6  C4  UNL d   1       0.604  -1.329   1.633  0.00  0.00    -0.004 A 
ENDROOT
TORSDOF 0
ENDMDL
