MODEL 1
REMARK minimizedAffinity -1.44991338
REMARK minimizedRMSD -1
REMARK  0 active torsions:
REMARK  status: ('A' for Active; 'I' for Inactive)
ROOT
ATOM      1  C   UNL d   1      -1.332   0.131  -0.042  0.00  0.00     0.172 C 
ATOM      2  N   UNL d   1       0.002   0.602   0.247  0.00  0.00    -0.070 N 
ATOM      3  C1  UNL d   1       1.011  -0.144   0.796  0.00  0.00    -0.004 A 
ATOM      4  C2  UNL d   1       2.120   0.665   0.910  0.00  0.00    -0.047 A 
ATOM      5  C3  UNL d   1       1.766   1.942   0.414  0.00  0.00    -0.047 A 
ATOM      6  C4  UNL d   1       0.449   1.875   0.010  0.00  0.00    -0.004 A 
ENDROOT
TORSDOF 0
ENDMDL
