MODEL 1
REMARK minimizedAffinity -3.24555683
REMARK minimizedRMSD -1
REMARK  0 active torsions:
REMARK  status: ('A' for Active; 'I' for Inactive)
ROOT
ATOM      1  C   UNL d   1      -1.488   0.020   0.189  0.00  0.00     0.172 C 
ATOM      2  N   UNL d   1      -0.090   0.182   0.512  0.00  0.00    -0.070 N 
ATOM      3  C1  UNL d   1       0.682   1.268   0.197  0.00  0.00    -0.004 A 
ATOM      4  C2  UNL d   1       1.953   1.038   0.678  0.00  0.00    -0.047 A 
ATOM      5  C3  UNL d   1       1.945  -0.232   1.304  0.00  0.00    -0.047 A 
ATOM      6  C4  UNL d   1       0.668  -0.739   1.186  0.00  0.00    -0.004 A 
ENDROOT
TORSDOF 0
ENDMDL
