MODEL 1
REMARK minimizedAffinity -1.74762273
REMARK minimizedRMSD -1
REMARK  0 active torsions:
REMARK  status: ('A' for Active; 'I' for Inactive)
ROOT
ATOM      1  C   UNL d   1       0.886  -2.002   1.907  0.00  0.00     0.172 C 
ATOM      2  N   UNL d   1       0.372  -1.010   0.991  0.00  0.00    -0.070 N 
ATOM      3  C1  UNL d   1       1.093   0.014   0.438  0.00  0.00    -0.004 A 
ATOM      4  C2  UNL d   1       0.245   0.735  -0.376  0.00  0.00    -0.047 A 
ATOM      5  C3  UNL d   1      -1.029   0.122  -0.309  0.00  0.00    -0.047 A 
ATOM      6  C4  UNL d   1      -0.922  -0.956   0.545  0.00  0.00    -0.004 A 
ENDROOT
TORSDOF 0
ENDMDL
