MODEL 1
REMARK minimizedAffinity -3.02975678
REMARK minimizedRMSD -1
REMARK  0 active torsions:
REMARK  status: ('A' for Active; 'I' for Inactive)
ROOT
ATOM      1  C   UNL d   1       2.534  -0.476   2.146  0.00  0.00     0.172 C 
ATOM      2  N   UNL d   1       1.706   0.074   1.099  0.00  0.00    -0.070 N 
ATOM      3  C1  UNL d   1       0.504  -0.432   0.683  0.00  0.00    -0.004 A 
ATOM      4  C2  UNL d   1       0.033   0.374  -0.330  0.00  0.00    -0.047 A 
ATOM      5  C3  UNL d   1       0.986   1.401  -0.531  0.00  0.00    -0.047 A 
ATOM      6  C4  UNL d   1       2.012   1.191   0.366  0.00  0.00    -0.004 A 
ENDROOT
TORSDOF 0
ENDMDL
