MODEL 1
REMARK minimizedAffinity 3.66947436
REMARK minimizedRMSD -1
REMARK  1 active torsions:
REMARK  status: ('A' for Active; 'I' for Inactive)
REMARK    1  A    between atoms: C1_2  and  C2_3 
ROOT
ATOM      1  C2  UNL d   1      -0.098   2.074   0.698  0.00  0.00    -0.073 A 
ATOM      2  C3  UNL d   1      -0.873   2.670   1.699  0.00  0.00    -0.002 A 
ATOM      3  C4  UNL d   1      -1.002   2.059   2.947  0.00  0.00     0.004 A 
ATOM      4  C5  UNL d   1      -0.355   0.852   3.209  0.00  0.00    -0.004 A 
ATOM      5  C6  UNL d   1       0.434   0.247   2.225  0.00  0.00    -0.075 A 
ATOM      6  C7  UNL d   1       1.135  -1.053   2.490  0.00  0.00     0.076 C 
ATOM      7  C8  UNL d   1       0.557   0.865   0.973  0.00  0.00     0.001 A 
ENDROOT
BRANCH   1   8
ATOM      8  C1  UNL d   1       0.051   2.732  -0.649  0.00  0.00     0.053 C 
ATOM      9  C   UNL d   1      -0.756   2.021  -1.724  0.00  0.00     0.018 C 
ENDBRANCH   1   8
TORSDOF 1
ENDMDL
