MODEL 1
REMARK minimizedAffinity 7.69881344
REMARK minimizedRMSD -1
REMARK  1 active torsions:
REMARK  status: ('A' for Active; 'I' for Inactive)
REMARK    1  A    between atoms: C1_2  and  C2_3 
ROOT
ATOM      1  C2  UNL d   1       0.248   4.032  -1.136  0.00  0.00    -0.073 A 
ATOM      2  C3  UNL d   1      -0.910   3.523  -1.735  0.00  0.00    -0.002 A 
ATOM      3  C4  UNL d   1      -1.639   2.510  -1.110  0.00  0.00     0.004 A 
ATOM      4  C5  UNL d   1      -1.223   2.002   0.120  0.00  0.00    -0.004 A 
ATOM      5  C6  UNL d   1      -0.076   2.506   0.740  0.00  0.00    -0.075 A 
ATOM      6  C7  UNL d   1       0.386   1.969   2.063  0.00  0.00     0.076 C 
ATOM      7  C8  UNL d   1       0.653   3.521   0.106  0.00  0.00     0.001 A 
ENDROOT
BRANCH   1   8
ATOM      8  C1  UNL d   1       1.035   5.130  -1.803  0.00  0.00     0.053 C 
ATOM      9  C   UNL d   1       0.765   5.197  -3.298  0.00  0.00     0.018 C 
ENDBRANCH   1   8
TORSDOF 1
ENDMDL
