MODEL 1
REMARK minimizedAffinity 12.5189018
REMARK minimizedRMSD -1
REMARK  1 active torsions:
REMARK  status: ('A' for Active; 'I' for Inactive)
REMARK    1  A    between atoms: C1_2  and  C2_3 
ROOT
ATOM      1  C2  UNL d   1      -2.287   2.952  -3.116  0.00  0.00    -0.073 A 
ATOM      2  C3  UNL d   1      -0.889   3.020  -3.123  0.00  0.00    -0.002 A 
ATOM      3  C4  UNL d   1      -0.236   4.043  -3.813  0.00  0.00     0.004 A 
ATOM      4  C5  UNL d   1      -0.973   5.011  -4.495  0.00  0.00    -0.004 A 
ATOM      5  C6  UNL d   1      -2.371   4.967  -4.490  0.00  0.00    -0.075 A 
ATOM      6  C7  UNL d   1      -3.178   5.999  -5.221  0.00  0.00     0.076 C 
ATOM      7  C8  UNL d   1      -3.019   3.935  -3.797  0.00  0.00     0.001 A 
ENDROOT
BRANCH   1   8
ATOM      8  C1  UNL d   1      -2.996   1.853  -2.367  0.00  0.00     0.053 C 
ATOM      9  C   UNL d   1      -2.275   1.483  -1.081  0.00  0.00     0.018 C 
ENDBRANCH   1   8
TORSDOF 1
ENDMDL
