MODEL 1
REMARK minimizedAffinity -1.3550874
REMARK minimizedRMSD -1
REMARK  1 active torsions:
REMARK  status: ('A' for Active; 'I' for Inactive)
REMARK    1  A    between atoms: C1_2  and  C2_3 
ROOT
ATOM      1  C2  UNL d   1      -0.540   2.591  -0.857  0.00  0.00    -0.073 A 
ATOM      2  C3  UNL d   1      -0.324   3.406  -1.974  0.00  0.00    -0.002 A 
ATOM      3  C4  UNL d   1      -0.035   2.839  -3.216  0.00  0.00     0.004 A 
ATOM      4  C5  UNL d   1       0.036   1.453  -3.355  0.00  0.00    -0.004 A 
ATOM      5  C6  UNL d   1      -0.188   0.621  -2.253  0.00  0.00    -0.075 A 
ATOM      6  C7  UNL d   1      -0.113  -0.872  -2.386  0.00  0.00     0.076 C 
ATOM      7  C8  UNL d   1      -0.476   1.198  -1.009  0.00  0.00     0.001 A 
ENDROOT
BRANCH   1   8
ATOM      8  C1  UNL d   1      -0.859   3.199   0.484  0.00  0.00     0.053 C 
ATOM      9  C   UNL d   1      -0.141   2.485   1.619  0.00  0.00     0.018 C 
ENDBRANCH   1   8
TORSDOF 1
ENDMDL
