MODEL 1
REMARK minimizedAffinity -0.0554820038
REMARK minimizedRMSD -1
REMARK  0 active torsions:
REMARK  status: ('A' for Active; 'I' for Inactive)
ROOT
ATOM      1  C   UNL d   1       0.345  -1.568   1.834  0.00  0.00     0.020 A 
ATOM      2  C1  UNL d   1       1.635  -1.820   1.369  0.00  0.00     0.020 A 
ATOM      3  C2  UNL d   1       2.152  -1.075   0.307  0.00  0.00     0.034 A 
ATOM      4  C3  UNL d   1       1.379  -0.074  -0.293  0.00  0.00     0.017 A 
ATOM      5  C4  UNL d   1       0.085   0.178   0.175  0.00  0.00     0.017 A 
ATOM      6  C5  UNL d   1      -0.428  -0.571   1.238  0.00  0.00     0.034 A 
ATOM      7 Cl   UNL d   1      -0.929   1.397  -0.515  0.00  0.00    -0.070 Cl
ATOM      8 Cl1  UNL d   1       2.083   0.808  -1.602  0.00  0.00    -0.070 Cl
ENDROOT
TORSDOF 0
ENDMDL
