MODEL 1
REMARK minimizedAffinity -4.13518858
REMARK minimizedRMSD -1
REMARK  0 active torsions:
REMARK  status: ('A' for Active; 'I' for Inactive)
ROOT
ATOM      1  C   UNL d   1      -0.638  -0.997   2.678  0.00  0.00     0.020 A 
ATOM      2  C1  UNL d   1       0.569  -1.696   2.683  0.00  0.00     0.020 A 
ATOM      3  C2  UNL d   1       1.494  -1.498   1.656  0.00  0.00     0.034 A 
ATOM      4  C3  UNL d   1       1.216  -0.598   0.621  0.00  0.00     0.017 A 
ATOM      5  C4  UNL d   1       0.004   0.103   0.617  0.00  0.00     0.017 A 
ATOM      6  C5  UNL d   1      -0.919  -0.099   1.648  0.00  0.00     0.034 A 
ATOM      7 Cl   UNL d   1      -0.411   1.230  -0.626  0.00  0.00    -0.070 Cl
ATOM      8 Cl1  UNL d   1       2.406  -0.402  -0.616  0.00  0.00    -0.070 Cl
ENDROOT
TORSDOF 0
ENDMDL
