MODEL 1
REMARK minimizedAffinity -2.14624286
REMARK minimizedRMSD -1
REMARK  0 active torsions:
REMARK  status: ('A' for Active; 'I' for Inactive)
ROOT
ATOM      1  C   UNL d   1      -0.597   1.096  -0.226  0.00  0.00     0.020 A 
ATOM      2  C1  UNL d   1      -1.476   1.059   0.855  0.00  0.00     0.020 A 
ATOM      3  C2  UNL d   1      -1.238   0.187   1.920  0.00  0.00     0.034 A 
ATOM      4  C3  UNL d   1      -0.118  -0.652   1.905  0.00  0.00     0.017 A 
ATOM      5  C4  UNL d   1       0.764  -0.614   0.820  0.00  0.00     0.017 A 
ATOM      6  C5  UNL d   1       0.521   0.261  -0.244  0.00  0.00     0.034 A 
ATOM      7 Cl   UNL d   1       2.168  -1.619   0.730  0.00  0.00    -0.070 Cl
ATOM      8 Cl1  UNL d   1       0.115  -1.705   3.255  0.00  0.00    -0.070 Cl
ENDROOT
TORSDOF 0
ENDMDL
