MODEL 1
REMARK minimizedAffinity -2.01474428
REMARK minimizedRMSD -1
REMARK  0 active torsions:
REMARK  status: ('A' for Active; 'I' for Inactive)
ROOT
ATOM      1  C   UNL d   1       0.683   1.597  -0.944  0.00  0.00     0.020 A 
ATOM      2  C1  UNL d   1      -0.573   1.775  -0.364  0.00  0.00     0.020 A 
ATOM      3  C2  UNL d   1      -1.000   0.917   0.652  0.00  0.00     0.034 A 
ATOM      4  C3  UNL d   1      -0.172  -0.122   1.090  0.00  0.00     0.017 A 
ATOM      5  C4  UNL d   1       1.088  -0.300   0.507  0.00  0.00     0.017 A 
ATOM      6  C5  UNL d   1       1.511   0.561  -0.509  0.00  0.00     0.034 A 
ATOM      7 Cl   UNL d   1       2.165  -1.560   0.996  0.00  0.00    -0.070 Cl
ATOM      8 Cl1  UNL d   1      -0.765  -1.144   2.351  0.00  0.00    -0.070 Cl
ENDROOT
TORSDOF 0
ENDMDL
