MODEL 1
REMARK minimizedAffinity -1.65431941
REMARK minimizedRMSD -1
REMARK  0 active torsions:
REMARK  status: ('A' for Active; 'I' for Inactive)
ROOT
ATOM      1  C   UNL d   1       1.106   0.012  -0.733  0.00  0.00     0.020 A 
ATOM      2  C1  UNL d   1      -0.016   0.642  -0.196  0.00  0.00     0.020 A 
ATOM      3  C2  UNL d   1      -0.625   0.128   0.950  0.00  0.00     0.034 A 
ATOM      4  C3  UNL d   1      -0.113  -1.021   1.564  0.00  0.00     0.017 A 
ATOM      5  C4  UNL d   1       1.014  -1.653   1.025  0.00  0.00     0.017 A 
ATOM      6  C5  UNL d   1       1.619  -1.134  -0.123  0.00  0.00     0.034 A 
ATOM      7 Cl   UNL d   1       1.703  -3.074   1.726  0.00  0.00    -0.070 Cl
ATOM      8 Cl1  UNL d   1      -0.916  -1.602   2.979  0.00  0.00    -0.070 Cl
ENDROOT
TORSDOF 0
ENDMDL
