MODEL 1
REMARK minimizedAffinity -3.43164492
REMARK minimizedRMSD -1
REMARK  0 active torsions:
REMARK  status: ('A' for Active; 'I' for Inactive)
ROOT
ATOM      1  C   UNL d   1      -0.293  -1.214   2.654  0.00  0.00     0.020 A 
ATOM      2  C1  UNL d   1       1.016  -1.661   2.480  0.00  0.00     0.020 A 
ATOM      3  C2  UNL d   1       1.764  -1.223   1.385  0.00  0.00     0.034 A 
ATOM      4  C3  UNL d   1       1.203  -0.336   0.459  0.00  0.00     0.017 A 
ATOM      5  C4  UNL d   1      -0.111   0.112   0.634  0.00  0.00     0.017 A 
ATOM      6  C5  UNL d   1      -0.856  -0.330   1.732  0.00  0.00     0.034 A 
ATOM      7 Cl   UNL d   1      -0.872   1.206  -0.466  0.00  0.00    -0.070 Cl
ATOM      8 Cl1  UNL d   1       2.185   0.164  -0.871  0.00  0.00    -0.070 Cl
ENDROOT
TORSDOF 0
ENDMDL
