MODEL 1
REMARK minimizedAffinity -5.34683037
REMARK minimizedRMSD -1
REMARK  0 active torsions:
REMARK  status: ('A' for Active; 'I' for Inactive)
ROOT
ATOM      1  C   UNL d   1       1.322  -2.233   1.403  0.00  0.00     0.020 A 
ATOM      2  C1  UNL d   1      -0.041  -1.967   1.532  0.00  0.00     0.020 A 
ATOM      3  C2  UNL d   1      -0.604  -0.871   0.876  0.00  0.00     0.034 A 
ATOM      4  C3  UNL d   1       0.197  -0.035   0.088  0.00  0.00     0.017 A 
ATOM      5  C4  UNL d   1       1.564  -0.302  -0.041  0.00  0.00     0.017 A 
ATOM      6  C5  UNL d   1       2.123  -1.402   0.618  0.00  0.00     0.034 A 
ATOM      7 Cl   UNL d   1       2.615   0.683  -0.995  0.00  0.00    -0.070 Cl
ATOM      8 Cl1  UNL d   1      -0.566   1.303  -0.695  0.00  0.00    -0.070 Cl
ENDROOT
TORSDOF 0
ENDMDL
