MODEL 1
REMARK minimizedAffinity 0.762176633
REMARK minimizedRMSD -1
REMARK  0 active torsions:
REMARK  status: ('A' for Active; 'I' for Inactive)
ROOT
ATOM      1  C   UNL d   1      -2.529   1.983  -3.013  0.00  0.00     0.020 A 
ATOM      2  C1  UNL d   1      -1.645   2.896  -2.439  0.00  0.00     0.020 A 
ATOM      3  C2  UNL d   1      -0.762   2.479  -1.440  0.00  0.00     0.034 A 
ATOM      4  C3  UNL d   1      -0.760   1.146  -1.013  0.00  0.00     0.017 A 
ATOM      5  C4  UNL d   1      -1.647   0.230  -1.591  0.00  0.00     0.017 A 
ATOM      6  C5  UNL d   1      -2.530   0.653  -2.590  0.00  0.00     0.034 A 
ATOM      7 Cl   UNL d   1      -1.704  -1.431  -1.116  0.00  0.00    -0.070 Cl
ATOM      8 Cl1  UNL d   1       0.359   0.700   0.225  0.00  0.00    -0.070 Cl
ENDROOT
TORSDOF 0
ENDMDL
