MODEL 1
REMARK minimizedAffinity -2.73261595
REMARK minimizedRMSD -1
REMARK  0 active torsions:
REMARK  status: ('A' for Active; 'I' for Inactive)
ROOT
ATOM      1  C   UNL d   1       1.971  -1.855   0.461  0.00  0.00     0.020 A 
ATOM      2  C1  UNL d   1       1.591  -0.856  -0.434  0.00  0.00     0.020 A 
ATOM      3  C2  UNL d   1       0.545   0.010  -0.112  0.00  0.00     0.034 A 
ATOM      4  C3  UNL d   1      -0.126  -0.121   1.110  0.00  0.00     0.017 A 
ATOM      5  C4  UNL d   1       0.256  -1.124   2.008  0.00  0.00     0.017 A 
ATOM      6  C5  UNL d   1       1.304  -1.989   1.680  0.00  0.00     0.034 A 
ATOM      7 Cl   UNL d   1      -0.525  -1.347   3.534  0.00  0.00    -0.070 Cl
ATOM      8 Cl1  UNL d   1      -1.410   0.986   1.443  0.00  0.00    -0.070 Cl
ENDROOT
TORSDOF 0
ENDMDL
