MODEL 1
REMARK minimizedAffinity -1.79790759
REMARK minimizedRMSD -1
REMARK  0 active torsions:
REMARK  status: ('A' for Active; 'I' for Inactive)
ROOT
ATOM      1  C   UNL d   1      -0.334   1.547  -0.388  0.00  0.00     0.020 A 
ATOM      2  C1  UNL d   1      -1.196   1.941   0.635  0.00  0.00     0.020 A 
ATOM      3  C2  UNL d   1      -2.564   2.072   0.384  0.00  0.00     0.034 A 
ATOM      4  C3  UNL d   1      -3.074   1.810  -0.893  0.00  0.00     0.017 A 
ATOM      5  C4  UNL d   1      -2.208   1.415  -1.919  0.00  0.00     0.017 A 
ATOM      6  C5  UNL d   1      -0.839   1.285  -1.662  0.00  0.00     0.034 A 
ATOM      7 Cl   UNL d   1      -2.763   1.074  -3.520  0.00  0.00    -0.070 Cl
ATOM      8 Cl1  UNL d   1      -4.775   1.992  -1.131  0.00  0.00    -0.070 Cl
ENDROOT
TORSDOF 0
ENDMDL
