MODEL 1
REMARK minimizedAffinity -3.46362114
REMARK minimizedRMSD -1
REMARK  0 active torsions:
REMARK  status: ('A' for Active; 'I' for Inactive)
ROOT
ATOM      1  C   UNL d   1       2.563  -1.483  -0.105  0.00  0.00     0.020 A 
ATOM      2  C1  UNL d   1       2.457  -0.472  -1.059  0.00  0.00     0.020 A 
ATOM      3  C2  UNL d   1       1.309   0.321  -1.111  0.00  0.00     0.034 A 
ATOM      4  C3  UNL d   1       0.262   0.104  -0.207  0.00  0.00     0.017 A 
ATOM      5  C4  UNL d   1       0.370  -0.911   0.750  0.00  0.00     0.017 A 
ATOM      6  C5  UNL d   1       1.522  -1.702   0.798  0.00  0.00     0.034 A 
ATOM      7 Cl   UNL d   1      -0.880  -1.238   1.899  0.00  0.00    -0.070 Cl
ATOM      8 Cl1  UNL d   1      -1.128   1.123  -0.329  0.00  0.00    -0.070 Cl
ENDROOT
TORSDOF 0
ENDMDL
