MODEL 1
REMARK minimizedAffinity -2.8175354
REMARK minimizedRMSD -1
REMARK  0 active torsions:
REMARK  status: ('A' for Active; 'I' for Inactive)
ROOT
ATOM      1  C   UNL d   1       0.318   1.142  -1.325  0.00  0.00     0.020 A 
ATOM      2  C1  UNL d   1      -0.758   1.575  -0.551  0.00  0.00     0.020 A 
ATOM      3  C2  UNL d   1      -1.078   0.908   0.633  0.00  0.00     0.034 A 
ATOM      4  C3  UNL d   1      -0.322  -0.194   1.047  0.00  0.00     0.017 A 
ATOM      5  C4  UNL d   1       0.758  -0.628   0.269  0.00  0.00     0.017 A 
ATOM      6  C5  UNL d   1       1.074   0.043  -0.916  0.00  0.00     0.034 A 
ATOM      7 Cl   UNL d   1       1.737  -1.980   0.715  0.00  0.00    -0.070 Cl
ATOM      8 Cl1  UNL d   1      -0.775  -0.971   2.523  0.00  0.00    -0.070 Cl
ENDROOT
TORSDOF 0
ENDMDL
