MODEL 1
REMARK minimizedAffinity -3.19075537
REMARK minimizedRMSD -1
REMARK  0 active torsions:
REMARK  status: ('A' for Active; 'I' for Inactive)
ROOT
ATOM      1  C   UNL d   1       0.715  -2.056   2.047  0.00  0.00     0.020 A 
ATOM      2  C1  UNL d   1      -0.504  -1.402   2.221  0.00  0.00     0.020 A 
ATOM      3  C2  UNL d   1      -0.892  -0.399   1.330  0.00  0.00     0.034 A 
ATOM      4  C3  UNL d   1      -0.060  -0.046   0.261  0.00  0.00     0.017 A 
ATOM      5  C4  UNL d   1       1.163  -0.703   0.087  0.00  0.00     0.017 A 
ATOM      6  C5  UNL d   1       1.547  -1.707   0.982  0.00  0.00     0.034 A 
ATOM      7 Cl   UNL d   1       2.243  -0.323  -1.208  0.00  0.00    -0.070 Cl
ATOM      8 Cl1  UNL d   1      -0.604   1.203  -0.801  0.00  0.00    -0.070 Cl
ENDROOT
TORSDOF 0
ENDMDL
