MODEL 1
REMARK minimizedAffinity -3.31103277
REMARK minimizedRMSD -1
REMARK  0 active torsions:
REMARK  status: ('A' for Active; 'I' for Inactive)
ROOT
ATOM      1  C   UNL d   1       1.356  -0.500  -0.250  0.00  0.00     0.020 A 
ATOM      2  C1  UNL d   1       0.710  -1.167  -1.290  0.00  0.00     0.020 A 
ATOM      3  C2  UNL d   1      -0.537  -0.724  -1.736  0.00  0.00     0.034 A 
ATOM      4  C3  UNL d   1      -1.143   0.389  -1.141  0.00  0.00     0.017 A 
ATOM      5  C4  UNL d   1      -0.494   1.058  -0.097  0.00  0.00     0.017 A 
ATOM      6  C5  UNL d   1       0.755   0.610   0.345  0.00  0.00     0.034 A 
ATOM      7 Cl   UNL d   1      -1.178   2.438   0.686  0.00  0.00    -0.070 Cl
ATOM      8 Cl1  UNL d   1      -2.686   0.881  -1.743  0.00  0.00    -0.070 Cl
ENDROOT
TORSDOF 0
ENDMDL
