MODEL 1
REMARK minimizedAffinity -3.79584932
REMARK minimizedRMSD -1
REMARK  0 active torsions:
REMARK  status: ('A' for Active; 'I' for Inactive)
ROOT
ATOM      1  C   UNL d   1       2.125  -1.515   0.982  0.00  0.00     0.020 A 
ATOM      2  C1  UNL d   1       2.272  -0.594  -0.054  0.00  0.00     0.020 A 
ATOM      3  C2  UNL d   1       1.257   0.328  -0.319  0.00  0.00     0.034 A 
ATOM      4  C3  UNL d   1       0.090   0.330   0.454  0.00  0.00     0.017 A 
ATOM      5  C4  UNL d   1      -0.057  -0.596   1.493  0.00  0.00     0.017 A 
ATOM      6  C5  UNL d   1       0.962  -1.516   1.754  0.00  0.00     0.034 A 
ATOM      7 Cl   UNL d   1      -1.469  -0.654   2.490  0.00  0.00    -0.070 Cl
ATOM      8 Cl1  UNL d   1      -1.125   1.498   0.071  0.00  0.00    -0.070 Cl
ENDROOT
TORSDOF 0
ENDMDL
