MODEL 1
REMARK minimizedAffinity -0.323883981
REMARK minimizedRMSD -1
REMARK  0 active torsions:
REMARK  status: ('A' for Active; 'I' for Inactive)
ROOT
ATOM      1  C   UNL d   1       2.011  -0.085  -0.491  0.00  0.00     0.020 A 
ATOM      2  C1  UNL d   1       2.060  -1.202   0.341  0.00  0.00     0.020 A 
ATOM      3  C2  UNL d   1       1.026  -1.442   1.249  0.00  0.00     0.034 A 
ATOM      4  C3  UNL d   1      -0.061  -0.563   1.326  0.00  0.00     0.017 A 
ATOM      5  C4  UNL d   1      -0.108   0.559   0.490  0.00  0.00     0.017 A 
ATOM      6  C5  UNL d   1       0.930   0.794  -0.417  0.00  0.00     0.034 A 
ATOM      7 Cl   UNL d   1      -1.416   1.688   0.527  0.00  0.00    -0.070 Cl
ATOM      8 Cl1  UNL d   1      -1.304  -0.921   2.471  0.00  0.00    -0.070 Cl
ENDROOT
TORSDOF 0
ENDMDL
