MODEL 1
REMARK minimizedAffinity -2.30571198
REMARK minimizedRMSD -1
REMARK  0 active torsions:
REMARK  status: ('A' for Active; 'I' for Inactive)
ROOT
ATOM      1  C   UNL d   1      -2.415   2.224  -3.137  0.00  0.00     0.020 A 
ATOM      2  C1  UNL d   1      -1.515   1.332  -3.718  0.00  0.00     0.020 A 
ATOM      3  C2  UNL d   1      -0.596   0.648  -2.919  0.00  0.00     0.034 A 
ATOM      4  C3  UNL d   1      -0.574   0.857  -1.535  0.00  0.00     0.017 A 
ATOM      5  C4  UNL d   1      -1.477   1.753  -0.953  0.00  0.00     0.017 A 
ATOM      6  C5  UNL d   1      -2.396   2.435  -1.758  0.00  0.00     0.034 A 
ATOM      7 Cl   UNL d   1      -1.511   2.063   0.747  0.00  0.00    -0.070 Cl
ATOM      8 Cl1  UNL d   1       0.590  -0.022  -0.608  0.00  0.00    -0.070 Cl
ENDROOT
TORSDOF 0
ENDMDL
