MODEL 1
REMARK minimizedAffinity 4.02340698
REMARK minimizedRMSD -1
REMARK  1 active torsions:
REMARK  status: ('A' for Active; 'I' for Inactive)
REMARK    1  A    between atoms: C1_2  and  C2_3 
ROOT
ATOM      1  C2  UNL d   1      -4.986   1.502  -5.255  0.00  0.00    -0.076 A 
ATOM      2  C3  UNL d   1      -5.761   2.534  -4.699  0.00  0.00     0.004 A 
ATOM      3  C4  UNL d   1      -5.169   3.717  -4.256  0.00  0.00    -0.003 A 
ATOM      4  C5  UNL d   1      -3.793   3.886  -4.364  0.00  0.00     0.000 A 
ATOM      5  C6  UNL d   1      -3.011   2.879  -4.930  0.00  0.00     0.000 A 
ATOM      6  C7  UNL d   1      -3.594   1.688  -5.396  0.00  0.00    -0.073 A 
ATOM      7  C8  UNL d   1      -2.703   0.633  -5.992  0.00  0.00     0.078 C 
ENDROOT
BRANCH   1   8
ATOM      8  C1  UNL d   1      -5.679   0.231  -5.693  0.00  0.00     0.053 C 
ATOM      9  C   UNL d   1      -5.790  -0.788  -4.569  0.00  0.00     0.018 C 
ENDBRANCH   1   8
TORSDOF 1
ENDMDL
