MODEL 1
REMARK minimizedAffinity 7.72119808
REMARK minimizedRMSD -1
REMARK  1 active torsions:
REMARK  status: ('A' for Active; 'I' for Inactive)
REMARK    1  A    between atoms: C1_2  and  C2_3 
ROOT
ATOM      1  C2  UNL d   1       1.712   1.843  -2.194  0.00  0.00    -0.076 A 
ATOM      2  C3  UNL d   1       2.705   2.771  -1.836  0.00  0.00     0.004 A 
ATOM      3  C4  UNL d   1       3.380   2.667  -0.621  0.00  0.00    -0.003 A 
ATOM      4  C5  UNL d   1       3.072   1.632   0.256  0.00  0.00     0.000 A 
ATOM      5  C6  UNL d   1       2.102   0.693  -0.091  0.00  0.00     0.000 A 
ATOM      6  C7  UNL d   1       1.424   0.774  -1.319  0.00  0.00    -0.073 A 
ATOM      7  C8  UNL d   1       0.382  -0.263  -1.639  0.00  0.00     0.078 C 
ENDROOT
BRANCH   1   8
ATOM      8  C1  UNL d   1       0.995   2.023  -3.513  0.00  0.00     0.053 C 
ATOM      9  C   UNL d   1      -0.041   3.136  -3.467  0.00  0.00     0.018 C 
ENDBRANCH   1   8
TORSDOF 1
ENDMDL
