MODEL 1
REMARK minimizedAffinity 1.32764006
REMARK minimizedRMSD -1
REMARK  1 active torsions:
REMARK  status: ('A' for Active; 'I' for Inactive)
REMARK    1  A    between atoms: C1_2  and  C2_3 
ROOT
ATOM      1  C2  UNL d   1       1.559   2.501  -2.693  0.00  0.00    -0.076 A 
ATOM      2  C3  UNL d   1       1.705   3.294  -1.542  0.00  0.00     0.004 A 
ATOM      3  C4  UNL d   1       2.424   2.834  -0.440  0.00  0.00    -0.003 A 
ATOM      4  C5  UNL d   1       3.011   1.573  -0.473  0.00  0.00     0.000 A 
ATOM      5  C6  UNL d   1       2.892   0.781  -1.614  0.00  0.00     0.000 A 
ATOM      6  C7  UNL d   1       2.183   1.236  -2.739  0.00  0.00    -0.073 A 
ATOM      7  C8  UNL d   1       2.081   0.337  -3.941  0.00  0.00     0.078 C 
ENDROOT
BRANCH   1   8
ATOM      8  C1  UNL d   1       0.745   3.042  -3.847  0.00  0.00     0.053 C 
ATOM      9  C   UNL d   1      -0.719   3.243  -3.483  0.00  0.00     0.018 C 
ENDBRANCH   1   8
TORSDOF 1
ENDMDL
