MODEL 1
REMARK minimizedAffinity 1.27602124
REMARK minimizedRMSD -1
REMARK  1 active torsions:
REMARK  status: ('A' for Active; 'I' for Inactive)
REMARK    1  A    between atoms: C1_2  and  C2_3 
ROOT
ATOM      1  C2  UNL d   1       0.828  -1.549   1.895  0.00  0.00    -0.076 A 
ATOM      2  C3  UNL d   1       0.473  -1.698   0.543  0.00  0.00     0.004 A 
ATOM      3  C4  UNL d   1       1.425  -1.574  -0.467  0.00  0.00    -0.003 A 
ATOM      4  C5  UNL d   1       2.749  -1.300  -0.141  0.00  0.00     0.000 A 
ATOM      5  C6  UNL d   1       3.122  -1.166   1.196  0.00  0.00     0.000 A 
ATOM      6  C7  UNL d   1       2.177  -1.304   2.227  0.00  0.00    -0.073 A 
ATOM      7  C8  UNL d   1       2.634  -1.144   3.651  0.00  0.00     0.078 C 
ENDROOT
BRANCH   1   8
ATOM      8  C1  UNL d   1      -0.254  -1.668   2.945  0.00  0.00     0.053 C 
ATOM      9  C   UNL d   1      -0.661  -3.110   3.202  0.00  0.00     0.018 C 
ENDBRANCH   1   8
TORSDOF 1
ENDMDL
