MODEL 1
REMARK minimizedAffinity 7.54798889
REMARK minimizedRMSD -1
REMARK  1 active torsions:
REMARK  status: ('A' for Active; 'I' for Inactive)
REMARK    1  A    between atoms: C1_2  and  C2_3 
ROOT
ATOM      1  C2  UNL d   1       1.560  -1.146   0.446  0.00  0.00    -0.076 A 
ATOM      2  C3  UNL d   1       0.462  -1.260   1.316  0.00  0.00     0.004 A 
ATOM      3  C4  UNL d   1       0.638  -1.251   2.699  0.00  0.00    -0.003 A 
ATOM      4  C5  UNL d   1       1.916  -1.127   3.234  0.00  0.00     0.000 A 
ATOM      5  C6  UNL d   1       3.015  -0.995   2.385  0.00  0.00     0.000 A 
ATOM      6  C7  UNL d   1       2.853  -0.986   0.989  0.00  0.00    -0.073 A 
ATOM      7  C8  UNL d   1       4.073  -0.847   0.122  0.00  0.00     0.078 C 
ENDROOT
BRANCH   1   8
ATOM      8  C1  UNL d   1       1.310  -1.190  -1.045  0.00  0.00     0.053 C 
ATOM      9  C   UNL d   1      -0.084  -0.709  -1.416  0.00  0.00     0.018 C 
ENDBRANCH   1   8
TORSDOF 1
ENDMDL
