MODEL 1
REMARK minimizedAffinity 1.81926811
REMARK minimizedRMSD -1
REMARK  1 active torsions:
REMARK  status: ('A' for Active; 'I' for Inactive)
REMARK    1  A    between atoms: C1_2  and  C2_3 
ROOT
ATOM      1  C2  UNL d   1       1.620   1.583  -2.229  0.00  0.00    -0.076 A 
ATOM      2  C3  UNL d   1       1.794   0.359  -2.898  0.00  0.00     0.004 A 
ATOM      3  C4  UNL d   1       2.260  -0.768  -2.223  0.00  0.00    -0.003 A 
ATOM      4  C5  UNL d   1       2.559  -0.690  -0.868  0.00  0.00     0.000 A 
ATOM      5  C6  UNL d   1       2.376   0.512  -0.184  0.00  0.00     0.000 A 
ATOM      6  C7  UNL d   1       1.891   1.653  -0.846  0.00  0.00    -0.073 A 
ATOM      7  C8  UNL d   1       1.718   2.924  -0.060  0.00  0.00     0.078 C 
ENDROOT
BRANCH   1   8
ATOM      8  C1  UNL d   1       1.137   2.778  -3.019  0.00  0.00     0.053 C 
ATOM      9  C   UNL d   1      -0.329   3.093  -2.762  0.00  0.00     0.018 C 
ENDBRANCH   1   8
TORSDOF 1
ENDMDL
