MODEL 1
REMARK minimizedAffinity 3.60508823
REMARK minimizedRMSD -1
REMARK  1 active torsions:
REMARK  status: ('A' for Active; 'I' for Inactive)
REMARK    1  A    between atoms: C1_2  and  C2_3 
ROOT
ATOM      1  C2  UNL d   1       1.135  -1.489   0.948  0.00  0.00    -0.076 A 
ATOM      2  C3  UNL d   1       2.441  -1.522   0.428  0.00  0.00     0.004 A 
ATOM      3  C4  UNL d   1       2.684  -1.253  -0.917  0.00  0.00    -0.003 A 
ATOM      4  C5  UNL d   1       1.626  -0.945  -1.765  0.00  0.00     0.000 A 
ATOM      5  C6  UNL d   1       0.327  -0.890  -1.263  0.00  0.00     0.000 A 
ATOM      6  C7  UNL d   1       0.065  -1.143   0.094  0.00  0.00    -0.073 A 
ATOM      7  C8  UNL d   1      -1.356  -1.075   0.581  0.00  0.00     0.078 C 
ENDROOT
BRANCH   1   8
ATOM      8  C1  UNL d   1       0.928  -1.816   2.410  0.00  0.00     0.053 C 
ATOM      9  C   UNL d   1       0.459  -0.614   3.215  0.00  0.00     0.018 C 
ENDBRANCH   1   8
TORSDOF 1
ENDMDL
