MODEL 1
REMARK minimizedAffinity 15.9678707
REMARK minimizedRMSD -1
REMARK  0 active torsions:
REMARK  status: ('A' for Active; 'I' for Inactive)
ROOT
ATOM      1  C   UNL d   1       1.759  -4.170   0.311  0.00  0.00     0.124 A 
ATOM      2  C1  UNL d   1       0.513  -4.381   0.884  0.00  0.00     0.062 A 
ATOM      3  C2  UNL d   1      -0.316  -3.301   1.175  0.00  0.00     0.162 A 
ATOM      4  C3  UNL d   1       0.099  -2.000   0.892  0.00  0.00    -0.034 A 
ATOM      5  C4  UNL d   1       1.354  -1.796   0.316  0.00  0.00     0.162 A 
ATOM      6  C5  UNL d   1       2.178  -2.878   0.028  0.00  0.00     0.062 A 
ATOM      7  F   UNL d   1       3.382  -2.672  -0.526  0.00  0.00    -0.097 F 
ATOM      8  F1  UNL d   1       1.784  -0.557   0.031  0.00  0.00    -0.096 F 
ATOM      9  I   UNL d   1      -1.137  -0.383   1.326  0.00  0.00    -0.060 I 
ATOM     10  F2  UNL d   1      -1.515  -3.535   1.729  0.00  0.00    -0.096 F 
ATOM     11  F3  UNL d   1       0.106  -5.629   1.160  0.00  0.00    -0.097 F 
ATOM     12  F4  UNL d   1       2.555  -5.211   0.033  0.00  0.00    -0.092 F 
ENDROOT
TORSDOF 0
ENDMDL
