MODEL 1
REMARK minimizedAffinity 10.4468527
REMARK minimizedRMSD -1
REMARK  0 active torsions:
REMARK  status: ('A' for Active; 'I' for Inactive)
ROOT
ATOM      1  C   UNL d   1       2.300  -3.503  -0.059  0.00  0.00     0.124 A 
ATOM      2  C1  UNL d   1       2.492  -2.142  -0.253  0.00  0.00     0.062 A 
ATOM      3  C2  UNL d   1       1.628  -1.223   0.334  0.00  0.00     0.162 A 
ATOM      4  C3  UNL d   1       0.564  -1.661   1.122  0.00  0.00    -0.034 A 
ATOM      5  C4  UNL d   1       0.377  -3.031   1.313  0.00  0.00     0.162 A 
ATOM      6  C5  UNL d   1       1.243  -3.946   0.724  0.00  0.00     0.062 A 
ATOM      7  F   UNL d   1       1.056  -5.261   0.913  0.00  0.00    -0.097 F 
ATOM      8  F1  UNL d   1      -0.636  -3.487   2.065  0.00  0.00    -0.096 F 
ATOM      9  I   UNL d   1      -0.731  -0.289   2.002  0.00  0.00    -0.060 I 
ATOM     10  F2  UNL d   1       1.837   0.086   0.128  0.00  0.00    -0.096 F 
ATOM     11  F3  UNL d   1       3.512  -1.712  -1.010  0.00  0.00    -0.097 F 
ATOM     12  F4  UNL d   1       3.133  -4.386  -0.625  0.00  0.00    -0.092 F 
ENDROOT
TORSDOF 0
ENDMDL
