MODEL 1
REMARK minimizedAffinity -2.85091591
REMARK minimizedRMSD -1
REMARK  0 active torsions:
REMARK  status: ('A' for Active; 'I' for Inactive)
ROOT
ATOM      1  C   UNL d   1      -0.303  -1.772   1.575  0.00  0.00     0.124 A 
ATOM      2  C1  UNL d   1       0.924  -1.522   0.974  0.00  0.00     0.062 A 
ATOM      3  C2  UNL d   1       1.861  -2.543   0.847  0.00  0.00     0.162 A 
ATOM      4  C3  UNL d   1       1.576  -3.824   1.321  0.00  0.00    -0.034 A 
ATOM      5  C4  UNL d   1       0.341  -4.067   1.925  0.00  0.00     0.162 A 
ATOM      6  C5  UNL d   1      -0.593  -3.043   2.049  0.00  0.00     0.062 A 
ATOM      7  F   UNL d   1      -1.777  -3.286   2.630  0.00  0.00    -0.097 F 
ATOM      8  F1  UNL d   1       0.034  -5.286   2.391  0.00  0.00    -0.096 F 
ATOM      9  I   UNL d   1       2.976  -5.353   1.133  0.00  0.00    -0.060 I 
ATOM     10  F2  UNL d   1       3.038  -2.274   0.263  0.00  0.00    -0.096 F 
ATOM     11  F3  UNL d   1       1.206  -0.295   0.516  0.00  0.00    -0.097 F 
ATOM     12  F4  UNL d   1      -1.203  -0.788   1.697  0.00  0.00    -0.092 F 
ENDROOT
TORSDOF 0
ENDMDL
