MODEL 1
REMARK minimizedAffinity 9.00207996
REMARK minimizedRMSD -1
REMARK  0 active torsions:
REMARK  status: ('A' for Active; 'I' for Inactive)
ROOT
ATOM      1  C   UNL d   1      -0.149  -1.812   1.415  0.00  0.00     0.124 A 
ATOM      2  C1  UNL d   1      -0.187  -3.131   1.845  0.00  0.00     0.062 A 
ATOM      3  C2  UNL d   1       0.800  -4.026   1.444  0.00  0.00     0.162 A 
ATOM      4  C3  UNL d   1       1.835  -3.605   0.609  0.00  0.00    -0.034 A 
ATOM      5  C4  UNL d   1       1.866  -2.277   0.180  0.00  0.00     0.162 A 
ATOM      6  C5  UNL d   1       0.877  -1.386   0.584  0.00  0.00     0.062 A 
ATOM      7  F   UNL d   1       0.915  -0.112   0.167  0.00  0.00    -0.097 F 
ATOM      8  F1  UNL d   1       2.847  -1.839  -0.623  0.00  0.00    -0.096 F 
ATOM      9  I   UNL d   1       3.314  -4.941   0.008  0.00  0.00    -0.060 I 
ATOM     10  F2  UNL d   1       0.739  -5.295   1.875  0.00  0.00    -0.096 F 
ATOM     11  F3  UNL d   1      -1.178  -3.545   2.648  0.00  0.00    -0.097 F 
ATOM     12  F4  UNL d   1      -1.101  -0.952   1.802  0.00  0.00    -0.092 F 
ENDROOT
TORSDOF 0
ENDMDL
