MODEL 1
REMARK minimizedAffinity 7.58351421
REMARK minimizedRMSD -1
REMARK  0 active torsions:
REMARK  status: ('A' for Active; 'I' for Inactive)
ROOT
ATOM      1  C   UNL d   1      -0.289  -2.763   2.043  0.00  0.00     0.124 A 
ATOM      2  C1  UNL d   1       0.726  -3.403   1.346  0.00  0.00     0.062 A 
ATOM      3  C2  UNL d   1       1.639  -2.662   0.602  0.00  0.00     0.162 A 
ATOM      4  C3  UNL d   1       1.543  -1.272   0.552  0.00  0.00    -0.034 A 
ATOM      5  C4  UNL d   1       0.519  -0.635   1.255  0.00  0.00     0.162 A 
ATOM      6  C5  UNL d   1      -0.392  -1.380   1.997  0.00  0.00     0.062 A 
ATOM      7  F   UNL d   1      -1.371  -0.759   2.670  0.00  0.00    -0.097 F 
ATOM      8  F1  UNL d   1       0.397   0.701   1.229  0.00  0.00    -0.096 F 
ATOM      9  I   UNL d   1       2.907  -0.160  -0.560  0.00  0.00    -0.060 I 
ATOM     10  F2  UNL d   1       2.610  -3.308  -0.062  0.00  0.00    -0.096 F 
ATOM     11  F3  UNL d   1       0.826  -4.740   1.388  0.00  0.00    -0.097 F 
ATOM     12  F4  UNL d   1      -1.167  -3.478   2.758  0.00  0.00    -0.092 F 
ENDROOT
TORSDOF 0
ENDMDL
