MODEL 1
REMARK minimizedAffinity 9.93225861
REMARK minimizedRMSD -1
REMARK  0 active torsions:
REMARK  status: ('A' for Active; 'I' for Inactive)
ROOT
ATOM      1  C   UNL d   1      -0.028  -1.768   1.337  0.00  0.00     0.124 A 
ATOM      2  C1  UNL d   1       1.212  -1.371   0.857  0.00  0.00     0.062 A 
ATOM      3  C2  UNL d   1       2.133  -2.322   0.425  0.00  0.00     0.162 A 
ATOM      4  C3  UNL d   1       1.816  -3.680   0.472  0.00  0.00    -0.034 A 
ATOM      5  C4  UNL d   1       0.568  -4.071   0.958  0.00  0.00     0.162 A 
ATOM      6  C5  UNL d   1      -0.349  -3.117   1.388  0.00  0.00     0.062 A 
ATOM      7  F   UNL d   1      -1.547  -3.502   1.852  0.00  0.00    -0.097 F 
ATOM      8  F1  UNL d   1       0.231  -5.368   1.016  0.00  0.00    -0.096 F 
ATOM      9  I   UNL d   1       3.190  -5.105  -0.172  0.00  0.00    -0.060 I 
ATOM     10  F2  UNL d   1       3.324  -1.910  -0.034  0.00  0.00    -0.096 F 
ATOM     11  F3  UNL d   1       1.526  -0.069   0.808  0.00  0.00    -0.097 F 
ATOM     12  F4  UNL d   1      -0.911  -0.851   1.752  0.00  0.00    -0.092 F 
ENDROOT
TORSDOF 0
ENDMDL
