MODEL 1
REMARK minimizedAffinity 10.5548973
REMARK minimizedRMSD -1
REMARK  0 active torsions:
REMARK  status: ('A' for Active; 'I' for Inactive)
ROOT
ATOM      1  C   UNL d   1       1.400  -3.145   0.593  0.00  0.00     0.124 A 
ATOM      2  C1  UNL d   1       1.636  -1.785   0.446  0.00  0.00     0.062 A 
ATOM      3  C2  UNL d   1       0.683  -0.861   0.864  0.00  0.00     0.162 A 
ATOM      4  C3  UNL d   1      -0.515  -1.293   1.434  0.00  0.00    -0.034 A 
ATOM      5  C4  UNL d   1      -0.744  -2.662   1.578  0.00  0.00     0.162 A 
ATOM      6  C5  UNL d   1       0.211  -3.582   1.158  0.00  0.00     0.062 A 
ATOM      7  F   UNL d   1      -0.018  -4.896   1.301  0.00  0.00    -0.097 F 
ATOM      8  F1  UNL d   1      -1.885  -3.113   2.122  0.00  0.00    -0.096 F 
ATOM      9  I   UNL d   1      -1.942   0.086   2.060  0.00  0.00    -0.060 I 
ATOM     10  F2  UNL d   1       0.937   0.447   0.709  0.00  0.00    -0.096 F 
ATOM     11  F3  UNL d   1       2.784  -1.360  -0.101  0.00  0.00    -0.097 F 
ATOM     12  F4  UNL d   1       2.319  -4.032   0.189  0.00  0.00    -0.092 F 
ENDROOT
TORSDOF 0
ENDMDL
