MODEL 1
REMARK minimizedAffinity 12.0311852
REMARK minimizedRMSD -1
REMARK  0 active torsions:
REMARK  status: ('A' for Active; 'I' for Inactive)
ROOT
ATOM      1  C   UNL d   1      -0.230  -1.187   1.444  0.00  0.00     0.124 A 
ATOM      2  C1  UNL d   1      -0.515  -2.535   1.611  0.00  0.00     0.062 A 
ATOM      3  C2  UNL d   1       0.447  -3.496   1.310  0.00  0.00     0.162 A 
ATOM      4  C3  UNL d   1       1.703  -3.111   0.841  0.00  0.00    -0.034 A 
ATOM      5  C4  UNL d   1       1.981  -1.753   0.675  0.00  0.00     0.162 A 
ATOM      6  C5  UNL d   1       1.017  -0.797   0.977  0.00  0.00     0.062 A 
ATOM      7  F   UNL d   1       1.294   0.505   0.816  0.00  0.00    -0.097 F 
ATOM      8  F1  UNL d   1       3.179  -1.349   0.226  0.00  0.00    -0.096 F 
ATOM      9  I   UNL d   1       3.143  -4.545   0.390  0.00  0.00    -0.060 I 
ATOM     10  F2  UNL d   1       0.144  -4.791   1.480  0.00  0.00    -0.096 F 
ATOM     11  F3  UNL d   1      -1.720  -2.914   2.061  0.00  0.00    -0.097 F 
ATOM     12  F4  UNL d   1      -1.158  -0.265   1.733  0.00  0.00    -0.092 F 
ENDROOT
TORSDOF 0
ENDMDL
