MODEL 1
REMARK minimizedAffinity -2.44711089
REMARK minimizedRMSD -1
REMARK  0 active torsions:
REMARK  status: ('A' for Active; 'I' for Inactive)
ROOT
ATOM      1  C1  BNZ d   1      -4.145   5.999   4.889  0.00  0.00     0.000 A 
ATOM      2  C2  BNZ d   1      -4.173   5.079   3.875  0.00  0.00     0.000 A 
ATOM      3  C3  BNZ d   1      -5.114   4.088   3.855  0.00  0.00     0.000 A 
ATOM      4  C4  BNZ d   1      -6.000   3.994   4.868  0.00  0.00     0.000 A 
ATOM      5  C5  BNZ d   1      -5.979   4.909   5.902  0.00  0.00     0.000 A 
ATOM      6  C6  BNZ d   1      -5.055   5.929   5.899  0.00  0.00     0.000 A 
ENDROOT
TORSDOF 0
ENDMDL
