MODEL 1
REMARK minimizedAffinity 0.695844889
REMARK minimizedRMSD -1
REMARK  0 active torsions:
REMARK  status: ('A' for Active; 'I' for Inactive)
ROOT
ATOM      1  C1  BNZ d   1      -3.805   5.978   4.853  0.00  0.00     0.000 A 
ATOM      2  C2  BNZ d   1      -3.817   5.233   3.704  0.00  0.00     0.000 A 
ATOM      3  C3  BNZ d   1      -4.923   4.513   3.348  0.00  0.00     0.000 A 
ATOM      4  C4  BNZ d   1      -6.000   4.507   4.161  0.00  0.00     0.000 A 
ATOM      5  C5  BNZ d   1      -5.999   5.246   5.327  0.00  0.00     0.000 A 
ATOM      6  C6  BNZ d   1      -4.898   6.000   5.662  0.00  0.00     0.000 A 
ENDROOT
TORSDOF 0
ENDMDL
