MODEL 1
REMARK minimizedAffinity 3.08802867
REMARK minimizedRMSD -1
REMARK  0 active torsions:
REMARK  status: ('A' for Active; 'I' for Inactive)
ROOT
ATOM      1  C1  BNZ d   1       2.798   1.116  -1.723  0.00  0.00     0.000 A 
ATOM      2  C2  BNZ d   1       1.758   0.785  -0.896  0.00  0.00     0.000 A 
ATOM      3  C3  BNZ d   1       1.986   0.408   0.398  0.00  0.00     0.000 A 
ATOM      4  C4  BNZ d   1       3.253   0.323   0.851  0.00  0.00     0.000 A 
ATOM      5  C5  BNZ d   1       4.313   0.644   0.026  0.00  0.00     0.000 A 
ATOM      6  C6  BNZ d   1       4.078   1.061  -1.264  0.00  0.00     0.000 A 
ENDROOT
TORSDOF 0
ENDMDL
