MODEL 1
REMARK minimizedAffinity 1.17758274
REMARK minimizedRMSD -1
REMARK  0 active torsions:
REMARK  status: ('A' for Active; 'I' for Inactive)
ROOT
ATOM      1  C1  BNZ d   1      -4.100   5.984   4.853  0.00  0.00     0.000 A 
ATOM      2  C2  BNZ d   1      -4.304   5.186   3.759  0.00  0.00     0.000 A 
ATOM      3  C3  BNZ d   1      -5.269   4.218   3.769  0.00  0.00     0.000 A 
ATOM      4  C4  BNZ d   1      -6.000   4.022   4.886  0.00  0.00     0.000 A 
ATOM      5  C5  BNZ d   1      -5.800   4.812   6.000  0.00  0.00     0.000 A 
ATOM      6  C6  BNZ d   1      -4.855   5.812   5.972  0.00  0.00     0.000 A 
ENDROOT
TORSDOF 0
ENDMDL
