MODEL 1
REMARK minimizedAffinity 3.50257969
REMARK minimizedRMSD -1
REMARK  3 active torsions:
REMARK  status: ('A' for Active; 'I' for Inactive)
REMARK    1  A    between atoms: C3'_2  and  C2'_3 
REMARK    2  A    between atoms: C2'_3  and  C1'_4 
REMARK    3  A    between atoms: C1'_4  and  C1_5 
ROOT
ATOM      1  C1  N4B d   1      -0.076  -2.063   0.266  0.00  0.00    -0.075 A 
ATOM      2  C2  N4B d   1       1.245  -2.426   0.609  0.00  0.00     0.002 A 
ATOM      3  C3  N4B d   1       2.307  -1.774   0.032  0.00  0.00     0.002 A 
ATOM      4  C4  N4B d   1       2.074  -0.774  -0.900  0.00  0.00    -0.004 A 
ATOM      5  C5  N4B d   1       0.795  -0.413  -1.207  0.00  0.00     0.002 A 
ATOM      6  C6  N4B d   1      -0.282  -1.057  -0.632  0.00  0.00     0.002 A 
ENDROOT
BRANCH   1   7
ATOM      7  C1' N4B d   1      -1.268  -2.805   0.806  0.00  0.00     0.057 C 
BRANCH   7   8
ATOM      8  C2' N4B d   1      -2.400  -1.815   1.063  0.00  0.00     0.009 C 
BRANCH   8   9
ATOM      9  C3' N4B d   1      -2.943  -1.926   2.477  0.00  0.00     0.004 C 
ATOM     10  C4' N4B d   1      -4.272  -1.251   2.644  0.00  0.00     0.003 C 
ENDBRANCH   8   9
ENDBRANCH   7   8
ENDBRANCH   1   7
TORSDOF 3
ENDMDL
