MODEL 1
REMARK minimizedAffinity -0.848242283
REMARK minimizedRMSD -1
REMARK  3 active torsions:
REMARK  status: ('A' for Active; 'I' for Inactive)
REMARK    1  A    between atoms: C3'_2  and  C2'_3 
REMARK    2  A    between atoms: C2'_3  and  C1'_4 
REMARK    3  A    between atoms: C1'_4  and  C1_5 
ROOT
ATOM      1  C1  N4B d   1      -3.865   0.885   3.826  0.00  0.00    -0.075 A 
ATOM      2  C2  N4B d   1      -4.904   0.262   3.101  0.00  0.00     0.002 A 
ATOM      3  C3  N4B d   1      -4.806  -1.066   2.765  0.00  0.00     0.002 A 
ATOM      4  C4  N4B d   1      -3.675  -1.783   3.125  0.00  0.00    -0.004 A 
ATOM      5  C5  N4B d   1      -2.687  -1.180   3.847  0.00  0.00     0.002 A 
ATOM      6  C6  N4B d   1      -2.774   0.153   4.195  0.00  0.00     0.002 A 
ENDROOT
BRANCH   1   7
ATOM      7  C1' N4B d   1      -3.888   2.356   4.141  0.00  0.00     0.057 C 
BRANCH   7   8
ATOM      8  C2' N4B d   1      -3.220   3.123   3.004  0.00  0.00     0.009 C 
BRANCH   8   9
ATOM      9  C3' N4B d   1      -4.079   3.143   1.751  0.00  0.00     0.004 C 
ATOM     10  C4' N4B d   1      -4.078   4.478   1.068  0.00  0.00     0.003 C 
ENDBRANCH   8   9
ENDBRANCH   7   8
ENDBRANCH   1   7
TORSDOF 3
ENDMDL
