MODEL 1
REMARK minimizedAffinity 6.3632288
REMARK minimizedRMSD -1
REMARK  3 active torsions:
REMARK  status: ('A' for Active; 'I' for Inactive)
REMARK    1  A    between atoms: C3'_2  and  C2'_3 
REMARK    2  A    between atoms: C2'_3  and  C1'_4 
REMARK    3  A    between atoms: C1'_4  and  C1_5 
ROOT
ATOM      1  C1  N4B d   1       0.431   0.098  -1.995  0.00  0.00    -0.075 A 
ATOM      2  C2  N4B d   1      -0.451  -0.768  -1.314  0.00  0.00     0.002 A 
ATOM      3  C3  N4B d   1       0.014  -1.555  -0.289  0.00  0.00     0.002 A 
ATOM      4  C4  N4B d   1       1.355  -1.507   0.059  0.00  0.00    -0.004 A 
ATOM      5  C5  N4B d   1       2.196  -0.648  -0.587  0.00  0.00     0.002 A 
ATOM      6  C6  N4B d   1       1.742   0.152  -1.616  0.00  0.00     0.002 A 
ENDROOT
BRANCH   1   7
ATOM      7  C1' N4B d   1      -0.012   0.915  -3.178  0.00  0.00     0.057 C 
BRANCH   7   8
ATOM      8  C2' N4B d   1       0.450   0.230  -4.461  0.00  0.00     0.009 C 
BRANCH   8   9
ATOM      9  C3' N4B d   1      -0.377  -1.005  -4.775  0.00  0.00     0.004 C 
ATOM     10  C4' N4B d   1       0.345  -2.282  -4.464  0.00  0.00     0.003 C 
ENDBRANCH   8   9
ENDBRANCH   7   8
ENDBRANCH   1   7
TORSDOF 3
ENDMDL
