MODEL 1
REMARK minimizedAffinity 13.3589821
REMARK minimizedRMSD -1
REMARK  3 active torsions:
REMARK  status: ('A' for Active; 'I' for Inactive)
REMARK    1  A    between atoms: C3'_2  and  C2'_3 
REMARK    2  A    between atoms: C2'_3  and  C1'_4 
REMARK    3  A    between atoms: C1'_4  and  C1_5 
ROOT
ATOM      1  C1  N4B d   1       0.865  -0.476  -1.826  0.00  0.00    -0.075 A 
ATOM      2  C2  N4B d   1      -0.117  -0.892  -0.900  0.00  0.00     0.002 A 
ATOM      3  C3  N4B d   1      -0.502  -2.210  -0.854  0.00  0.00     0.002 A 
ATOM      4  C4  N4B d   1       0.063  -3.121  -1.734  0.00  0.00    -0.004 A 
ATOM      5  C5  N4B d   1       1.029  -2.715  -2.608  0.00  0.00     0.002 A 
ATOM      6  C6  N4B d   1       1.429  -1.395  -2.662  0.00  0.00     0.002 A 
ENDROOT
BRANCH   1   7
ATOM      7  C1' N4B d   1       1.257   0.969  -1.971  0.00  0.00     0.057 C 
BRANCH   7   8
ATOM      8  C2' N4B d   1       0.743   1.751  -0.766  0.00  0.00     0.009 C 
BRANCH   8   9
ATOM      9  C3' N4B d   1       1.795   2.696  -0.211  0.00  0.00     0.004 C 
ATOM     10  C4' N4B d   1       2.562   2.103   0.933  0.00  0.00     0.003 C 
ENDBRANCH   8   9
ENDBRANCH   7   8
ENDBRANCH   1   7
TORSDOF 3
ENDMDL
