MODEL 1
REMARK minimizedAffinity 10.2929087
REMARK minimizedRMSD -1
REMARK  3 active torsions:
REMARK  status: ('A' for Active; 'I' for Inactive)
REMARK    1  A    between atoms: C3'_2  and  C2'_3 
REMARK    2  A    between atoms: C2'_3  and  C1'_4 
REMARK    3  A    between atoms: C1'_4  and  C1_5 
ROOT
ATOM      1  C1  N4B d   1       1.585   1.211  -4.335  0.00  0.00    -0.075 A 
ATOM      2  C2  N4B d   1       1.420   0.023  -3.590  0.00  0.00     0.002 A 
ATOM      3  C3  N4B d   1       0.857   0.070  -2.338  0.00  0.00     0.002 A 
ATOM      4  C4  N4B d   1       0.471   1.291  -1.805  0.00  0.00    -0.004 A 
ATOM      5  C5  N4B d   1       0.611   2.431  -2.541  0.00  0.00     0.002 A 
ATOM      6  C6  N4B d   1       1.171   2.398  -3.802  0.00  0.00     0.002 A 
ENDROOT
BRANCH   1   7
ATOM      7  C1' N4B d   1       2.274   1.221  -5.672  0.00  0.00     0.057 C 
BRANCH   7   8
ATOM      8  C2' N4B d   1       3.694   1.750  -5.500  0.00  0.00     0.009 C 
BRANCH   8   9
ATOM      9  C3' N4B d   1       4.698   0.628  -5.299  0.00  0.00     0.004 C 
ATOM     10  C4' N4B d   1       5.880   1.046  -4.476  0.00  0.00     0.003 C 
ENDBRANCH   8   9
ENDBRANCH   7   8
ENDBRANCH   1   7
TORSDOF 3
ENDMDL
