MODEL 1
REMARK minimizedAffinity 5.94453382
REMARK minimizedRMSD -1
REMARK  3 active torsions:
REMARK  status: ('A' for Active; 'I' for Inactive)
REMARK    1  A    between atoms: C3'_2  and  C2'_3 
REMARK    2  A    between atoms: C2'_3  and  C1'_4 
REMARK    3  A    between atoms: C1'_4  and  C1_5 
ROOT
ATOM      1  C1  N4B d   1       1.872   1.802  -4.322  0.00  0.00    -0.075 A 
ATOM      2  C2  N4B d   1       1.917   0.651  -3.505  0.00  0.00     0.002 A 
ATOM      3  C3  N4B d   1       1.249   0.635  -2.305  0.00  0.00     0.002 A 
ATOM      4  C4  N4B d   1       0.549   1.759  -1.894  0.00  0.00    -0.004 A 
ATOM      5  C5  N4B d   1       0.489   2.858  -2.701  0.00  0.00     0.002 A 
ATOM      6  C6  N4B d   1       1.152   2.886  -3.912  0.00  0.00     0.002 A 
ENDROOT
BRANCH   1   7
ATOM      7  C1' N4B d   1       2.656   1.898  -5.602  0.00  0.00     0.057 C 
BRANCH   7   8
ATOM      8  C2' N4B d   1       4.005   2.550  -5.316  0.00  0.00     0.009 C 
BRANCH   8   9
ATOM      9  C3' N4B d   1       5.151   1.560  -5.429  0.00  0.00     0.004 C 
ATOM     10  C4' N4B d   1       5.999   1.509  -4.193  0.00  0.00     0.003 C 
ENDBRANCH   8   9
ENDBRANCH   7   8
ENDBRANCH   1   7
TORSDOF 3
ENDMDL
