MODEL 1
REMARK minimizedAffinity 2.12389755
REMARK minimizedRMSD -1
REMARK  3 active torsions:
REMARK  status: ('A' for Active; 'I' for Inactive)
REMARK    1  A    between atoms: C3'_2  and  C2'_3 
REMARK    2  A    between atoms: C2'_3  and  C1'_4 
REMARK    3  A    between atoms: C1'_4  and  C1_5 
ROOT
ATOM      1  C1  N4B d   1       1.431  -1.082  -2.119  0.00  0.00    -0.075 A 
ATOM      2  C2  N4B d   1       1.395   0.044  -2.970  0.00  0.00     0.002 A 
ATOM      3  C3  N4B d   1       1.405  -0.125  -4.333  0.00  0.00     0.002 A 
ATOM      4  C4  N4B d   1       1.470  -1.404  -4.865  0.00  0.00    -0.004 A 
ATOM      5  C5  N4B d   1       1.478  -2.487  -4.036  0.00  0.00     0.002 A 
ATOM      6  C6  N4B d   1       1.464  -2.333  -2.665  0.00  0.00     0.002 A 
ENDROOT
BRANCH   1   7
ATOM      7  C1' N4B d   1       1.508  -0.944  -0.623  0.00  0.00     0.057 C 
BRANCH   7   8
ATOM      8  C2' N4B d   1       0.238  -0.266  -0.116  0.00  0.00     0.009 C 
BRANCH   8   9
ATOM      9  C3' N4B d   1      -0.888  -1.262   0.103  0.00  0.00     0.004 C 
ATOM     10  C4' N4B d   1      -0.594  -2.238   1.203  0.00  0.00     0.003 C 
ENDBRANCH   8   9
ENDBRANCH   7   8
ENDBRANCH   1   7
TORSDOF 3
ENDMDL
