MODEL 1
REMARK minimizedAffinity 6.96549749
REMARK minimizedRMSD -1
REMARK  3 active torsions:
REMARK  status: ('A' for Active; 'I' for Inactive)
REMARK    1  A    between atoms: C3'_2  and  C2'_3 
REMARK    2  A    between atoms: C2'_3  and  C1'_4 
REMARK    3  A    between atoms: C1'_4  and  C1_5 
ROOT
ATOM      1  C1  N4B d   1       1.771   0.656  -3.677  0.00  0.00    -0.075 A 
ATOM      2  C2  N4B d   1       1.843  -0.475  -2.835  0.00  0.00     0.002 A 
ATOM      3  C3  N4B d   1       1.228  -0.457  -1.607  0.00  0.00     0.002 A 
ATOM      4  C4  N4B d   1       0.554   0.683  -1.194  0.00  0.00    -0.004 A 
ATOM      5  C5  N4B d   1       0.467   1.762  -2.025  0.00  0.00     0.002 A 
ATOM      6  C6  N4B d   1       1.077   1.756  -3.263  0.00  0.00     0.002 A 
ENDROOT
BRANCH   1   7
ATOM      7  C1' N4B d   1       2.499   0.715  -4.992  0.00  0.00     0.057 C 
BRANCH   7   8
ATOM      8  C2' N4B d   1       3.673   1.682  -4.871  0.00  0.00     0.009 C 
BRANCH   8   9
ATOM      9  C3' N4B d   1       4.972   1.062  -5.357  0.00  0.00     0.004 C 
ATOM     10  C4' N4B d   1       5.999   0.940  -4.270  0.00  0.00     0.003 C 
ENDBRANCH   8   9
ENDBRANCH   7   8
ENDBRANCH   1   7
TORSDOF 3
ENDMDL
