MODEL 1
REMARK minimizedAffinity 9.94348907
REMARK minimizedRMSD -1
REMARK  3 active torsions:
REMARK  status: ('A' for Active; 'I' for Inactive)
REMARK    1  A    between atoms: C3'_2  and  C2'_3 
REMARK    2  A    between atoms: C2'_3  and  C1'_4 
REMARK    3  A    between atoms: C1'_4  and  C1_5 
ROOT
ATOM      1  C1  N4B d   1       2.105  -5.989   3.503  0.00  0.00    -0.075 A 
ATOM      2  C2  N4B d   1       3.252  -5.976   2.679  0.00  0.00     0.002 A 
ATOM      3  C3  N4B d   1       4.503  -5.965   3.245  0.00  0.00     0.002 A 
ATOM      4  C4  N4B d   1       4.631  -5.946   4.626  0.00  0.00    -0.004 A 
ATOM      5  C5  N4B d   1       3.519  -5.984   5.414  0.00  0.00     0.002 A 
ATOM      6  C6  N4B d   1       2.255  -6.000   4.859  0.00  0.00     0.002 A 
ENDROOT
BRANCH   1   7
ATOM      7  C1' N4B d   1       0.716  -5.915   2.931  0.00  0.00     0.057 C 
BRANCH   7   8
ATOM      8  C2' N4B d   1       0.759  -5.158   1.607  0.00  0.00     0.009 C 
BRANCH   8   9
ATOM      9  C3' N4B d   1      -0.111  -3.913   1.636  0.00  0.00     0.004 C 
ATOM     10  C4' N4B d   1       0.616  -2.685   1.172  0.00  0.00     0.003 C 
ENDBRANCH   8   9
ENDBRANCH   7   8
ENDBRANCH   1   7
TORSDOF 3
ENDMDL
