MODEL 1
REMARK minimizedAffinity 8.31847286
REMARK minimizedRMSD -1
REMARK  0 active torsions:
REMARK  status: ('A' for Active; 'I' for Inactive)
ROOT
ATOM      1  C2' OXE d   1       0.392  -4.440  -0.128  0.00  0.00     0.078 C 
ATOM      2  C1' OXE d   1      -0.521  -2.056   1.038  0.00  0.00     0.078 C 
ATOM      3  C1  OXE d   1      -1.059  -2.425  -0.323  0.00  0.00    -0.078 A 
ATOM      4  C2  OXE d   1      -0.571  -3.569  -0.906  0.00  0.00    -0.078 A 
ATOM      5  C3  OXE d   1      -1.074  -3.984  -2.136  0.00  0.00     0.003 A 
ATOM      6  C4  OXE d   1      -1.957  -3.168  -2.852  0.00  0.00    -0.002 A 
ATOM      7  C5  OXE d   1      -2.436  -1.978  -2.294  0.00  0.00    -0.002 A 
ATOM      8  C6  OXE d   1      -2.030  -1.614  -1.015  0.00  0.00     0.003 A 
ENDROOT
TORSDOF 0
ENDMDL
