MODEL 1
REMARK minimizedAffinity -1.25914037
REMARK minimizedRMSD -1
REMARK  0 active torsions:
REMARK  status: ('A' for Active; 'I' for Inactive)
ROOT
ATOM      1  C2' OXE d   1      -5.998  -4.002   0.372  0.00  0.00     0.078 C 
ATOM      2  C1' OXE d   1      -5.274  -5.254  -2.034  0.00  0.00     0.078 C 
ATOM      3  C1  OXE d   1      -4.519  -4.012  -1.633  0.00  0.00    -0.078 A 
ATOM      4  C2  OXE d   1      -4.911  -3.379  -0.477  0.00  0.00    -0.078 A 
ATOM      5  C3  OXE d   1      -4.212  -2.261  -0.033  0.00  0.00     0.003 A 
ATOM      6  C4  OXE d   1      -3.214  -1.685  -0.829  0.00  0.00    -0.002 A 
ATOM      7  C5  OXE d   1      -2.827  -2.291  -2.029  0.00  0.00    -0.002 A 
ATOM      8  C6  OXE d   1      -3.439  -3.476  -2.423  0.00  0.00     0.003 A 
ENDROOT
TORSDOF 0
ENDMDL
