MODEL 1
REMARK minimizedAffinity -0.363649637
REMARK minimizedRMSD -1
REMARK  0 active torsions:
REMARK  status: ('A' for Active; 'I' for Inactive)
ROOT
ATOM      1  C2' OXE d   1       5.989   4.409  -5.902  0.00  0.00     0.078 C 
ATOM      2  C1' OXE d   1       5.296   1.689  -5.885  0.00  0.00     0.078 C 
ATOM      3  C1  OXE d   1       4.178   2.700  -5.935  0.00  0.00    -0.078 A 
ATOM      4  C2  OXE d   1       4.524   4.029  -5.895  0.00  0.00    -0.078 A 
ATOM      5  C3  OXE d   1       3.535   5.003  -5.994  0.00  0.00     0.003 A 
ATOM      6  C4  OXE d   1       2.182   4.643  -5.977  0.00  0.00    -0.002 A 
ATOM      7  C5  OXE d   1       1.806   3.295  -5.977  0.00  0.00    -0.002 A 
ATOM      8  C6  OXE d   1       2.790   2.313  -5.999  0.00  0.00     0.003 A 
ENDROOT
TORSDOF 0
ENDMDL
