MODEL 1
REMARK minimizedAffinity 6.87581968
REMARK minimizedRMSD -1
REMARK  0 active torsions:
REMARK  status: ('A' for Active; 'I' for Inactive)
ROOT
ATOM      1  C2' OXE d   1       0.145  -4.252  -0.398  0.00  0.00     0.078 C 
ATOM      2  C1' OXE d   1      -1.736  -3.486  -2.337  0.00  0.00     0.078 C 
ATOM      3  C1  OXE d   1      -1.750  -2.757  -1.016  0.00  0.00    -0.078 A 
ATOM      4  C2  OXE d   1      -0.857  -3.170  -0.057  0.00  0.00    -0.078 A 
ATOM      5  C3  OXE d   1      -0.791  -2.496   1.159  0.00  0.00     0.003 A 
ATOM      6  C4  OXE d   1      -1.727  -1.503   1.471  0.00  0.00    -0.002 A 
ATOM      7  C5  OXE d   1      -2.671  -1.095   0.523  0.00  0.00    -0.002 A 
ATOM      8  C6  OXE d   1      -2.668  -1.681  -0.738  0.00  0.00     0.003 A 
ENDROOT
TORSDOF 0
ENDMDL
