MODEL 1
REMARK minimizedAffinity 3.68173265
REMARK minimizedRMSD -1
REMARK  0 active torsions:
REMARK  status: ('A' for Active; 'I' for Inactive)
ROOT
ATOM      1  C2' OXE d   1      -3.005  -4.137  -5.997  0.00  0.00     0.078 C 
ATOM      2  C1' OXE d   1      -0.984  -2.189  -5.995  0.00  0.00     0.078 C 
ATOM      3  C1  OXE d   1      -1.480  -2.688  -4.661  0.00  0.00    -0.078 A 
ATOM      4  C2  OXE d   1      -2.502  -3.607  -4.671  0.00  0.00    -0.078 A 
ATOM      5  C3  OXE d   1      -2.960  -4.142  -3.470  0.00  0.00     0.003 A 
ATOM      6  C4  OXE d   1      -2.496  -3.639  -2.248  0.00  0.00    -0.002 A 
ATOM      7  C5  OXE d   1      -1.484  -2.674  -2.216  0.00  0.00    -0.002 A 
ATOM      8  C6  OXE d   1      -0.937  -2.220  -3.411  0.00  0.00     0.003 A 
ENDROOT
TORSDOF 0
ENDMDL
