MODEL 1
REMARK minimizedAffinity 5.34084558
REMARK minimizedRMSD -1
REMARK  0 active torsions:
REMARK  status: ('A' for Active; 'I' for Inactive)
ROOT
ATOM      1  C2' OXE d   1       0.417  -4.482  -0.128  0.00  0.00     0.078 C 
ATOM      2  C1' OXE d   1      -0.476  -2.079   1.018  0.00  0.00     0.078 C 
ATOM      3  C1  OXE d   1      -0.954  -2.416  -0.372  0.00  0.00    -0.078 A 
ATOM      4  C2  OXE d   1      -0.475  -3.570  -0.943  0.00  0.00    -0.078 A 
ATOM      5  C3  OXE d   1      -0.927  -3.955  -2.202  0.00  0.00     0.003 A 
ATOM      6  C4  OXE d   1      -1.744  -3.102  -2.954  0.00  0.00    -0.002 A 
ATOM      7  C5  OXE d   1      -2.211  -1.903  -2.406  0.00  0.00    -0.002 A 
ATOM      8  C6  OXE d   1      -1.861  -1.566  -1.104  0.00  0.00     0.003 A 
ENDROOT
TORSDOF 0
ENDMDL
