MODEL 1
REMARK minimizedAffinity 6.04227161
REMARK minimizedRMSD -1
REMARK  0 active torsions:
REMARK  status: ('A' for Active; 'I' for Inactive)
ROOT
ATOM      1  C2' OXE d   1      -0.735  -2.101   1.353  0.00  0.00     0.078 C 
ATOM      2  C1' OXE d   1       0.848  -3.956  -0.038  0.00  0.00     0.078 C 
ATOM      3  C1  OXE d   1      -0.224  -3.227  -0.809  0.00  0.00    -0.078 A 
ATOM      4  C2  OXE d   1      -1.024  -2.356  -0.110  0.00  0.00    -0.078 A 
ATOM      5  C3  OXE d   1      -1.992  -1.617  -0.784  0.00  0.00     0.003 A 
ATOM      6  C4  OXE d   1      -2.260  -1.866  -2.136  0.00  0.00    -0.002 A 
ATOM      7  C5  OXE d   1      -1.483  -2.778  -2.857  0.00  0.00    -0.002 A 
ATOM      8  C6  OXE d   1      -0.436  -3.435  -2.221  0.00  0.00     0.003 A 
ENDROOT
TORSDOF 0
ENDMDL
