MODEL 1
REMARK minimizedAffinity 3.48085666
REMARK minimizedRMSD -1
REMARK  0 active torsions:
REMARK  status: ('A' for Active; 'I' for Inactive)
ROOT
ATOM      1  C2' OXE d   1       5.681   1.450  -1.387  0.00  0.00     0.078 C 
ATOM      2  C1' OXE d   1       3.657   3.386  -1.580  0.00  0.00     0.078 C 
ATOM      3  C1  OXE d   1       3.620   2.445  -0.402  0.00  0.00    -0.078 A 
ATOM      4  C2  OXE d   1       4.587   1.471  -0.340  0.00  0.00    -0.078 A 
ATOM      5  C3  OXE d   1       4.632   0.612   0.754  0.00  0.00     0.003 A 
ATOM      6  C4  OXE d   1       3.611   0.631   1.712  0.00  0.00    -0.002 A 
ATOM      7  C5  OXE d   1       2.594   1.590   1.647  0.00  0.00    -0.002 A 
ATOM      8  C6  OXE d   1       2.608   2.529   0.621  0.00  0.00     0.003 A 
ENDROOT
TORSDOF 0
ENDMDL
