MODEL 1
REMARK minimizedAffinity 6.0245719
REMARK minimizedRMSD -1
REMARK  0 active torsions:
REMARK  status: ('A' for Active; 'I' for Inactive)
ROOT
ATOM      1  C2' OXE d   1      -1.390  -5.038   3.756  0.00  0.00     0.078 C 
ATOM      2  C1' OXE d   1      -1.613  -2.244   3.596  0.00  0.00     0.078 C 
ATOM      3  C1  OXE d   1      -0.872  -2.955   2.491  0.00  0.00    -0.078 A 
ATOM      4  C2  OXE d   1      -0.727  -4.317   2.602  0.00  0.00    -0.078 A 
ATOM      5  C3  OXE d   1      -0.100  -5.029   1.583  0.00  0.00     0.003 A 
ATOM      6  C4  OXE d   1       0.518  -4.354   0.524  0.00  0.00    -0.002 A 
ATOM      7  C5  OXE d   1       0.418  -2.964   0.413  0.00  0.00    -0.002 A 
ATOM      8  C6  OXE d   1      -0.309  -2.255   1.363  0.00  0.00     0.003 A 
ENDROOT
TORSDOF 0
ENDMDL
