MODEL 1
REMARK minimizedAffinity 13.3437614
REMARK minimizedRMSD -1
REMARK  0 active torsions:
REMARK  status: ('A' for Active; 'I' for Inactive)
ROOT
ATOM      1  C2' OXE d   1       3.483   1.811  -4.927  0.00  0.00     0.078 C 
ATOM      2  C1' OXE d   1       3.885   3.390  -2.641  0.00  0.00     0.078 C 
ATOM      3  C1  OXE d   1       3.129   4.001  -3.794  0.00  0.00    -0.078 A 
ATOM      4  C2  OXE d   1       2.978   3.237  -4.927  0.00  0.00    -0.078 A 
ATOM      5  C3  OXE d   1       2.242   3.733  -5.999  0.00  0.00     0.003 A 
ATOM      6  C4  OXE d   1       1.787   5.057  -5.995  0.00  0.00    -0.002 A 
ATOM      7  C5  OXE d   1       1.965   5.866  -4.867  0.00  0.00    -0.002 A 
ATOM      8  C6  OXE d   1       2.596   5.340  -3.745  0.00  0.00     0.003 A 
ENDROOT
TORSDOF 0
ENDMDL
