MODEL 1
REMARK minimizedAffinity 10.1076746
REMARK minimizedRMSD -1
REMARK  0 active torsions:
REMARK  status: ('A' for Active; 'I' for Inactive)
ROOT
ATOM      1  C2' OXE d   1      -3.390  -3.385  -5.998  0.00  0.00     0.078 C 
ATOM      2  C1' OXE d   1      -0.849  -2.193  -6.000  0.00  0.00     0.078 C 
ATOM      3  C1  OXE d   1      -1.484  -2.493  -4.665  0.00  0.00    -0.078 A 
ATOM      4  C2  OXE d   1      -2.748  -3.034  -4.674  0.00  0.00    -0.078 A 
ATOM      5  C3  OXE d   1      -3.357  -3.380  -3.471  0.00  0.00     0.003 A 
ATOM      6  C4  OXE d   1      -2.760  -3.042  -2.251  0.00  0.00    -0.002 A 
ATOM      7  C5  OXE d   1      -1.491  -2.455  -2.220  0.00  0.00    -0.002 A 
ATOM      8  C6  OXE d   1      -0.823  -2.213  -3.415  0.00  0.00     0.003 A 
ENDROOT
TORSDOF 0
ENDMDL
