MODEL 1
REMARK minimizedAffinity 9.99932957
REMARK minimizedRMSD -1
REMARK  0 active torsions:
REMARK  status: ('A' for Active; 'I' for Inactive)
ROOT
ATOM      1  C2' OXE d   1      -1.397  -2.326  -1.925  0.00  0.00     0.078 C 
ATOM      2  C1' OXE d   1       0.610  -3.344  -0.246  0.00  0.00     0.078 C 
ATOM      3  C1  OXE d   1      -0.586  -2.692   0.402  0.00  0.00    -0.078 A 
ATOM      4  C2  OXE d   1      -1.541  -2.155  -0.428  0.00  0.00    -0.078 A 
ATOM      5  C3  OXE d   1      -2.690  -1.591   0.118  0.00  0.00     0.003 A 
ATOM      6  C4  OXE d   1      -2.811  -1.428   1.503  0.00  0.00    -0.002 A 
ATOM      7  C5  OXE d   1      -1.831  -1.932   2.365  0.00  0.00    -0.002 A 
ATOM      8  C6  OXE d   1      -0.735  -2.603   1.834  0.00  0.00     0.003 A 
ENDROOT
TORSDOF 0
ENDMDL
