MODEL 1
REMARK minimizedAffinity 10.5115871
REMARK minimizedRMSD -1
REMARK  0 active torsions:
REMARK  status: ('A' for Active; 'I' for Inactive)
ROOT
ATOM      1  C2' OXE d   1      -4.569  -3.714  -2.411  0.00  0.00     0.078 C 
ATOM      2  C1' OXE d   1      -1.846  -3.117  -2.083  0.00  0.00     0.078 C 
ATOM      3  C1  OXE d   1      -2.429  -3.004  -3.469  0.00  0.00    -0.078 A 
ATOM      4  C2  OXE d   1      -3.751  -3.343  -3.629  0.00  0.00    -0.078 A 
ATOM      5  C3  OXE d   1      -4.352  -3.204  -4.876  0.00  0.00     0.003 A 
ATOM      6  C4  OXE d   1      -3.586  -2.869  -6.000  0.00  0.00    -0.002 A 
ATOM      7  C5  OXE d   1      -2.229  -2.559  -5.866  0.00  0.00    -0.002 A 
ATOM      8  C6  OXE d   1      -1.646  -2.580  -4.604  0.00  0.00     0.003 A 
ENDROOT
TORSDOF 0
ENDMDL
