MODEL 1
REMARK minimizedAffinity 10.1084061
REMARK minimizedRMSD -1
REMARK  0 active torsions:
REMARK  status: ('A' for Active; 'I' for Inactive)
ROOT
ATOM      1  C2' OXE d   1      -1.183  -2.378  -2.080  0.00  0.00     0.078 C 
ATOM      2  C1' OXE d   1       0.942  -3.128  -0.405  0.00  0.00     0.078 C 
ATOM      3  C1  OXE d   1      -0.307  -2.584   0.243  0.00  0.00    -0.078 A 
ATOM      4  C2  OXE d   1      -1.324  -2.176  -0.587  0.00  0.00    -0.078 A 
ATOM      5  C3  OXE d   1      -2.518  -1.718  -0.039  0.00  0.00     0.003 A 
ATOM      6  C4  OXE d   1      -2.637  -1.526   1.343  0.00  0.00    -0.002 A 
ATOM      7  C5  OXE d   1      -1.598  -1.898   2.203  0.00  0.00    -0.002 A 
ATOM      8  C6  OXE d   1      -0.446  -2.467   1.673  0.00  0.00     0.003 A 
ENDROOT
TORSDOF 0
ENDMDL
