MODEL 1
REMARK minimizedAffinity 9.84705353
REMARK minimizedRMSD -1
REMARK  0 active torsions:
REMARK  status: ('A' for Active; 'I' for Inactive)
ROOT
ATOM      1  C2' OXE d   1      -0.770  -4.192  -2.425  0.00  0.00     0.078 C 
ATOM      2  C1' OXE d   1      -2.176  -1.763  -2.370  0.00  0.00     0.078 C 
ATOM      3  C1  OXE d   1      -2.184  -2.552  -3.656  0.00  0.00    -0.078 A 
ATOM      4  C2  OXE d   1      -1.455  -3.716  -3.688  0.00  0.00    -0.078 A 
ATOM      5  C3  OXE d   1      -1.474  -4.510  -4.831  0.00  0.00     0.003 A 
ATOM      6  C4  OXE d   1      -2.102  -4.058  -5.998  0.00  0.00    -0.002 A 
ATOM      7  C5  OXE d   1      -2.817  -2.856  -5.999  0.00  0.00    -0.002 A 
ATOM      8  C6  OXE d   1      -2.903  -2.113  -4.826  0.00  0.00     0.003 A 
ENDROOT
TORSDOF 0
ENDMDL
