MODEL 1
REMARK minimizedAffinity 7.07498074
REMARK minimizedRMSD -1
REMARK  0 active torsions:
REMARK  status: ('A' for Active; 'I' for Inactive)
ROOT
ATOM      1  C2' OXE d   1      -0.045  -3.032  -4.870  0.00  0.00     0.078 C 
ATOM      2  C1' OXE d   1      -1.466  -2.665  -2.476  0.00  0.00     0.078 C 
ATOM      3  C1  OXE d   1      -2.235  -3.135  -3.686  0.00  0.00    -0.078 A 
ATOM      4  C2  OXE d   1      -1.540  -3.267  -4.864  0.00  0.00    -0.078 A 
ATOM      5  C3  OXE d   1      -2.190  -3.750  -5.997  0.00  0.00     0.003 A 
ATOM      6  C4  OXE d   1      -3.575  -3.956  -5.986  0.00  0.00    -0.002 A 
ATOM      7  C5  OXE d   1      -4.308  -3.789  -4.806  0.00  0.00    -0.002 A 
ATOM      8  C6  OXE d   1      -3.648  -3.421  -3.640  0.00  0.00     0.003 A 
ENDROOT
TORSDOF 0
ENDMDL
