MODEL 1
REMARK minimizedAffinity 2.32040501
REMARK minimizedRMSD -1
REMARK  0 active torsions:
REMARK  status: ('A' for Active; 'I' for Inactive)
ROOT
ATOM      1  C2' OXE d   1       4.424  -3.594  -4.544  0.00  0.00     0.078 C 
ATOM      2  C1' OXE d   1       2.215  -2.215  -5.594  0.00  0.00     0.078 C 
ATOM      3  C1  OXE d   1       3.533  -1.484  -5.525  0.00  0.00    -0.078 A 
ATOM      4  C2  OXE d   1       4.597  -2.151  -4.967  0.00  0.00    -0.078 A 
ATOM      5  C3  OXE d   1       5.849  -1.543  -4.929  0.00  0.00     0.003 A 
ATOM      6  C4  OXE d   1       5.998  -0.205  -5.312  0.00  0.00    -0.002 A 
ATOM      7  C5  OXE d   1       4.918   0.506  -5.846  0.00  0.00    -0.002 A 
ATOM      8  C6  OXE d   1       3.692  -0.132  -5.999  0.00  0.00     0.003 A 
ENDROOT
TORSDOF 0
ENDMDL
