MODEL 1
REMARK minimizedAffinity 7.39704275
REMARK minimizedRMSD -1
REMARK  0 active torsions:
REMARK  status: ('A' for Active; 'I' for Inactive)
ROOT
ATOM      1  C2' OXE d   1      -1.560  -4.649  -2.294  0.00  0.00     0.078 C 
ATOM      2  C1' OXE d   1      -2.190  -1.914  -2.219  0.00  0.00     0.078 C 
ATOM      3  C1  OXE d   1      -2.204  -2.603  -3.561  0.00  0.00    -0.078 A 
ATOM      4  C2  OXE d   1      -1.849  -3.930  -3.595  0.00  0.00    -0.078 A 
ATOM      5  C3  OXE d   1      -1.897  -4.626  -4.799  0.00  0.00     0.003 A 
ATOM      6  C4  OXE d   1      -2.155  -3.952  -5.998  0.00  0.00    -0.002 A 
ATOM      7  C5  OXE d   1      -2.481  -2.591  -5.991  0.00  0.00    -0.002 A 
ATOM      8  C6  OXE d   1      -2.551  -1.913  -4.779  0.00  0.00     0.003 A 
ENDROOT
TORSDOF 0
ENDMDL
