MODEL 1
REMARK minimizedAffinity 7.52955675
REMARK minimizedRMSD -1
REMARK  0 active torsions:
REMARK  status: ('A' for Active; 'I' for Inactive)
ROOT
ATOM      1  C2' OXE d   1      -1.458  -4.654  -2.312  0.00  0.00     0.078 C 
ATOM      2  C1' OXE d   1      -1.256  -1.855  -2.253  0.00  0.00     0.078 C 
ATOM      3  C1  OXE d   1      -1.541  -2.512  -3.580  0.00  0.00    -0.078 A 
ATOM      4  C2  OXE d   1      -1.591  -3.885  -3.608  0.00  0.00    -0.078 A 
ATOM      5  C3  OXE d   1      -1.905  -4.539  -4.796  0.00  0.00     0.003 A 
ATOM      6  C4  OXE d   1      -2.018  -3.820  -5.993  0.00  0.00    -0.002 A 
ATOM      7  C5  OXE d   1      -1.930  -2.424  -5.993  0.00  0.00    -0.002 A 
ATOM      8  C6  OXE d   1      -1.735  -1.753  -4.791  0.00  0.00     0.003 A 
ENDROOT
TORSDOF 0
ENDMDL
