MODEL 1
REMARK minimizedAffinity 5.76457214
REMARK minimizedRMSD -1
REMARK  1 active torsions:
REMARK  status: ('A' for Active; 'I' for Inactive)
REMARK    1  A    between atoms: C1_2  and  C2_3 
ROOT
ATOM      1  C2  UNL d   1      -4.028   0.950  -2.193  0.00  0.00    -0.076 A 
ATOM      2  C3  UNL d   1      -5.141   1.728  -2.556  0.00  0.00     0.004 A 
ATOM      3  C4  UNL d   1      -5.199   2.364  -3.795  0.00  0.00    -0.003 A 
ATOM      4  C5  UNL d   1      -4.145   2.231  -4.692  0.00  0.00     0.000 A 
ATOM      5  C6  UNL d   1      -3.041   1.448  -4.356  0.00  0.00     0.000 A 
ATOM      6  C7  UNL d   1      -2.974   0.787  -3.118  0.00  0.00    -0.073 A 
ATOM      7  C8  UNL d   1      -1.757  -0.040  -2.805  0.00  0.00     0.078 C 
ENDROOT
BRANCH   1   8
ATOM      8  C1  UNL d   1      -4.010   0.306  -0.825  0.00  0.00     0.053 C 
ATOM      9  C   UNL d   1      -4.935   1.004   0.160  0.00  0.00     0.018 C 
ENDBRANCH   1   8
TORSDOF 1
ENDMDL
