MODEL 1
REMARK minimizedAffinity 15.117219
REMARK minimizedRMSD -1
REMARK  1 active torsions:
REMARK  status: ('A' for Active; 'I' for Inactive)
REMARK    1  A    between atoms: C1_2  and  C2_3 
ROOT
ATOM      1  C2  UNL d   1      -4.129   0.291  -3.634  0.00  0.00    -0.076 A 
ATOM      2  C3  UNL d   1      -3.960  -0.321  -2.380  0.00  0.00     0.004 A 
ATOM      3  C4  UNL d   1      -2.872  -1.155  -2.130  0.00  0.00    -0.003 A 
ATOM      4  C5  UNL d   1      -1.935  -1.391  -3.130  0.00  0.00     0.000 A 
ATOM      5  C6  UNL d   1      -2.077  -0.778  -4.374  0.00  0.00     0.000 A 
ATOM      6  C7  UNL d   1      -3.160   0.079  -4.638  0.00  0.00    -0.073 A 
ATOM      7  C8  UNL d   1      -3.267   0.709  -5.999  0.00  0.00     0.078 C 
ENDROOT
BRANCH   1   8
ATOM      8  C1  UNL d   1      -5.343   1.165  -3.856  0.00  0.00     0.053 C 
ATOM      9  C   UNL d   1      -6.000   1.592  -2.552  0.00  0.00     0.018 C 
ENDBRANCH   1   8
TORSDOF 1
ENDMDL
