MODEL 1
REMARK minimizedAffinity 16.690134
REMARK minimizedRMSD -1
REMARK  1 active torsions:
REMARK  status: ('A' for Active; 'I' for Inactive)
REMARK    1  A    between atoms: C1_2  and  C2_3 
ROOT
ATOM      1  C2  UNL d   1       3.532  -0.653  -1.221  0.00  0.00    -0.076 A 
ATOM      2  C3  UNL d   1       4.580  -0.475  -2.142  0.00  0.00     0.004 A 
ATOM      3  C4  UNL d   1       5.146   0.781  -2.352  0.00  0.00    -0.003 A 
ATOM      4  C5  UNL d   1       4.675   1.880  -1.643  0.00  0.00     0.000 A 
ATOM      5  C6  UNL d   1       3.648   1.720  -0.713  0.00  0.00     0.000 A 
ATOM      6  C7  UNL d   1       3.077   0.457  -0.478  0.00  0.00    -0.073 A 
ATOM      7  C8  UNL d   1       1.969   0.343   0.533  0.00  0.00     0.078 C 
ENDROOT
BRANCH   1   8
ATOM      8  C1  UNL d   1       2.939  -2.034  -1.056  0.00  0.00     0.053 C 
ATOM      9  C   UNL d   1       2.710  -2.732  -2.387  0.00  0.00     0.018 C 
ENDBRANCH   1   8
TORSDOF 1
ENDMDL
