MODEL 1
REMARK minimizedAffinity 13.2789621
REMARK minimizedRMSD -1
REMARK  1 active torsions:
REMARK  status: ('A' for Active; 'I' for Inactive)
REMARK    1  A    between atoms: C1_2  and  C2_3 
ROOT
ATOM      1  C2  UNL d   1       5.972   3.145  -0.487  0.00  0.00    -0.076 A 
ATOM      2  C3  UNL d   1       5.971   3.951  -1.639  0.00  0.00     0.004 A 
ATOM      3  C4  UNL d   1       5.952   5.341  -1.542  0.00  0.00    -0.003 A 
ATOM      4  C5  UNL d   1       5.933   5.949  -0.292  0.00  0.00     0.000 A 
ATOM      5  C6  UNL d   1       5.951   5.165   0.862  0.00  0.00     0.000 A 
ATOM      6  C7  UNL d   1       5.987   3.763   0.782  0.00  0.00    -0.073 A 
ATOM      7  C8  UNL d   1       6.000   2.967   2.058  0.00  0.00     0.078 C 
ENDROOT
BRANCH   1   8
ATOM      8  C1  UNL d   1       5.966   1.643  -0.655  0.00  0.00     0.053 C 
ATOM      9  C   UNL d   1       4.850   0.973   0.133  0.00  0.00     0.018 C 
ENDBRANCH   1   8
TORSDOF 1
ENDMDL
