MODEL 1
REMARK minimizedAffinity 12.9875164
REMARK minimizedRMSD -1
REMARK  1 active torsions:
REMARK  status: ('A' for Active; 'I' for Inactive)
REMARK    1  A    between atoms: C1_2  and  C2_3 
ROOT
ATOM      1  C2  UNL d   1       2.837   0.513  -0.194  0.00  0.00    -0.076 A 
ATOM      2  C3  UNL d   1       3.528   1.737  -0.182  0.00  0.00     0.004 A 
ATOM      3  C4  UNL d   1       4.875   1.805  -0.535  0.00  0.00    -0.003 A 
ATOM      4  C5  UNL d   1       5.552   0.649  -0.907  0.00  0.00     0.000 A 
ATOM      5  C6  UNL d   1       4.878  -0.571  -0.942  0.00  0.00     0.000 A 
ATOM      6  C7  UNL d   1       3.516  -0.654  -0.604  0.00  0.00    -0.073 A 
ATOM      7  C8  UNL d   1       2.840  -1.997  -0.653  0.00  0.00     0.078 C 
ENDROOT
BRANCH   1   8
ATOM      8  C1  UNL d   1       1.385   0.497   0.226  0.00  0.00     0.053 C 
ATOM      9  C   UNL d   1       0.459   1.024  -0.860  0.00  0.00     0.018 C 
ENDBRANCH   1   8
TORSDOF 1
ENDMDL
