MODEL 1
REMARK minimizedAffinity 15.8201933
REMARK minimizedRMSD -1
REMARK  1 active torsions:
REMARK  status: ('A' for Active; 'I' for Inactive)
REMARK    1  A    between atoms: C1_2  and  C2_3 
ROOT
ATOM      1  C2  UNL d   1       5.724   3.448   1.360  0.00  0.00    -0.076 A 
ATOM      2  C3  UNL d   1       5.882   4.721   1.934  0.00  0.00     0.004 A 
ATOM      3  C4  UNL d   1       6.000   5.858   1.136  0.00  0.00    -0.003 A 
ATOM      4  C5  UNL d   1       5.961   5.740  -0.249  0.00  0.00     0.000 A 
ATOM      5  C6  UNL d   1       5.787   4.487  -0.835  0.00  0.00     0.000 A 
ATOM      6  C7  UNL d   1       5.650   3.332  -0.045  0.00  0.00    -0.073 A 
ATOM      7  C8  UNL d   1       5.471   2.005  -0.730  0.00  0.00     0.078 C 
ENDROOT
BRANCH   1   8
ATOM      8  C1  UNL d   1       5.629   2.248   2.275  0.00  0.00     0.053 C 
ATOM      9  C   UNL d   1       5.470   2.640   3.735  0.00  0.00     0.018 C 
ENDBRANCH   1   8
TORSDOF 1
ENDMDL
