MODEL 1
REMARK minimizedAffinity 16.6560364
REMARK minimizedRMSD -1
REMARK  1 active torsions:
REMARK  status: ('A' for Active; 'I' for Inactive)
REMARK    1  A    between atoms: C1_2  and  C2_3 
ROOT
ATOM      1  C2  UNL d   1       3.659   0.512  -0.193  0.00  0.00    -0.076 A 
ATOM      2  C3  UNL d   1       4.554   0.564  -1.275  0.00  0.00     0.004 A 
ATOM      3  C4  UNL d   1       5.715   1.332  -1.210  0.00  0.00    -0.003 A 
ATOM      4  C5  UNL d   1       6.000   2.061  -0.060  0.00  0.00     0.000 A 
ATOM      5  C6  UNL d   1       5.131   2.008   1.029  0.00  0.00     0.000 A 
ATOM      6  C7  UNL d   1       3.965   1.225   0.986  0.00  0.00    -0.073 A 
ATOM      7  C8  UNL d   1       3.061   1.209   2.188  0.00  0.00     0.078 C 
ENDROOT
BRANCH   1   8
ATOM      8  C1  UNL d   1       2.402  -0.317  -0.332  0.00  0.00     0.053 C 
ATOM      9  C   UNL d   1       2.698  -1.795  -0.532  0.00  0.00     0.018 C 
ENDBRANCH   1   8
TORSDOF 1
ENDMDL
