MODEL 1
REMARK minimizedAffinity 15.4041243
REMARK minimizedRMSD -1
REMARK  0 active torsions:
REMARK  status: ('A' for Active; 'I' for Inactive)
ROOT
ATOM      1  C1  DEN d   1       5.356   2.397   0.299  0.00  0.00     0.130 A 
ATOM      2  C2  DEN d   1       4.694   1.516  -0.658  0.00  0.00    -0.031 A 
ATOM      3  C3  DEN d   1       4.411   2.298  -1.879  0.00  0.00     0.027 A 
ATOM      4  C4  DEN d   1       4.935   4.773  -2.377  0.00  0.00     0.027 A 
ATOM      5  C5  DEN d   1       5.479   5.931  -1.866  0.00  0.00    -0.003 A 
ATOM      6  C6  DEN d   1       5.985   6.000  -0.595  0.00  0.00     0.001 A 
ATOM      7  C7  DEN d   1       5.998   4.879   0.193  0.00  0.00     0.017 A 
ATOM      8  C8  DEN d   1       5.445   3.710  -0.314  0.00  0.00    -0.094 A 
ATOM      9  C9  DEN d   1       4.950   3.657  -1.606  0.00  0.00    -0.072 A 
ENDROOT
TORSDOF 0
ENDMDL
