MODEL 1
REMARK minimizedAffinity 10.8292627
REMARK minimizedRMSD -1
REMARK  0 active torsions:
REMARK  status: ('A' for Active; 'I' for Inactive)
ROOT
ATOM      1  C1  DEN d   1       2.335   2.162   3.152  0.00  0.00     0.130 A 
ATOM      2  C2  DEN d   1       3.149   2.610   4.279  0.00  0.00    -0.031 A 
ATOM      3  C3  DEN d   1       4.419   3.140   3.744  0.00  0.00     0.027 A 
ATOM      4  C4  DEN d   1       5.197   3.317   1.291  0.00  0.00     0.027 A 
ATOM      5  C5  DEN d   1       4.854   3.055  -0.017  0.00  0.00    -0.003 A 
ATOM      6  C6  DEN d   1       3.672   2.452  -0.355  0.00  0.00     0.001 A 
ATOM      7  C7  DEN d   1       2.769   2.131   0.624  0.00  0.00     0.017 A 
ATOM      8  C8  DEN d   1       3.111   2.384   1.946  0.00  0.00    -0.094 A 
ATOM      9  C9  DEN d   1       4.306   3.006   2.266  0.00  0.00    -0.072 A 
ENDROOT
TORSDOF 0
ENDMDL
