MODEL 1
REMARK minimizedAffinity 3.0640502
REMARK minimizedRMSD -1
REMARK  0 active torsions:
REMARK  status: ('A' for Active; 'I' for Inactive)
ROOT
ATOM      1  C1  DEN d   1      -3.473   5.253   2.361  0.00  0.00     0.130 A 
ATOM      2  C2  DEN d   1      -4.421   4.489   1.555  0.00  0.00    -0.031 A 
ATOM      3  C3  DEN d   1      -5.580   4.157   2.406  0.00  0.00     0.027 A 
ATOM      4  C4  DEN d   1      -6.000   4.751   4.881  0.00  0.00     0.027 A 
ATOM      5  C5  DEN d   1      -5.474   5.378   5.989  0.00  0.00    -0.003 A 
ATOM      6  C6  DEN d   1      -4.241   5.972   5.976  0.00  0.00     0.001 A 
ATOM      7  C7  DEN d   1      -3.509   5.992   4.818  0.00  0.00     0.017 A 
ATOM      8  C8  DEN d   1      -4.029   5.356   3.698  0.00  0.00    -0.094 A 
ATOM      9  C9  DEN d   1      -5.284   4.771   3.728  0.00  0.00    -0.072 A 
ENDROOT
TORSDOF 0
ENDMDL
