MODEL 1
REMARK minimizedAffinity 2.70587897
REMARK minimizedRMSD -1
REMARK  0 active torsions:
REMARK  status: ('A' for Active; 'I' for Inactive)
ROOT
ATOM      1  C1  DEN d   1       5.971   3.174   1.456  0.00  0.00     0.130 A 
ATOM      2  C2  DEN d   1       5.129   3.163   2.649  0.00  0.00    -0.031 A 
ATOM      3  C3  DEN d   1       3.853   2.508   2.302  0.00  0.00     0.027 A 
ATOM      4  C4  DEN d   1       3.103   1.510   0.044  0.00  0.00     0.027 A 
ATOM      5  C5  DEN d   1       3.471   1.295  -1.265  0.00  0.00    -0.003 A 
ATOM      6  C6  DEN d   1       4.674   1.717  -1.765  0.00  0.00     0.001 A 
ATOM      7  C7  DEN d   1       5.572   2.338  -0.937  0.00  0.00     0.017 A 
ATOM      8  C8  DEN d   1       5.205   2.565   0.383  0.00  0.00    -0.094 A 
ATOM      9  C9  DEN d   1       3.989   2.120   0.872  0.00  0.00    -0.072 A 
ENDROOT
TORSDOF 0
ENDMDL
