MODEL 1
REMARK minimizedAffinity -5.0378108
REMARK minimizedRMSD -1
REMARK  2 active torsions:
REMARK  status: ('A' for Active; 'I' for Inactive)
REMARK    1  A    between atoms: C1_2  and  C2_3 
REMARK    2  A    between atoms: C2_3  and  C3_4 
ROOT
ATOM      1  C3  UNL d   1      -0.317  -1.035  -0.051  0.00  0.00    -0.075 A 
ATOM      2  C4  UNL d   1       0.050  -0.790  -1.382  0.00  0.00     0.002 A 
ATOM      3  C5  UNL d   1      -0.019  -1.807  -2.334  0.00  0.00     0.002 A 
ATOM      4  C6  UNL d   1      -0.444  -3.081  -1.967  0.00  0.00    -0.004 A 
ATOM      5  C7  UNL d   1      -0.796  -3.341  -0.644  0.00  0.00     0.002 A 
ATOM      6  C8  UNL d   1      -0.732  -2.324   0.310  0.00  0.00     0.002 A 
ENDROOT
BRANCH   1   7
ATOM      7  C2  UNL d   1      -0.273   0.069   0.979  0.00  0.00     0.056 C 
BRANCH   7   8
ATOM      8  C1  UNL d   1       1.143   0.458   1.417  0.00  0.00     0.007 C 
ATOM      9  C   UNL d   1       1.441   1.940   1.239  0.00  0.00     0.009 C 
ENDBRANCH   7   8
ENDBRANCH   1   7
TORSDOF 2
ENDMDL
