MODEL 1
REMARK minimizedAffinity -4.44231653
REMARK minimizedRMSD -1
REMARK  2 active torsions:
REMARK  status: ('A' for Active; 'I' for Inactive)
REMARK    1  A    between atoms: C1_2  and  C2_3 
REMARK    2  A    between atoms: C2_3  and  C3_4 
ROOT
ATOM      1  C3  UNL d   1       0.769   1.210   0.201  0.00  0.00    -0.075 A 
ATOM      2  C4  UNL d   1       1.372   0.343   1.124  0.00  0.00     0.002 A 
ATOM      3  C5  UNL d   1       0.677  -0.762   1.616  0.00  0.00     0.002 A 
ATOM      4  C6  UNL d   1      -0.630  -1.008   1.202  0.00  0.00    -0.004 A 
ATOM      5  C7  UNL d   1      -1.245  -0.143   0.299  0.00  0.00     0.002 A 
ATOM      6  C8  UNL d   1      -0.550   0.960  -0.199  0.00  0.00     0.002 A 
ENDROOT
BRANCH   1   7
ATOM      7  C2  UNL d   1       1.526   2.391  -0.358  0.00  0.00     0.056 C 
BRANCH   7   8
ATOM      8  C1  UNL d   1       1.569   3.604   0.577  0.00  0.00     0.007 C 
ATOM      9  C   UNL d   1       0.187   4.111   0.967  0.00  0.00     0.009 C 
ENDBRANCH   7   8
ENDBRANCH   1   7
TORSDOF 2
ENDMDL
