MODEL 1
REMARK minimizedAffinity -4.29202461
REMARK minimizedRMSD -1
REMARK  2 active torsions:
REMARK  status: ('A' for Active; 'I' for Inactive)
REMARK    1  A    between atoms: C1_2  and  C2_3 
REMARK    2  A    between atoms: C2_3  and  C3_4 
ROOT
ATOM      1  C3  UNL d   1      -0.153   0.138   0.142  0.00  0.00    -0.075 A 
ATOM      2  C4  UNL d   1      -0.570  -0.466   1.338  0.00  0.00     0.002 A 
ATOM      3  C5  UNL d   1      -0.976  -1.801   1.353  0.00  0.00     0.002 A 
ATOM      4  C6  UNL d   1      -0.980  -2.544   0.175  0.00  0.00    -0.004 A 
ATOM      5  C7  UNL d   1      -0.583  -1.950  -1.021  0.00  0.00     0.002 A 
ATOM      6  C8  UNL d   1      -0.172  -0.616  -1.039  0.00  0.00     0.002 A 
ENDROOT
BRANCH   1   7
ATOM      7  C2  UNL d   1       0.316   1.573   0.124  0.00  0.00     0.056 C 
BRANCH   7   8
ATOM      8  C1  UNL d   1       1.823   1.740   0.341  0.00  0.00     0.007 C 
ATOM      9  C   UNL d   1       2.253   3.195   0.474  0.00  0.00     0.009 C 
ENDBRANCH   7   8
ENDBRANCH   1   7
TORSDOF 2
ENDMDL
