MODEL 1
REMARK minimizedAffinity -3.48673844
REMARK minimizedRMSD -1
REMARK  2 active torsions:
REMARK  status: ('A' for Active; 'I' for Inactive)
REMARK    1  A    between atoms: C1_2  and  C2_3 
REMARK    2  A    between atoms: C2_3  and  C3_4 
ROOT
ATOM      1  C3  UNL d   1      -0.247  -0.142   0.969  0.00  0.00    -0.075 A 
ATOM      2  C4  UNL d   1       1.078  -0.007   1.407  0.00  0.00     0.002 A 
ATOM      3  C5  UNL d   1       1.881   1.026   0.925  0.00  0.00     0.002 A 
ATOM      4  C6  UNL d   1       1.375   1.929  -0.007  0.00  0.00    -0.004 A 
ATOM      5  C7  UNL d   1       0.065   1.795  -0.463  0.00  0.00     0.002 A 
ATOM      6  C8  UNL d   1      -0.742   0.764   0.022  0.00  0.00     0.002 A 
ENDROOT
BRANCH   1   7
ATOM      7  C2  UNL d   1      -1.131  -1.241   1.509  0.00  0.00     0.056 C 
BRANCH   7   8
ATOM      8  C1  UNL d   1      -1.227  -2.469   0.598  0.00  0.00     0.007 C 
ATOM      9  C   UNL d   1       0.054  -3.292   0.563  0.00  0.00     0.009 C 
ENDBRANCH   7   8
ENDBRANCH   1   7
TORSDOF 2
ENDMDL
