MODEL 1
REMARK minimizedAffinity -1.82269585
REMARK minimizedRMSD -1
REMARK  2 active torsions:
REMARK  status: ('A' for Active; 'I' for Inactive)
REMARK    1  A    between atoms: C1_2  and  C2_3 
REMARK    2  A    between atoms: C2_3  and  C3_4 
ROOT
ATOM      1  C3  UNL d   1      -0.061   1.223   0.036  0.00  0.00    -0.075 A 
ATOM      2  C4  UNL d   1       1.303   1.204   0.363  0.00  0.00     0.002 A 
ATOM      3  C5  UNL d   1       1.991   2.394   0.602  0.00  0.00     0.002 A 
ATOM      4  C6  UNL d   1       1.329   3.616   0.506  0.00  0.00    -0.004 A 
ATOM      5  C7  UNL d   1      -0.022   3.648   0.165  0.00  0.00     0.002 A 
ATOM      6  C8  UNL d   1      -0.714   2.458  -0.070  0.00  0.00     0.002 A 
ENDROOT
BRANCH   1   7
ATOM      7  C2  UNL d   1      -0.818  -0.063  -0.195  0.00  0.00     0.056 C 
BRANCH   7   8
ATOM      8  C1  UNL d   1      -1.237  -0.779   1.093  0.00  0.00     0.007 C 
ATOM      9  C   UNL d   1      -0.869  -2.257   1.106  0.00  0.00     0.009 C 
ENDBRANCH   7   8
ENDBRANCH   1   7
TORSDOF 2
ENDMDL
