MODEL 1
REMARK minimizedAffinity -2.80931258
REMARK minimizedRMSD -1
REMARK  2 active torsions:
REMARK  status: ('A' for Active; 'I' for Inactive)
REMARK    1  A    between atoms: C1_2  and  C2_3 
REMARK    2  A    between atoms: C2_3  and  C3_4 
ROOT
ATOM      1  C3  UNL d   1       0.175   0.554   0.316  0.00  0.00    -0.075 A 
ATOM      2  C4  UNL d   1       0.609  -0.745   0.011  0.00  0.00     0.002 A 
ATOM      3  C5  UNL d   1      -0.139  -1.853   0.410  0.00  0.00     0.002 A 
ATOM      4  C6  UNL d   1      -1.322  -1.678   1.126  0.00  0.00    -0.004 A 
ATOM      5  C7  UNL d   1      -1.753  -0.394   1.448  0.00  0.00     0.002 A 
ATOM      6  C8  UNL d   1      -1.009   0.717   1.047  0.00  0.00     0.002 A 
ENDROOT
BRANCH   1   7
ATOM      7  C2  UNL d   1       0.965   1.758  -0.138  0.00  0.00     0.056 C 
BRANCH   7   8
ATOM      8  C1  UNL d   1       0.671   3.033   0.659  0.00  0.00     0.007 C 
ATOM      9  C   UNL d   1       1.926   3.814   1.028  0.00  0.00     0.009 C 
ENDBRANCH   7   8
ENDBRANCH   1   7
TORSDOF 2
ENDMDL
