MODEL 1
REMARK minimizedAffinity -4.11281872
REMARK minimizedRMSD -1
REMARK  2 active torsions:
REMARK  status: ('A' for Active; 'I' for Inactive)
REMARK    1  A    between atoms: C1_2  and  C2_3 
REMARK    2  A    between atoms: C2_3  and  C3_4 
ROOT
ATOM      1  C3  UNL d   1       0.985   1.049   0.447  0.00  0.00    -0.075 A 
ATOM      2  C4  UNL d   1      -0.317   0.923  -0.058  0.00  0.00     0.002 A 
ATOM      3  C5  UNL d   1      -1.166  -0.078   0.415  0.00  0.00     0.002 A 
ATOM      4  C6  UNL d   1      -0.721  -0.971   1.388  0.00  0.00    -0.004 A 
ATOM      5  C7  UNL d   1       0.576  -0.865   1.884  0.00  0.00     0.002 A 
ATOM      6  C8  UNL d   1       1.426   0.139   1.416  0.00  0.00     0.002 A 
ENDROOT
BRANCH   1   7
ATOM      7  C2  UNL d   1       1.899   2.149  -0.039  0.00  0.00     0.056 C 
BRANCH   7   8
ATOM      8  C1  UNL d   1       1.842   3.426   0.807  0.00  0.00     0.007 C 
ATOM      9  C   UNL d   1       0.532   4.187   0.659  0.00  0.00     0.009 C 
ENDBRANCH   7   8
ENDBRANCH   1   7
TORSDOF 2
ENDMDL
