MODEL 1
REMARK minimizedAffinity -4.66884327
REMARK minimizedRMSD -1
REMARK  0 active torsions:
REMARK  status: ('A' for Active; 'I' for Inactive)
ROOT
ATOM      1  C1  BNZ d   1      -0.057  -0.069   1.449  0.00  0.00     0.000 A 
ATOM      2  C2  BNZ d   1       0.227  -0.682   2.640  0.00  0.00     0.000 A 
ATOM      3  C3  BNZ d   1       1.376  -1.405   2.798  0.00  0.00     0.000 A 
ATOM      4  C4  BNZ d   1       2.219  -1.548   1.754  0.00  0.00     0.000 A 
ATOM      5  C5  BNZ d   1       1.942  -0.944   0.544  0.00  0.00     0.000 A 
ATOM      6  C6  BNZ d   1       0.803  -0.184   0.400  0.00  0.00     0.000 A 
ENDROOT
TORSDOF 0
ENDMDL
