MODEL 1
REMARK minimizedAffinity -4.82180071
REMARK minimizedRMSD -1
REMARK  0 active torsions:
REMARK  status: ('A' for Active; 'I' for Inactive)
ROOT
ATOM      1  C1  BNZ d   1      -0.176  -1.014   2.294  0.00  0.00     0.000 A 
ATOM      2  C2  BNZ d   1      -0.627  -1.099   1.004  0.00  0.00     0.000 A 
ATOM      3  C3  BNZ d   1      -0.196  -0.218   0.052  0.00  0.00     0.000 A 
ATOM      4  C4  BNZ d   1       0.654   0.770   0.399  0.00  0.00     0.000 A 
ATOM      5  C5  BNZ d   1       1.111   0.875   1.698  0.00  0.00     0.000 A 
ATOM      6  C6  BNZ d   1       0.705  -0.037   2.645  0.00  0.00     0.000 A 
ENDROOT
TORSDOF 0
ENDMDL
