MODEL 1
REMARK minimizedAffinity -4.47312593
REMARK minimizedRMSD -1
REMARK  0 active torsions:
REMARK  status: ('A' for Active; 'I' for Inactive)
ROOT
ATOM      1  C1  BNZ d   1      -0.951  -0.904   1.117  0.00  0.00     0.000 A 
ATOM      2  C2  BNZ d   1      -0.181  -0.933   2.248  0.00  0.00     0.000 A 
ATOM      3  C3  BNZ d   1       1.095  -0.441   2.239  0.00  0.00     0.000 A 
ATOM      4  C4  BNZ d   1       1.611   0.041   1.091  0.00  0.00     0.000 A 
ATOM      5  C5  BNZ d   1       0.850   0.069  -0.061  0.00  0.00     0.000 A 
ATOM      6  C6  BNZ d   1      -0.447  -0.392  -0.038  0.00  0.00     0.000 A 
ENDROOT
TORSDOF 0
ENDMDL
