MODEL 1
REMARK minimizedAffinity 2.3476603
REMARK minimizedRMSD -1
REMARK  0 active torsions:
REMARK  status: ('A' for Active; 'I' for Inactive)
ROOT
ATOM      1  C1  BNZ d   1      -0.867   2.571  -3.746  0.00  0.00     0.000 A 
ATOM      2  C2  BNZ d   1      -1.877   2.046  -2.984  0.00  0.00     0.000 A 
ATOM      3  C3  BNZ d   1      -2.645   2.850  -2.189  0.00  0.00     0.000 A 
ATOM      4  C4  BNZ d   1      -2.376   4.170  -2.125  0.00  0.00     0.000 A 
ATOM      5  C5  BNZ d   1      -1.355   4.713  -2.879  0.00  0.00     0.000 A 
ATOM      6  C6  BNZ d   1      -0.610   3.907  -3.708  0.00  0.00     0.000 A 
ENDROOT
TORSDOF 0
ENDMDL
