MODEL 1
REMARK minimizedAffinity -2.85241008
REMARK minimizedRMSD -1
REMARK  0 active torsions:
REMARK  status: ('A' for Active; 'I' for Inactive)
ROOT
ATOM      1  C1  BNZ d   1      -0.658  -0.963  -1.025  0.00  0.00     0.000 A 
ATOM      2  C2  BNZ d   1      -1.217  -0.911   0.224  0.00  0.00     0.000 A 
ATOM      3  C3  BNZ d   1      -0.452  -1.093   1.342  0.00  0.00     0.000 A 
ATOM      4  C4  BNZ d   1       0.861  -1.367   1.209  0.00  0.00     0.000 A 
ATOM      5  C5  BNZ d   1       1.439  -1.432  -0.044  0.00  0.00     0.000 A 
ATOM      6  C6  BNZ d   1       0.673  -1.209  -1.166  0.00  0.00     0.000 A 
ENDROOT
TORSDOF 0
ENDMDL
