MODEL 1
REMARK minimizedAffinity -4.65299702
REMARK minimizedRMSD -1
REMARK  0 active torsions:
REMARK  status: ('A' for Active; 'I' for Inactive)
ROOT
ATOM      1  C1  BNZ d   1       2.006  -0.774  -0.024  0.00  0.00     0.000 A 
ATOM      2  C2  BNZ d   1       1.217  -0.394   1.029  0.00  0.00     0.000 A 
ATOM      3  C3  BNZ d   1      -0.144  -0.363   0.908  0.00  0.00     0.000 A 
ATOM      4  C4  BNZ d   1      -0.712  -0.672  -0.276  0.00  0.00     0.000 A 
ATOM      5  C5  BNZ d   1       0.071  -1.047  -1.350  0.00  0.00     0.000 A 
ATOM      6  C6  BNZ d   1       1.438  -1.115  -1.213  0.00  0.00     0.000 A 
ENDROOT
TORSDOF 0
ENDMDL
