MODEL 1
REMARK minimizedAffinity -3.09386039
REMARK minimizedRMSD -1
REMARK  0 active torsions:
REMARK  status: ('A' for Active; 'I' for Inactive)
ROOT
ATOM      1  C   UNL d   1      -0.791  -0.025   0.933  0.00  0.00     0.078 C 
ATOM      2  C1  UNL d   1       0.073   0.059  -0.290  0.00  0.00    -0.077 A 
ATOM      3  C2  UNL d   1       0.309  -1.069  -1.085  0.00  0.00    -0.001 A 
ATOM      4  C3  UNL d   1       1.124  -0.978  -2.215  0.00  0.00     0.003 A 
ATOM      5  C4  UNL d   1       1.709   0.239  -2.560  0.00  0.00    -0.005 A 
ATOM      6  C5  UNL d   1       1.481   1.366  -1.773  0.00  0.00     0.003 A 
ATOM      7  C6  UNL d   1       0.667   1.277  -0.643  0.00  0.00    -0.001 A 
ENDROOT
TORSDOF 0
ENDMDL
