MODEL 1
REMARK minimizedAffinity -3.19090128
REMARK minimizedRMSD -1
REMARK  0 active torsions:
REMARK  status: ('A' for Active; 'I' for Inactive)
ROOT
ATOM      1  C   UNL d   1      -1.734   5.426  -5.937  0.00  0.00     0.078 C 
ATOM      2  C1  UNL d   1      -3.178   5.023  -5.915  0.00  0.00    -0.077 A 
ATOM      3  C2  UNL d   1      -3.549   3.676  -5.823  0.00  0.00    -0.001 A 
ATOM      4  C3  UNL d   1      -4.897   3.314  -5.813  0.00  0.00     0.003 A 
ATOM      5  C4  UNL d   1      -5.885   4.293  -5.896  0.00  0.00    -0.005 A 
ATOM      6  C5  UNL d   1      -5.525   5.636  -5.990  0.00  0.00     0.003 A 
ATOM      7  C6  UNL d   1      -4.178   6.000  -6.000  0.00  0.00    -0.001 A 
ENDROOT
TORSDOF 0
ENDMDL
