MODEL 1
REMARK minimizedAffinity -4.24410343
REMARK minimizedRMSD -1
REMARK  0 active torsions:
REMARK  status: ('A' for Active; 'I' for Inactive)
ROOT
ATOM      1  C   UNL d   1      -0.037   0.058   1.091  0.00  0.00     0.078 C 
ATOM      2  C1  UNL d   1      -1.340   0.655   1.532  0.00  0.00    -0.077 A 
ATOM      3  C2  UNL d   1      -2.559   0.054   1.197  0.00  0.00    -0.001 A 
ATOM      4  C3  UNL d   1      -3.765   0.626   1.606  0.00  0.00     0.003 A 
ATOM      5  C4  UNL d   1      -3.763   1.803   2.352  0.00  0.00    -0.005 A 
ATOM      6  C5  UNL d   1      -2.555   2.410   2.688  0.00  0.00     0.003 A 
ATOM      7  C6  UNL d   1      -1.349   1.840   2.280  0.00  0.00    -0.001 A 
ENDROOT
TORSDOF 0
ENDMDL
