MODEL 1
REMARK minimizedAffinity -4.54168844
REMARK minimizedRMSD -1
REMARK  0 active torsions:
REMARK  status: ('A' for Active; 'I' for Inactive)
ROOT
ATOM      1  C   UNL d   1      -0.637  -0.165   0.761  0.00  0.00     0.078 C 
ATOM      2  C1  UNL d   1       0.414  -0.036  -0.301  0.00  0.00    -0.077 A 
ATOM      3  C2  UNL d   1       1.406   0.949  -0.218  0.00  0.00    -0.001 A 
ATOM      4  C3  UNL d   1       2.373   1.063  -1.218  0.00  0.00     0.003 A 
ATOM      5  C4  UNL d   1       2.356   0.197  -2.309  0.00  0.00    -0.005 A 
ATOM      6  C5  UNL d   1       1.372  -0.785  -2.402  0.00  0.00     0.003 A 
ATOM      7  C6  UNL d   1       0.404  -0.901  -1.402  0.00  0.00    -0.001 A 
ENDROOT
TORSDOF 0
ENDMDL
