MODEL 1
REMARK minimizedAffinity -4.8243618
REMARK minimizedRMSD -1
REMARK  0 active torsions:
REMARK  status: ('A' for Active; 'I' for Inactive)
ROOT
ATOM      1  C   UNL d   1      -0.512  -0.083   1.019  0.00  0.00     0.078 C 
ATOM      2  C1  UNL d   1       0.225  -0.019  -0.286  0.00  0.00    -0.077 A 
ATOM      3  C2  UNL d   1      -0.409  -0.351  -1.489  0.00  0.00    -0.001 A 
ATOM      4  C3  UNL d   1       0.293  -0.296  -2.695  0.00  0.00     0.003 A 
ATOM      5  C4  UNL d   1       1.632   0.087  -2.708  0.00  0.00    -0.005 A 
ATOM      6  C5  UNL d   1       2.272   0.417  -1.515  0.00  0.00     0.003 A 
ATOM      7  C6  UNL d   1       1.572   0.363  -0.309  0.00  0.00    -0.001 A 
ENDROOT
TORSDOF 0
ENDMDL
