MODEL 1
REMARK minimizedAffinity -5.09568596
REMARK minimizedRMSD -1
REMARK  0 active torsions:
REMARK  status: ('A' for Active; 'I' for Inactive)
ROOT
ATOM      1  C   UNL d   1       1.939  -0.045  -2.891  0.00  0.00     0.078 C 
ATOM      2  C1  UNL d   1       1.296  -0.311  -1.563  0.00  0.00    -0.077 A 
ATOM      3  C2  UNL d   1       1.081   0.724  -0.645  0.00  0.00    -0.001 A 
ATOM      4  C3  UNL d   1       0.491   0.459   0.592  0.00  0.00     0.003 A 
ATOM      5  C4  UNL d   1       0.111  -0.840   0.922  0.00  0.00    -0.005 A 
ATOM      6  C5  UNL d   1       0.323  -1.877   0.016  0.00  0.00     0.003 A 
ATOM      7  C6  UNL d   1       0.913  -1.615  -1.221  0.00  0.00    -0.001 A 
ENDROOT
TORSDOF 0
ENDMDL
