MODEL 1
REMARK minimizedAffinity -4.45260429
REMARK minimizedRMSD -1
REMARK  0 active torsions:
REMARK  status: ('A' for Active; 'I' for Inactive)
ROOT
ATOM      1  C   UNL d   1       1.293   0.184  -2.993  0.00  0.00     0.078 C 
ATOM      2  C1  UNL d   1       0.949   0.065  -1.538  0.00  0.00    -0.077 A 
ATOM      3  C2  UNL d   1       0.049  -0.907  -1.087  0.00  0.00    -0.001 A 
ATOM      4  C3  UNL d   1      -0.269  -1.001   0.268  0.00  0.00     0.003 A 
ATOM      5  C4  UNL d   1       0.308  -0.124   1.185  0.00  0.00    -0.005 A 
ATOM      6  C5  UNL d   1       1.204   0.849   0.745  0.00  0.00     0.003 A 
ATOM      7  C6  UNL d   1       1.523   0.944  -0.610  0.00  0.00    -0.001 A 
ENDROOT
TORSDOF 0
ENDMDL
