MODEL 1
REMARK minimizedAffinity -5.0056262
REMARK minimizedRMSD -1
REMARK  0 active torsions:
REMARK  status: ('A' for Active; 'I' for Inactive)
ROOT
ATOM      1  C   UNL d   1      -0.652  -0.007   0.767  0.00  0.00     0.078 C 
ATOM      2  C1  UNL d   1       0.294  -0.088  -0.394  0.00  0.00    -0.077 A 
ATOM      3  C2  UNL d   1       0.233  -1.154  -1.300  0.00  0.00    -0.001 A 
ATOM      4  C3  UNL d   1       1.126  -1.222  -2.371  0.00  0.00     0.003 A 
ATOM      5  C4  UNL d   1       2.086  -0.228  -2.545  0.00  0.00    -0.005 A 
ATOM      6  C5  UNL d   1       2.156   0.836  -1.648  0.00  0.00     0.003 A 
ATOM      7  C6  UNL d   1       1.264   0.905  -0.576  0.00  0.00    -0.001 A 
ENDROOT
TORSDOF 0
ENDMDL
