MODEL 1
REMARK minimizedAffinity -3.90158701
REMARK minimizedRMSD -1
REMARK  0 active torsions:
REMARK  status: ('A' for Active; 'I' for Inactive)
ROOT
ATOM      1  C   UNL d   1      -0.634  -0.118   1.196  0.00  0.00     0.078 C 
ATOM      2  C1  UNL d   1       0.051   0.127  -0.115  0.00  0.00    -0.077 A 
ATOM      3  C2  UNL d   1       1.383   0.553  -0.165  0.00  0.00    -0.001 A 
ATOM      4  C3  UNL d   1       2.004   0.787  -1.393  0.00  0.00     0.003 A 
ATOM      5  C4  UNL d   1       1.300   0.598  -2.581  0.00  0.00    -0.005 A 
ATOM      6  C5  UNL d   1      -0.027   0.175  -2.541  0.00  0.00     0.003 A 
ATOM      7  C6  UNL d   1      -0.650  -0.059  -1.314  0.00  0.00    -0.001 A 
ENDROOT
TORSDOF 0
ENDMDL
