MODEL 1
REMARK minimizedAffinity -4.48743296
REMARK minimizedRMSD -1
REMARK  0 active torsions:
REMARK  status: ('A' for Active; 'I' for Inactive)
ROOT
ATOM      1  C   UNL d   1      -0.307  -0.980   1.137  0.00  0.00     0.078 C 
ATOM      2  C1  UNL d   1       0.404  -0.697  -0.152  0.00  0.00    -0.077 A 
ATOM      3  C2  UNL d   1       0.409  -1.633  -1.194  0.00  0.00    -0.001 A 
ATOM      4  C3  UNL d   1       1.084  -1.360  -2.385  0.00  0.00     0.003 A 
ATOM      5  C4  UNL d   1       1.759  -0.151  -2.545  0.00  0.00    -0.005 A 
ATOM      6  C5  UNL d   1       1.761   0.785  -1.514  0.00  0.00     0.003 A 
ATOM      7  C6  UNL d   1       1.087   0.514  -0.322  0.00  0.00    -0.001 A 
ENDROOT
TORSDOF 0
ENDMDL
