MODEL 1
REMARK minimizedAffinity -4.36806297
REMARK minimizedRMSD -1
REMARK  0 active torsions:
REMARK  status: ('A' for Active; 'I' for Inactive)
ROOT
ATOM      1  C   UNL d   1       0.506   1.233   0.023  0.00  0.00     0.078 C 
ATOM      2  C1  UNL d   1       0.850   0.095  -0.890  0.00  0.00    -0.077 A 
ATOM      3  C2  UNL d   1       0.187  -1.135  -0.792  0.00  0.00    -0.001 A 
ATOM      4  C3  UNL d   1       0.525  -2.189  -1.641  0.00  0.00     0.003 A 
ATOM      5  C4  UNL d   1       1.528  -2.025  -2.594  0.00  0.00    -0.005 A 
ATOM      6  C5  UNL d   1       2.196  -0.807  -2.698  0.00  0.00     0.003 A 
ATOM      7  C6  UNL d   1       1.859   0.249  -1.849  0.00  0.00    -0.001 A 
ENDROOT
TORSDOF 0
ENDMDL
