MODEL 1
REMARK minimizedAffinity -3.97386622
REMARK minimizedRMSD -1
REMARK  0 active torsions:
REMARK  status: ('A' for Active; 'I' for Inactive)
ROOT
ATOM      1  C   UNL d   1       0.942   0.332  -2.685  0.00  0.00     0.078 C 
ATOM      2  C1  UNL d   1       0.551  -0.355  -1.411  0.00  0.00    -0.077 A 
ATOM      3  C2  UNL d   1       0.639  -1.747  -1.286  0.00  0.00    -0.001 A 
ATOM      4  C3  UNL d   1       0.262  -2.374  -0.097  0.00  0.00     0.003 A 
ATOM      5  C4  UNL d   1      -0.206  -1.618   0.975  0.00  0.00    -0.005 A 
ATOM      6  C5  UNL d   1      -0.298  -0.232   0.860  0.00  0.00     0.003 A 
ATOM      7  C6  UNL d   1       0.078   0.397  -0.328  0.00  0.00    -0.001 A 
ENDROOT
TORSDOF 0
ENDMDL
