MODEL 1
REMARK minimizedAffinity -4.28570795
REMARK minimizedRMSD -1
REMARK  0 active torsions:
REMARK  status: ('A' for Active; 'I' for Inactive)
ROOT
ATOM      1  C   UNL d   1       1.595  -3.838  -1.666  0.00  0.00     0.078 C 
ATOM      2  C1  UNL d   1       1.000  -2.462  -1.672  0.00  0.00    -0.077 A 
ATOM      3  C2  UNL d   1       0.163  -2.034  -0.635  0.00  0.00    -0.001 A 
ATOM      4  C3  UNL d   1      -0.392  -0.753  -0.658  0.00  0.00     0.003 A 
ATOM      5  C4  UNL d   1      -0.116   0.109  -1.718  0.00  0.00    -0.005 A 
ATOM      6  C5  UNL d   1       0.714  -0.309  -2.755  0.00  0.00     0.003 A 
ATOM      7  C6  UNL d   1       1.270  -1.589  -2.734  0.00  0.00    -0.001 A 
ENDROOT
TORSDOF 0
ENDMDL
