MODEL 1
REMARK minimizedAffinity -4.31098604
REMARK minimizedRMSD -1
REMARK  0 active torsions:
REMARK  status: ('A' for Active; 'I' for Inactive)
ROOT
ATOM      1  C   UNL d   1      -0.836  -0.039   0.501  0.00  0.00     0.078 C 
ATOM      2  C1  UNL d   1       0.152  -0.566  -0.497  0.00  0.00    -0.077 A 
ATOM      3  C2  UNL d   1       0.351  -1.942  -0.656  0.00  0.00    -0.001 A 
ATOM      4  C3  UNL d   1       1.281  -2.418  -1.582  0.00  0.00     0.003 A 
ATOM      5  C4  UNL d   1       2.020  -1.525  -2.354  0.00  0.00    -0.005 A 
ATOM      6  C5  UNL d   1       1.831  -0.153  -2.201  0.00  0.00     0.003 A 
ATOM      7  C6  UNL d   1       0.901   0.325  -1.276  0.00  0.00    -0.001 A 
ENDROOT
TORSDOF 0
ENDMDL
