MODEL 1
REMARK minimizedAffinity 10.8676805
REMARK minimizedRMSD -1
REMARK  2 active torsions:
REMARK  status: ('A' for Active; 'I' for Inactive)
REMARK    1  A    between atoms: C2'_3  and  C1'_4 
REMARK    2  A    between atoms: C1'_4  and  C1_5 
ROOT
ATOM      1  C1  I4B d   1       3.557  -1.995   3.950  0.00  0.00    -0.075 A 
ATOM      2  C2  I4B d   1       3.586  -2.146   5.314  0.00  0.00     0.003 A 
ATOM      3  C3  I4B d   1       4.823  -2.245   5.995  0.00  0.00     0.002 A 
ATOM      4  C4  I4B d   1       5.999  -2.238   5.272  0.00  0.00    -0.004 A 
ATOM      5  C5  I4B d   1       5.969  -2.061   3.892  0.00  0.00     0.002 A 
ATOM      6  C6  I4B d   1       4.742  -1.927   3.228  0.00  0.00     0.003 A 
ENDROOT
BRANCH   1   7
ATOM      7  C1' I4B d   1       2.232  -1.927   3.260  0.00  0.00     0.060 C 
BRANCH   7   8
ATOM      8  C2' I4B d   1       2.267  -0.758   2.296  0.00  0.00    -0.013 C 
ATOM      9  C4' I4B d   1       1.112  -0.813   1.331  0.00  0.00     0.013 C 
ATOM     10  C3' I4B d   1       2.241   0.506   3.101  0.00  0.00     0.013 C 
ENDBRANCH   7   8
ENDBRANCH   1   7
TORSDOF 2
ENDMDL
