MODEL 1
REMARK minimizedAffinity 10.7434292
REMARK minimizedRMSD -1
REMARK  2 active torsions:
REMARK  status: ('A' for Active; 'I' for Inactive)
REMARK    1  A    between atoms: C2'_3  and  C1'_4 
REMARK    2  A    between atoms: C1'_4  and  C1_5 
ROOT
ATOM      1  C1  I4B d   1      -5.885  -0.119  -4.953  0.00  0.00    -0.075 A 
ATOM      2  C2  I4B d   1      -5.802   1.192  -5.351  0.00  0.00     0.003 A 
ATOM      3  C3  I4B d   1      -5.802   2.231  -4.389  0.00  0.00     0.002 A 
ATOM      4  C4  I4B d   1      -5.938   1.919  -3.052  0.00  0.00    -0.004 A 
ATOM      5  C5  I4B d   1      -5.998   0.588  -2.648  0.00  0.00     0.002 A 
ATOM      6  C6  I4B d   1      -5.959  -0.438  -3.603  0.00  0.00     0.003 A 
ENDROOT
BRANCH   1   7
ATOM      7  C1' I4B d   1      -5.915  -1.189  -5.997  0.00  0.00     0.060 C 
BRANCH   7   8
ATOM      8  C2' I4B d   1      -5.226  -2.414  -5.430  0.00  0.00    -0.013 C 
ATOM      9  C4' I4B d   1      -5.996  -3.669  -5.749  0.00  0.00     0.013 C 
ATOM     10  C3' I4B d   1      -3.839  -2.470  -5.999  0.00  0.00     0.013 C 
ENDBRANCH   7   8
ENDBRANCH   1   7
TORSDOF 2
ENDMDL
