MODEL 1
REMARK minimizedAffinity 1.99831271
REMARK minimizedRMSD -1
REMARK  1 active torsions:
REMARK  status: ('A' for Active; 'I' for Inactive)
REMARK    1  A    between atoms: C3_4  and  O_7 
ROOT
ATOM      1  C   UNL d   1      -5.972  -1.535   5.872  0.00  0.00    -0.033 A 
ATOM      2  C1  UNL d   1      -5.990  -2.839   5.372  0.00  0.00     0.039 A 
ATOM      3  C2  UNL d   1      -5.998  -3.059   3.993  0.00  0.00    -0.080 A 
ATOM      4  C3  UNL d   1      -5.987  -1.969   3.127  0.00  0.00     0.150 A 
ATOM      5  C4  UNL d   1      -5.965  -0.668   3.619  0.00  0.00    -0.007 A 
ATOM      6  C5  UNL d   1      -5.958  -0.450   4.996  0.00  0.00     0.039 A 
ENDROOT
BRANCH   4   7
ATOM      7  O   UNL d   1      -5.999  -2.135   1.774  0.00  0.00    -0.526 OA
ATOM      8  H5  UNL d   1      -6.043  -3.086   1.581  0.00  0.00     0.418 HD
ENDBRANCH   4   7
TORSDOF 1
ENDMDL
