MODEL 1
REMARK minimizedAffinity 5.11493921
REMARK minimizedRMSD -1
REMARK  1 active torsions:
REMARK  status: ('A' for Active; 'I' for Inactive)
REMARK    1  A    between atoms: C3_4  and  O_7 
ROOT
ATOM      1  C   UNL d   1       2.008   2.035   3.746  0.00  0.00    -0.033 A 
ATOM      2  C1  UNL d   1       0.953   1.801   2.863  0.00  0.00     0.039 A 
ATOM      3  C2  UNL d   1       0.537   2.806   1.987  0.00  0.00    -0.080 A 
ATOM      4  C3  UNL d   1       1.184   4.039   2.005  0.00  0.00     0.150 A 
ATOM      5  C4  UNL d   1       2.239   4.277   2.880  0.00  0.00    -0.007 A 
ATOM      6  C5  UNL d   1       2.652   3.273   3.754  0.00  0.00     0.039 A 
ENDROOT
BRANCH   4   7
ATOM      7  O   UNL d   1       0.810   5.052   1.173  0.00  0.00    -0.526 OA
ATOM      8  H5  UNL d   1       0.051   4.752   0.646  0.00  0.00     0.418 HD
ENDBRANCH   4   7
TORSDOF 1
ENDMDL
