MODEL 1
REMARK minimizedAffinity 10.177784
REMARK minimizedRMSD -1
REMARK  1 active torsions:
REMARK  status: ('A' for Active; 'I' for Inactive)
REMARK    1  A    between atoms: C3_4  and  O_7 
ROOT
ATOM      1  C   UNL d   1      -4.896  -0.940   2.954  0.00  0.00    -0.033 A 
ATOM      2  C1  UNL d   1      -4.520  -0.646   4.266  0.00  0.00     0.039 A 
ATOM      3  C2  UNL d   1      -4.864  -1.514   5.304  0.00  0.00    -0.080 A 
ATOM      4  C3  UNL d   1      -5.583  -2.671   5.017  0.00  0.00     0.150 A 
ATOM      5  C4  UNL d   1      -5.957  -2.972   3.712  0.00  0.00    -0.007 A 
ATOM      6  C5  UNL d   1      -5.613  -2.104   2.677  0.00  0.00     0.039 A 
ENDROOT
BRANCH   4   7
ATOM      7  O   UNL d   1      -5.946  -3.546   5.998  0.00  0.00    -0.526 OA
ATOM      8  H5  UNL d   1      -5.644  -3.193   6.852  0.00  0.00     0.418 HD
ENDBRANCH   4   7
TORSDOF 1
ENDMDL
