MODEL 1
REMARK minimizedAffinity -2.56612921
REMARK minimizedRMSD -1
REMARK  1 active torsions:
REMARK  status: ('A' for Active; 'I' for Inactive)
REMARK    1  A    between atoms: C3_4  and  O_7 
ROOT
ATOM      1  C   UNL d   1      -1.432   1.923  -0.348  0.00  0.00    -0.033 A 
ATOM      2  C1  UNL d   1      -0.572   0.893   0.036  0.00  0.00     0.039 A 
ATOM      3  C2  UNL d   1       0.349   1.097   1.066  0.00  0.00    -0.080 A 
ATOM      4  C3  UNL d   1       0.397   2.333   1.704  0.00  0.00     0.150 A 
ATOM      5  C4  UNL d   1      -0.460   3.363   1.329  0.00  0.00    -0.007 A 
ATOM      6  C5  UNL d   1      -1.377   3.158   0.300  0.00  0.00     0.039 A 
ENDROOT
BRANCH   4   7
ATOM      7  O   UNL d   1       1.282   2.581   2.711  0.00  0.00    -0.526 OA
ATOM      8  H5  UNL d   1       1.829   1.789   2.842  0.00  0.00     0.418 HD
ENDBRANCH   4   7
TORSDOF 1
ENDMDL
