MODEL 1
REMARK minimizedAffinity -2.67861128
REMARK minimizedRMSD -1
REMARK  1 active torsions:
REMARK  status: ('A' for Active; 'I' for Inactive)
REMARK    1  A    between atoms: C3_4  and  O_7 
ROOT
ATOM      1  C   UNL d   1      -0.968   3.755   1.225  0.00  0.00    -0.033 A 
ATOM      2  C1  UNL d   1      -0.014   4.395   0.431  0.00  0.00     0.039 A 
ATOM      3  C2  UNL d   1       0.169   4.002  -0.896  0.00  0.00    -0.080 A 
ATOM      4  C3  UNL d   1      -0.607   2.970  -1.417  0.00  0.00     0.150 A 
ATOM      5  C4  UNL d   1      -1.562   2.331  -0.633  0.00  0.00    -0.007 A 
ATOM      6  C5  UNL d   1      -1.743   2.724   0.692  0.00  0.00     0.039 A 
ENDROOT
BRANCH   4   7
ATOM      7  O   UNL d   1      -0.461   2.549  -2.705  0.00  0.00    -0.526 OA
ATOM      8  H5  UNL d   1       0.254   3.062  -3.118  0.00  0.00     0.418 HD
ENDBRANCH   4   7
TORSDOF 1
ENDMDL
