MODEL 1
REMARK minimizedAffinity -3.37105966
REMARK minimizedRMSD -1
REMARK  1 active torsions:
REMARK  status: ('A' for Active; 'I' for Inactive)
REMARK    1  A    between atoms: C3_4  and  O_7 
ROOT
ATOM      1  C   UNL d   1      -1.127   3.433   0.748  0.00  0.00    -0.033 A 
ATOM      2  C1  UNL d   1      -0.900   2.334   1.579  0.00  0.00     0.039 A 
ATOM      3  C2  UNL d   1      -0.569   1.095   1.026  0.00  0.00    -0.080 A 
ATOM      4  C3  UNL d   1      -0.468   0.969  -0.357  0.00  0.00     0.150 A 
ATOM      5  C4  UNL d   1      -0.690   2.060  -1.190  0.00  0.00    -0.007 A 
ATOM      6  C5  UNL d   1      -1.021   3.296  -0.636  0.00  0.00     0.039 A 
ENDROOT
BRANCH   4   7
ATOM      7  O   UNL d   1      -0.153  -0.221  -0.942  0.00  0.00    -0.526 OA
ATOM      8  H5  UNL d   1      -0.056  -0.891  -0.245  0.00  0.00     0.418 HD
ENDBRANCH   4   7
TORSDOF 1
ENDMDL
