MODEL 1
REMARK minimizedAffinity 1.67221606
REMARK minimizedRMSD -1
REMARK  1 active torsions:
REMARK  status: ('A' for Active; 'I' for Inactive)
REMARK    1  A    between atoms: C3_4  and  O_7 
ROOT
ATOM      1  C   UNL d   1      -1.667   1.219  -1.977  0.00  0.00    -0.033 A 
ATOM      2  C1  UNL d   1      -1.913  -0.021  -1.384  0.00  0.00     0.039 A 
ATOM      3  C2  UNL d   1      -0.959  -0.597  -0.543  0.00  0.00    -0.080 A 
ATOM      4  C3  UNL d   1       0.235   0.077  -0.302  0.00  0.00     0.150 A 
ATOM      5  C4  UNL d   1       0.486   1.314  -0.887  0.00  0.00    -0.007 A 
ATOM      6  C5  UNL d   1      -0.468   1.887  -1.727  0.00  0.00     0.039 A 
ENDROOT
BRANCH   4   7
ATOM      7  O   UNL d   1       1.199  -0.447   0.507  0.00  0.00    -0.526 OA
ATOM      8  H5  UNL d   1       0.900  -1.318   0.817  0.00  0.00     0.418 HD
ENDBRANCH   4   7
TORSDOF 1
ENDMDL
