MODEL 1
REMARK minimizedAffinity -2.55747747
REMARK minimizedRMSD -1
REMARK  1 active torsions:
REMARK  status: ('A' for Active; 'I' for Inactive)
REMARK    1  A    between atoms: C3_4  and  O_7 
ROOT
ATOM      1  C   UNL d   1       1.310   4.935  -0.199  0.00  0.00    -0.033 A 
ATOM      2  C1  UNL d   1       0.517   3.963   0.413  0.00  0.00     0.039 A 
ATOM      3  C2  UNL d   1       0.913   3.401   1.629  0.00  0.00    -0.080 A 
ATOM      4  C3  UNL d   1       2.101   3.821   2.221  0.00  0.00     0.150 A 
ATOM      5  C4  UNL d   1       2.893   4.792   1.618  0.00  0.00    -0.007 A 
ATOM      6  C5  UNL d   1       2.497   5.351   0.404  0.00  0.00     0.039 A 
ENDROOT
BRANCH   4   7
ATOM      7  O   UNL d   1       2.530   3.298   3.404  0.00  0.00    -0.526 OA
ATOM      8  H5  UNL d   1       1.897   2.618   3.689  0.00  0.00     0.418 HD
ENDBRANCH   4   7
TORSDOF 1
ENDMDL
