MODEL 1
REMARK minimizedAffinity 2.16720176
REMARK minimizedRMSD -1
REMARK  1 active torsions:
REMARK  status: ('A' for Active; 'I' for Inactive)
REMARK    1  A    between atoms: C3_4  and  O_7 
ROOT
ATOM      1  C   UNL d   1       2.115  -1.027  -0.030  0.00  0.00    -0.033 A 
ATOM      2  C1  UNL d   1       1.966  -0.518  -1.322  0.00  0.00     0.039 A 
ATOM      3  C2  UNL d   1       0.775   0.108  -1.694  0.00  0.00    -0.080 A 
ATOM      4  C3  UNL d   1      -0.258   0.218  -0.767  0.00  0.00     0.150 A 
ATOM      5  C4  UNL d   1      -0.115  -0.283   0.522  0.00  0.00    -0.007 A 
ATOM      6  C5  UNL d   1       1.075  -0.908   0.892  0.00  0.00     0.039 A 
ENDROOT
BRANCH   4   7
ATOM      7  O   UNL d   1      -1.441   0.816  -1.086  0.00  0.00    -0.526 OA
ATOM      8  H5  UNL d   1      -1.406   1.089  -2.019  0.00  0.00     0.418 HD
ENDBRANCH   4   7
TORSDOF 1
ENDMDL
