MODEL 1
REMARK minimizedAffinity -0.461730868
REMARK minimizedRMSD -1
REMARK  0 active torsions:
REMARK  status: ('A' for Active; 'I' for Inactive)
ROOT
ATOM      1  C   UNL d   1       1.026  -1.546   0.917  0.00  0.00    -0.002 A 
ATOM      2  C1  UNL d   1       0.682  -0.206   1.029  0.00  0.00     0.010 A 
ATOM      3  C2  UNL d   1       1.356   0.765   0.286  0.00  0.00     0.041 A 
ATOM      4  C3  UNL d   1       2.390   0.362  -0.583  0.00  0.00    -0.075 A 
ATOM      5  S   UNL d   1       3.353   1.374  -1.593  0.00  0.00     0.015 SA
ATOM      6  C4  UNL d   1       4.241   0.052  -2.198  0.00  0.00     0.022 A 
ATOM      7  C5  UNL d   1       3.827  -1.140  -1.653  0.00  0.00     0.026 A 
ATOM      8  C6  UNL d   1       2.753  -0.982  -0.714  0.00  0.00    -0.082 A 
ATOM      9  C7  UNL d   1       2.051  -1.942   0.055  0.00  0.00     0.045 A 
ENDROOT
TORSDOF 0
ENDMDL
