MODEL 1
REMARK minimizedAffinity -1.41592872
REMARK minimizedRMSD -1
REMARK  0 active torsions:
REMARK  status: ('A' for Active; 'I' for Inactive)
ROOT
ATOM      1  C   UNL d   1       4.004  -0.047  -2.235  0.00  0.00    -0.002 A 
ATOM      2  C1  UNL d   1       4.324  -1.277  -1.677  0.00  0.00     0.010 A 
ATOM      3  C2  UNL d   1       3.607  -1.769  -0.585  0.00  0.00     0.041 A 
ATOM      4  C3  UNL d   1       2.551  -0.999  -0.059  0.00  0.00    -0.075 A 
ATOM      5  S   UNL d   1       1.534  -1.401   1.273  0.00  0.00     0.015 SA
ATOM      6  C4  UNL d   1       0.650   0.049   1.132  0.00  0.00     0.022 A 
ATOM      7  C5  UNL d   1       1.106   0.833   0.099  0.00  0.00     0.026 A 
ATOM      8  C6  UNL d   1       2.209   0.242  -0.605  0.00  0.00    -0.082 A 
ATOM      9  C7  UNL d   1       2.956   0.714  -1.711  0.00  0.00     0.045 A 
ENDROOT
TORSDOF 0
ENDMDL
