MODEL 1
REMARK minimizedAffinity 1.89893651
REMARK minimizedRMSD -1
REMARK  0 active torsions:
REMARK  status: ('A' for Active; 'I' for Inactive)
ROOT
ATOM      1  C   UNL d   1      -0.000  -2.510   1.631  0.00  0.00    -0.002 A 
ATOM      2  C1  UNL d   1      -0.507  -1.220   1.572  0.00  0.00     0.010 A 
ATOM      3  C2  UNL d   1       0.205  -0.205   0.928  0.00  0.00     0.041 A 
ATOM      4  C3  UNL d   1       1.446  -0.513   0.338  0.00  0.00    -0.075 A 
ATOM      5  S   UNL d   1       2.493   0.567  -0.504  0.00  0.00     0.015 SA
ATOM      6  C4  UNL d   1       3.638  -0.659  -0.805  0.00  0.00     0.022 A 
ATOM      7  C5  UNL d   1       3.247  -1.869  -0.283  0.00  0.00     0.026 A 
ATOM      8  C6  UNL d   1       1.977  -1.805   0.384  0.00  0.00    -0.082 A 
ATOM      9  C7  UNL d   1       1.232  -2.811   1.044  0.00  0.00     0.045 A 
ENDROOT
TORSDOF 0
ENDMDL
