MODEL 1
REMARK minimizedAffinity -2.41338801
REMARK minimizedRMSD -1
REMARK  0 active torsions:
REMARK  status: ('A' for Active; 'I' for Inactive)
ROOT
ATOM      1  C   UNL d   1       0.604  -0.938   1.517  0.00  0.00    -0.002 A 
ATOM      2  C1  UNL d   1       0.466   0.411   1.226  0.00  0.00     0.010 A 
ATOM      3  C2  UNL d   1       1.267   1.014   0.255  0.00  0.00     0.041 A 
ATOM      4  C3  UNL d   1       2.218   0.229  -0.428  0.00  0.00    -0.075 A 
ATOM      5  S   UNL d   1       3.307   0.752  -1.658  0.00  0.00     0.015 SA
ATOM      6  C4  UNL d   1       3.981  -0.804  -1.826  0.00  0.00     0.022 A 
ATOM      7  C5  UNL d   1       3.401  -1.713  -0.973  0.00  0.00     0.026 A 
ATOM      8  C6  UNL d   1       2.375  -1.132  -0.153  0.00  0.00    -0.082 A 
ATOM      9  C7  UNL d   1       1.548  -1.714   0.838  0.00  0.00     0.045 A 
ENDROOT
TORSDOF 0
ENDMDL
