MODEL 1
REMARK minimizedAffinity 1.44637501
REMARK minimizedRMSD -1
REMARK  0 active torsions:
REMARK  status: ('A' for Active; 'I' for Inactive)
ROOT
ATOM      1  C   UNL d   1       1.198  -1.413   0.766  0.00  0.00    -0.002 A 
ATOM      2  C1  UNL d   1       2.251  -1.596  -0.119  0.00  0.00     0.010 A 
ATOM      3  C2  UNL d   1       2.843  -0.502  -0.754  0.00  0.00     0.041 A 
ATOM      4  C3  UNL d   1       2.353   0.791  -0.482  0.00  0.00    -0.075 A 
ATOM      5  S   UNL d   1       2.922   2.278  -1.143  0.00  0.00     0.015 SA
ATOM      6  C4  UNL d   1       1.781   3.191  -0.266  0.00  0.00     0.022 A 
ATOM      7  C5  UNL d   1       0.977   2.396   0.517  0.00  0.00     0.026 A 
ATOM      8  C6  UNL d   1       1.294   1.000   0.406  0.00  0.00    -0.082 A 
ATOM      9  C7  UNL d   1       0.715  -0.129   1.033  0.00  0.00     0.045 A 
ENDROOT
TORSDOF 0
ENDMDL
