MODEL 1
REMARK minimizedAffinity 1.90824902
REMARK minimizedRMSD -1
REMARK  0 active torsions:
REMARK  status: ('A' for Active; 'I' for Inactive)
ROOT
ATOM      1  C   UNL d   1       0.756  -1.886   0.813  0.00  0.00    -0.002 A 
ATOM      2  C1  UNL d   1       0.716  -0.564   1.232  0.00  0.00     0.010 A 
ATOM      3  C2  UNL d   1       1.539   0.395   0.638  0.00  0.00     0.041 A 
ATOM      4  C3  UNL d   1       2.410  -0.000  -0.395  0.00  0.00    -0.075 A 
ATOM      5  S   UNL d   1       3.509   1.001  -1.269  0.00  0.00     0.015 SA
ATOM      6  C4  UNL d   1       4.057  -0.303  -2.220  0.00  0.00     0.022 A 
ATOM      7  C5  UNL d   1       3.428  -1.480  -1.893  0.00  0.00     0.026 A 
ATOM      8  C6  UNL d   1       2.468  -1.326  -0.836  0.00  0.00    -0.082 A 
ATOM      9  C7  UNL d   1       1.622  -2.274  -0.213  0.00  0.00     0.045 A 
ENDROOT
TORSDOF 0
ENDMDL
