MODEL 1
REMARK minimizedAffinity -2.16760898
REMARK minimizedRMSD -1
REMARK  0 active torsions:
REMARK  status: ('A' for Active; 'I' for Inactive)
ROOT
ATOM      1  C   UNL d   1       4.381   0.146  -2.300  0.00  0.00    -0.002 A 
ATOM      2  C1  UNL d   1       3.547   1.218  -2.014  0.00  0.00     0.010 A 
ATOM      3  C2  UNL d   1       2.438   1.054  -1.183  0.00  0.00     0.041 A 
ATOM      4  C3  UNL d   1       2.178  -0.218  -0.637  0.00  0.00    -0.075 A 
ATOM      5  S   UNL d   1       0.877  -0.655   0.408  0.00  0.00     0.015 SA
ATOM      6  C4  UNL d   1       1.397  -2.275   0.501  0.00  0.00     0.022 A 
ATOM      7  C5  UNL d   1       2.534  -2.495  -0.241  0.00  0.00     0.026 A 
ATOM      8  C6  UNL d   1       3.002  -1.313  -0.909  0.00  0.00    -0.082 A 
ATOM      9  C7  UNL d   1       4.119  -1.115  -1.756  0.00  0.00     0.045 A 
ENDROOT
TORSDOF 0
ENDMDL
