MODEL 1
REMARK minimizedAffinity -1.44120419
REMARK minimizedRMSD -1
REMARK  0 active torsions:
REMARK  status: ('A' for Active; 'I' for Inactive)
ROOT
ATOM      1  C   UNL d   1       1.005  -1.653   0.306  0.00  0.00    -0.002 A 
ATOM      2  C1  UNL d   1       0.568  -0.339   0.386  0.00  0.00     0.010 A 
ATOM      3  C2  UNL d   1       1.312   0.693  -0.190  0.00  0.00     0.041 A 
ATOM      4  C3  UNL d   1       2.513   0.378  -0.856  0.00  0.00    -0.075 A 
ATOM      5  S   UNL d   1       3.588   1.477  -1.637  0.00  0.00     0.015 SA
ATOM      6  C4  UNL d   1       4.652   0.227  -2.095  0.00  0.00     0.022 A 
ATOM      7  C5  UNL d   1       4.213  -1.005  -1.671  0.00  0.00     0.026 A 
ATOM      8  C6  UNL d   1       2.973  -0.938  -0.950  0.00  0.00    -0.082 A 
ATOM      9  C7  UNL d   1       2.197  -1.962  -0.355  0.00  0.00     0.045 A 
ENDROOT
TORSDOF 0
ENDMDL
