MODEL 1
REMARK minimizedAffinity -2.91441321
REMARK minimizedRMSD -1
REMARK  0 active torsions:
REMARK  status: ('A' for Active; 'I' for Inactive)
ROOT
ATOM      1  C   UNL d   1       1.066  -1.357   0.654  0.00  0.00    -0.002 A 
ATOM      2  C1  UNL d   1       0.716  -0.016   0.587  0.00  0.00     0.010 A 
ATOM      3  C2  UNL d   1       1.426   0.864  -0.232  0.00  0.00     0.041 A 
ATOM      4  C3  UNL d   1       2.503   0.367  -0.993  0.00  0.00    -0.075 A 
ATOM      5  S   UNL d   1       3.515   1.259  -2.066  0.00  0.00     0.015 SA
ATOM      6  C4  UNL d   1       4.435  -0.120  -2.463  0.00  0.00     0.022 A 
ATOM      7  C5  UNL d   1       3.995  -1.242  -1.802  0.00  0.00     0.026 A 
ATOM      8  C6  UNL d   1       2.874  -0.979  -0.944  0.00  0.00    -0.082 A 
ATOM      9  C7  UNL d   1       2.134  -1.846  -0.102  0.00  0.00     0.045 A 
ENDROOT
TORSDOF 0
ENDMDL
