MODEL 1
REMARK minimizedAffinity -0.732222855
REMARK minimizedRMSD -1
REMARK  0 active torsions:
REMARK  status: ('A' for Active; 'I' for Inactive)
ROOT
ATOM      1  C   UNL d   1       1.065  -1.550   1.143  0.00  0.00    -0.002 A 
ATOM      2  C1  UNL d   1       0.710  -0.209   1.186  0.00  0.00     0.010 A 
ATOM      3  C2  UNL d   1       1.297   0.710   0.315  0.00  0.00     0.041 A 
ATOM      4  C3  UNL d   1       2.255   0.254  -0.612  0.00  0.00    -0.075 A 
ATOM      5  S   UNL d   1       3.105   1.199  -1.777  0.00  0.00     0.015 SA
ATOM      6  C4  UNL d   1       3.960  -0.155  -2.361  0.00  0.00     0.022 A 
ATOM      7  C5  UNL d   1       3.617  -1.308  -1.695  0.00  0.00     0.026 A 
ATOM      8  C6  UNL d   1       2.629  -1.091  -0.676  0.00  0.00    -0.082 A 
ATOM      9  C7  UNL d   1       2.016  -1.998   0.222  0.00  0.00     0.045 A 
ENDROOT
TORSDOF 0
ENDMDL
