MODEL 1
REMARK minimizedAffinity -5.41002035
REMARK minimizedRMSD -1
REMARK  2 active torsions:
REMARK  status: ('A' for Active; 'I' for Inactive)
REMARK    1  A    between atoms: C1_2  and  C2_3 
REMARK    2  A    between atoms: C2_3  and  C3_4 
ROOT
ATOM      1  C3  UNL d   1       0.064  -0.134  -0.665  0.00  0.00    -0.075 A 
ATOM      2  C4  UNL d   1       0.985   0.919  -0.761  0.00  0.00     0.002 A 
ATOM      3  C5  UNL d   1       0.940   1.983   0.141  0.00  0.00     0.002 A 
ATOM      4  C6  UNL d   1      -0.029   2.011   1.142  0.00  0.00    -0.004 A 
ATOM      5  C7  UNL d   1      -0.959   0.978   1.236  0.00  0.00     0.002 A 
ATOM      6  C8  UNL d   1      -0.914  -0.089   0.337  0.00  0.00     0.002 A 
ENDROOT
BRANCH   1   7
ATOM      7  C2  UNL d   1       0.126  -1.303  -1.620  0.00  0.00     0.056 C 
BRANCH   7   8
ATOM      8  C1  UNL d   1      -0.719  -1.119  -2.885  0.00  0.00     0.007 C 
ATOM      9  C   UNL d   1      -2.096  -1.760  -2.787  0.00  0.00     0.009 C 
ENDBRANCH   7   8
ENDBRANCH   1   7
TORSDOF 2
ENDMDL
