MODEL 1
REMARK minimizedAffinity -5.18555737
REMARK minimizedRMSD -1
REMARK  2 active torsions:
REMARK  status: ('A' for Active; 'I' for Inactive)
REMARK    1  A    between atoms: C1_2  and  C2_3 
REMARK    2  A    between atoms: C2_3  and  C3_4 
ROOT
ATOM      1  C3  UNL d   1       0.450   0.164   0.246  0.00  0.00    -0.075 A 
ATOM      2  C4  UNL d   1       1.337   1.173  -0.157  0.00  0.00     0.002 A 
ATOM      3  C5  UNL d   1       1.339   2.413   0.484  0.00  0.00     0.002 A 
ATOM      4  C6  UNL d   1       0.449   2.662   1.526  0.00  0.00    -0.004 A 
ATOM      5  C7  UNL d   1      -0.448   1.673   1.924  0.00  0.00     0.002 A 
ATOM      6  C8  UNL d   1      -0.448   0.430   1.288  0.00  0.00     0.002 A 
ENDROOT
BRANCH   1   7
ATOM      7  C2  UNL d   1       0.464  -1.189  -0.424  0.00  0.00     0.056 C 
BRANCH   7   8
ATOM      8  C1  UNL d   1      -0.926  -1.708  -0.809  0.00  0.00     0.007 C 
ATOM      9  C   UNL d   1      -1.391  -1.220  -2.175  0.00  0.00     0.009 C 
ENDBRANCH   7   8
ENDBRANCH   1   7
TORSDOF 2
ENDMDL
