MODEL 1
REMARK minimizedAffinity -5.46082449
REMARK minimizedRMSD -1
REMARK  2 active torsions:
REMARK  status: ('A' for Active; 'I' for Inactive)
REMARK    1  A    between atoms: C1_2  and  C2_3 
REMARK    2  A    between atoms: C2_3  and  C3_4 
ROOT
ATOM      1  C3  UNL d   1       0.238   0.315   0.307  0.00  0.00    -0.075 A 
ATOM      2  C4  UNL d   1       0.027   0.666   1.648  0.00  0.00     0.002 A 
ATOM      3  C5  UNL d   1       0.482   1.890   2.139  0.00  0.00     0.002 A 
ATOM      4  C6  UNL d   1       1.160   2.773   1.301  0.00  0.00    -0.004 A 
ATOM      5  C7  UNL d   1       1.389   2.427  -0.029  0.00  0.00     0.002 A 
ATOM      6  C8  UNL d   1       0.932   1.205  -0.524  0.00  0.00     0.002 A 
ENDROOT
BRANCH   1   7
ATOM      7  C2  UNL d   1      -0.277  -0.995  -0.239  0.00  0.00     0.056 C 
BRANCH   7   8
ATOM      8  C1  UNL d   1      -0.624  -0.957  -1.731  0.00  0.00     0.007 C 
ATOM      9  C   UNL d   1      -1.914  -1.693  -2.067  0.00  0.00     0.009 C 
ENDBRANCH   7   8
ENDBRANCH   1   7
TORSDOF 2
ENDMDL
