MODEL 1
REMARK minimizedAffinity -3.65828323
REMARK minimizedRMSD -1
REMARK  2 active torsions:
REMARK  status: ('A' for Active; 'I' for Inactive)
REMARK    1  A    between atoms: C1_2  and  C2_3 
REMARK    2  A    between atoms: C2_3  and  C3_4 
ROOT
ATOM      1  C3  UNL d   1      -0.656  -0.974  -0.420  0.00  0.00    -0.075 A 
ATOM      2  C4  UNL d   1      -1.145  -0.107   0.568  0.00  0.00     0.002 A 
ATOM      3  C5  UNL d   1      -0.291   0.790   1.209  0.00  0.00     0.002 A 
ATOM      4  C6  UNL d   1       1.062   0.825   0.879  0.00  0.00    -0.004 A 
ATOM      5  C7  UNL d   1       1.563  -0.043  -0.089  0.00  0.00     0.002 A 
ATOM      6  C8  UNL d   1       0.709  -0.939  -0.735  0.00  0.00     0.002 A 
ENDROOT
BRANCH   1   7
ATOM      7  C2  UNL d   1      -1.581  -1.927  -1.139  0.00  0.00     0.056 C 
BRANCH   7   8
ATOM      8  C1  UNL d   1      -2.444  -1.264  -2.218  0.00  0.00     0.007 C 
ATOM      9  C   UNL d   1      -1.675  -0.954  -3.496  0.00  0.00     0.009 C 
ENDBRANCH   7   8
ENDBRANCH   1   7
TORSDOF 2
ENDMDL
