MODEL 1
REMARK minimizedAffinity -4.45288754
REMARK minimizedRMSD -1
REMARK  2 active torsions:
REMARK  status: ('A' for Active; 'I' for Inactive)
REMARK    1  A    between atoms: C1_2  and  C2_3 
REMARK    2  A    between atoms: C2_3  and  C3_4 
ROOT
ATOM      1  C3  UNL d   1      -0.354   0.415   0.043  0.00  0.00    -0.075 A 
ATOM      2  C4  UNL d   1      -0.774   0.565   1.373  0.00  0.00     0.002 A 
ATOM      3  C5  UNL d   1      -0.372   1.671   2.122  0.00  0.00     0.002 A 
ATOM      4  C6  UNL d   1       0.462   2.634   1.557  0.00  0.00    -0.004 A 
ATOM      5  C7  UNL d   1       0.898   2.486   0.242  0.00  0.00     0.002 A 
ATOM      6  C8  UNL d   1       0.493   1.383  -0.512  0.00  0.00     0.002 A 
ENDROOT
BRANCH   1   7
ATOM      7  C2  UNL d   1      -0.810  -0.765  -0.782  0.00  0.00     0.056 C 
BRANCH   7   8
ATOM      8  C1  UNL d   1      -1.273  -0.395  -2.195  0.00  0.00     0.007 C 
ATOM      9  C   UNL d   1      -2.520  -1.150  -2.635  0.00  0.00     0.009 C 
ENDBRANCH   7   8
ENDBRANCH   1   7
TORSDOF 2
ENDMDL
