MODEL 1
REMARK minimizedAffinity -4.82041645
REMARK minimizedRMSD -1
REMARK  2 active torsions:
REMARK  status: ('A' for Active; 'I' for Inactive)
REMARK    1  A    between atoms: C1_2  and  C2_3 
REMARK    2  A    between atoms: C2_3  and  C3_4 
ROOT
ATOM      1  C3  UNL d   1      -0.305  -0.037  -0.164  0.00  0.00    -0.075 A 
ATOM      2  C4  UNL d   1      -0.795   0.333   1.097  0.00  0.00     0.002 A 
ATOM      3  C5  UNL d   1      -0.246   1.419   1.780  0.00  0.00     0.002 A 
ATOM      4  C6  UNL d   1       0.804   2.141   1.217  0.00  0.00    -0.004 A 
ATOM      5  C7  UNL d   1       1.310   1.773  -0.027  0.00  0.00     0.002 A 
ATOM      6  C8  UNL d   1       0.760   0.689  -0.715  0.00  0.00     0.002 A 
ENDROOT
BRANCH   1   7
ATOM      7  C2  UNL d   1      -0.914  -1.192  -0.922  0.00  0.00     0.056 C 
BRANCH   7   8
ATOM      8  C1  UNL d   1      -1.216  -0.884  -2.392  0.00  0.00     0.007 C 
ATOM      9  C   UNL d   1      -2.523  -1.498  -2.877  0.00  0.00     0.009 C 
ENDBRANCH   7   8
ENDBRANCH   1   7
TORSDOF 2
ENDMDL
