MODEL 1
REMARK minimizedAffinity -4.37924147
REMARK minimizedRMSD -1
REMARK  2 active torsions:
REMARK  status: ('A' for Active; 'I' for Inactive)
REMARK    1  A    between atoms: C1_2  and  C2_3 
REMARK    2  A    between atoms: C2_3  and  C3_4 
ROOT
ATOM      1  C3  UNL d   1      -0.027  -0.783  -0.123  0.00  0.00    -0.075 A 
ATOM      2  C4  UNL d   1      -0.938  -0.401   0.872  0.00  0.00     0.002 A 
ATOM      3  C5  UNL d   1      -0.680   0.706   1.682  0.00  0.00     0.002 A 
ATOM      4  C6  UNL d   1       0.494   1.436   1.515  0.00  0.00    -0.004 A 
ATOM      5  C7  UNL d   1       1.415   1.056   0.541  0.00  0.00     0.002 A 
ATOM      6  C8  UNL d   1       1.157  -0.048  -0.274  0.00  0.00     0.002 A 
ENDROOT
BRANCH   1   7
ATOM      7  C2  UNL d   1      -0.314  -1.961  -1.023  0.00  0.00     0.056 C 
BRANCH   7   8
ATOM      8  C1  UNL d   1      -1.777  -2.066  -1.464  0.00  0.00     0.007 C 
ATOM      9  C   UNL d   1      -2.110  -1.179  -2.656  0.00  0.00     0.009 C 
ENDBRANCH   7   8
ENDBRANCH   1   7
TORSDOF 2
ENDMDL
