MODEL 1
REMARK minimizedAffinity -2.61279368
REMARK minimizedRMSD -1
REMARK  2 active torsions:
REMARK  status: ('A' for Active; 'I' for Inactive)
REMARK    1  A    between atoms: C1_2  and  C2_3 
REMARK    2  A    between atoms: C2_3  and  C3_4 
ROOT
ATOM      1  C3  UNL d   1      -0.073  -0.200   0.002  0.00  0.00    -0.075 A 
ATOM      2  C4  UNL d   1       1.164   0.235   0.500  0.00  0.00     0.002 A 
ATOM      3  C5  UNL d   1       1.223   1.206   1.501  0.00  0.00     0.002 A 
ATOM      4  C6  UNL d   1       0.050   1.761   2.007  0.00  0.00    -0.004 A 
ATOM      5  C7  UNL d   1      -1.184   1.348   1.508  0.00  0.00     0.002 A 
ATOM      6  C8  UNL d   1      -1.246   0.374   0.510  0.00  0.00     0.002 A 
ENDROOT
BRANCH   1   7
ATOM      7  C2  UNL d   1      -0.144  -1.271  -1.060  0.00  0.00     0.056 C 
BRANCH   7   8
ATOM      8  C1  UNL d   1      -1.423  -1.230  -1.902  0.00  0.00     0.007 C 
ATOM      9  C   UNL d   1      -1.192  -1.591  -3.363  0.00  0.00     0.009 C 
ENDBRANCH   7   8
ENDBRANCH   1   7
TORSDOF 2
ENDMDL
