MODEL 1
REMARK minimizedAffinity -4.92015457
REMARK minimizedRMSD -1
REMARK  2 active torsions:
REMARK  status: ('A' for Active; 'I' for Inactive)
REMARK    1  A    between atoms: C1_2  and  C2_3 
REMARK    2  A    between atoms: C2_3  and  C3_4 
ROOT
ATOM      1  C3  UNL d   1       0.516   0.072   0.218  0.00  0.00    -0.075 A 
ATOM      2  C4  UNL d   1       1.873   0.426   0.241  0.00  0.00     0.002 A 
ATOM      3  C5  UNL d   1       2.320   1.464   1.059  0.00  0.00     0.002 A 
ATOM      4  C6  UNL d   1       1.418   2.165   1.856  0.00  0.00    -0.004 A 
ATOM      5  C7  UNL d   1       0.066   1.832   1.829  0.00  0.00     0.002 A 
ATOM      6  C8  UNL d   1      -0.384   0.792   1.014  0.00  0.00     0.002 A 
ENDROOT
BRANCH   1   7
ATOM      7  C2  UNL d   1       0.030  -1.069  -0.644  0.00  0.00     0.056 C 
BRANCH   7   8
ATOM      8  C1  UNL d   1      -1.183  -0.721  -1.513  0.00  0.00     0.007 C 
ATOM      9  C   UNL d   1      -1.651  -1.880  -2.383  0.00  0.00     0.009 C 
ENDBRANCH   7   8
ENDBRANCH   1   7
TORSDOF 2
ENDMDL
