MODEL 1
REMARK minimizedAffinity 0.113119267
REMARK minimizedRMSD -1
REMARK  2 active torsions:
REMARK  status: ('A' for Active; 'I' for Inactive)
REMARK    1  A    between atoms: C1_2  and  C2_3 
REMARK    2  A    between atoms: C2_3  and  C3_4 
ROOT
ATOM      1  C3  UNL d   1       1.481   0.492   0.494  0.00  0.00    -0.075 A 
ATOM      2  C4  UNL d   1       1.083   1.418   1.470  0.00  0.00     0.002 A 
ATOM      3  C5  UNL d   1      -0.229   1.426   1.945  0.00  0.00     0.002 A 
ATOM      4  C6  UNL d   1      -1.160   0.518   1.446  0.00  0.00    -0.004 A 
ATOM      5  C7  UNL d   1      -0.780  -0.395   0.464  0.00  0.00     0.002 A 
ATOM      6  C8  UNL d   1       0.533  -0.409  -0.010  0.00  0.00     0.002 A 
ENDROOT
BRANCH   1   7
ATOM      7  C2  UNL d   1       2.906   0.458  -0.003  0.00  0.00     0.056 C 
BRANCH   7   8
ATOM      8  C1  UNL d   1       3.892   1.234   0.877  0.00  0.00     0.007 C 
ATOM      9  C   UNL d   1       4.794   0.330   1.707  0.00  0.00     0.009 C 
ENDBRANCH   7   8
ENDBRANCH   1   7
TORSDOF 2
ENDMDL
