MODEL 1
REMARK minimizedAffinity -5.12312794
REMARK minimizedRMSD -1
REMARK  1 active torsions:
REMARK  status: ('A' for Active; 'I' for Inactive)
REMARK    1  A    between atoms: C1_2  and  C2_3 
ROOT
ATOM      1  C2  UNL d   1       0.378   1.451  -0.357  0.00  0.00    -0.073 A 
ATOM      2  C3  UNL d   1      -0.650   2.109   0.328  0.00  0.00    -0.002 A 
ATOM      3  C4  UNL d   1      -1.555   1.385   1.105  0.00  0.00     0.004 A 
ATOM      4  C5  UNL d   1      -1.438  -0.001   1.211  0.00  0.00    -0.004 A 
ATOM      5  C6  UNL d   1      -0.411  -0.675   0.544  0.00  0.00    -0.075 A 
ATOM      6  C7  UNL d   1      -0.272  -2.166   0.646  0.00  0.00     0.076 C 
ATOM      7  C8  UNL d   1       0.493   0.059  -0.237  0.00  0.00     0.001 A 
ENDROOT
BRANCH   1   8
ATOM      8  C1  UNL d   1       1.362   2.229  -1.193  0.00  0.00     0.053 C 
ATOM      9  C   UNL d   1       0.948   2.286  -2.655  0.00  0.00     0.018 C 
ENDBRANCH   1   8
TORSDOF 1
ENDMDL
