MODEL 1
REMARK minimizedAffinity -1.88009822
REMARK minimizedRMSD -1
REMARK  1 active torsions:
REMARK  status: ('A' for Active; 'I' for Inactive)
REMARK    1  A    between atoms: C1_2  and  C2_3 
ROOT
ATOM      1  C2  UNL d   1       0.165  -0.645  -0.036  0.00  0.00    -0.073 A 
ATOM      2  C3  UNL d   1      -0.602  -0.001   0.941  0.00  0.00    -0.002 A 
ATOM      3  C4  UNL d   1      -0.626   1.392   1.013  0.00  0.00     0.004 A 
ATOM      4  C5  UNL d   1       0.109   2.155   0.106  0.00  0.00    -0.004 A 
ATOM      5  C6  UNL d   1       0.872   1.530  -0.885  0.00  0.00    -0.075 A 
ATOM      6  C7  UNL d   1       1.671   2.336  -1.867  0.00  0.00     0.076 C 
ATOM      7  C8  UNL d   1       0.894   0.130  -0.949  0.00  0.00     0.001 A 
ENDROOT
BRANCH   1   8
ATOM      8  C1  UNL d   1       0.189  -2.150  -0.122  0.00  0.00     0.053 C 
ATOM      9  C   UNL d   1      -0.729  -2.794   0.905  0.00  0.00     0.018 C 
ENDBRANCH   1   8
TORSDOF 1
ENDMDL
