MODEL 1
REMARK minimizedAffinity -1.18308306
REMARK minimizedRMSD -1
REMARK  1 active torsions:
REMARK  status: ('A' for Active; 'I' for Inactive)
REMARK    1  A    between atoms: C1_2  and  C2_3 
ROOT
ATOM      1  C2  UNL d   1      -0.139  -0.925   0.242  0.00  0.00    -0.073 A 
ATOM      2  C3  UNL d   1      -1.537  -0.863   0.254  0.00  0.00    -0.002 A 
ATOM      3  C4  UNL d   1      -2.263  -1.534   1.239  0.00  0.00     0.004 A 
ATOM      4  C5  UNL d   1      -1.601  -2.267   2.223  0.00  0.00    -0.004 A 
ATOM      5  C6  UNL d   1      -0.204  -2.330   2.235  0.00  0.00    -0.075 A 
ATOM      6  C7  UNL d   1       0.524  -3.116   3.286  0.00  0.00     0.076 C 
ATOM      7  C8  UNL d   1       0.519  -1.656   1.241  0.00  0.00     0.001 A 
ENDROOT
BRANCH   1   8
ATOM      8  C1  UNL d   1       0.650  -0.197  -0.816  0.00  0.00     0.053 C 
ATOM      9  C   UNL d   1       0.521   1.313  -0.685  0.00  0.00     0.018 C 
ENDBRANCH   1   8
TORSDOF 1
ENDMDL
