MODEL 1
REMARK minimizedAffinity -4.93696833
REMARK minimizedRMSD -1
REMARK  1 active torsions:
REMARK  status: ('A' for Active; 'I' for Inactive)
REMARK    1  A    between atoms: C1_2  and  C2_3 
ROOT
ATOM      1  C2  UNL d   1      -0.231  -0.660   0.317  0.00  0.00    -0.073 A 
ATOM      2  C3  UNL d   1      -1.278   0.102   0.848  0.00  0.00    -0.002 A 
ATOM      3  C4  UNL d   1      -1.248   1.495   0.766  0.00  0.00     0.004 A 
ATOM      4  C5  UNL d   1      -0.177   2.138   0.146  0.00  0.00    -0.004 A 
ATOM      5  C6  UNL d   1       0.873   1.393  -0.402  0.00  0.00    -0.075 A 
ATOM      6  C7  UNL d   1       2.033   2.071  -1.070  0.00  0.00     0.076 C 
ATOM      7  C8  UNL d   1       0.837  -0.005  -0.312  0.00  0.00     0.001 A 
ENDROOT
BRANCH   1   8
ATOM      8  C1  UNL d   1      -0.262  -2.165   0.398  0.00  0.00     0.053 C 
ATOM      9  C   UNL d   1      -1.605  -2.682   0.888  0.00  0.00     0.018 C 
ENDBRANCH   1   8
TORSDOF 1
ENDMDL
