MODEL 1
REMARK minimizedAffinity -5.68855858
REMARK minimizedRMSD -1
REMARK  1 active torsions:
REMARK  status: ('A' for Active; 'I' for Inactive)
REMARK    1  A    between atoms: C1_2  and  C2_3 
ROOT
ATOM      1  C2  UNL d   1       0.492   0.314  -0.511  0.00  0.00    -0.073 A 
ATOM      2  C3  UNL d   1       1.064  -0.936  -0.251  0.00  0.00    -0.002 A 
ATOM      3  C4  UNL d   1       0.333  -1.920   0.416  0.00  0.00     0.004 A 
ATOM      4  C5  UNL d   1      -0.976  -1.667   0.824  0.00  0.00    -0.004 A 
ATOM      5  C6  UNL d   1      -1.569  -0.427   0.564  0.00  0.00    -0.075 A 
ATOM      6  C7  UNL d   1      -2.976  -0.138   0.998  0.00  0.00     0.076 C 
ATOM      7  C8  UNL d   1      -0.828   0.557  -0.105  0.00  0.00     0.001 A 
ENDROOT
BRANCH   1   8
ATOM      8  C1  UNL d   1       1.275   1.378  -1.237  0.00  0.00     0.053 C 
ATOM      9  C   UNL d   1       0.622   1.767  -2.554  0.00  0.00     0.018 C 
ENDBRANCH   1   8
TORSDOF 1
ENDMDL
