MODEL 1
REMARK minimizedAffinity -0.483360499
REMARK minimizedRMSD -1
REMARK  1 active torsions:
REMARK  status: ('A' for Active; 'I' for Inactive)
REMARK    1  A    between atoms: C1_2  and  C2_3 
ROOT
ATOM      1  C2  UNL d   1       1.059   0.022  -0.385  0.00  0.00    -0.073 A 
ATOM      2  C3  UNL d   1       1.297  -1.304  -0.004  0.00  0.00    -0.002 A 
ATOM      3  C4  UNL d   1       0.403  -1.966   0.838  0.00  0.00     0.004 A 
ATOM      4  C5  UNL d   1      -0.739  -1.313   1.302  0.00  0.00    -0.004 A 
ATOM      5  C6  UNL d   1      -1.000   0.008   0.924  0.00  0.00    -0.075 A 
ATOM      6  C7  UNL d   1      -2.223   0.725   1.416  0.00  0.00     0.076 C 
ATOM      7  C8  UNL d   1      -0.096   0.667   0.080  0.00  0.00     0.001 A 
ENDROOT
BRANCH   1   8
ATOM      8  C1  UNL d   1       2.019   0.740  -1.299  0.00  0.00     0.053 C 
ATOM      9  C   UNL d   1       1.298   1.472  -2.420  0.00  0.00     0.018 C 
ENDBRANCH   1   8
TORSDOF 1
ENDMDL
