MODEL 1
REMARK minimizedAffinity -5.52377129
REMARK minimizedRMSD -1
REMARK  1 active torsions:
REMARK  status: ('A' for Active; 'I' for Inactive)
REMARK    1  A    between atoms: C1_2  and  C2_3 
ROOT
ATOM      1  C2  UNL d   1       0.357   0.112   0.062  0.00  0.00    -0.073 A 
ATOM      2  C3  UNL d   1       1.368  -0.852  -0.028  0.00  0.00    -0.002 A 
ATOM      3  C4  UNL d   1       1.152  -2.147   0.443  0.00  0.00     0.004 A 
ATOM      4  C5  UNL d   1      -0.077  -2.494   1.003  0.00  0.00    -0.004 A 
ATOM      5  C6  UNL d   1      -1.104  -1.548   1.092  0.00  0.00    -0.075 A 
ATOM      6  C7  UNL d   1      -2.432  -1.905   1.694  0.00  0.00     0.076 C 
ATOM      7  C8  UNL d   1      -0.878  -0.249   0.619  0.00  0.00     0.001 A 
ENDROOT
BRANCH   1   8
ATOM      8  C1  UNL d   1       0.584   1.510  -0.451  0.00  0.00     0.053 C 
ATOM      9  C   UNL d   1       0.819   1.534  -1.953  0.00  0.00     0.018 C 
ENDBRANCH   1   8
TORSDOF 1
ENDMDL
