MODEL 1
REMARK minimizedAffinity -2.09470296
REMARK minimizedRMSD -1
REMARK  1 active torsions:
REMARK  status: ('A' for Active; 'I' for Inactive)
REMARK    1  A    between atoms: C1_2  and  C2_3 
ROOT
ATOM      1  C2  UNL d   1      -0.587  -1.405   0.586  0.00  0.00    -0.073 A 
ATOM      2  C3  UNL d   1       0.679  -1.336  -0.006  0.00  0.00    -0.002 A 
ATOM      3  C4  UNL d   1       1.216  -0.104  -0.381  0.00  0.00     0.004 A 
ATOM      4  C5  UNL d   1       0.496   1.071  -0.163  0.00  0.00    -0.004 A 
ATOM      5  C6  UNL d   1      -0.765   1.023   0.439  0.00  0.00    -0.075 A 
ATOM      6  C7  UNL d   1      -1.553   2.278   0.679  0.00  0.00     0.076 C 
ATOM      7  C8  UNL d   1      -1.298  -0.218   0.810  0.00  0.00     0.001 A 
ENDROOT
BRANCH   1   8
ATOM      8  C1  UNL d   1      -1.167  -2.733   0.999  0.00  0.00     0.053 C 
ATOM      9  C   UNL d   1      -1.108  -2.938   2.504  0.00  0.00     0.018 C 
ENDBRANCH   1   8
TORSDOF 1
ENDMDL
