MODEL 1
REMARK minimizedAffinity -4.32490492
REMARK minimizedRMSD -1
REMARK  1 active torsions:
REMARK  status: ('A' for Active; 'I' for Inactive)
REMARK    1  A    between atoms: C1_2  and  C2_3 
ROOT
ATOM      1  C2  UNL d   1       0.335   0.771  -0.556  0.00  0.00    -0.073 A 
ATOM      2  C3  UNL d   1      -0.268   1.818   0.151  0.00  0.00    -0.002 A 
ATOM      3  C4  UNL d   1      -1.261   1.553   1.095  0.00  0.00     0.004 A 
ATOM      4  C5  UNL d   1      -1.655   0.239   1.347  0.00  0.00    -0.004 A 
ATOM      5  C6  UNL d   1      -1.056  -0.822   0.660  0.00  0.00    -0.075 A 
ATOM      6  C7  UNL d   1      -1.472  -2.241   0.919  0.00  0.00     0.076 C 
ATOM      7  C8  UNL d   1      -0.062  -0.547  -0.288  0.00  0.00     0.001 A 
ENDROOT
BRANCH   1   8
ATOM      8  C1  UNL d   1       1.412   1.053  -1.571  0.00  0.00     0.053 C 
ATOM      9  C   UNL d   1       0.926   1.977  -2.676  0.00  0.00     0.018 C 
ENDBRANCH   1   8
TORSDOF 1
ENDMDL
