MODEL 1
REMARK minimizedAffinity -5.16107416
REMARK minimizedRMSD -1
REMARK  1 active torsions:
REMARK  status: ('A' for Active; 'I' for Inactive)
REMARK    1  A    between atoms: C1_2  and  C2_3 
ROOT
ATOM      1  C2  UNL d   1      -3.223  -2.081   2.816  0.00  0.00    -0.073 A 
ATOM      2  C3  UNL d   1      -2.733  -1.492   3.987  0.00  0.00    -0.002 A 
ATOM      3  C4  UNL d   1      -3.162  -1.942   5.236  0.00  0.00     0.004 A 
ATOM      4  C5  UNL d   1      -4.078  -2.990   5.328  0.00  0.00    -0.004 A 
ATOM      5  C6  UNL d   1      -4.571  -3.599   4.170  0.00  0.00    -0.075 A 
ATOM      6  C7  UNL d   1      -5.559  -4.726   4.251  0.00  0.00     0.076 C 
ATOM      7  C8  UNL d   1      -4.137  -3.140   2.919  0.00  0.00     0.001 A 
ENDROOT
BRANCH   1   8
ATOM      8  C1  UNL d   1      -2.758  -1.603   1.465  0.00  0.00     0.053 C 
ATOM      9  C   UNL d   1      -1.304  -1.159   1.488  0.00  0.00     0.018 C 
ENDBRANCH   1   8
TORSDOF 1
ENDMDL
