MODEL 1
REMARK minimizedAffinity 4.11537218
REMARK minimizedRMSD -1
REMARK  1 active torsions:
REMARK  status: ('A' for Active; 'I' for Inactive)
REMARK    1  A    between atoms: C1_2  and  C2_3 
ROOT
ATOM      1  C2  UNL d   1      -5.219  -1.611  -3.199  0.00  0.00    -0.073 A 
ATOM      2  C3  UNL d   1      -5.973  -0.689  -3.934  0.00  0.00    -0.002 A 
ATOM      3  C4  UNL d   1      -6.000  -0.752  -5.328  0.00  0.00     0.004 A 
ATOM      4  C5  UNL d   1      -5.281  -1.740  -6.000  0.00  0.00    -0.004 A 
ATOM      5  C6  UNL d   1      -4.531  -2.678  -5.283  0.00  0.00    -0.075 A 
ATOM      6  C7  UNL d   1      -3.750  -3.746  -5.991  0.00  0.00     0.076 C 
ATOM      7  C8  UNL d   1      -4.507  -2.606  -3.884  0.00  0.00     0.001 A 
ENDROOT
BRANCH   1   8
ATOM      8  C1  UNL d   1      -5.192  -1.551  -1.694  0.00  0.00     0.053 C 
ATOM      9  C   UNL d   1      -5.982  -0.369  -1.156  0.00  0.00     0.018 C 
ENDBRANCH   1   8
TORSDOF 1
ENDMDL
