MODEL 1
REMARK minimizedAffinity 16.8049107
REMARK minimizedRMSD -1
REMARK  0 active torsions:
REMARK  status: ('A' for Active; 'I' for Inactive)
ROOT
ATOM      1  C   UNL d   1       3.373   2.617  -2.996  0.00  0.00     0.077 C 
ATOM      2  C1  UNL d   1       4.186   2.991  -1.792  0.00  0.00    -0.074 A 
ATOM      3  C2  UNL d   1       5.255   3.887  -1.897  0.00  0.00    -0.005 A 
ATOM      4  C3  UNL d   1       5.996   4.233  -0.766  0.00  0.00     0.006 A 
ATOM      5  C4  UNL d   1       5.676   3.687   0.477  0.00  0.00    -0.005 A 
ATOM      6  C5  UNL d   1       4.610   2.790   0.601  0.00  0.00    -0.074 A 
ATOM      7  C6  UNL d   1       4.247   2.201   1.932  0.00  0.00     0.077 C 
ATOM      8  C7  UNL d   1       3.866   2.453  -0.538  0.00  0.00    -0.001 A 
ENDROOT
TORSDOF 0
ENDMDL
