MODEL 1
REMARK minimizedAffinity 10.5950336
REMARK minimizedRMSD -1
REMARK  0 active torsions:
REMARK  status: ('A' for Active; 'I' for Inactive)
ROOT
ATOM      1  C   UNL d   1       3.342   2.993  -3.332  0.00  0.00     0.077 C 
ATOM      2  C1  UNL d   1       4.202   3.310  -2.145  0.00  0.00    -0.074 A 
ATOM      3  C2  UNL d   1       5.213   4.273  -2.227  0.00  0.00    -0.005 A 
ATOM      4  C3  UNL d   1       5.999   4.564  -1.112  0.00  0.00     0.006 A 
ATOM      5  C4  UNL d   1       5.783   3.895   0.094  0.00  0.00    -0.005 A 
ATOM      6  C5  UNL d   1       4.776   2.930   0.195  0.00  0.00    -0.074 A 
ATOM      7  C6  UNL d   1       4.524   2.210   1.486  0.00  0.00     0.077 C 
ATOM      8  C7  UNL d   1       3.986   2.648  -0.928  0.00  0.00    -0.001 A 
ENDROOT
TORSDOF 0
ENDMDL
