MODEL 1
REMARK minimizedAffinity 13.7548437
REMARK minimizedRMSD -1
REMARK  0 active torsions:
REMARK  status: ('A' for Active; 'I' for Inactive)
ROOT
ATOM      1  C   UNL d   1      -4.641   1.072  -0.347  0.00  0.00     0.077 C 
ATOM      2  C1  UNL d   1      -3.188   1.190   0.005  0.00  0.00    -0.074 A 
ATOM      3  C2  UNL d   1      -2.523   2.416  -0.089  0.00  0.00    -0.005 A 
ATOM      4  C3  UNL d   1      -1.173   2.512   0.251  0.00  0.00     0.006 A 
ATOM      5  C4  UNL d   1      -0.477   1.384   0.686  0.00  0.00    -0.005 A 
ATOM      6  C5  UNL d   1      -1.126   0.149   0.787  0.00  0.00    -0.074 A 
ATOM      7  C6  UNL d   1      -0.394  -1.071   1.263  0.00  0.00     0.077 C 
ATOM      8  C7  UNL d   1      -2.483   0.063   0.451  0.00  0.00    -0.001 A 
ENDROOT
TORSDOF 0
ENDMDL
