MODEL 1
REMARK minimizedAffinity 15.7332306
REMARK minimizedRMSD -1
REMARK  0 active torsions:
REMARK  status: ('A' for Active; 'I' for Inactive)
ROOT
ATOM      1  C   UNL d   1      -3.287   1.394   5.994  0.00  0.00     0.077 C 
ATOM      2  C1  UNL d   1      -3.785   0.476   4.918  0.00  0.00    -0.074 A 
ATOM      3  C2  UNL d   1      -4.971  -0.246   5.081  0.00  0.00    -0.005 A 
ATOM      4  C3  UNL d   1      -5.427  -1.089   4.067  0.00  0.00     0.006 A 
ATOM      5  C4  UNL d   1      -4.702  -1.218   2.882  0.00  0.00    -0.005 A 
ATOM      6  C5  UNL d   1      -3.514  -0.503   2.700  0.00  0.00    -0.074 A 
ATOM      7  C6  UNL d   1      -2.728  -0.623   1.429  0.00  0.00     0.077 C 
ATOM      8  C7  UNL d   1      -3.066   0.347   3.721  0.00  0.00    -0.001 A 
ENDROOT
TORSDOF 0
ENDMDL
