MODEL 1
REMARK minimizedAffinity 6.41197538
REMARK minimizedRMSD -1
REMARK  0 active torsions:
REMARK  status: ('A' for Active; 'I' for Inactive)
ROOT
ATOM      1  C   UNL d   1      -2.922   1.498   5.994  0.00  0.00     0.077 C 
ATOM      2  C1  UNL d   1      -3.769   0.464   5.314  0.00  0.00    -0.074 A 
ATOM      3  C2  UNL d   1      -4.197  -0.678   5.998  0.00  0.00    -0.005 A 
ATOM      4  C3  UNL d   1      -4.992  -1.627   5.355  0.00  0.00     0.006 A 
ATOM      5  C4  UNL d   1      -5.366  -1.443   4.023  0.00  0.00    -0.005 A 
ATOM      6  C5  UNL d   1      -4.948  -0.307   3.323  0.00  0.00    -0.074 A 
ATOM      7  C6  UNL d   1      -5.350  -0.090   1.895  0.00  0.00     0.077 C 
ATOM      8  C7  UNL d   1      -4.156   0.645   3.979  0.00  0.00    -0.001 A 
ENDROOT
TORSDOF 0
ENDMDL
