MODEL 1
REMARK minimizedAffinity 0.0803513154
REMARK minimizedRMSD -1
REMARK  0 active torsions:
REMARK  status: ('A' for Active; 'I' for Inactive)
ROOT
ATOM      1  C   UNL d   1      -2.314  -1.046   1.500  0.00  0.00     0.077 C 
ATOM      2  C1  UNL d   1      -3.176  -0.643   2.659  0.00  0.00    -0.074 A 
ATOM      3  C2  UNL d   1      -4.504  -1.070   2.750  0.00  0.00    -0.005 A 
ATOM      4  C3  UNL d   1      -5.291  -0.695   3.838  0.00  0.00     0.006 A 
ATOM      5  C4  UNL d   1      -4.759   0.111   4.846  0.00  0.00    -0.005 A 
ATOM      6  C5  UNL d   1      -3.432   0.547   4.772  0.00  0.00    -0.074 A 
ATOM      7  C6  UNL d   1      -2.841   1.406   5.851  0.00  0.00     0.077 C 
ATOM      8  C7  UNL d   1      -2.646   0.160   3.679  0.00  0.00    -0.001 A 
ENDROOT
TORSDOF 0
ENDMDL
