MODEL 1
REMARK minimizedAffinity 6.99319649
REMARK minimizedRMSD -1
REMARK  0 active torsions:
REMARK  status: ('A' for Active; 'I' for Inactive)
ROOT
ATOM      1  C   UNL d   1      -5.959  -1.167   4.012  0.00  0.00     0.077 C 
ATOM      2  C1  UNL d   1      -4.557  -0.645   3.908  0.00  0.00    -0.074 A 
ATOM      3  C2  UNL d   1      -4.061   0.272   4.840  0.00  0.00    -0.005 A 
ATOM      4  C3  UNL d   1      -2.751   0.741   4.737  0.00  0.00     0.006 A 
ATOM      5  C4  UNL d   1      -1.926   0.299   3.702  0.00  0.00    -0.005 A 
ATOM      6  C5  UNL d   1      -2.405  -0.619   2.762  0.00  0.00    -0.074 A 
ATOM      7  C6  UNL d   1      -1.528  -1.113   1.649  0.00  0.00     0.077 C 
ATOM      8  C7  UNL d   1      -3.719  -1.091   2.876  0.00  0.00    -0.001 A 
ENDROOT
TORSDOF 0
ENDMDL
