MODEL 1
REMARK minimizedAffinity 8.64531422
REMARK minimizedRMSD -1
REMARK  0 active torsions:
REMARK  status: ('A' for Active; 'I' for Inactive)
ROOT
ATOM      1  C   UNL d   1       3.989  -5.873  -0.345  0.00  0.00     0.077 C 
ATOM      2  C1  UNL d   1       3.956  -4.377  -0.236  0.00  0.00    -0.074 A 
ATOM      3  C2  UNL d   1       4.714  -3.577  -1.097  0.00  0.00    -0.005 A 
ATOM      4  C3  UNL d   1       4.666  -2.187  -0.989  0.00  0.00     0.006 A 
ATOM      5  C4  UNL d   1       3.859  -1.584  -0.023  0.00  0.00    -0.005 A 
ATOM      6  C5  UNL d   1       3.093  -2.369   0.845  0.00  0.00    -0.074 A 
ATOM      7  C6  UNL d   1       2.214  -1.737   1.883  0.00  0.00     0.077 C 
ATOM      8  C7  UNL d   1       3.142  -3.764   0.727  0.00  0.00    -0.001 A 
ENDROOT
TORSDOF 0
ENDMDL
