MODEL 1
REMARK minimizedAffinity 7.88963985
REMARK minimizedRMSD -1
REMARK  0 active torsions:
REMARK  status: ('A' for Active; 'I' for Inactive)
ROOT
ATOM      1  C   UNL d   1       5.991  -2.259  -1.191  0.00  0.00     0.077 C 
ATOM      2  C1  UNL d   1       5.279  -3.527  -0.825  0.00  0.00    -0.074 A 
ATOM      3  C2  UNL d   1       5.992  -4.692  -0.527  0.00  0.00    -0.005 A 
ATOM      4  C3  UNL d   1       5.316  -5.861  -0.179  0.00  0.00     0.006 A 
ATOM      5  C4  UNL d   1       3.922  -5.877  -0.126  0.00  0.00    -0.005 A 
ATOM      6  C5  UNL d   1       3.191  -4.722  -0.421  0.00  0.00    -0.074 A 
ATOM      7  C6  UNL d   1       1.693  -4.719  -0.359  0.00  0.00     0.077 C 
ATOM      8  C7  UNL d   1       3.878  -3.549  -0.763  0.00  0.00    -0.001 A 
ENDROOT
TORSDOF 0
ENDMDL
