MODEL 1
REMARK minimizedAffinity 6.66549826
REMARK minimizedRMSD -1
REMARK  0 active torsions:
REMARK  status: ('A' for Active; 'I' for Inactive)
ROOT
ATOM      1  C   UNL d   1      -5.962  -1.331  -1.750  0.00  0.00     0.077 C 
ATOM      2  C1  UNL d   1      -5.955  -1.555  -3.233  0.00  0.00    -0.074 A 
ATOM      3  C2  UNL d   1      -5.904  -0.477  -4.122  0.00  0.00    -0.005 A 
ATOM      4  C3  UNL d   1      -5.888  -0.701  -5.499  0.00  0.00     0.006 A 
ATOM      5  C4  UNL d   1      -5.922  -2.003  -5.999  0.00  0.00    -0.005 A 
ATOM      6  C5  UNL d   1      -5.972  -3.093  -5.125  0.00  0.00    -0.074 A 
ATOM      7  C6  UNL d   1      -5.999  -4.500  -5.646  0.00  0.00     0.077 C 
ATOM      8  C7  UNL d   1      -5.981  -2.860  -3.743  0.00  0.00    -0.001 A 
ENDROOT
TORSDOF 0
ENDMDL
