MODEL 1
REMARK minimizedAffinity 12.433012
REMARK minimizedRMSD -1
REMARK  0 active torsions:
REMARK  status: ('A' for Active; 'I' for Inactive)
ROOT
ATOM      1  C   UNL d   1      -4.015  -5.362   6.000  0.00  0.00     0.077 C 
ATOM      2  C1  UNL d   1      -4.619  -5.054   4.662  0.00  0.00    -0.074 A 
ATOM      3  C2  UNL d   1      -5.400  -6.000   3.991  0.00  0.00    -0.005 A 
ATOM      4  C3  UNL d   1      -5.963  -5.695   2.751  0.00  0.00     0.006 A 
ATOM      5  C4  UNL d   1      -5.751  -4.443   2.172  0.00  0.00    -0.005 A 
ATOM      6  C5  UNL d   1      -4.974  -3.484   2.830  0.00  0.00    -0.074 A 
ATOM      7  C6  UNL d   1      -4.746  -2.130   2.226  0.00  0.00     0.077 C 
ATOM      8  C7  UNL d   1      -4.418  -3.795   4.078  0.00  0.00    -0.001 A 
ENDROOT
TORSDOF 0
ENDMDL
