MODEL 1
REMARK minimizedAffinity 20.2419834
REMARK minimizedRMSD -1
REMARK  0 active torsions:
REMARK  status: ('A' for Active; 'I' for Inactive)
ROOT
ATOM      1  C   UNL d   1      -2.378   1.326   3.110  0.00  0.00     0.077 C 
ATOM      2  C1  UNL d   1      -1.713   0.090   2.581  0.00  0.00    -0.074 A 
ATOM      3  C2  UNL d   1      -2.449  -0.887   1.902  0.00  0.00    -0.005 A 
ATOM      4  C3  UNL d   1      -1.815  -2.026   1.407  0.00  0.00     0.006 A 
ATOM      5  C4  UNL d   1      -0.442  -2.201   1.586  0.00  0.00    -0.005 A 
ATOM      6  C5  UNL d   1       0.310  -1.234   2.262  0.00  0.00    -0.074 A 
ATOM      7  C6  UNL d   1       1.788  -1.401   2.455  0.00  0.00     0.077 C 
ATOM      8  C7  UNL d   1      -0.333  -0.088   2.750  0.00  0.00    -0.001 A 
ENDROOT
TORSDOF 0
ENDMDL
