MODEL 1
REMARK minimizedAffinity 21.0206947
REMARK minimizedRMSD -1
REMARK  0 active torsions:
REMARK  status: ('A' for Active; 'I' for Inactive)
ROOT
ATOM      1  C   UNL d   1       1.878   1.719  -2.415  0.00  0.00     0.077 C 
ATOM      2  C1  UNL d   1       3.086   2.333  -3.058  0.00  0.00    -0.074 A 
ATOM      3  C2  UNL d   1       3.355   2.139  -4.416  0.00  0.00    -0.005 A 
ATOM      4  C3  UNL d   1       4.477   2.725  -5.002  0.00  0.00     0.006 A 
ATOM      5  C4  UNL d   1       5.341   3.509  -4.236  0.00  0.00    -0.005 A 
ATOM      6  C5  UNL d   1       5.087   3.716  -2.876  0.00  0.00    -0.074 A 
ATOM      7  C6  UNL d   1       5.999   4.564  -2.041  0.00  0.00     0.077 C 
ATOM      8  C7  UNL d   1       3.954   3.130  -2.297  0.00  0.00    -0.001 A 
ENDROOT
TORSDOF 0
ENDMDL
