MODEL 1
REMARK minimizedAffinity 5.91885138
REMARK minimizedRMSD -1
REMARK  0 active torsions:
REMARK  status: ('A' for Active; 'I' for Inactive)
ROOT
ATOM      1  C   UNL d   1       1.883  -1.360   2.570  0.00  0.00     0.077 C 
ATOM      2  C1  UNL d   1       2.279  -2.311   1.479  0.00  0.00    -0.074 A 
ATOM      3  C2  UNL d   1       1.557  -3.487   1.254  0.00  0.00    -0.005 A 
ATOM      4  C3  UNL d   1       1.931  -4.357   0.230  0.00  0.00     0.006 A 
ATOM      5  C4  UNL d   1       3.028  -4.059  -0.580  0.00  0.00    -0.005 A 
ATOM      6  C5  UNL d   1       3.761  -2.886  -0.371  0.00  0.00    -0.074 A 
ATOM      7  C6  UNL d   1       4.936  -2.546  -1.237  0.00  0.00     0.077 C 
ATOM      8  C7  UNL d   1       3.375  -2.014   0.657  0.00  0.00    -0.001 A 
ENDROOT
TORSDOF 0
ENDMDL
