MODEL 1
REMARK minimizedAffinity 10.9205637
REMARK minimizedRMSD -1
REMARK  0 active torsions:
REMARK  status: ('A' for Active; 'I' for Inactive)
ROOT
ATOM      1  C   UNL d   1       1.954   1.554  -1.191  0.00  0.00     0.077 C 
ATOM      2  C1  UNL d   1       2.771   1.355   0.051  0.00  0.00    -0.074 A 
ATOM      3  C2  UNL d   1       2.651   0.187   0.811  0.00  0.00    -0.005 A 
ATOM      4  C3  UNL d   1       3.425   0.012   1.958  0.00  0.00     0.006 A 
ATOM      5  C4  UNL d   1       4.324   1.001   2.357  0.00  0.00    -0.005 A 
ATOM      6  C5  UNL d   1       4.459   2.175   1.609  0.00  0.00    -0.074 A 
ATOM      7  C6  UNL d   1       5.428   3.244   2.018  0.00  0.00     0.077 C 
ATOM      8  C7  UNL d   1       3.683   2.341   0.454  0.00  0.00    -0.001 A 
ENDROOT
TORSDOF 0
ENDMDL
