MODEL 1
REMARK minimizedAffinity 14.4726019
REMARK minimizedRMSD -1
REMARK  0 active torsions:
REMARK  status: ('A' for Active; 'I' for Inactive)
ROOT
ATOM      1  C   UNL d   1      -4.898  -0.005  -2.069  0.00  0.00     0.077 C 
ATOM      2  C1  UNL d   1      -4.851   0.166  -0.580  0.00  0.00    -0.074 A 
ATOM      3  C2  UNL d   1      -5.996   0.526   0.139  0.00  0.00    -0.005 A 
ATOM      4  C3  UNL d   1      -5.939   0.672   1.525  0.00  0.00     0.006 A 
ATOM      5  C4  UNL d   1      -4.740   0.460   2.205  0.00  0.00    -0.005 A 
ATOM      6  C5  UNL d   1      -3.585   0.099   1.504  0.00  0.00    -0.074 A 
ATOM      7  C6  UNL d   1      -2.290  -0.142   2.221  0.00  0.00     0.077 C 
ATOM      8  C7  UNL d   1      -3.652  -0.052   0.112  0.00  0.00    -0.001 A 
ENDROOT
TORSDOF 0
ENDMDL
