MODEL 1
REMARK minimizedAffinity 9.29103851
REMARK minimizedRMSD -1
REMARK  0 active torsions:
REMARK  status: ('A' for Active; 'I' for Inactive)
ROOT
ATOM      1  C   UNL d   1      -3.602  -3.055   1.637  0.00  0.00     0.077 C 
ATOM      2  C1  UNL d   1      -2.517  -2.019   1.651  0.00  0.00    -0.074 A 
ATOM      3  C2  UNL d   1      -2.826  -0.657   1.717  0.00  0.00    -0.005 A 
ATOM      4  C3  UNL d   1      -1.806   0.295   1.739  0.00  0.00     0.006 A 
ATOM      5  C4  UNL d   1      -0.470  -0.105   1.695  0.00  0.00    -0.005 A 
ATOM      6  C5  UNL d   1      -0.143  -1.463   1.630  0.00  0.00    -0.074 A 
ATOM      7  C6  UNL d   1       1.288  -1.911   1.592  0.00  0.00     0.077 C 
ATOM      8  C7  UNL d   1      -1.172  -2.414   1.615  0.00  0.00    -0.001 A 
ENDROOT
TORSDOF 0
ENDMDL
