MODEL 1
REMARK minimizedAffinity -4.74520445
REMARK minimizedRMSD -1
REMARK  0 active torsions:
REMARK  status: ('A' for Active; 'I' for Inactive)
ROOT
ATOM      1  C   UNL d   1       1.565   1.795  -1.308  0.00  0.00     0.077 C 
ATOM      2  C1  UNL d   1       0.625   0.802  -0.691  0.00  0.00    -0.074 A 
ATOM      3  C2  UNL d   1      -0.760   0.984  -0.760  0.00  0.00    -0.005 A 
ATOM      4  C3  UNL d   1      -1.622   0.047  -0.190  0.00  0.00     0.006 A 
ATOM      5  C4  UNL d   1      -1.108  -1.079   0.454  0.00  0.00    -0.005 A 
ATOM      6  C5  UNL d   1       0.274  -1.279   0.532  0.00  0.00    -0.074 A 
ATOM      7  C6  UNL d   1       0.842  -2.489   1.211  0.00  0.00     0.077 C 
ATOM      8  C7  UNL d   1       1.133  -0.337  -0.050  0.00  0.00    -0.001 A 
ENDROOT
TORSDOF 0
ENDMDL
