MODEL 1
REMARK minimizedAffinity -3.95395494
REMARK minimizedRMSD -1
REMARK  1 active torsions:
REMARK  status: ('A' for Active; 'I' for Inactive)
REMARK    1  A    between atoms: C1_2  and  C2_3 
ROOT
ATOM      1  C2  UNL d   1       0.408  -0.558  -0.175  0.00  0.00    -0.081 A 
ATOM      2  C3  UNL d   1       0.581  -0.433   1.209  0.00  0.00     0.006 A 
ATOM      3  C4  UNL d   1      -0.016   0.620   1.906  0.00  0.00     0.002 A 
ATOM      4  C5  UNL d   1      -0.803   1.561   1.232  0.00  0.00    -0.080 A 
ATOM      5  C6  UNL d   1      -1.474   2.679   1.973  0.00  0.00     0.076 C 
ATOM      6  C7  UNL d   1      -0.961   1.447  -0.153  0.00  0.00     0.002 A 
ATOM      7  C8  UNL d   1      -0.364   0.394  -0.850  0.00  0.00     0.006 A 
ENDROOT
BRANCH   1   8
ATOM      8  C1  UNL d   1       0.998  -1.729  -0.919  0.00  0.00     0.054 C 
ATOM      9  C   UNL d   1      -0.065  -2.767  -1.248  0.00  0.00     0.018 C 
ENDBRANCH   1   8
TORSDOF 1
ENDMDL
