MODEL 1
REMARK minimizedAffinity -4.45330477
REMARK minimizedRMSD -1
REMARK  1 active torsions:
REMARK  status: ('A' for Active; 'I' for Inactive)
REMARK    1  A    between atoms: C1_2  and  C2_3 
ROOT
ATOM      1  C2  UNL d   1      -0.137  -0.801   0.039  0.00  0.00    -0.081 A 
ATOM      2  C3  UNL d   1       0.387  -0.416   1.279  0.00  0.00     0.006 A 
ATOM      3  C4  UNL d   1       0.036   0.810   1.848  0.00  0.00     0.002 A 
ATOM      4  C5  UNL d   1      -0.852   1.669   1.190  0.00  0.00    -0.080 A 
ATOM      5  C6  UNL d   1      -1.261   2.975   1.803  0.00  0.00     0.076 C 
ATOM      6  C7  UNL d   1      -1.362   1.293  -0.057  0.00  0.00     0.002 A 
ATOM      7  C8  UNL d   1      -1.011   0.067  -0.626  0.00  0.00     0.006 A 
ENDROOT
BRANCH   1   8
ATOM      8  C1  UNL d   1       0.189  -2.151  -0.546  0.00  0.00     0.054 C 
ATOM      9  C   UNL d   1      -1.072  -2.965  -0.798  0.00  0.00     0.018 C 
ENDBRANCH   1   8
TORSDOF 1
ENDMDL
