MODEL 1
REMARK minimizedAffinity -3.09981799
REMARK minimizedRMSD -1
REMARK  1 active torsions:
REMARK  status: ('A' for Active; 'I' for Inactive)
REMARK    1  A    between atoms: C1_2  and  C2_3 
ROOT
ATOM      1  C2  UNL d   1      -0.069   1.242   2.337  0.00  0.00    -0.081 A 
ATOM      2  C3  UNL d   1      -0.308   0.725   3.616  0.00  0.00     0.006 A 
ATOM      3  C4  UNL d   1       0.413  -0.376   4.081  0.00  0.00     0.002 A 
ATOM      4  C5  UNL d   1       1.391  -0.974   3.279  0.00  0.00    -0.080 A 
ATOM      5  C6  UNL d   1       2.194  -2.139   3.778  0.00  0.00     0.076 C 
ATOM      6  C7  UNL d   1       1.618  -0.470   1.995  0.00  0.00     0.002 A 
ATOM      7  C8  UNL d   1       0.896   0.631   1.528  0.00  0.00     0.006 A 
ENDROOT
BRANCH   1   8
ATOM      8  C1  UNL d   1      -0.800   2.470   1.857  0.00  0.00     0.054 C 
ATOM      9  C   UNL d   1      -2.300   2.346   2.087  0.00  0.00     0.018 C 
ENDBRANCH   1   8
TORSDOF 1
ENDMDL
