MODEL 1
REMARK minimizedAffinity -3.78926396
REMARK minimizedRMSD -1
REMARK  1 active torsions:
REMARK  status: ('A' for Active; 'I' for Inactive)
REMARK    1  A    between atoms: C1_2  and  C2_3 
ROOT
ATOM      1  C2  UNL d   1       0.233  -0.696  -0.329  0.00  0.00    -0.081 A 
ATOM      2  C3  UNL d   1       0.628  -0.482   0.997  0.00  0.00     0.006 A 
ATOM      3  C4  UNL d   1       0.173   0.636   1.700  0.00  0.00     0.002 A 
ATOM      4  C5  UNL d   1      -0.690   1.554   1.091  0.00  0.00    -0.080 A 
ATOM      5  C6  UNL d   1      -1.210   2.742   1.844  0.00  0.00     0.076 C 
ATOM      6  C7  UNL d   1      -1.070   1.349  -0.240  0.00  0.00     0.002 A 
ATOM      7  C8  UNL d   1      -0.615   0.232  -0.943  0.00  0.00     0.006 A 
ENDROOT
BRANCH   1   8
ATOM      8  C1  UNL d   1       0.670  -1.935  -1.069  0.00  0.00     0.054 C 
ATOM      9  C   UNL d   1      -0.526  -2.746  -1.545  0.00  0.00     0.018 C 
ENDBRANCH   1   8
TORSDOF 1
ENDMDL
