MODEL 1
REMARK minimizedAffinity -3.97694564
REMARK minimizedRMSD -1
REMARK  1 active torsions:
REMARK  status: ('A' for Active; 'I' for Inactive)
REMARK    1  A    between atoms: C1_2  and  C2_3 
ROOT
ATOM      1  C2  UNL d   1       0.207  -0.578  -0.219  0.00  0.00    -0.081 A 
ATOM      2  C3  UNL d   1       0.185  -0.537   1.181  0.00  0.00     0.006 A 
ATOM      3  C4  UNL d   1      -0.220   0.621   1.849  0.00  0.00     0.002 A 
ATOM      4  C5  UNL d   1      -0.618   1.753   1.130  0.00  0.00    -0.080 A 
ATOM      5  C6  UNL d   1      -1.084   2.993   1.835  0.00  0.00     0.076 C 
ATOM      6  C7  UNL d   1      -0.580   1.718  -0.268  0.00  0.00     0.002 A 
ATOM      7  C8  UNL d   1      -0.174   0.561  -0.937  0.00  0.00     0.006 A 
ENDROOT
BRANCH   1   8
ATOM      8  C1  UNL d   1       0.581  -1.846  -0.942  0.00  0.00     0.054 C 
ATOM      9  C   UNL d   1      -0.583  -2.826  -0.980  0.00  0.00     0.018 C 
ENDBRANCH   1   8
TORSDOF 1
ENDMDL
