MODEL 1
REMARK minimizedAffinity -2.68542719
REMARK minimizedRMSD -1
REMARK  1 active torsions:
REMARK  status: ('A' for Active; 'I' for Inactive)
REMARK    1  A    between atoms: C1_2  and  C2_3 
ROOT
ATOM      1  C2  UNL d   1       0.342  -0.680  -0.892  0.00  0.00    -0.081 A 
ATOM      2  C3  UNL d   1       0.544  -0.833   0.485  0.00  0.00     0.006 A 
ATOM      3  C4  UNL d   1       0.074   0.130   1.381  0.00  0.00     0.002 A 
ATOM      4  C5  UNL d   1      -0.611   1.257   0.917  0.00  0.00    -0.080 A 
ATOM      5  C6  UNL d   1      -1.148   2.283   1.870  0.00  0.00     0.076 C 
ATOM      6  C7  UNL d   1      -0.798   1.419  -0.460  0.00  0.00     0.002 A 
ATOM      7  C8  UNL d   1      -0.328   0.457  -1.357  0.00  0.00     0.006 A 
ENDROOT
BRANCH   1   8
ATOM      8  C1  UNL d   1       0.791  -1.749  -1.856  0.00  0.00     0.054 C 
ATOM      9  C   UNL d   1       0.136  -3.087  -1.543  0.00  0.00     0.018 C 
ENDBRANCH   1   8
TORSDOF 1
ENDMDL
