MODEL 1
REMARK minimizedAffinity -3.71418452
REMARK minimizedRMSD -1
REMARK  1 active torsions:
REMARK  status: ('A' for Active; 'I' for Inactive)
REMARK    1  A    between atoms: C1_2  and  C2_3 
ROOT
ATOM      1  C2  UNL d   1       0.295  -0.776   0.025  0.00  0.00    -0.081 A 
ATOM      2  C3  UNL d   1       0.581  -0.326   1.320  0.00  0.00     0.006 A 
ATOM      3  C4  UNL d   1       0.069   0.891   1.776  0.00  0.00     0.002 A 
ATOM      4  C5  UNL d   1      -0.743   1.674   0.949  0.00  0.00    -0.080 A 
ATOM      5  C6  UNL d   1      -1.324   2.968   1.437  0.00  0.00     0.076 C 
ATOM      6  C7  UNL d   1      -1.015   1.233  -0.351  0.00  0.00     0.002 A 
ATOM      7  C8  UNL d   1      -0.503   0.017  -0.808  0.00  0.00     0.006 A 
ENDROOT
BRANCH   1   8
ATOM      8  C1  UNL d   1       0.792  -2.118  -0.447  0.00  0.00     0.054 C 
ATOM      9  C   UNL d   1      -0.312  -2.905  -1.138  0.00  0.00     0.018 C 
ENDBRANCH   1   8
TORSDOF 1
ENDMDL
