MODEL 1
REMARK minimizedAffinity -4.20401049
REMARK minimizedRMSD -1
REMARK  2 active torsions:
REMARK  status: ('A' for Active; 'I' for Inactive)
REMARK    1  A    between atoms: C2'_3  and  C1'_4 
REMARK    2  A    between atoms: C1'_4  and  C1_5 
ROOT
ATOM      1  C1  I4B d   1       0.009  -0.054   0.211  0.00  0.00    -0.075 A 
ATOM      2  C2  I4B d   1      -0.904   0.133   1.219  0.00  0.00     0.003 A 
ATOM      3  C3  I4B d   1      -1.355  -0.968   1.986  0.00  0.00     0.002 A 
ATOM      4  C4  I4B d   1      -0.909  -2.238   1.680  0.00  0.00    -0.004 A 
ATOM      5  C5  I4B d   1       0.034  -2.423   0.673  0.00  0.00     0.002 A 
ATOM      6  C6  I4B d   1       0.506  -1.323  -0.058  0.00  0.00     0.003 A 
ENDROOT
BRANCH   1   7
ATOM      7  C1' I4B d   1       0.439   1.126  -0.601  0.00  0.00     0.060 C 
BRANCH   7   8
ATOM      8  C2' I4B d   1       0.875   2.217   0.356  0.00  0.00    -0.013 C 
ATOM      9  C4' I4B d   1       2.340   2.528   0.198  0.00  0.00     0.013 C 
ATOM     10  C3' I4B d   1       0.032   3.429   0.091  0.00  0.00     0.013 C 
ENDBRANCH   7   8
ENDBRANCH   1   7
TORSDOF 2
ENDMDL
