MODEL 1
REMARK minimizedAffinity -2.28451896
REMARK minimizedRMSD -1
REMARK  2 active torsions:
REMARK  status: ('A' for Active; 'I' for Inactive)
REMARK    1  A    between atoms: C2'_3  and  C1'_4 
REMARK    2  A    between atoms: C1'_4  and  C1_5 
ROOT
ATOM      1  C1  I4B d   1       1.528   1.568  -0.470  0.00  0.00    -0.075 A 
ATOM      2  C2  I4B d   1       0.223   1.850  -0.151  0.00  0.00     0.003 A 
ATOM      3  C3  I4B d   1      -0.111   3.087   0.452  0.00  0.00     0.002 A 
ATOM      4  C4  I4B d   1       0.890   3.984   0.763  0.00  0.00    -0.004 A 
ATOM      5  C5  I4B d   1       2.209   3.706   0.418  0.00  0.00     0.002 A 
ATOM      6  C6  I4B d   1       2.529   2.495  -0.214  0.00  0.00     0.003 A 
ENDROOT
BRANCH   1   7
ATOM      7  C1' I4B d   1       1.850   0.239  -1.077  0.00  0.00     0.060 C 
BRANCH   7   8
ATOM      8  C2' I4B d   1       0.667  -0.188  -1.922  0.00  0.00    -0.013 C 
ATOM      9  C4' I4B d   1       0.414   0.790  -3.039  0.00  0.00     0.013 C 
ATOM     10  C3' I4B d   1       0.951  -1.560  -2.457  0.00  0.00     0.013 C 
ENDBRANCH   7   8
ENDBRANCH   1   7
TORSDOF 2
ENDMDL
