MODEL 1
REMARK minimizedAffinity -2.18615746
REMARK minimizedRMSD -1
REMARK  2 active torsions:
REMARK  status: ('A' for Active; 'I' for Inactive)
REMARK    1  A    between atoms: C2'_3  and  C1'_4 
REMARK    2  A    between atoms: C1'_4  and  C1_5 
ROOT
ATOM      1  C1  I4B d   1      -0.324  -1.742   0.020  0.00  0.00    -0.075 A 
ATOM      2  C2  I4B d   1      -0.018  -1.773  -1.317  0.00  0.00     0.003 A 
ATOM      3  C3  I4B d   1       0.215  -0.568  -2.023  0.00  0.00     0.002 A 
ATOM      4  C4  I4B d   1       0.083   0.640  -1.368  0.00  0.00    -0.004 A 
ATOM      5  C5  I4B d   1      -0.205   0.668  -0.007  0.00  0.00     0.002 A 
ATOM      6  C6  I4B d   1      -0.398  -0.531   0.695  0.00  0.00     0.003 A 
ENDROOT
BRANCH   1   7
ATOM      7  C1' I4B d   1      -0.596  -3.032   0.727  0.00  0.00     0.060 C 
BRANCH   7   8
ATOM      8  C2' I4B d   1      -2.022  -2.992   1.238  0.00  0.00    -0.013 C 
ATOM      9  C4' I4B d   1      -2.257  -1.784   2.106  0.00  0.00     0.013 C 
ATOM     10  C3' I4B d   1      -2.939  -2.993   0.052  0.00  0.00     0.013 C 
ENDBRANCH   7   8
ENDBRANCH   1   7
TORSDOF 2
ENDMDL
