MODEL 1
REMARK minimizedAffinity -3.91615391
REMARK minimizedRMSD -1
REMARK  2 active torsions:
REMARK  status: ('A' for Active; 'I' for Inactive)
REMARK    1  A    between atoms: C2'_3  and  C1'_4 
REMARK    2  A    between atoms: C1'_4  and  C1_5 
ROOT
ATOM      1  C1  I4B d   1      -0.544  -0.568   0.757  0.00  0.00    -0.075 A 
ATOM      2  C2  I4B d   1      -1.726  -1.237   0.959  0.00  0.00     0.003 A 
ATOM      3  C3  I4B d   1      -1.778  -2.646   0.829  0.00  0.00     0.002 A 
ATOM      4  C4  I4B d   1      -0.645  -3.336   0.450  0.00  0.00    -0.004 A 
ATOM      5  C5  I4B d   1       0.557  -2.659   0.268  0.00  0.00     0.002 A 
ATOM      6  C6  I4B d   1       0.611  -1.267   0.434  0.00  0.00     0.003 A 
ENDROOT
BRANCH   1   7
ATOM      7  C1' I4B d   1      -0.532   0.924   0.869  0.00  0.00     0.060 C 
BRANCH   7   8
ATOM      8  C2' I4B d   1       0.437   1.462  -0.163  0.00  0.00    -0.013 C 
ATOM      9  C4' I4B d   1      -0.101   1.289  -1.559  0.00  0.00     0.013 C 
ATOM     10  C3' I4B d   1       0.687   2.908   0.145  0.00  0.00     0.013 C 
ENDBRANCH   7   8
ENDBRANCH   1   7
TORSDOF 2
ENDMDL
