MODEL 1
REMARK minimizedAffinity -1.46377683
REMARK minimizedRMSD -1
REMARK  2 active torsions:
REMARK  status: ('A' for Active; 'I' for Inactive)
REMARK    1  A    between atoms: C2'_3  and  C1'_4 
REMARK    2  A    between atoms: C1'_4  and  C1_5 
ROOT
ATOM      1  C1  I4B d   1       0.298   2.445   0.132  0.00  0.00    -0.075 A 
ATOM      2  C2  I4B d   1      -0.022   1.294   0.809  0.00  0.00     0.003 A 
ATOM      3  C3  I4B d   1      -0.051   0.053   0.129  0.00  0.00     0.002 A 
ATOM      4  C4  I4B d   1       0.194   0.015  -1.229  0.00  0.00    -0.004 A 
ATOM      5  C5  I4B d   1       0.541   1.180  -1.908  0.00  0.00     0.002 A 
ATOM      6  C6  I4B d   1       0.605   2.401  -1.221  0.00  0.00     0.003 A 
ENDROOT
BRANCH   1   7
ATOM      7  C1' I4B d   1       0.288   3.744   0.875  0.00  0.00     0.060 C 
BRANCH   7   8
ATOM      8  C2' I4B d   1       0.973   3.525   2.208  0.00  0.00    -0.013 C 
ATOM      9  C4' I4B d   1       2.430   3.901   2.140  0.00  0.00     0.013 C 
ATOM     10  C3' I4B d   1       0.252   4.340   3.239  0.00  0.00     0.013 C 
ENDBRANCH   7   8
ENDBRANCH   1   7
TORSDOF 2
ENDMDL
