MODEL 1
REMARK minimizedAffinity -2.2054565
REMARK minimizedRMSD -1
REMARK  2 active torsions:
REMARK  status: ('A' for Active; 'I' for Inactive)
REMARK    1  A    between atoms: C2'_3  and  C1'_4 
REMARK    2  A    between atoms: C1'_4  and  C1_5 
ROOT
ATOM      1  C1  I4B d   1      -0.492   0.636   0.226  0.00  0.00    -0.075 A 
ATOM      2  C2  I4B d   1      -1.698   0.706   0.877  0.00  0.00     0.003 A 
ATOM      3  C3  I4B d   1      -2.249  -0.450   1.482  0.00  0.00     0.002 A 
ATOM      4  C4  I4B d   1      -1.590  -1.657   1.368  0.00  0.00    -0.004 A 
ATOM      5  C5  I4B d   1      -0.356  -1.721   0.727  0.00  0.00     0.002 A 
ATOM      6  C6  I4B d   1       0.203  -0.565   0.163  0.00  0.00     0.003 A 
ENDROOT
BRANCH   1   7
ATOM      7  C1' I4B d   1       0.045   1.869  -0.430  0.00  0.00     0.060 C 
BRANCH   7   8
ATOM      8  C2' I4B d   1       1.220   2.360   0.391  0.00  0.00    -0.013 C 
ATOM      9  C4' I4B d   1       2.277   2.979  -0.486  0.00  0.00     0.013 C 
ATOM     10  C3' I4B d   1       0.703   3.347   1.394  0.00  0.00     0.013 C 
ENDBRANCH   7   8
ENDBRANCH   1   7
TORSDOF 2
ENDMDL
