MODEL 1
REMARK minimizedAffinity -0.296844065
REMARK minimizedRMSD -1
REMARK  1 active torsions:
REMARK  status: ('A' for Active; 'I' for Inactive)
REMARK    1  A    between atoms: N_2  and  C1_3 
ROOT
ATOM      1  C1  UNL d   1       2.375  -1.092  -2.759  0.00  0.00     0.143 A 
ATOM      2  C2  UNL d   1       1.643  -0.163  -2.012  0.00  0.00    -0.057 A 
ATOM      3  C3  UNL d   1       1.680   1.203  -2.315  0.00  0.00     0.033 A 
ATOM      4  C4  UNL d   1       2.477   1.670  -3.355  0.00  0.00    -0.042 A 
ATOM      5  C5  UNL d   1       3.233   0.767  -4.095  0.00  0.00     0.033 A 
ATOM      6  C6  UNL d   1       3.186  -0.597  -3.792  0.00  0.00    -0.057 A 
ENDROOT
BRANCH   1   7
ATOM      7  N   UNL d   1       2.456  -2.451  -2.446  0.00  0.00    -0.732 N 
ATOM      8  C   UNL d   1       3.178  -2.896  -1.273  0.00  0.00     0.284 C 
ATOM      9  H3  UNL d   1       1.577  -2.939  -2.602  0.00  0.00     0.395 HD
ENDBRANCH   1   7
TORSDOF 1
ENDMDL
