MODEL 1
REMARK minimizedAffinity 2.78077555
REMARK minimizedRMSD -1
REMARK  1 active torsions:
REMARK  status: ('A' for Active; 'I' for Inactive)
REMARK    1  A    between atoms: N_2  and  C1_3 
ROOT
ATOM      1  C1  UNL d   1      -2.211   0.879  -4.180  0.00  0.00     0.143 A 
ATOM      2  C2  UNL d   1      -2.427   0.680  -2.813  0.00  0.00    -0.057 A 
ATOM      3  C3  UNL d   1      -1.500   1.120  -1.860  0.00  0.00     0.033 A 
ATOM      4  C4  UNL d   1      -0.323   1.743  -2.261  0.00  0.00    -0.042 A 
ATOM      5  C5  UNL d   1      -0.076   1.929  -3.617  0.00  0.00     0.033 A 
ATOM      6  C6  UNL d   1      -1.009   1.493  -4.563  0.00  0.00    -0.057 A 
ENDROOT
BRANCH   1   7
ATOM      7  N   UNL d   1      -3.047   0.377  -5.181  0.00  0.00    -0.732 N 
ATOM      8  C   UNL d   1      -2.629  -0.740  -6.000  0.00  0.00     0.284 C 
ATOM      9  H3  UNL d   1      -4.021   0.337  -4.889  0.00  0.00     0.395 HD
ENDBRANCH   1   7
TORSDOF 1
ENDMDL
