MODEL 1
REMARK minimizedAffinity 10.9635744
REMARK minimizedRMSD -1
REMARK  1 active torsions:
REMARK  status: ('A' for Active; 'I' for Inactive)
REMARK    1  A    between atoms: N_2  and  C1_3 
ROOT
ATOM      1  C1  UNL d   1      -0.472  -5.955   1.245  0.00  0.00     0.143 A 
ATOM      2  C2  UNL d   1       0.349  -5.956   0.113  0.00  0.00    -0.057 A 
ATOM      3  C3  UNL d   1       1.744  -5.922   0.228  0.00  0.00     0.033 A 
ATOM      4  C4  UNL d   1       2.343  -5.857   1.482  0.00  0.00    -0.042 A 
ATOM      5  C5  UNL d   1       1.546  -5.830   2.620  0.00  0.00     0.033 A 
ATOM      6  C6  UNL d   1       0.153  -5.871   2.499  0.00  0.00    -0.057 A 
ENDROOT
BRANCH   1   7
ATOM      7  N   UNL d   1      -1.867  -5.889   1.194  0.00  0.00    -0.732 N 
ATOM      8  C   UNL d   1      -2.538  -4.622   0.995  0.00  0.00     0.284 C 
ATOM      9  H3  UNL d   1      -2.274  -6.662   0.672  0.00  0.00     0.395 HD
ENDBRANCH   1   7
TORSDOF 1
ENDMDL
