MODEL 1
REMARK minimizedAffinity 6.34455776
REMARK minimizedRMSD -1
REMARK  1 active torsions:
REMARK  status: ('A' for Active; 'I' for Inactive)
REMARK    1  A    between atoms: N_2  and  C1_3 
ROOT
ATOM      1  C1  UNL d   1      -2.813   0.929   0.019  0.00  0.00     0.143 A 
ATOM      2  C2  UNL d   1      -3.308  -0.331  -0.332  0.00  0.00    -0.057 A 
ATOM      3  C3  UNL d   1      -2.875  -0.985  -1.492  0.00  0.00     0.033 A 
ATOM      4  C4  UNL d   1      -1.956  -0.374  -2.339  0.00  0.00    -0.042 A 
ATOM      5  C5  UNL d   1      -1.468   0.889  -2.023  0.00  0.00     0.033 A 
ATOM      6  C6  UNL d   1      -1.900   1.534  -0.860  0.00  0.00    -0.057 A 
ENDROOT
BRANCH   1   7
ATOM      7  N   UNL d   1      -3.278   1.673   1.107  0.00  0.00    -0.732 N 
ATOM      8  C   UNL d   1      -4.679   1.651   1.469  0.00  0.00     0.284 C 
ATOM      9  H3  UNL d   1      -2.643   1.639   1.901  0.00  0.00     0.395 HD
ENDBRANCH   1   7
TORSDOF 1
ENDMDL
