MODEL 1
REMARK minimizedAffinity 5.54838896
REMARK minimizedRMSD -1
REMARK  1 active torsions:
REMARK  status: ('A' for Active; 'I' for Inactive)
REMARK    1  A    between atoms: N_2  and  C1_3 
ROOT
ATOM      1  C1  UNL d   1      -1.995   0.539  -0.922  0.00  0.00     0.143 A 
ATOM      2  C2  UNL d   1      -2.538  -0.692  -1.305  0.00  0.00    -0.057 A 
ATOM      3  C3  UNL d   1      -2.993  -0.911  -2.611  0.00  0.00     0.033 A 
ATOM      4  C4  UNL d   1      -2.940   0.112  -3.553  0.00  0.00    -0.042 A 
ATOM      5  C5  UNL d   1      -2.427   1.351  -3.188  0.00  0.00     0.033 A 
ATOM      6  C6  UNL d   1      -1.968   1.561  -1.884  0.00  0.00    -0.057 A 
ENDROOT
BRANCH   1   7
ATOM      7  N   UNL d   1      -1.617   0.849   0.386  0.00  0.00    -0.732 N 
ATOM      8  C   UNL d   1      -2.547   1.490   1.291  0.00  0.00     0.284 C 
ATOM      9  H3  UNL d   1      -1.061   0.113   0.815  0.00  0.00     0.395 HD
ENDBRANCH   1   7
TORSDOF 1
ENDMDL
