MODEL 1
REMARK minimizedAffinity -2.81437898
REMARK minimizedRMSD -1
REMARK  1 active torsions:
REMARK  status: ('A' for Active; 'I' for Inactive)
REMARK    1  A    between atoms: N_2  and  C1_3 
ROOT
ATOM      1  C1  UNL d   1      -0.154  -0.039  -3.687  0.00  0.00     0.143 A 
ATOM      2  C2  UNL d   1       0.959  -0.884  -3.746  0.00  0.00    -0.057 A 
ATOM      3  C3  UNL d   1       2.125  -0.600  -3.025  0.00  0.00     0.033 A 
ATOM      4  C4  UNL d   1       2.209   0.553  -2.252  0.00  0.00    -0.042 A 
ATOM      5  C5  UNL d   1       1.124   1.421  -2.199  0.00  0.00     0.033 A 
ATOM      6  C6  UNL d   1      -0.040   1.129  -2.916  0.00  0.00    -0.057 A 
ENDROOT
BRANCH   1   7
ATOM      7  N   UNL d   1      -1.306  -0.214  -4.458  0.00  0.00    -0.732 N 
ATOM      8  C   UNL d   1      -1.949   0.917  -5.091  0.00  0.00     0.284 C 
ATOM      9  H3  UNL d   1      -1.259  -1.046  -5.042  0.00  0.00     0.395 HD
ENDBRANCH   1   7
TORSDOF 1
ENDMDL
