MODEL 1
REMARK minimizedAffinity -0.986640275
REMARK minimizedRMSD -1
REMARK  1 active torsions:
REMARK  status: ('A' for Active; 'I' for Inactive)
REMARK    1  A    between atoms: N_2  and  C1_3 
ROOT
ATOM      1  C1  UNL d   1       1.329  -0.432  -3.286  0.00  0.00     0.143 A 
ATOM      2  C2  UNL d   1       1.891   0.656  -2.608  0.00  0.00    -0.057 A 
ATOM      3  C3  UNL d   1       1.099   1.720  -2.161  0.00  0.00     0.033 A 
ATOM      4  C4  UNL d   1      -0.269   1.730  -2.410  0.00  0.00    -0.042 A 
ATOM      5  C5  UNL d   1      -0.845   0.672  -3.104  0.00  0.00     0.033 A 
ATOM      6  C6  UNL d   1      -0.050  -0.392  -3.542  0.00  0.00    -0.057 A 
ENDROOT
BRANCH   1   7
ATOM      7  N   UNL d   1       2.077  -1.473  -3.841  0.00  0.00    -0.732 N 
ATOM      8  C   UNL d   1       3.307  -1.198  -4.553  0.00  0.00     0.284 C 
ATOM      9  H3  UNL d   1       2.122  -2.287  -3.233  0.00  0.00     0.395 HD
ENDBRANCH   1   7
TORSDOF 1
ENDMDL
