MODEL 1
REMARK minimizedAffinity 5.90642357
REMARK minimizedRMSD -1
REMARK  1 active torsions:
REMARK  status: ('A' for Active; 'I' for Inactive)
REMARK    1  A    between atoms: N_2  and  C1_3 
ROOT
ATOM      1  C1  UNL d   1       2.714   1.970  -2.131  0.00  0.00     0.143 A 
ATOM      2  C2  UNL d   1       1.900   2.992  -2.630  0.00  0.00    -0.057 A 
ATOM      3  C3  UNL d   1       2.116   3.539  -3.900  0.00  0.00     0.033 A 
ATOM      4  C4  UNL d   1       3.173   3.091  -4.686  0.00  0.00    -0.042 A 
ATOM      5  C5  UNL d   1       4.011   2.094  -4.200  0.00  0.00     0.033 A 
ATOM      6  C6  UNL d   1       3.786   1.547  -2.934  0.00  0.00    -0.057 A 
ENDROOT
BRANCH   1   7
ATOM      7  N   UNL d   1       2.611   1.454  -0.837  0.00  0.00    -0.732 N 
ATOM      8  C   UNL d   1       3.796   1.076  -0.097  0.00  0.00     0.284 C 
ATOM      9  H3  UNL d   1       1.910   1.939  -0.281  0.00  0.00     0.395 HD
ENDBRANCH   1   7
TORSDOF 1
ENDMDL
