MODEL 1
REMARK minimizedAffinity -2.64462113
REMARK minimizedRMSD -1
REMARK  0 active torsions:
REMARK  status: ('A' for Active; 'I' for Inactive)
ROOT
ATOM      1  C   UNL d   1       0.818   1.447   1.769  0.00  0.00     0.172 C 
ATOM      2  N   UNL d   1       0.249   0.758   0.634  0.00  0.00    -0.070 N 
ATOM      3  C1  UNL d   1       0.938  -0.030  -0.249  0.00  0.00    -0.004 A 
ATOM      4  C2  UNL d   1       0.041  -0.501  -1.183  0.00  0.00    -0.047 A 
ATOM      5  C3  UNL d   1      -1.231   0.023  -0.851  0.00  0.00    -0.047 A 
ATOM      6  C4  UNL d   1      -1.073   0.799   0.278  0.00  0.00    -0.004 A 
ENDROOT
TORSDOF 0
ENDMDL
