MODEL 1
REMARK minimizedAffinity -3.10719085
REMARK minimizedRMSD -1
REMARK  0 active torsions:
REMARK  status: ('A' for Active; 'I' for Inactive)
ROOT
ATOM      1  C   UNL d   1       0.185   1.456   2.722  0.00  0.00     0.172 C 
ATOM      2  N   UNL d   1       0.564   0.645   1.588  0.00  0.00    -0.070 N 
ATOM      3  C1  UNL d   1      -0.067   0.627   0.373  0.00  0.00    -0.004 A 
ATOM      4  C2  UNL d   1       0.596  -0.272  -0.433  0.00  0.00    -0.047 A 
ATOM      5  C3  UNL d   1       1.662  -0.813   0.323  0.00  0.00    -0.047 A 
ATOM      6  C4  UNL d   1       1.619  -0.228   1.571  0.00  0.00    -0.004 A 
ENDROOT
TORSDOF 0
ENDMDL
