MODEL 1
REMARK minimizedAffinity -3.34745908
REMARK minimizedRMSD -1
REMARK  0 active torsions:
REMARK  status: ('A' for Active; 'I' for Inactive)
ROOT
ATOM      1  C   UNL d   1      -1.266   1.130   2.865  0.00  0.00     0.172 C 
ATOM      2  N   UNL d   1      -0.705   0.747   1.591  0.00  0.00    -0.070 N 
ATOM      3  C1  UNL d   1      -1.299   0.930   0.370  0.00  0.00    -0.004 A 
ATOM      4  C2  UNL d   1      -0.447   0.434  -0.592  0.00  0.00    -0.047 A 
ATOM      5  C3  UNL d   1       0.698  -0.065   0.072  0.00  0.00    -0.047 A 
ATOM      6  C4  UNL d   1       0.512   0.142   1.423  0.00  0.00    -0.004 A 
ENDROOT
TORSDOF 0
ENDMDL
