MODEL 1
REMARK minimizedAffinity -4.20574665
REMARK minimizedRMSD -1
REMARK  0 active torsions:
REMARK  status: ('A' for Active; 'I' for Inactive)
ROOT
ATOM      1  C   UNL d   1      -1.248   0.164   0.180  0.00  0.00     0.172 C 
ATOM      2  N   UNL d   1      -0.681   0.320   1.499  0.00  0.00    -0.070 N 
ATOM      3  C1  UNL d   1       0.642   0.180   1.820  0.00  0.00    -0.004 A 
ATOM      4  C2  UNL d   1       0.775   0.408   3.173  0.00  0.00    -0.047 A 
ATOM      5  C3  UNL d   1      -0.514   0.693   3.683  0.00  0.00    -0.047 A 
ATOM      6  C4  UNL d   1      -1.397   0.632   2.625  0.00  0.00    -0.004 A 
ENDROOT
TORSDOF 0
ENDMDL
