MODEL 1
REMARK minimizedAffinity -3.04155874
REMARK minimizedRMSD -1
REMARK  0 active torsions:
REMARK  status: ('A' for Active; 'I' for Inactive)
ROOT
ATOM      1  C   UNL d   1       0.543  -0.705  -0.771  0.00  0.00     0.172 C 
ATOM      2  N   UNL d   1      -0.263  -0.198   0.315  0.00  0.00    -0.070 N 
ATOM      3  C1  UNL d   1      -1.465   0.445   0.184  0.00  0.00    -0.004 A 
ATOM      4  C2  UNL d   1      -1.910   0.768   1.448  0.00  0.00    -0.047 A 
ATOM      5  C3  UNL d   1      -0.942   0.304   2.370  0.00  0.00    -0.047 A 
ATOM      6  C4  UNL d   1       0.067  -0.290   1.641  0.00  0.00    -0.004 A 
ENDROOT
TORSDOF 0
ENDMDL
