MODEL 1
REMARK minimizedAffinity -2.92692542
REMARK minimizedRMSD -1
REMARK  0 active torsions:
REMARK  status: ('A' for Active; 'I' for Inactive)
ROOT
ATOM      1  C   UNL d   1       0.641  -0.164   3.280  0.00  0.00     0.172 C 
ATOM      2  N   UNL d   1      -0.268   0.063   2.181  0.00  0.00    -0.070 N 
ATOM      3  C1  UNL d   1      -1.428   0.788   2.242  0.00  0.00    -0.004 A 
ATOM      4  C2  UNL d   1      -2.005   0.766   0.990  0.00  0.00    -0.047 A 
ATOM      5  C3  UNL d   1      -1.163   0.001   0.149  0.00  0.00    -0.047 A 
ATOM      6  C4  UNL d   1      -0.095  -0.423   0.912  0.00  0.00    -0.004 A 
ENDROOT
TORSDOF 0
ENDMDL
