MODEL 1
REMARK minimizedAffinity -3.41536236
REMARK minimizedRMSD -1
REMARK  0 active torsions:
REMARK  status: ('A' for Active; 'I' for Inactive)
ROOT
ATOM      1  C1  DEN d   1       1.878  -0.854   1.663  0.00  0.00     0.130 A 
ATOM      2  C2  DEN d   1       1.343  -1.092   3.001  0.00  0.00    -0.031 A 
ATOM      3  C3  DEN d   1      -0.082  -0.705   2.998  0.00  0.00     0.027 A 
ATOM      4  C4  DEN d   1      -1.505   0.231   1.061  0.00  0.00     0.027 A 
ATOM      5  C5  DEN d   1      -1.487   0.617  -0.261  0.00  0.00    -0.003 A 
ATOM      6  C6  DEN d   1      -0.347   0.572  -1.019  0.00  0.00     0.001 A 
ATOM      7  C7  DEN d   1       0.813   0.089  -0.472  0.00  0.00     0.017 A 
ATOM      8  C8  DEN d   1       0.804  -0.295   0.862  0.00  0.00    -0.094 A 
ATOM      9  C9  DEN d   1      -0.362  -0.254   1.608  0.00  0.00    -0.072 A 
ENDROOT
TORSDOF 0
ENDMDL
