MODEL 1
REMARK minimizedAffinity -5.00385475
REMARK minimizedRMSD -1
REMARK  0 active torsions:
REMARK  status: ('A' for Active; 'I' for Inactive)
ROOT
ATOM      1  C1  DEN d   1      -2.118   0.739  -1.327  0.00  0.00     0.130 A 
ATOM      2  C2  DEN d   1      -1.114   1.128  -2.315  0.00  0.00    -0.031 A 
ATOM      3  C3  DEN d   1       0.220   0.927  -1.714  0.00  0.00     0.027 A 
ATOM      4  C4  DEN d   1       0.826   0.053   0.635  0.00  0.00     0.027 A 
ATOM      5  C5  DEN d   1       0.314  -0.394   1.834  0.00  0.00    -0.003 A 
ATOM      6  C6  DEN d   1      -1.033  -0.461   2.072  0.00  0.00     0.001 A 
ATOM      7  C7  DEN d   1      -1.916  -0.119   1.082  0.00  0.00     0.017 A 
ATOM      8  C8  DEN d   1      -1.407   0.340  -0.126  0.00  0.00    -0.094 A 
ATOM      9  C9  DEN d   1      -0.042   0.389  -0.352  0.00  0.00    -0.072 A 
ENDROOT
TORSDOF 0
ENDMDL
