MODEL 1
REMARK minimizedAffinity -3.95188427
REMARK minimizedRMSD -1
REMARK  0 active torsions:
REMARK  status: ('A' for Active; 'I' for Inactive)
ROOT
ATOM      1  C1  DEN d   1       1.214  -0.399  -0.914  0.00  0.00     0.130 A 
ATOM      2  C2  DEN d   1      -0.044   0.028  -1.519  0.00  0.00    -0.031 A 
ATOM      3  C3  DEN d   1      -1.035   0.203  -0.439  0.00  0.00     0.027 A 
ATOM      4  C4  DEN d   1      -0.743  -0.139   2.101  0.00  0.00     0.027 A 
ATOM      5  C5  DEN d   1       0.142  -0.509   3.090  0.00  0.00    -0.003 A 
ATOM      6  C6  DEN d   1       1.426  -0.897   2.812  0.00  0.00     0.001 A 
ATOM      7  C7  DEN d   1       1.875  -0.882   1.518  0.00  0.00     0.017 A 
ATOM      8  C8  DEN d   1       0.987  -0.517   0.515  0.00  0.00    -0.094 A 
ATOM      9  C9  DEN d   1      -0.304  -0.116   0.817  0.00  0.00    -0.072 A 
ENDROOT
TORSDOF 0
ENDMDL
