MODEL 1
REMARK minimizedAffinity -5.59932709
REMARK minimizedRMSD -1
REMARK  0 active torsions:
REMARK  status: ('A' for Active; 'I' for Inactive)
ROOT
ATOM      1  C1  DEN d   1      -0.113   1.015  -0.540  0.00  0.00     0.130 A 
ATOM      2  C2  DEN d   1      -1.506   0.591  -0.656  0.00  0.00    -0.031 A 
ATOM      3  C3  DEN d   1      -1.793  -0.339   0.455  0.00  0.00     0.027 A 
ATOM      4  C4  DEN d   1      -0.227  -1.154   2.335  0.00  0.00     0.027 A 
ATOM      5  C5  DEN d   1       1.051  -1.077   2.844  0.00  0.00    -0.003 A 
ATOM      6  C6  DEN d   1       2.031  -0.331   2.246  0.00  0.00     0.001 A 
ATOM      7  C7  DEN d   1       1.738   0.405   1.128  0.00  0.00     0.017 A 
ATOM      8  C8  DEN d   1       0.454   0.327   0.606  0.00  0.00    -0.094 A 
ATOM      9  C9  DEN d   1      -0.527  -0.423   1.232  0.00  0.00    -0.072 A 
ENDROOT
TORSDOF 0
ENDMDL
