MODEL 1
REMARK minimizedAffinity 6.71818495
REMARK minimizedRMSD -1
REMARK  0 active torsions:
REMARK  status: ('A' for Active; 'I' for Inactive)
ROOT
ATOM      1  C1  DEN d   1      -0.152  -3.975   2.317  0.00  0.00     0.130 A 
ATOM      2  C2  DEN d   1      -1.055  -3.883   3.461  0.00  0.00    -0.031 A 
ATOM      3  C3  DEN d   1      -0.988  -2.505   3.986  0.00  0.00     0.027 A 
ATOM      4  C4  DEN d   1       0.416  -0.513   3.141  0.00  0.00     0.027 A 
ATOM      5  C5  DEN d   1       1.342  -0.109   2.205  0.00  0.00    -0.003 A 
ATOM      6  C6  DEN d   1       1.857  -0.967   1.270  0.00  0.00     0.001 A 
ATOM      7  C7  DEN d   1       1.414  -2.263   1.221  0.00  0.00     0.017 A 
ATOM      8  C8  DEN d   1       0.485  -2.679   2.166  0.00  0.00    -0.094 A 
ATOM      9  C9  DEN d   1      -0.032  -1.793   3.096  0.00  0.00    -0.072 A 
ENDROOT
TORSDOF 0
ENDMDL
