MODEL 1
REMARK minimizedAffinity 3.17019653
REMARK minimizedRMSD -1
REMARK  0 active torsions:
REMARK  status: ('A' for Active; 'I' for Inactive)
ROOT
ATOM      1  C4' PXY d   1      -5.676   5.447  -2.121  0.00  0.00     0.077 C 
ATOM      2  C1' PXY d   1      -2.521   0.710  -3.130  0.00  0.00     0.077 C 
ATOM      3  C1  PXY d   1      -3.344   1.957  -2.876  0.00  0.00    -0.082 A 
ATOM      4  C2  PXY d   1      -3.704   2.264  -1.640  0.00  0.00     0.003 A 
ATOM      5  C3  PXY d   1      -4.475   3.371  -1.397  0.00  0.00     0.003 A 
ATOM      6  C4  PXY d   1      -4.837   4.202  -2.423  0.00  0.00    -0.082 A 
ATOM      7  C5  PXY d   1      -4.465   3.902  -3.685  0.00  0.00     0.003 A 
ATOM      8  C6  PXY d   1      -3.717   2.751  -3.916  0.00  0.00     0.003 A 
ENDROOT
TORSDOF 0
ENDMDL
