MODEL 1
REMARK minimizedAffinity -2.11082435
REMARK minimizedRMSD -1
REMARK  0 active torsions:
REMARK  status: ('A' for Active; 'I' for Inactive)
ROOT
ATOM      1  C4' PXY d   1       1.546  -3.353  -0.253  0.00  0.00     0.077 C 
ATOM      2  C1' PXY d   1       1.890  -1.119   5.067  0.00  0.00     0.077 C 
ATOM      3  C1  PXY d   1       1.810  -1.713   3.675  0.00  0.00    -0.082 A 
ATOM      4  C2  PXY d   1       1.310  -0.993   2.684  0.00  0.00     0.003 A 
ATOM      5  C3  PXY d   1       1.200  -1.526   1.426  0.00  0.00     0.003 A 
ATOM      6  C4  PXY d   1       1.656  -2.791   1.167  0.00  0.00    -0.082 A 
ATOM      7  C5  PXY d   1       2.177  -3.528   2.170  0.00  0.00     0.003 A 
ATOM      8  C6  PXY d   1       2.242  -2.984   3.449  0.00  0.00     0.003 A 
ENDROOT
TORSDOF 0
ENDMDL
