MODEL 1
REMARK minimizedAffinity 2.03534555
REMARK minimizedRMSD -1
REMARK  0 active torsions:
REMARK  status: ('A' for Active; 'I' for Inactive)
ROOT
ATOM      1  C4' PXY d   1      -5.972  -1.600  -4.063  0.00  0.00     0.077 C 
ATOM      2  C1' PXY d   1      -5.999   4.161  -4.540  0.00  0.00     0.077 C 
ATOM      3  C1  PXY d   1      -5.987   2.651  -4.403  0.00  0.00    -0.082 A 
ATOM      4  C2  PXY d   1      -5.975   1.896  -5.489  0.00  0.00     0.003 A 
ATOM      5  C3  PXY d   1      -5.996   0.529  -5.384  0.00  0.00     0.003 A 
ATOM      6  C4  PXY d   1      -5.975  -0.072  -4.154  0.00  0.00    -0.082 A 
ATOM      7  C5  PXY d   1      -5.976   0.692  -3.041  0.00  0.00     0.003 A 
ATOM      8  C6  PXY d   1      -5.997   2.078  -3.169  0.00  0.00     0.003 A 
ENDROOT
TORSDOF 0
ENDMDL
