MODEL 1
REMARK minimizedAffinity 7.54589987
REMARK minimizedRMSD -1
REMARK  0 active torsions:
REMARK  status: ('A' for Active; 'I' for Inactive)
ROOT
ATOM      1  C4' PXY d   1       3.369   2.398   0.361  0.00  0.00     0.077 C 
ATOM      2  C1' PXY d   1       1.853  -1.896   3.921  0.00  0.00     0.077 C 
ATOM      3  C1  PXY d   1       2.243  -0.762   2.994  0.00  0.00    -0.082 A 
ATOM      4  C2  PXY d   1       2.649  -1.032   1.764  0.00  0.00     0.003 A 
ATOM      5  C3  PXY d   1       3.036  -0.020   0.923  0.00  0.00     0.003 A 
ATOM      6  C4  PXY d   1       2.956   1.285   1.328  0.00  0.00    -0.082 A 
ATOM      7  C5  PXY d   1       2.533   1.570   2.578  0.00  0.00     0.003 A 
ATOM      8  C6  PXY d   1       2.183   0.526   3.429  0.00  0.00     0.003 A 
ENDROOT
TORSDOF 0
ENDMDL
