MODEL 1
REMARK minimizedAffinity 6.46132469
REMARK minimizedRMSD -1
REMARK  0 active torsions:
REMARK  status: ('A' for Active; 'I' for Inactive)
ROOT
ATOM      1  C4' PXY d   1       2.879   1.491   1.360  0.00  0.00     0.077 C 
ATOM      2  C1' PXY d   1       2.515  -3.293   4.584  0.00  0.00     0.077 C 
ATOM      3  C1  PXY d   1       2.598  -2.038   3.738  0.00  0.00    -0.082 A 
ATOM      4  C2  PXY d   1       3.666  -1.824   2.987  0.00  0.00     0.003 A 
ATOM      5  C3  PXY d   1       3.771  -0.678   2.241  0.00  0.00     0.003 A 
ATOM      6  C4  PXY d   1       2.749   0.233   2.223  0.00  0.00    -0.082 A 
ATOM      7  C5  PXY d   1       1.651   0.017   2.978  0.00  0.00     0.003 A 
ATOM      8  C6  PXY d   1       1.582  -1.132   3.760  0.00  0.00     0.003 A 
ENDROOT
TORSDOF 0
ENDMDL
