MODEL 1
REMARK minimizedAffinity 13.4821281
REMARK minimizedRMSD -1
REMARK  0 active torsions:
REMARK  status: ('A' for Active; 'I' for Inactive)
ROOT
ATOM      1  C4' PXY d   1       2.196  -1.146   3.188  0.00  0.00     0.077 C 
ATOM      2  C1' PXY d   1       3.295   3.625   0.115  0.00  0.00     0.077 C 
ATOM      3  C1  PXY d   1       3.008   2.366   0.910  0.00  0.00    -0.082 A 
ATOM      4  C2  PXY d   1       2.360   2.453   2.061  0.00  0.00     0.003 A 
ATOM      5  C3  PXY d   1       2.120   1.329   2.808  0.00  0.00     0.003 A 
ATOM      6  C4  PXY d   1       2.500   0.097   2.347  0.00  0.00    -0.082 A 
ATOM      7  C5  PXY d   1       3.151  -0.001   1.169  0.00  0.00     0.003 A 
ATOM      8  C6  PXY d   1       3.422   1.156   0.445  0.00  0.00     0.003 A 
ENDROOT
TORSDOF 0
ENDMDL
