MODEL 1
REMARK minimizedAffinity 9.71922588
REMARK minimizedRMSD -1
REMARK  0 active torsions:
REMARK  status: ('A' for Active; 'I' for Inactive)
ROOT
ATOM      1  C4' PXY d   1       2.407  -4.468   5.232  0.00  0.00     0.077 C 
ATOM      2  C1' PXY d   1       2.749   0.661   2.587  0.00  0.00     0.077 C 
ATOM      3  C1  PXY d   1       2.672  -0.685   3.279  0.00  0.00    -0.082 A 
ATOM      4  C2  PXY d   1       1.530  -1.352   3.288  0.00  0.00     0.003 A 
ATOM      5  C3  PXY d   1       1.434  -2.557   3.936  0.00  0.00     0.003 A 
ATOM      6  C4  PXY d   1       2.533  -3.109   4.537  0.00  0.00    -0.082 A 
ATOM      7  C5  PXY d   1       3.706  -2.440   4.524  0.00  0.00     0.003 A 
ATOM      8  C6  PXY d   1       3.771  -1.199   3.896  0.00  0.00     0.003 A 
ENDROOT
TORSDOF 0
ENDMDL
