MODEL 1
REMARK minimizedAffinity 3.22989941
REMARK minimizedRMSD -1
REMARK  0 active torsions:
REMARK  status: ('A' for Active; 'I' for Inactive)
ROOT
ATOM      1  C   UNL d   1       0.354   0.459   0.283  0.00  0.00    -0.002 A 
ATOM      2  C1  UNL d   1       1.673   0.228  -0.083  0.00  0.00     0.010 A 
ATOM      3  C2  UNL d   1       2.592   1.278  -0.129  0.00  0.00     0.041 A 
ATOM      4  C3  UNL d   1       2.159   2.577   0.204  0.00  0.00    -0.075 A 
ATOM      5  S   UNL d   1       3.108   4.017   0.219  0.00  0.00     0.015 SA
ATOM      6  C4  UNL d   1       1.786   4.972   0.712  0.00  0.00     0.022 A 
ATOM      7  C5  UNL d   1       0.640   4.227   0.866  0.00  0.00     0.026 A 
ATOM      8  C6  UNL d   1       0.837   2.835   0.576  0.00  0.00    -0.082 A 
ATOM      9  C7  UNL d   1      -0.071   1.749   0.612  0.00  0.00     0.045 A 
ENDROOT
TORSDOF 0
ENDMDL
