MODEL 1
REMARK minimizedAffinity 4.16792202
REMARK minimizedRMSD -1
REMARK  0 active torsions:
REMARK  status: ('A' for Active; 'I' for Inactive)
ROOT
ATOM      1  C   UNL d   1      -2.546  -0.121   0.017  0.00  0.00    -0.002 A 
ATOM      2  C1  UNL d   1      -2.493   0.336   1.327  0.00  0.00     0.010 A 
ATOM      3  C2  UNL d   1      -1.281   0.367   2.019  0.00  0.00     0.041 A 
ATOM      4  C3  UNL d   1      -0.112  -0.071   1.366  0.00  0.00    -0.075 A 
ATOM      5  S   UNL d   1       1.485  -0.122   2.016  0.00  0.00     0.015 SA
ATOM      6  C4  UNL d   1       2.133  -0.750   0.570  0.00  0.00     0.022 A 
ATOM      7  C5  UNL d   1       1.169  -0.924  -0.395  0.00  0.00     0.026 A 
ATOM      8  C6  UNL d   1      -0.140  -0.535   0.048  0.00  0.00    -0.082 A 
ATOM      9  C7  UNL d   1      -1.385  -0.555  -0.627  0.00  0.00     0.045 A 
ENDROOT
TORSDOF 0
ENDMDL
