MODEL 1
REMARK minimizedAffinity -5.83305979
REMARK minimizedRMSD -1
REMARK  0 active torsions:
REMARK  status: ('A' for Active; 'I' for Inactive)
ROOT
ATOM      1  C   UNL d   1       0.858   0.858   3.412  0.00  0.00    -0.002 A 
ATOM      2  C1  UNL d   1      -0.351   1.034   2.753  0.00  0.00     0.010 A 
ATOM      3  C2  UNL d   1      -0.489   0.672   1.412  0.00  0.00     0.041 A 
ATOM      4  C3  UNL d   1       0.619   0.122   0.738  0.00  0.00    -0.075 A 
ATOM      5  S   UNL d   1       0.684  -0.396  -0.906  0.00  0.00     0.015 SA
ATOM      6  C4  UNL d   1       2.317  -0.864  -0.772  0.00  0.00     0.022 A 
ATOM      7  C5  UNL d   1       2.817  -0.638   0.488  0.00  0.00     0.026 A 
ATOM      8  C6  UNL d   1       1.847  -0.066   1.379  0.00  0.00    -0.082 A 
ATOM      9  C7  UNL d   1       1.954   0.312   2.739  0.00  0.00     0.045 A 
ENDROOT
TORSDOF 0
ENDMDL
