MODEL 1
REMARK minimizedAffinity -0.657871664
REMARK minimizedRMSD -1
REMARK  0 active torsions:
REMARK  status: ('A' for Active; 'I' for Inactive)
ROOT
ATOM      1  C   UNL d   1      -2.317  -0.018   2.526  0.00  0.00    -0.002 A 
ATOM      2  C1  UNL d   1      -1.212  -0.180   3.350  0.00  0.00     0.010 A 
ATOM      3  C2  UNL d   1       0.017  -0.579   2.820  0.00  0.00     0.041 A 
ATOM      4  C3  UNL d   1       0.117  -0.814   1.435  0.00  0.00    -0.075 A 
ATOM      5  S   UNL d   1       1.520  -1.309   0.564  0.00  0.00     0.015 SA
ATOM      6  C4  UNL d   1       0.686  -1.317  -0.923  0.00  0.00     0.022 A 
ATOM      7  C5  UNL d   1      -0.632  -0.953  -0.776  0.00  0.00     0.026 A 
ATOM      8  C6  UNL d   1      -0.981  -0.657   0.585  0.00  0.00    -0.082 A 
ATOM      9  C7  UNL d   1      -2.213  -0.252   1.153  0.00  0.00     0.045 A 
ENDROOT
TORSDOF 0
ENDMDL
