MODEL 1
REMARK minimizedAffinity -2.83947229
REMARK minimizedRMSD -1
REMARK  0 active torsions:
REMARK  status: ('A' for Active; 'I' for Inactive)
ROOT
ATOM      1  C1  BNZ d   1       3.617   5.120   3.970  0.00  0.00     0.000 A 
ATOM      2  C2  BNZ d   1       2.565   5.997   3.975  0.00  0.00     0.000 A 
ATOM      3  C3  BNZ d   1       1.661   5.998   5.000  0.00  0.00     0.000 A 
ATOM      4  C4  BNZ d   1       1.785   5.098   5.996  0.00  0.00     0.000 A 
ATOM      5  C5  BNZ d   1       2.835   4.201   6.000  0.00  0.00     0.000 A 
ATOM      6  C6  BNZ d   1       3.766   4.228   4.987  0.00  0.00     0.000 A 
ENDROOT
TORSDOF 0
ENDMDL
