MODEL 1
REMARK minimizedAffinity -2.09976864
REMARK minimizedRMSD -1
REMARK  0 active torsions:
REMARK  status: ('A' for Active; 'I' for Inactive)
ROOT
ATOM      1  C1  BNZ d   1       2.518   4.970   6.000  0.00  0.00     0.000 A 
ATOM      2  C2  BNZ d   1       2.621   3.959   5.082  0.00  0.00     0.000 A 
ATOM      3  C3  BNZ d   1       3.633   3.949   4.163  0.00  0.00     0.000 A 
ATOM      4  C4  BNZ d   1       4.515   4.968   4.136  0.00  0.00     0.000 A 
ATOM      5  C5  BNZ d   1       4.419   6.000   5.049  0.00  0.00     0.000 A 
ATOM      6  C6  BNZ d   1       3.423   5.987   5.998  0.00  0.00     0.000 A 
ENDROOT
TORSDOF 0
ENDMDL
