MODEL 1
REMARK minimizedAffinity 1.75269377
REMARK minimizedRMSD -1
REMARK  0 active torsions:
REMARK  status: ('A' for Active; 'I' for Inactive)
ROOT
ATOM      1  C1  BNZ d   1      -4.600   0.964   0.157  0.00  0.00     0.000 A 
ATOM      2  C2  BNZ d   1      -4.814   1.964   1.067  0.00  0.00     0.000 A 
ATOM      3  C3  BNZ d   1      -3.767   2.552   1.720  0.00  0.00     0.000 A 
ATOM      4  C4  BNZ d   1      -2.513   2.113   1.492  0.00  0.00     0.000 A 
ATOM      5  C5  BNZ d   1      -2.282   1.099   0.584  0.00  0.00     0.000 A 
ATOM      6  C6  BNZ d   1      -3.334   0.536  -0.100  0.00  0.00     0.000 A 
ENDROOT
TORSDOF 0
ENDMDL
