MODEL 1
REMARK minimizedAffinity -3.33186436
REMARK minimizedRMSD -1
REMARK  0 active torsions:
REMARK  status: ('A' for Active; 'I' for Inactive)
ROOT
ATOM      1  C1  BNZ d   1       3.726   5.027   5.844  0.00  0.00     0.000 A 
ATOM      2  C2  BNZ d   1       2.728   5.964   5.792  0.00  0.00     0.000 A 
ATOM      3  C3  BNZ d   1       1.682   5.824   4.924  0.00  0.00     0.000 A 
ATOM      4  C4  BNZ d   1       1.655   4.771   4.082  0.00  0.00     0.000 A 
ATOM      5  C5  BNZ d   1       2.658   3.824   4.115  0.00  0.00     0.000 A 
ATOM      6  C6  BNZ d   1       3.690   3.947   5.018  0.00  0.00     0.000 A 
ENDROOT
TORSDOF 0
ENDMDL
