MODEL 1
REMARK minimizedAffinity 1.33261466
REMARK minimizedRMSD -1
REMARK  0 active torsions:
REMARK  status: ('A' for Active; 'I' for Inactive)
ROOT
ATOM      1  C1  BNZ d   1       4.239   0.850  -0.760  0.00  0.00     0.000 A 
ATOM      2  C2  BNZ d   1       4.220  -0.517  -0.681  0.00  0.00     0.000 A 
ATOM      3  C3  BNZ d   1       3.063  -1.185  -0.395  0.00  0.00     0.000 A 
ATOM      4  C4  BNZ d   1       1.936  -0.485  -0.148  0.00  0.00     0.000 A 
ATOM      5  C5  BNZ d   1       1.942   0.894  -0.215  0.00  0.00     0.000 A 
ATOM      6  C6  BNZ d   1       3.100   1.561  -0.542  0.00  0.00     0.000 A 
ENDROOT
TORSDOF 0
ENDMDL
