MODEL 1
REMARK minimizedAffinity 0.870626092
REMARK minimizedRMSD -1
REMARK  0 active torsions:
REMARK  status: ('A' for Active; 'I' for Inactive)
ROOT
ATOM      1  C1  BNZ d   1       4.490   3.380   3.942  0.00  0.00     0.000 A 
ATOM      2  C2  BNZ d   1       4.112   4.696   3.951  0.00  0.00     0.000 A 
ATOM      3  C3  BNZ d   1       3.389   5.210   4.991  0.00  0.00     0.000 A 
ATOM      4  C4  BNZ d   1       3.010   4.398   5.999  0.00  0.00     0.000 A 
ATOM      5  C5  BNZ d   1       3.374   3.067   6.000  0.00  0.00     0.000 A 
ATOM      6  C6  BNZ d   1       4.136   2.562   4.971  0.00  0.00     0.000 A 
ENDROOT
TORSDOF 0
ENDMDL
