MODEL 1
REMARK minimizedAffinity -3.67960715
REMARK minimizedRMSD -1
REMARK  0 active torsions:
REMARK  status: ('A' for Active; 'I' for Inactive)
ROOT
ATOM      1  C1  BNZ d   1      -0.356  -0.819   0.255  0.00  0.00     0.000 A 
ATOM      2  C2  BNZ d   1       0.591  -1.764  -0.038  0.00  0.00     0.000 A 
ATOM      3  C3  BNZ d   1       1.784  -1.408  -0.604  0.00  0.00     0.000 A 
ATOM      4  C4  BNZ d   1       2.012  -0.115  -0.911  0.00  0.00     0.000 A 
ATOM      5  C5  BNZ d   1       1.064   0.848  -0.630  0.00  0.00     0.000 A 
ATOM      6  C6  BNZ d   1      -0.120   0.492  -0.025  0.00  0.00     0.000 A 
ENDROOT
TORSDOF 0
ENDMDL
