MODEL 1
REMARK minimizedAffinity -5.18649864
REMARK minimizedRMSD -1
REMARK  0 active torsions:
REMARK  status: ('A' for Active; 'I' for Inactive)
ROOT
ATOM      1  C1  BNZ d   1       1.745  -0.342  -1.180  0.00  0.00     0.000 A 
ATOM      2  C2  BNZ d   1       2.699  -0.397  -2.161  0.00  0.00     0.000 A 
ATOM      3  C3  BNZ d   1       2.846   0.627  -3.054  0.00  0.00     0.000 A 
ATOM      4  C4  BNZ d   1       2.013   1.686  -2.991  0.00  0.00     0.000 A 
ATOM      5  C5  BNZ d   1       1.040   1.753  -2.014  0.00  0.00     0.000 A 
ATOM      6  C6  BNZ d   1       0.921   0.738  -1.092  0.00  0.00     0.000 A 
ENDROOT
TORSDOF 0
ENDMDL
