MODEL 1
REMARK minimizedAffinity -2.38850474
REMARK minimizedRMSD -1
REMARK  0 active torsions:
REMARK  status: ('A' for Active; 'I' for Inactive)
ROOT
ATOM      1  C1  BNZ d   1      -1.486  -0.160   0.048  0.00  0.00     0.000 A 
ATOM      2  C2  BNZ d   1      -1.457   1.123  -0.428  0.00  0.00     0.000 A 
ATOM      3  C3  BNZ d   1      -0.305   1.654  -0.940  0.00  0.00     0.000 A 
ATOM      4  C4  BNZ d   1       0.823   0.915  -0.938  0.00  0.00     0.000 A 
ATOM      5  C5  BNZ d   1       0.812  -0.377  -0.453  0.00  0.00     0.000 A 
ATOM      6  C6  BNZ d   1      -0.358  -0.921   0.026  0.00  0.00     0.000 A 
ENDROOT
TORSDOF 0
ENDMDL
