MODEL 1
REMARK minimizedAffinity -3.91136861
REMARK minimizedRMSD -1
REMARK  0 active torsions:
REMARK  status: ('A' for Active; 'I' for Inactive)
ROOT
ATOM      1  C1  BNZ d   1       0.990  -1.214  -0.578  0.00  0.00     0.000 A 
ATOM      2  C2  BNZ d   1       0.234  -0.087  -0.395  0.00  0.00     0.000 A 
ATOM      3  C3  BNZ d   1       0.537   1.073  -1.051  0.00  0.00     0.000 A 
ATOM      4  C4  BNZ d   1       1.618   1.116  -1.857  0.00  0.00     0.000 A 
ATOM      5  C5  BNZ d   1       2.395  -0.009  -2.044  0.00  0.00     0.000 A 
ATOM      6  C6  BNZ d   1       2.064  -1.186  -1.413  0.00  0.00     0.000 A 
ENDROOT
TORSDOF 0
ENDMDL
