MODEL 1
REMARK minimizedAffinity -4.22969294
REMARK minimizedRMSD -1
REMARK  0 active torsions:
REMARK  status: ('A' for Active; 'I' for Inactive)
ROOT
ATOM      1  C1  BNZ d   1       0.636   0.584   0.209  0.00  0.00     0.000 A 
ATOM      2  C2  BNZ d   1       1.856   0.495  -0.406  0.00  0.00     0.000 A 
ATOM      3  C3  BNZ d   1       2.248  -0.664  -1.017  0.00  0.00     0.000 A 
ATOM      4  C4  BNZ d   1       1.439  -1.741  -0.977  0.00  0.00     0.000 A 
ATOM      5  C5  BNZ d   1       0.210  -1.670  -0.352  0.00  0.00     0.000 A 
ATOM      6  C6  BNZ d   1      -0.198  -0.490   0.228  0.00  0.00     0.000 A 
ENDROOT
TORSDOF 0
ENDMDL
