MODEL 1
REMARK minimizedAffinity -4.42061806
REMARK minimizedRMSD -1
REMARK  0 active torsions:
REMARK  status: ('A' for Active; 'I' for Inactive)
ROOT
ATOM      1  C1  BNZ d   1       2.997  -0.050  -2.163  0.00  0.00     0.000 A 
ATOM      2  C2  BNZ d   1       2.583  -0.857  -1.137  0.00  0.00     0.000 A 
ATOM      3  C3  BNZ d   1       1.427  -0.590  -0.459  0.00  0.00     0.000 A 
ATOM      4  C4  BNZ d   1       0.707   0.504  -0.781  0.00  0.00     0.000 A 
ATOM      5  C5  BNZ d   1       1.116   1.333  -1.807  0.00  0.00     0.000 A 
ATOM      6  C6  BNZ d   1       2.259   1.039  -2.513  0.00  0.00     0.000 A 
ENDROOT
TORSDOF 0
ENDMDL
