MODEL 1
REMARK minimizedAffinity -4.5293107
REMARK minimizedRMSD -1
REMARK  0 active torsions:
REMARK  status: ('A' for Active; 'I' for Inactive)
ROOT
ATOM      1  C1  BNZ d   1       2.984  -0.181  -0.763  0.00  0.00     0.000 A 
ATOM      2  C2  BNZ d   1       2.909   0.242  -2.064  0.00  0.00     0.000 A 
ATOM      3  C3  BNZ d   1       1.812   0.920  -2.517  0.00  0.00     0.000 A 
ATOM      4  C4  BNZ d   1       0.776   1.138  -1.682  0.00  0.00     0.000 A 
ATOM      5  C5  BNZ d   1       0.832   0.710  -0.370  0.00  0.00     0.000 A 
ATOM      6  C6  BNZ d   1       1.955   0.062   0.093  0.00  0.00     0.000 A 
ENDROOT
TORSDOF 0
ENDMDL
