MODEL 1
REMARK minimizedAffinity -2.82182598
REMARK minimizedRMSD -1
REMARK  0 active torsions:
REMARK  status: ('A' for Active; 'I' for Inactive)
ROOT
ATOM      1  C1  BNZ d   1       1.755  -1.400   0.042  0.00  0.00     0.000 A 
ATOM      2  C2  BNZ d   1       1.409  -0.107  -0.246  0.00  0.00     0.000 A 
ATOM      3  C3  BNZ d   1       0.105   0.299  -0.185  0.00  0.00     0.000 A 
ATOM      4  C4  BNZ d   1      -0.854  -0.597   0.124  0.00  0.00     0.000 A 
ATOM      5  C5  BNZ d   1      -0.523  -1.907   0.408  0.00  0.00     0.000 A 
ATOM      6  C6  BNZ d   1       0.795  -2.302   0.384  0.00  0.00     0.000 A 
ENDROOT
TORSDOF 0
ENDMDL
