MODEL 1
REMARK minimizedAffinity -3.65217996
REMARK minimizedRMSD -1
REMARK  0 active torsions:
REMARK  status: ('A' for Active; 'I' for Inactive)
ROOT
ATOM      1  C1  BNZ d   1       1.093  -0.333   0.322  0.00  0.00     0.000 A 
ATOM      2  C2  BNZ d   1       2.267   0.267   0.690  0.00  0.00     0.000 A 
ATOM      3  C3  BNZ d   1       3.364   0.218  -0.125  0.00  0.00     0.000 A 
ATOM      4  C4  BNZ d   1       3.297  -0.463  -1.287  0.00  0.00     0.000 A 
ATOM      5  C5  BNZ d   1       2.122  -1.081  -1.668  0.00  0.00     0.000 A 
ATOM      6  C6  BNZ d   1       1.009  -0.997  -0.863  0.00  0.00     0.000 A 
ENDROOT
TORSDOF 0
ENDMDL
