MODEL 1
REMARK minimizedAffinity -5.42426872
REMARK minimizedRMSD -1
REMARK  0 active torsions:
REMARK  status: ('A' for Active; 'I' for Inactive)
ROOT
ATOM      1  C1  BNZ d   1       1.019  -1.176  -0.548  0.00  0.00     0.000 A 
ATOM      2  C2  BNZ d   1       2.237  -1.403  -1.131  0.00  0.00     0.000 A 
ATOM      3  C3  BNZ d   1       2.922  -0.389  -1.740  0.00  0.00     0.000 A 
ATOM      4  C4  BNZ d   1       2.371   0.840  -1.801  0.00  0.00     0.000 A 
ATOM      5  C5  BNZ d   1       1.139   1.083  -1.227  0.00  0.00     0.000 A 
ATOM      6  C6  BNZ d   1       0.470   0.069  -0.580  0.00  0.00     0.000 A 
ENDROOT
TORSDOF 0
ENDMDL
