MODEL 1
REMARK minimizedAffinity -3.96930099
REMARK minimizedRMSD -1
REMARK  0 active torsions:
REMARK  status: ('A' for Active; 'I' for Inactive)
ROOT
ATOM      1  C1  BNZ d   1       2.321  -0.244  -1.947  0.00  0.00     0.000 A 
ATOM      2  C2  BNZ d   1       2.080  -1.300  -1.110  0.00  0.00     0.000 A 
ATOM      3  C3  BNZ d   1       1.044  -1.265  -0.219  0.00  0.00     0.000 A 
ATOM      4  C4  BNZ d   1       0.276  -0.160  -0.138  0.00  0.00     0.000 A 
ATOM      5  C5  BNZ d   1       0.512   0.918  -0.969  0.00  0.00     0.000 A 
ATOM      6  C6  BNZ d   1       1.532   0.863  -1.891  0.00  0.00     0.000 A 
ENDROOT
TORSDOF 0
ENDMDL
