MODEL 1
REMARK minimizedAffinity -4.25544739
REMARK minimizedRMSD -1
REMARK  0 active torsions:
REMARK  status: ('A' for Active; 'I' for Inactive)
ROOT
ATOM      1  C1  BNZ d   1       0.774  -0.728  -0.474  0.00  0.00     0.000 A 
ATOM      2  C2  BNZ d   1       1.955  -0.738  -1.168  0.00  0.00     0.000 A 
ATOM      3  C3  BNZ d   1       2.374   0.367  -1.854  0.00  0.00     0.000 A 
ATOM      4  C4  BNZ d   1       1.594   1.468  -1.878  0.00  0.00     0.000 A 
ATOM      5  C5  BNZ d   1       0.396   1.491  -1.191  0.00  0.00     0.000 A 
ATOM      6  C6  BNZ d   1      -0.004   0.389  -0.470  0.00  0.00     0.000 A 
ENDROOT
TORSDOF 0
ENDMDL
