MODEL 1
REMARK minimizedAffinity -3.7580092
REMARK minimizedRMSD -1
REMARK  0 active torsions:
REMARK  status: ('A' for Active; 'I' for Inactive)
ROOT
ATOM      1  C1  BNZ d   1       0.416   0.250   0.056  0.00  0.00     0.000 A 
ATOM      2  C2  BNZ d   1       1.651   0.338  -0.529  0.00  0.00     0.000 A 
ATOM      3  C3  BNZ d   1       2.353  -0.789  -0.854  0.00  0.00     0.000 A 
ATOM      4  C4  BNZ d   1       1.839  -2.000  -0.557  0.00  0.00     0.000 A 
ATOM      5  C5  BNZ d   1       0.599  -2.105   0.042  0.00  0.00     0.000 A 
ATOM      6  C6  BNZ d   1      -0.122  -0.969   0.332  0.00  0.00     0.000 A 
ENDROOT
TORSDOF 0
ENDMDL
