MODEL 1
REMARK minimizedAffinity -4.36447334
REMARK minimizedRMSD -1
REMARK  0 active torsions:
REMARK  status: ('A' for Active; 'I' for Inactive)
ROOT
ATOM      1  C1  BNZ d   1       2.718  -0.444  -1.888  0.00  0.00     0.000 A 
ATOM      2  C2  BNZ d   1       2.319  -1.420  -1.014  0.00  0.00     0.000 A 
ATOM      3  C3  BNZ d   1       1.240  -1.229  -0.196  0.00  0.00     0.000 A 
ATOM      4  C4  BNZ d   1       0.588  -0.049  -0.224  0.00  0.00     0.000 A 
ATOM      5  C5  BNZ d   1       0.984   0.949  -1.093  0.00  0.00     0.000 A 
ATOM      6  C6  BNZ d   1       2.046   0.738  -1.942  0.00  0.00     0.000 A 
ENDROOT
TORSDOF 0
ENDMDL
