MODEL 1
REMARK minimizedAffinity -5.24052
REMARK minimizedRMSD -1
REMARK  0 active torsions:
REMARK  status: ('A' for Active; 'I' for Inactive)
ROOT
ATOM      1  C1  BNZ d   1       2.569   0.012  -2.174  0.00  0.00     0.000 A 
ATOM      2  C2  BNZ d   1       1.857   1.181  -2.145  0.00  0.00     0.000 A 
ATOM      3  C3  BNZ d   1       0.777   1.323  -1.319  0.00  0.00     0.000 A 
ATOM      4  C4  BNZ d   1       0.387   0.284  -0.554  0.00  0.00     0.000 A 
ATOM      5  C5  BNZ d   1       1.088  -0.905  -0.579  0.00  0.00     0.000 A 
ATOM      6  C6  BNZ d   1       2.198  -1.031  -1.383  0.00  0.00     0.000 A 
ENDROOT
TORSDOF 0
ENDMDL
