MODEL 1
REMARK minimizedAffinity -4.15284109
REMARK minimizedRMSD -1
REMARK  0 active torsions:
REMARK  status: ('A' for Active; 'I' for Inactive)
ROOT
ATOM      1  C1  BNZ d   1       2.850   1.023  -2.767  0.00  0.00     0.000 A 
ATOM      2  C2  BNZ d   1       3.206   0.055  -1.866  0.00  0.00     0.000 A 
ATOM      3  C3  BNZ d   1       2.324  -0.373  -0.913  0.00  0.00     0.000 A 
ATOM      4  C4  BNZ d   1       1.104   0.196  -0.836  0.00  0.00     0.000 A 
ATOM      5  C5  BNZ d   1       0.733   1.180  -1.731  0.00  0.00     0.000 A 
ATOM      6  C6  BNZ d   1       1.610   1.580  -2.714  0.00  0.00     0.000 A 
ENDROOT
TORSDOF 0
ENDMDL
