MODEL 1
REMARK minimizedAffinity -1.68587613
REMARK minimizedRMSD -1
REMARK  0 active torsions:
REMARK  status: ('A' for Active; 'I' for Inactive)
ROOT
ATOM      1  C4' PXY d   1       0.772  -4.867   0.976  0.00  0.00     0.077 C 
ATOM      2  C1' PXY d   1       0.862   0.399  -1.407  0.00  0.00     0.077 C 
ATOM      3  C1  PXY d   1       0.849  -0.986  -0.790  0.00  0.00    -0.082 A 
ATOM      4  C2  PXY d   1      -0.266  -1.449  -0.247  0.00  0.00     0.003 A 
ATOM      5  C3  PXY d   1      -0.287  -2.686   0.344  0.00  0.00     0.003 A 
ATOM      6  C4  PXY d   1       0.829  -3.479   0.333  0.00  0.00    -0.082 A 
ATOM      7  C5  PXY d   1       1.967  -3.017  -0.228  0.00  0.00     0.003 A 
ATOM      8  C6  PXY d   1       1.980  -1.743  -0.787  0.00  0.00     0.003 A 
ENDROOT
TORSDOF 0
ENDMDL
