MODEL 1
REMARK minimizedAffinity 0.401505262
REMARK minimizedRMSD -1
REMARK  0 active torsions:
REMARK  status: ('A' for Active; 'I' for Inactive)
ROOT
ATOM      1  C4' PXY d   1       0.436  -5.844   1.539  0.00  0.00     0.077 C 
ATOM      2  C1' PXY d   1       0.746  -0.551  -0.763  0.00  0.00     0.077 C 
ATOM      3  C1  PXY d   1       0.653  -1.936  -0.154  0.00  0.00    -0.082 A 
ATOM      4  C2  PXY d   1       1.760  -2.613   0.103  0.00  0.00     0.003 A 
ATOM      5  C3  PXY d   1       1.693  -3.880   0.623  0.00  0.00     0.003 A 
ATOM      6  C4  PXY d   1       0.482  -4.438   0.934  0.00  0.00    -0.082 A 
ATOM      7  C5  PXY d   1      -0.651  -3.749   0.685  0.00  0.00     0.003 A 
ATOM      8  C6  PXY d   1      -0.564  -2.481   0.117  0.00  0.00     0.003 A 
ENDROOT
TORSDOF 0
ENDMDL
