MODEL 1
REMARK minimizedAffinity 8.23913002
REMARK minimizedRMSD -1
REMARK  0 active torsions:
REMARK  status: ('A' for Active; 'I' for Inactive)
ROOT
ATOM      1  C4' PXY d   1       2.634  -0.071  -1.505  0.00  0.00     0.077 C 
ATOM      2  C1' PXY d   1       1.176  -5.195   0.739  0.00  0.00     0.077 C 
ATOM      3  C1  PXY d   1       1.563  -3.847   0.162  0.00  0.00    -0.082 A 
ATOM      4  C2  PXY d   1       0.946  -3.397  -0.918  0.00  0.00     0.003 A 
ATOM      5  C3  PXY d   1       1.305  -2.195  -1.471  0.00  0.00     0.003 A 
ATOM      6  C4  PXY d   1       2.270  -1.422  -0.882  0.00  0.00    -0.082 A 
ATOM      7  C5  PXY d   1       2.896  -1.870   0.226  0.00  0.00     0.003 A 
ATOM      8  C6  PXY d   1       2.545  -3.111   0.749  0.00  0.00     0.003 A 
ENDROOT
TORSDOF 0
ENDMDL
