MODEL 1
REMARK minimizedAffinity -3.19568586
REMARK minimizedRMSD -1
REMARK  0 active torsions:
REMARK  status: ('A' for Active; 'I' for Inactive)
ROOT
ATOM      1  C4' PXY d   1       1.461  -4.391   1.002  0.00  0.00     0.077 C 
ATOM      2  C1' PXY d   1       0.417   0.791  -1.336  0.00  0.00     0.077 C 
ATOM      3  C1  PXY d   1       0.699  -0.571  -0.733  0.00  0.00    -0.082 A 
ATOM      4  C2  PXY d   1      -0.167  -1.103   0.114  0.00  0.00     0.003 A 
ATOM      5  C3  PXY d   1       0.087  -2.319   0.693  0.00  0.00     0.003 A 
ATOM      6  C4  PXY d   1       1.214  -3.023   0.361  0.00  0.00    -0.082 A 
ATOM      7  C5  PXY d   1       2.097  -2.491  -0.510  0.00  0.00     0.003 A 
ATOM      8  C6  PXY d   1       1.841  -1.237  -1.055  0.00  0.00     0.003 A 
ENDROOT
TORSDOF 0
ENDMDL
