MODEL 1
REMARK minimizedAffinity -4.35641432
REMARK minimizedRMSD -1
REMARK  0 active torsions:
REMARK  status: ('A' for Active; 'I' for Inactive)
ROOT
ATOM      1  C4' PXY d   1       1.259  -4.208  -0.212  0.00  0.00     0.077 C 
ATOM      2  C1' PXY d   1      -0.127   1.352  -0.973  0.00  0.00     0.077 C 
ATOM      3  C1  PXY d   1       0.227  -0.107  -0.765  0.00  0.00    -0.082 A 
ATOM      4  C2  PXY d   1       1.452  -0.528  -1.034  0.00  0.00     0.003 A 
ATOM      5  C3  PXY d   1       1.780  -1.850  -0.882  0.00  0.00     0.003 A 
ATOM      6  C4  PXY d   1       0.860  -2.741  -0.398  0.00  0.00    -0.082 A 
ATOM      7  C5  PXY d   1      -0.389  -2.317  -0.111  0.00  0.00     0.003 A 
ATOM      8  C6  PXY d   1      -0.714  -0.979  -0.312  0.00  0.00     0.003 A 
ENDROOT
TORSDOF 0
ENDMDL
