MODEL 1
REMARK minimizedAffinity -6.06380701
REMARK minimizedRMSD -1
REMARK  0 active torsions:
REMARK  status: ('A' for Active; 'I' for Inactive)
ROOT
ATOM      1  C4' PXY d   1       1.135  -5.901   0.926  0.00  0.00     0.077 C 
ATOM      2  C1' PXY d   1       0.402  -0.413  -0.737  0.00  0.00     0.077 C 
ATOM      3  C1  PXY d   1       0.584  -1.851  -0.294  0.00  0.00    -0.082 A 
ATOM      4  C2  PXY d   1       1.787  -2.401  -0.332  0.00  0.00     0.003 A 
ATOM      5  C3  PXY d   1       1.963  -3.710   0.035  0.00  0.00     0.003 A 
ATOM      6  C4  PXY d   1       0.907  -4.449   0.496  0.00  0.00    -0.082 A 
ATOM      7  C5  PXY d   1      -0.322  -3.892   0.548  0.00  0.00     0.003 A 
ATOM      8  C6  PXY d   1      -0.487  -2.574   0.132  0.00  0.00     0.003 A 
ENDROOT
TORSDOF 0
ENDMDL
