MODEL 1
REMARK minimizedAffinity 2.17974401
REMARK minimizedRMSD -1
REMARK  0 active torsions:
REMARK  status: ('A' for Active; 'I' for Inactive)
ROOT
ATOM      1  C4' PXY d   1       1.003  -5.103   1.223  0.00  0.00     0.077 C 
ATOM      2  C1' PXY d   1       0.750   0.114  -1.254  0.00  0.00     0.077 C 
ATOM      3  C1  PXY d   1       0.826  -1.257  -0.612  0.00  0.00    -0.082 A 
ATOM      4  C2  PXY d   1      -0.249  -1.772  -0.039  0.00  0.00     0.003 A 
ATOM      5  C3  PXY d   1      -0.189  -2.997   0.574  0.00  0.00     0.003 A 
ATOM      6  C4  PXY d   1       0.969  -3.726   0.554  0.00  0.00    -0.082 A 
ATOM      7  C5  PXY d   1       2.068  -3.212  -0.038  0.00  0.00     0.003 A 
ATOM      8  C6  PXY d   1       1.998  -1.949  -0.618  0.00  0.00     0.003 A 
ENDROOT
TORSDOF 0
ENDMDL
