MODEL 1
REMARK minimizedAffinity 6.73566723
REMARK minimizedRMSD -1
REMARK  0 active torsions:
REMARK  status: ('A' for Active; 'I' for Inactive)
ROOT
ATOM      1  C4' PXY d   1       3.736  -2.574   0.999  0.00  0.00     0.077 C 
ATOM      2  C1' PXY d   1      -0.756  -0.539  -2.018  0.00  0.00     0.077 C 
ATOM      3  C1  PXY d   1       0.418  -1.085  -1.229  0.00  0.00    -0.082 A 
ATOM      4  C2  PXY d   1       1.005  -0.324  -0.319  0.00  0.00     0.003 A 
ATOM      5  C3  PXY d   1       2.088  -0.791   0.381  0.00  0.00     0.003 A 
ATOM      6  C4  PXY d   1       2.542  -2.068   0.185  0.00  0.00    -0.082 A 
ATOM      7  C5  PXY d   1       1.942  -2.853  -0.734  0.00  0.00     0.003 A 
ATOM      8  C6  PXY d   1       0.870  -2.347  -1.463  0.00  0.00     0.003 A 
ENDROOT
TORSDOF 0
ENDMDL
