MODEL 1
REMARK minimizedAffinity -2.5032289
REMARK minimizedRMSD -1
REMARK  0 active torsions:
REMARK  status: ('A' for Active; 'I' for Inactive)
ROOT
ATOM      1  C4' PXY d   1       0.565  -4.728   0.777  0.00  0.00     0.077 C 
ATOM      2  C1' PXY d   1       2.132   0.628  -0.733  0.00  0.00     0.077 C 
ATOM      3  C1  PXY d   1       1.709  -0.772  -0.334  0.00  0.00    -0.082 A 
ATOM      4  C2  PXY d   1       2.622  -1.643   0.064  0.00  0.00     0.003 A 
ATOM      5  C3  PXY d   1       2.261  -2.923   0.398  0.00  0.00     0.003 A 
ATOM      6  C4  PXY d   1       0.945  -3.300   0.374  0.00  0.00    -0.082 A 
ATOM      7  C5  PXY d   1       0.006  -2.414  -0.021  0.00  0.00     0.003 A 
ATOM      8  C6  PXY d   1       0.398  -1.132  -0.395  0.00  0.00     0.003 A 
ENDROOT
TORSDOF 0
ENDMDL
