MODEL 1
REMARK minimizedAffinity -2.59995413
REMARK minimizedRMSD -1
REMARK  0 active torsions:
REMARK  status: ('A' for Active; 'I' for Inactive)
ROOT
ATOM      1  C4' PXY d   1      -1.352  -4.535   0.751  0.00  0.00     0.077 C 
ATOM      2  C1' PXY d   1       1.019   0.272  -1.413  0.00  0.00     0.077 C 
ATOM      3  C1  PXY d   1       0.386  -0.987  -0.852  0.00  0.00    -0.082 A 
ATOM      4  C2  PXY d   1       0.826  -1.486   0.291  0.00  0.00     0.003 A 
ATOM      5  C3  PXY d   1       0.287  -2.641   0.797  0.00  0.00     0.003 A 
ATOM      6  C4  PXY d   1      -0.749  -3.262   0.152  0.00  0.00    -0.082 A 
ATOM      7  C5  PXY d   1      -1.211  -2.752  -1.010  0.00  0.00     0.003 A 
ATOM      8  C6  PXY d   1      -0.622  -1.602  -1.527  0.00  0.00     0.003 A 
ENDROOT
TORSDOF 0
ENDMDL
