MODEL 1
REMARK minimizedAffinity -6.6007266
REMARK minimizedRMSD -1
REMARK  0 active torsions:
REMARK  status: ('A' for Active; 'I' for Inactive)
ROOT
ATOM      1  C4' PXY d   1       1.271   0.166  -0.494  0.00  0.00     0.077 C 
ATOM      2  C1' PXY d   1       1.136  -5.509   0.598  0.00  0.00     0.077 C 
ATOM      3  C1  PXY d   1       1.162  -4.022   0.303  0.00  0.00    -0.082 A 
ATOM      4  C2  PXY d   1       2.268  -3.330   0.523  0.00  0.00     0.003 A 
ATOM      5  C3  PXY d   1       2.299  -1.979   0.292  0.00  0.00     0.003 A 
ATOM      6  C4  PXY d   1       1.202  -1.338  -0.219  0.00  0.00    -0.082 A 
ATOM      7  C5  PXY d   1       0.073  -2.039  -0.456  0.00  0.00     0.003 A 
ATOM      8  C6  PXY d   1       0.049  -3.402  -0.176  0.00  0.00     0.003 A 
ENDROOT
TORSDOF 0
ENDMDL
