MODEL 1
REMARK minimizedAffinity -4.02039242
REMARK minimizedRMSD -1
REMARK  0 active torsions:
REMARK  status: ('A' for Active; 'I' for Inactive)
ROOT
ATOM      1  C4' PXY d   1       0.305   0.176  -1.197  0.00  0.00     0.077 C 
ATOM      2  C1' PXY d   1       1.335  -5.112   0.897  0.00  0.00     0.077 C 
ATOM      3  C1  PXY d   1       1.053  -3.729   0.346  0.00  0.00    -0.082 A 
ATOM      4  C2  PXY d   1       2.045  -3.007  -0.150  0.00  0.00     0.003 A 
ATOM      5  C3  PXY d   1       1.812  -1.741  -0.623  0.00  0.00     0.003 A 
ATOM      6  C4  PXY d   1       0.542  -1.230  -0.638  0.00  0.00    -0.082 A 
ATOM      7  C5  PXY d   1      -0.477  -1.964  -0.144  0.00  0.00     0.003 A 
ATOM      8  C6  PXY d   1      -0.213  -3.230   0.369  0.00  0.00     0.003 A 
ENDROOT
TORSDOF 0
ENDMDL
