MODEL 1
REMARK minimizedAffinity -6.14775038
REMARK minimizedRMSD -1
REMARK  0 active torsions:
REMARK  status: ('A' for Active; 'I' for Inactive)
ROOT
ATOM      1  C4' PXY d   1       0.227   0.269  -0.827  0.00  0.00     0.077 C 
ATOM      2  C1' PXY d   1       1.252  -5.127   0.976  0.00  0.00     0.077 C 
ATOM      3  C1  PXY d   1       0.970  -3.715   0.502  0.00  0.00    -0.082 A 
ATOM      4  C2  PXY d   1       1.942  -3.003  -0.045  0.00  0.00     0.003 A 
ATOM      5  C3  PXY d   1       1.713  -1.713  -0.450  0.00  0.00     0.003 A 
ATOM      6  C4  PXY d   1       0.463  -1.165  -0.343  0.00  0.00    -0.082 A 
ATOM      7  C5  PXY d   1      -0.536  -1.889   0.204  0.00  0.00     0.003 A 
ATOM      8  C6  PXY d   1      -0.273  -3.182   0.647  0.00  0.00     0.003 A 
ENDROOT
TORSDOF 0
ENDMDL
