MODEL 1
REMARK minimizedAffinity -1.86543834
REMARK minimizedRMSD -1
REMARK  0 active torsions:
REMARK  status: ('A' for Active; 'I' for Inactive)
ROOT
ATOM      1  C4' PXY d   1       1.493  -4.855   0.448  0.00  0.00     0.077 C 
ATOM      2  C1' PXY d   1       0.469   0.581  -1.231  0.00  0.00     0.077 C 
ATOM      3  C1  PXY d   1       0.726  -0.845  -0.785  0.00  0.00    -0.082 A 
ATOM      4  C2  PXY d   1       1.970  -1.276  -0.655  0.00  0.00     0.003 A 
ATOM      5  C3  PXY d   1       2.221  -2.572  -0.284  0.00  0.00     0.003 A 
ATOM      6  C4  PXY d   1       1.187  -3.421   0.009  0.00  0.00    -0.082 A 
ATOM      7  C5  PXY d   1      -0.086  -2.986  -0.111  0.00  0.00     0.003 A 
ATOM      8  C6  PXY d   1      -0.319  -1.679  -0.529  0.00  0.00     0.003 A 
ENDROOT
TORSDOF 0
ENDMDL
