MODEL 1
REMARK minimizedAffinity -3.92081165
REMARK minimizedRMSD -1
REMARK  0 active torsions:
REMARK  status: ('A' for Active; 'I' for Inactive)
ROOT
ATOM      1  C4' PXY d   1       1.504  -0.207  -0.897  0.00  0.00     0.077 C 
ATOM      2  C1' PXY d   1       1.491  -5.613   1.149  0.00  0.00     0.077 C 
ATOM      3  C1  PXY d   1       1.482  -4.197   0.608  0.00  0.00    -0.082 A 
ATOM      4  C2  PXY d   1       2.628  -3.590   0.346  0.00  0.00     0.003 A 
ATOM      5  C3  PXY d   1       2.639  -2.299  -0.114  0.00  0.00     0.003 A 
ATOM      6  C4  PXY d   1       1.464  -1.640  -0.358  0.00  0.00    -0.082 A 
ATOM      7  C5  PXY d   1       0.291  -2.256  -0.103  0.00  0.00     0.003 A 
ATOM      8  C6  PXY d   1       0.301  -3.553   0.403  0.00  0.00     0.003 A 
ENDROOT
TORSDOF 0
ENDMDL
