MODEL 1
REMARK minimizedAffinity -3.71890521
REMARK minimizedRMSD -1
REMARK  0 active torsions:
REMARK  status: ('A' for Active; 'I' for Inactive)
ROOT
ATOM      1  C4' PXY d   1       0.721   0.012  -1.498  0.00  0.00     0.077 C 
ATOM      2  C1' PXY d   1       0.643  -4.962   1.446  0.00  0.00     0.077 C 
ATOM      3  C1  PXY d   1       0.677  -3.657   0.675  0.00  0.00    -0.082 A 
ATOM      4  C2  PXY d   1      -0.415  -2.914   0.599  0.00  0.00     0.003 A 
ATOM      5  C3  PXY d   1      -0.412  -1.747  -0.120  0.00  0.00     0.003 A 
ATOM      6  C4  PXY d   1       0.736  -1.308  -0.723  0.00  0.00    -0.082 A 
ATOM      7  C5  PXY d   1       1.858  -2.055  -0.642  0.00  0.00     0.003 A 
ATOM      8  C6  PXY d   1       1.822  -3.258   0.059  0.00  0.00     0.003 A 
ENDROOT
TORSDOF 0
ENDMDL
