MODEL 1
REMARK minimizedAffinity -7.08845329
REMARK minimizedRMSD -1
REMARK  0 active torsions:
REMARK  status: ('A' for Active; 'I' for Inactive)
ROOT
ATOM      1  C4' PXY d   1       0.704  -5.203   1.124  0.00  0.00     0.077 C 
ATOM      2  C1' PXY d   1       0.832   0.198  -0.932  0.00  0.00     0.077 C 
ATOM      3  C1  PXY d   1       0.788  -1.215  -0.387  0.00  0.00    -0.082 A 
ATOM      4  C2  PXY d   1       1.904  -1.921  -0.307  0.00  0.00     0.003 A 
ATOM      5  C3  PXY d   1       1.877  -3.212   0.154  0.00  0.00     0.003 A 
ATOM      6  C4  PXY d   1       0.703  -3.768   0.588  0.00  0.00    -0.082 A 
ATOM      7  C5  PXY d   1      -0.438  -3.051   0.521  0.00  0.00     0.003 A 
ATOM      8  C6  PXY d   1      -0.396  -1.756   0.011  0.00  0.00     0.003 A 
ENDROOT
TORSDOF 0
ENDMDL
