MODEL 1
REMARK minimizedAffinity 0.288879097
REMARK minimizedRMSD -1
REMARK  0 active torsions:
REMARK  status: ('A' for Active; 'I' for Inactive)
ROOT
ATOM      1  C4' PXY d   1       0.279  -5.272   1.424  0.00  0.00     0.077 C 
ATOM      2  C1' PXY d   1       1.627  -0.687  -1.828  0.00  0.00     0.077 C 
ATOM      3  C1  PXY d   1       1.261  -1.885  -0.974  0.00  0.00    -0.082 A 
ATOM      4  C2  PXY d   1       2.213  -2.553  -0.343  0.00  0.00     0.003 A 
ATOM      5  C3  PXY d   1       1.904  -3.658   0.408  0.00  0.00     0.003 A 
ATOM      6  C4  PXY d   1       0.601  -4.051   0.558  0.00  0.00    -0.082 A 
ATOM      7  C5  PXY d   1      -0.377  -3.368  -0.074  0.00  0.00     0.003 A 
ATOM      8  C6  PXY d   1      -0.038  -2.274  -0.865  0.00  0.00     0.003 A 
ENDROOT
TORSDOF 0
ENDMDL
