MODEL 1
REMARK minimizedAffinity -3.98962736
REMARK minimizedRMSD -1
REMARK  0 active torsions:
REMARK  status: ('A' for Active; 'I' for Inactive)
ROOT
ATOM      1  C4' PXY d   1       0.695  -0.174  -0.821  0.00  0.00     0.077 C 
ATOM      2  C1' PXY d   1       0.593  -5.463   1.510  0.00  0.00     0.077 C 
ATOM      3  C1  PXY d   1       0.607  -4.077   0.895  0.00  0.00    -0.082 A 
ATOM      4  C2  PXY d   1       1.752  -3.556   0.483  0.00  0.00     0.003 A 
ATOM      5  C3  PXY d   1       1.787  -2.292  -0.046  0.00  0.00     0.003 A 
ATOM      6  C4  PXY d   1       0.632  -1.573  -0.203  0.00  0.00    -0.082 A 
ATOM      7  C5  PXY d   1      -0.541  -2.102   0.205  0.00  0.00     0.003 A 
ATOM      8  C6  PXY d   1      -0.550  -3.371   0.778  0.00  0.00     0.003 A 
ENDROOT
TORSDOF 0
ENDMDL
