MODEL 1
REMARK minimizedAffinity -2.56471062
REMARK minimizedRMSD -1
REMARK  0 active torsions:
REMARK  status: ('A' for Active; 'I' for Inactive)
ROOT
ATOM      1  C4' PXY d   1       0.342  -4.820   0.864  0.00  0.00     0.077 C 
ATOM      2  C1' PXY d   1       0.553   0.641  -1.019  0.00  0.00     0.077 C 
ATOM      3  C1  PXY d   1       0.486  -0.789  -0.520  0.00  0.00    -0.082 A 
ATOM      4  C2  PXY d   1       1.605  -1.467  -0.326  0.00  0.00     0.003 A 
ATOM      5  C3  PXY d   1       1.562  -2.772   0.094  0.00  0.00     0.003 A 
ATOM      6  C4  PXY d   1       0.362  -3.371   0.370  0.00  0.00    -0.082 A 
ATOM      7  C5  PXY d   1      -0.784  -2.682   0.185  0.00  0.00     0.003 A 
ATOM      8  C6  PXY d   1      -0.720  -1.373  -0.282  0.00  0.00     0.003 A 
ENDROOT
TORSDOF 0
ENDMDL
