MODEL 1
REMARK minimizedAffinity -1.49514413
REMARK minimizedRMSD -1
REMARK  0 active torsions:
REMARK  status: ('A' for Active; 'I' for Inactive)
ROOT
ATOM      1  C1  DEN d   1       0.386  -0.666   2.938  0.00  0.00     0.130 A 
ATOM      2  C2  DEN d   1       1.569  -0.972   2.139  0.00  0.00    -0.031 A 
ATOM      3  C3  DEN d   1       1.159  -1.034   0.721  0.00  0.00     0.027 A 
ATOM      4  C4  DEN d   1      -1.180  -0.685  -0.308  0.00  0.00     0.027 A 
ATOM      5  C5  DEN d   1      -2.502  -0.416  -0.027  0.00  0.00    -0.003 A 
ATOM      6  C6  DEN d   1      -2.956  -0.247   1.254  0.00  0.00     0.001 A 
ATOM      7  C7  DEN d   1      -2.073  -0.300   2.300  0.00  0.00     0.017 A 
ATOM      8  C8  DEN d   1      -0.740  -0.578   2.025  0.00  0.00    -0.094 A 
ATOM      9  C9  DEN d   1      -0.298  -0.734   0.722  0.00  0.00    -0.072 A 
ENDROOT
TORSDOF 0
ENDMDL
