MODEL 1
REMARK minimizedAffinity 3.14646626
REMARK minimizedRMSD -1
REMARK  0 active torsions:
REMARK  status: ('A' for Active; 'I' for Inactive)
ROOT
ATOM      1  C1  DEN d   1      -1.075  -0.786   4.024  0.00  0.00     0.130 A 
ATOM      2  C2  DEN d   1       0.291  -1.225   4.296  0.00  0.00    -0.031 A 
ATOM      3  C3  DEN d   1       1.026  -1.251   3.015  0.00  0.00     0.027 A 
ATOM      4  C4  DEN d   1       0.186  -0.654   0.651  0.00  0.00     0.027 A 
ATOM      5  C5  DEN d   1      -0.904  -0.240  -0.082  0.00  0.00    -0.003 A 
ATOM      6  C6  DEN d   1      -2.127  -0.014   0.492  0.00  0.00     0.001 A 
ATOM      7  C7  DEN d   1      -2.277  -0.156   1.847  0.00  0.00     0.017 A 
ATOM      8  C8  DEN d   1      -1.185  -0.581   2.591  0.00  0.00    -0.094 A 
ATOM      9  C9  DEN d   1       0.046  -0.793   1.993  0.00  0.00    -0.072 A 
ENDROOT
TORSDOF 0
ENDMDL
