MODEL 1
REMARK minimizedAffinity 3.75663495
REMARK minimizedRMSD -1
REMARK  0 active torsions:
REMARK  status: ('A' for Active; 'I' for Inactive)
ROOT
ATOM      1  C1  DEN d   1       1.307  -0.844   0.748  0.00  0.00     0.130 A 
ATOM      2  C2  DEN d   1       1.724  -1.006   2.139  0.00  0.00    -0.031 A 
ATOM      3  C3  DEN d   1       0.537  -0.817   2.997  0.00  0.00     0.027 A 
ATOM      4  C4  DEN d   1      -1.894  -0.298   2.311  0.00  0.00     0.027 A 
ATOM      5  C5  DEN d   1      -2.733  -0.060   1.245  0.00  0.00    -0.003 A 
ATOM      6  C6  DEN d   1      -2.282  -0.033  -0.048  0.00  0.00     0.001 A 
ATOM      7  C7  DEN d   1      -0.963  -0.293  -0.312  0.00  0.00     0.017 A 
ATOM      8  C8  DEN d   1      -0.109  -0.527   0.758  0.00  0.00    -0.094 A 
ATOM      9  C9  DEN d   1      -0.587  -0.562   2.057  0.00  0.00    -0.072 A 
ENDROOT
TORSDOF 0
ENDMDL
