MODEL 1
REMARK minimizedAffinity -2.03940272
REMARK minimizedRMSD -1
REMARK  0 active torsions:
REMARK  status: ('A' for Active; 'I' for Inactive)
ROOT
ATOM      1  C1  DEN d   1      -1.920  -0.810   3.437  0.00  0.00     0.130 A 
ATOM      2  C2  DEN d   1      -2.173  -0.176   2.146  0.00  0.00    -0.031 A 
ATOM      3  C3  DEN d   1      -0.885  -0.060   1.433  0.00  0.00     0.027 A 
ATOM      4  C4  DEN d   1       1.464  -0.800   2.198  0.00  0.00     0.027 A 
ATOM      5  C5  DEN d   1       2.182  -1.376   3.224  0.00  0.00    -0.003 A 
ATOM      6  C6  DEN d   1       1.592  -1.768   4.396  0.00  0.00     0.001 A 
ATOM      7  C7  DEN d   1       0.238  -1.632   4.554  0.00  0.00     0.017 A 
ATOM      8  C8  DEN d   1      -0.490  -1.046   3.528  0.00  0.00    -0.094 A 
ATOM      9  C9  DEN d   1       0.122  -0.667   2.345  0.00  0.00    -0.072 A 
ENDROOT
TORSDOF 0
ENDMDL
