MODEL 1
REMARK minimizedAffinity 4.22609711
REMARK minimizedRMSD -1
REMARK  0 active torsions:
REMARK  status: ('A' for Active; 'I' for Inactive)
ROOT
ATOM      1  C1  DEN d   1       2.547   0.751   1.011  0.00  0.00     0.130 A 
ATOM      2  C2  DEN d   1       1.237   0.435   0.449  0.00  0.00    -0.031 A 
ATOM      3  C3  DEN d   1       0.504  -0.386   1.433  0.00  0.00     0.027 A 
ATOM      4  C4  DEN d   1       1.264  -1.190   3.763  0.00  0.00     0.027 A 
ATOM      5  C5  DEN d   1       2.300  -1.182   4.670  0.00  0.00    -0.003 A 
ATOM      6  C6  DEN d   1       3.494  -0.564   4.409  0.00  0.00     0.001 A 
ATOM      7  C7  DEN d   1       3.665   0.112   3.230  0.00  0.00     0.017 A 
ATOM      8  C8  DEN d   1       2.627   0.102   2.307  0.00  0.00    -0.094 A 
ATOM      9  C9  DEN d   1       1.424  -0.518   2.595  0.00  0.00    -0.072 A 
ENDROOT
TORSDOF 0
ENDMDL
