MODEL 1
REMARK minimizedAffinity -2.7468195
REMARK minimizedRMSD -1
REMARK  0 active torsions:
REMARK  status: ('A' for Active; 'I' for Inactive)
ROOT
ATOM      1  C1  DEN d   1       0.331  -1.086   4.932  0.00  0.00     0.130 A 
ATOM      2  C2  DEN d   1       1.695  -1.605   4.882  0.00  0.00    -0.031 A 
ATOM      3  C3  DEN d   1       2.156  -1.546   3.481  0.00  0.00     0.027 A 
ATOM      4  C4  DEN d   1       0.897  -0.703   1.393  0.00  0.00     0.027 A 
ATOM      5  C5  DEN d   1      -0.291  -0.179   0.935  0.00  0.00    -0.003 A 
ATOM      6  C6  DEN d   1      -1.359   0.046   1.763  0.00  0.00     0.001 A 
ATOM      7  C7  DEN d   1      -1.243  -0.212   3.104  0.00  0.00     0.017 A 
ATOM      8  C8  DEN d   1      -0.051  -0.748   3.572  0.00  0.00    -0.094 A 
ATOM      9  C9  DEN d   1       1.021  -0.957   2.721  0.00  0.00    -0.072 A 
ENDROOT
TORSDOF 0
ENDMDL
