MODEL 1
REMARK minimizedAffinity -3.36050773
REMARK minimizedRMSD -1
REMARK  0 active torsions:
REMARK  status: ('A' for Active; 'I' for Inactive)
ROOT
ATOM      1  C1  DEN d   1       3.554  -0.620   3.429  0.00  0.00     0.130 A 
ATOM      2  C2  DEN d   1       3.012  -1.186   4.661  0.00  0.00    -0.031 A 
ATOM      3  C3  DEN d   1       1.540  -1.081   4.604  0.00  0.00     0.027 A 
ATOM      4  C4  DEN d   1       0.055  -0.106   2.734  0.00  0.00     0.027 A 
ATOM      5  C5  DEN d   1       0.061   0.502   1.498  0.00  0.00    -0.003 A 
ATOM      6  C6  DEN d   1       1.222   0.807   0.840  0.00  0.00     0.001 A 
ATOM      7  C7  DEN d   1       2.427   0.464   1.394  0.00  0.00     0.017 A 
ATOM      8  C8  DEN d   1       2.430  -0.143   2.643  0.00  0.00    -0.094 A 
ATOM      9  C9  DEN d   1       1.244  -0.454   3.287  0.00  0.00    -0.072 A 
ENDROOT
TORSDOF 0
ENDMDL
