MODEL 1
REMARK minimizedAffinity 2.98778987
REMARK minimizedRMSD -1
REMARK  0 active torsions:
REMARK  status: ('A' for Active; 'I' for Inactive)
ROOT
ATOM      1  C1  DEN d   1       1.087  -1.642   4.763  0.00  0.00     0.130 A 
ATOM      2  C2  DEN d   1       2.539  -1.745   4.645  0.00  0.00    -0.031 A 
ATOM      3  C3  DEN d   1       2.921  -1.278   3.297  0.00  0.00     0.027 A 
ATOM      4  C4  DEN d   1       1.414  -0.406   1.394  0.00  0.00     0.027 A 
ATOM      5  C5  DEN d   1       0.114  -0.146   1.021  0.00  0.00    -0.003 A 
ATOM      6  C6  DEN d   1      -0.947  -0.396   1.850  0.00  0.00     0.001 A 
ATOM      7  C7  DEN d   1      -0.723  -0.880   3.112  0.00  0.00     0.017 A 
ATOM      8  C8  DEN d   1       0.584  -1.152   3.493  0.00  0.00    -0.094 A 
ATOM      9  C9  DEN d   1       1.645  -0.880   2.644  0.00  0.00    -0.072 A 
ENDROOT
TORSDOF 0
ENDMDL
