MODEL 1
REMARK minimizedAffinity 8.8584137
REMARK minimizedRMSD -1
REMARK  0 active torsions:
REMARK  status: ('A' for Active; 'I' for Inactive)
ROOT
ATOM      1  C1  DEN d   1      -2.009  -0.254   2.991  0.00  0.00     0.130 A 
ATOM      2  C2  DEN d   1      -2.151   0.211   1.615  0.00  0.00    -0.031 A 
ATOM      3  C3  DEN d   1      -0.822   0.152   0.973  0.00  0.00     0.027 A 
ATOM      4  C4  DEN d   1       1.429  -0.617   1.971  0.00  0.00     0.027 A 
ATOM      5  C5  DEN d   1       2.051  -1.088   3.106  0.00  0.00    -0.003 A 
ATOM      6  C6  DEN d   1       1.376  -1.281   4.282  0.00  0.00     0.001 A 
ATOM      7  C7  DEN d   1       0.028  -1.044   4.338  0.00  0.00     0.017 A 
ATOM      8  C8  DEN d   1      -0.605  -0.561   3.200  0.00  0.00    -0.094 A 
ATOM      9  C9  DEN d   1       0.092  -0.384   2.017  0.00  0.00    -0.072 A 
ENDROOT
TORSDOF 0
ENDMDL
