MODEL 1
REMARK minimizedAffinity -3.98623848
REMARK minimizedRMSD -1
REMARK  0 active torsions:
REMARK  status: ('A' for Active; 'I' for Inactive)
ROOT
ATOM      1  C1  DEN d   1       0.971  -1.129   5.166  0.00  0.00     0.130 A 
ATOM      2  C2  DEN d   1       2.374  -1.512   5.039  0.00  0.00    -0.031 A 
ATOM      3  C3  DEN d   1       2.781  -1.297   3.636  0.00  0.00     0.027 A 
ATOM      4  C4  DEN d   1       1.384  -0.406   1.660  0.00  0.00     0.027 A 
ATOM      5  C5  DEN d   1       0.139   0.042   1.277  0.00  0.00    -0.003 A 
ATOM      6  C6  DEN d   1      -0.917   0.098   2.148  0.00  0.00     0.001 A 
ATOM      7  C7  DEN d   1      -0.735  -0.258   3.459  0.00  0.00     0.017 A 
ATOM      8  C8  DEN d   1       0.516  -0.717   3.850  0.00  0.00    -0.094 A 
ATOM      9  C9  DEN d   1       1.573  -0.754   2.958  0.00  0.00    -0.072 A 
ENDROOT
TORSDOF 0
ENDMDL
