MODEL 1
REMARK minimizedAffinity -2.01219463
REMARK minimizedRMSD -1
REMARK  0 active torsions:
REMARK  status: ('A' for Active; 'I' for Inactive)
ROOT
ATOM      1  O1  BZF d   1       1.351   0.095   1.360  0.00  0.00    -0.204 OA
ATOM      2  C2  BZF d   1       0.849  -0.097   2.633  0.00  0.00     0.174 A 
ATOM      3  C3  BZF d   1      -0.487   0.088   2.652  0.00  0.00    -0.012 A 
ATOM      4  C3A BZF d   1      -0.854   0.326   1.290  0.00  0.00    -0.107 A 
ATOM      5  C4  BZF d   1      -2.046   0.563   0.666  0.00  0.00     0.055 A 
ATOM      6  C5  BZF d   1      -2.052   0.828  -0.667  0.00  0.00    -0.016 A 
ATOM      7  C6  BZF d   1      -0.888   0.868  -1.405  0.00  0.00     0.022 A 
ATOM      8  C7  BZF d   1       0.318   0.634  -0.831  0.00  0.00     0.029 A 
ATOM      9  C7A BZF d   1       0.325   0.333   0.509  0.00  0.00     0.058 A 
ENDROOT
TORSDOF 0
ENDMDL
