MODEL 1
REMARK minimizedAffinity -1.55092454
REMARK minimizedRMSD -1
REMARK  0 active torsions:
REMARK  status: ('A' for Active; 'I' for Inactive)
ROOT
ATOM      1  O1  BZF d   1      -0.162  -0.116   2.389  0.00  0.00    -0.204 OA
ATOM      2  C2  BZF d   1       1.216  -0.019   2.392  0.00  0.00     0.174 A 
ATOM      3  C3  BZF d   1       1.674   0.337   1.175  0.00  0.00    -0.012 A 
ATOM      4  C3A BZF d   1       0.503   0.562   0.383  0.00  0.00    -0.107 A 
ATOM      5  C4  BZF d   1       0.305   0.952  -0.910  0.00  0.00     0.055 A 
ATOM      6  C5  BZF d   1      -0.962   1.005  -1.397  0.00  0.00    -0.016 A 
ATOM      7  C6  BZF d   1      -2.053   0.670  -0.622  0.00  0.00     0.022 A 
ATOM      8  C7  BZF d   1      -1.906   0.281   0.669  0.00  0.00     0.029 A 
ATOM      9  C7A BZF d   1      -0.629   0.258   1.174  0.00  0.00     0.058 A 
ENDROOT
TORSDOF 0
ENDMDL
