MODEL 1
REMARK minimizedAffinity -4.88491344
REMARK minimizedRMSD -1
REMARK  0 active torsions:
REMARK  status: ('A' for Active; 'I' for Inactive)
ROOT
ATOM      1  O1  BZF d   1       0.711  -0.420   1.812  0.00  0.00    -0.204 OA
ATOM      2  C2  BZF d   1      -0.085  -0.730   2.898  0.00  0.00     0.174 A 
ATOM      3  C3  BZF d   1      -1.390  -0.570   2.595  0.00  0.00    -0.012 A 
ATOM      4  C3A BZF d   1      -1.414  -0.222   1.208  0.00  0.00    -0.107 A 
ATOM      5  C4  BZF d   1      -2.421   0.049   0.326  0.00  0.00     0.055 A 
ATOM      6  C5  BZF d   1      -2.106   0.427  -0.941  0.00  0.00    -0.016 A 
ATOM      7  C6  BZF d   1      -0.796   0.550  -1.357  0.00  0.00     0.022 A 
ATOM      8  C7  BZF d   1       0.236   0.288  -0.519  0.00  0.00     0.029 A 
ATOM      9  C7A BZF d   1      -0.079  -0.127   0.752  0.00  0.00     0.058 A 
ENDROOT
TORSDOF 0
ENDMDL
