MODEL 1
REMARK minimizedAffinity -5.15141058
REMARK minimizedRMSD -1
REMARK  0 active torsions:
REMARK  status: ('A' for Active; 'I' for Inactive)
ROOT
ATOM      1  O1  BZF d   1      -0.716   0.319  -0.435  0.00  0.00    -0.204 OA
ATOM      2  C2  BZF d   1       0.623  -0.018  -0.383  0.00  0.00     0.174 A 
ATOM      3  C3  BZF d   1       1.010  -0.245   0.888  0.00  0.00    -0.012 A 
ATOM      4  C3A BZF d   1      -0.181  -0.127   1.672  0.00  0.00    -0.107 A 
ATOM      5  C4  BZF d   1      -0.446  -0.259   3.005  0.00  0.00     0.055 A 
ATOM      6  C5  BZF d   1      -1.702  -0.007   3.457  0.00  0.00    -0.016 A 
ATOM      7  C6  BZF d   1      -2.715   0.384   2.607  0.00  0.00     0.022 A 
ATOM      8  C7  BZF d   1      -2.503   0.524   1.276  0.00  0.00     0.029 A 
ATOM      9  C7A BZF d   1      -1.242   0.238   0.810  0.00  0.00     0.058 A 
ENDROOT
TORSDOF 0
ENDMDL
