MODEL 1
REMARK minimizedAffinity -1.85665798
REMARK minimizedRMSD -1
REMARK  0 active torsions:
REMARK  status: ('A' for Active; 'I' for Inactive)
ROOT
ATOM      1  O1  BZF d   1      -0.255  -1.306  -2.366  0.00  0.00    -0.204 OA
ATOM      2  C2  BZF d   1       0.557  -0.962  -3.429  0.00  0.00     0.174 A 
ATOM      3  C3  BZF d   1       1.384   0.049  -3.092  0.00  0.00    -0.012 A 
ATOM      4  C3A BZF d   1       1.132   0.294  -1.705  0.00  0.00    -0.107 A 
ATOM      5  C4  BZF d   1       1.656   1.169  -0.796  0.00  0.00     0.055 A 
ATOM      6  C5  BZF d   1       1.140   1.202   0.461  0.00  0.00    -0.016 A 
ATOM      7  C6  BZF d   1       0.100   0.381   0.841  0.00  0.00     0.022 A 
ATOM      8  C7  BZF d   1      -0.449  -0.507  -0.024  0.00  0.00     0.029 A 
ATOM      9  C7A BZF d   1       0.092  -0.567  -1.285  0.00  0.00     0.058 A 
ENDROOT
TORSDOF 0
ENDMDL
