MODEL 1
REMARK minimizedAffinity -4.95600176
REMARK minimizedRMSD -1
REMARK  0 active torsions:
REMARK  status: ('A' for Active; 'I' for Inactive)
ROOT
ATOM      1  O1  BZF d   1      -1.363   1.070  -0.304  0.00  0.00    -0.204 OA
ATOM      2  C2  BZF d   1      -0.048   0.693  -0.499  0.00  0.00     0.174 A 
ATOM      3  C3  BZF d   1       0.491   0.226   0.646  0.00  0.00    -0.012 A 
ATOM      4  C3A BZF d   1      -0.580   0.230   1.595  0.00  0.00    -0.107 A 
ATOM      5  C4  BZF d   1      -0.674  -0.138   2.907  0.00  0.00     0.055 A 
ATOM      6  C5  BZF d   1      -1.845   0.060   3.566  0.00  0.00    -0.016 A 
ATOM      7  C6  BZF d   1      -2.940   0.628   2.948  0.00  0.00     0.022 A 
ATOM      8  C7  BZF d   1      -2.897   1.004   1.646  0.00  0.00     0.029 A 
ATOM      9  C7A BZF d   1      -1.725   0.775   0.968  0.00  0.00     0.058 A 
ENDROOT
TORSDOF 0
ENDMDL
