MODEL 1
REMARK minimizedAffinity -1.00268972
REMARK minimizedRMSD -1
REMARK  0 active torsions:
REMARK  status: ('A' for Active; 'I' for Inactive)
ROOT
ATOM      1  O1  BZF d   1      -0.625  -0.345  -1.493  0.00  0.00    -0.204 OA
ATOM      2  C2  BZF d   1      -0.145   0.683  -0.705  0.00  0.00     0.174 A 
ATOM      3  C3  BZF d   1       1.131   0.978  -1.028  0.00  0.00    -0.012 A 
ATOM      4  C3A BZF d   1       1.439   0.141  -2.146  0.00  0.00    -0.107 A 
ATOM      5  C4  BZF d   1       2.550  -0.015  -2.925  0.00  0.00     0.055 A 
ATOM      6  C5  BZF d   1       2.551  -0.971  -3.891  0.00  0.00    -0.016 A 
ATOM      7  C6  BZF d   1       1.461  -1.790  -4.103  0.00  0.00     0.022 A 
ATOM      8  C7  BZF d   1       0.334  -1.669  -3.360  0.00  0.00     0.029 A 
ATOM      9  C7A BZF d   1       0.318  -0.683  -2.404  0.00  0.00     0.058 A 
ENDROOT
TORSDOF 0
ENDMDL
