MODEL 1
REMARK minimizedAffinity -0.777260125
REMARK minimizedRMSD -1
REMARK  0 active torsions:
REMARK  status: ('A' for Active; 'I' for Inactive)
ROOT
ATOM      1  O1  BZF d   1       0.488   0.704   3.099  0.00  0.00    -0.204 OA
ATOM      2  C2  BZF d   1      -0.802   0.394   3.484  0.00  0.00     0.174 A 
ATOM      3  C3  BZF d   1      -1.555   0.066   2.415  0.00  0.00    -0.012 A 
ATOM      4  C3A BZF d   1      -0.657   0.088   1.301  0.00  0.00    -0.107 A 
ATOM      5  C4  BZF d   1      -0.808  -0.165  -0.032  0.00  0.00     0.055 A 
ATOM      6  C5  BZF d   1       0.251   0.018  -0.864  0.00  0.00    -0.016 A 
ATOM      7  C6  BZF d   1       1.472   0.458  -0.398  0.00  0.00     0.022 A 
ATOM      8  C7  BZF d   1       1.672   0.718   0.917  0.00  0.00     0.029 A 
ATOM      9  C7A BZF d   1       0.613   0.503   1.765  0.00  0.00     0.058 A 
ENDROOT
TORSDOF 0
ENDMDL
