MODEL 1
REMARK minimizedAffinity -3.3124454
REMARK minimizedRMSD -1
REMARK  0 active torsions:
REMARK  status: ('A' for Active; 'I' for Inactive)
ROOT
ATOM      1  O1  BZF d   1      -2.323   0.709   0.388  0.00  0.00    -0.204 OA
ATOM      2  C2  BZF d   1      -2.235   0.997  -0.960  0.00  0.00     0.174 A 
ATOM      3  C3  BZF d   1      -0.947   1.132  -1.338  0.00  0.00    -0.012 A 
ATOM      4  C3A BZF d   1      -0.179   0.824  -0.171  0.00  0.00    -0.107 A 
ATOM      5  C4  BZF d   1       1.162   0.770   0.083  0.00  0.00     0.055 A 
ATOM      6  C5  BZF d   1       1.584   0.509   1.348  0.00  0.00    -0.016 A 
ATOM      7  C6  BZF d   1       0.695   0.304   2.383  0.00  0.00     0.022 A 
ATOM      8  C7  BZF d   1      -0.644   0.343   2.179  0.00  0.00     0.029 A 
ATOM      9  C7A BZF d   1      -1.074   0.573   0.895  0.00  0.00     0.058 A 
ENDROOT
TORSDOF 0
ENDMDL
