MODEL 1
REMARK minimizedAffinity 1.24673927
REMARK minimizedRMSD -1
REMARK  0 active torsions:
REMARK  status: ('A' for Active; 'I' for Inactive)
ROOT
ATOM      1  O1  BZF d   1      -0.963   1.184  -1.201  0.00  0.00    -0.204 OA
ATOM      2  C2  BZF d   1       0.196   0.824  -1.862  0.00  0.00     0.174 A 
ATOM      3  C3  BZF d   1       0.741  -0.277  -1.306  0.00  0.00    -0.012 A 
ATOM      4  C3A BZF d   1      -0.180  -0.681  -0.288  0.00  0.00    -0.107 A 
ATOM      5  C4  BZF d   1      -0.201  -1.717   0.601  0.00  0.00     0.055 A 
ATOM      6  C5  BZF d   1      -1.208  -1.785   1.511  0.00  0.00    -0.016 A 
ATOM      7  C6  BZF d   1      -2.205  -0.833   1.564  0.00  0.00     0.022 A 
ATOM      8  C7  BZF d   1      -2.229   0.210   0.699  0.00  0.00     0.029 A 
ATOM      9  C7A BZF d   1      -1.231   0.264  -0.244  0.00  0.00     0.058 A 
ENDROOT
TORSDOF 0
ENDMDL
