MODEL 1
REMARK minimizedAffinity -4.4155097
REMARK minimizedRMSD -1
REMARK  0 active torsions:
REMARK  status: ('A' for Active; 'I' for Inactive)
ROOT
ATOM      1  O1  BZF d   1       1.369   0.731   2.119  0.00  0.00    -0.204 OA
ATOM      2  C2  BZF d   1       1.898   0.871   0.851  0.00  0.00     0.174 A 
ATOM      3  C3  BZF d   1       1.083   0.319  -0.071  0.00  0.00    -0.012 A 
ATOM      4  C3A BZF d   1      -0.069  -0.116   0.657  0.00  0.00    -0.107 A 
ATOM      5  C4  BZF d   1      -1.235  -0.727   0.293  0.00  0.00     0.055 A 
ATOM      6  C5  BZF d   1      -2.123  -1.084   1.258  0.00  0.00    -0.016 A 
ATOM      7  C6  BZF d   1      -1.876  -0.850   2.595  0.00  0.00     0.022 A 
ATOM      8  C7  BZF d   1      -0.736  -0.242   3.004  0.00  0.00     0.029 A 
ATOM      9  C7A BZF d   1       0.149   0.149   2.029  0.00  0.00     0.058 A 
ENDROOT
TORSDOF 0
ENDMDL
