MODEL 1
REMARK minimizedAffinity -1.18196034
REMARK minimizedRMSD -1
REMARK  0 active torsions:
REMARK  status: ('A' for Active; 'I' for Inactive)
ROOT
ATOM      1  O1  BZF d   1       0.493  -1.330  -0.599  0.00  0.00    -0.204 OA
ATOM      2  C2  BZF d   1      -0.089  -2.566  -0.802  0.00  0.00     0.174 A 
ATOM      3  C3  BZF d   1      -0.771  -2.959   0.293  0.00  0.00    -0.012 A 
ATOM      4  C3A BZF d   1      -0.682  -1.862   1.207  0.00  0.00    -0.107 A 
ATOM      5  C4  BZF d   1      -1.172  -1.643   2.462  0.00  0.00     0.055 A 
ATOM      6  C5  BZF d   1      -0.842  -0.495   3.109  0.00  0.00    -0.016 A 
ATOM      7  C6  BZF d   1      -0.022   0.453   2.534  0.00  0.00     0.022 A 
ATOM      8  C7  BZF d   1       0.485   0.283   1.288  0.00  0.00     0.029 A 
ATOM      9  C7A BZF d   1       0.127  -0.862   0.619  0.00  0.00     0.058 A 
ENDROOT
TORSDOF 0
ENDMDL
