MODEL 1
REMARK minimizedAffinity -2.04733086
REMARK minimizedRMSD -1
REMARK  0 active torsions:
REMARK  status: ('A' for Active; 'I' for Inactive)
ROOT
ATOM      1  O1  BZF d   1       0.771  -0.050   2.649  0.00  0.00    -0.204 OA
ATOM      2  C2  BZF d   1       1.947  -0.304   1.970  0.00  0.00     0.174 A 
ATOM      3  C3  BZF d   1       1.739  -0.304   0.637  0.00  0.00    -0.012 A 
ATOM      4  C3A BZF d   1       0.365   0.058   0.471  0.00  0.00    -0.107 A 
ATOM      5  C4  BZF d   1      -0.431   0.241  -0.624  0.00  0.00     0.055 A 
ATOM      6  C5  BZF d   1      -1.749   0.520  -0.442  0.00  0.00    -0.016 A 
ATOM      7  C6  BZF d   1      -2.304   0.618   0.817  0.00  0.00     0.022 A 
ATOM      8  C7  BZF d   1      -1.552   0.449   1.933  0.00  0.00     0.029 A 
ATOM      9  C7A BZF d   1      -0.214   0.200   1.753  0.00  0.00     0.058 A 
ENDROOT
TORSDOF 0
ENDMDL
