MODEL 1
REMARK minimizedAffinity -2.295609
REMARK minimizedRMSD -1
REMARK  0 active torsions:
REMARK  status: ('A' for Active; 'I' for Inactive)
ROOT
ATOM      1  O1  BZF d   1      -1.618   0.697   1.767  0.00  0.00    -0.204 OA
ATOM      2  C2  BZF d   1      -2.520   0.773   0.723  0.00  0.00     0.174 A 
ATOM      3  C3  BZF d   1      -1.902   0.576  -0.459  0.00  0.00    -0.012 A 
ATOM      4  C3A BZF d   1      -0.544   0.271  -0.127  0.00  0.00    -0.107 A 
ATOM      5  C4  BZF d   1       0.559  -0.035  -0.873  0.00  0.00     0.055 A 
ATOM      6  C5  BZF d   1       1.753  -0.206  -0.247  0.00  0.00    -0.016 A 
ATOM      7  C6  BZF d   1       1.882  -0.073   1.120  0.00  0.00     0.022 A 
ATOM      8  C7  BZF d   1       0.816   0.226   1.902  0.00  0.00     0.029 A 
ATOM      9  C7A BZF d   1      -0.399   0.367   1.276  0.00  0.00     0.058 A 
ENDROOT
TORSDOF 0
ENDMDL
