MODEL 1
REMARK minimizedAffinity -2.40232015
REMARK minimizedRMSD -1
REMARK  0 active torsions:
REMARK  status: ('A' for Active; 'I' for Inactive)
ROOT
ATOM      1  O1  BZF d   1      -0.776   0.207  -2.073  0.00  0.00    -0.204 OA
ATOM      2  C2  BZF d   1       0.502   0.077  -2.582  0.00  0.00     0.174 A 
ATOM      3  C3  BZF d   1       1.406  -0.017  -1.585  0.00  0.00    -0.012 A 
ATOM      4  C3A BZF d   1       0.636  -0.035  -0.379  0.00  0.00    -0.107 A 
ATOM      5  C4  BZF d   1       0.964  -0.129   0.943  0.00  0.00     0.055 A 
ATOM      6  C5  BZF d   1      -0.020  -0.043   1.876  0.00  0.00    -0.016 A 
ATOM      7  C6  BZF d   1      -1.340   0.143   1.523  0.00  0.00     0.022 A 
ATOM      8  C7  BZF d   1      -1.715   0.238   0.224  0.00  0.00     0.029 A 
ATOM      9  C7A BZF d   1      -0.727   0.118  -0.723  0.00  0.00     0.058 A 
ENDROOT
TORSDOF 0
ENDMDL
