MODEL 1
REMARK minimizedAffinity -2.56054187
REMARK minimizedRMSD -1
REMARK  0 active torsions:
REMARK  status: ('A' for Active; 'I' for Inactive)
ROOT
ATOM      1  O1  BZF d   1      -0.702  -0.627  -0.867  0.00  0.00    -0.204 OA
ATOM      2  C2  BZF d   1       0.118  -0.371  -1.949  0.00  0.00     0.174 A 
ATOM      3  C3  BZF d   1       1.248   0.251  -1.555  0.00  0.00    -0.012 A 
ATOM      4  C3A BZF d   1       1.168   0.310  -0.128  0.00  0.00    -0.107 A 
ATOM      5  C4  BZF d   1       1.999   0.798   0.840  0.00  0.00     0.055 A 
ATOM      6  C5  BZF d   1       1.594   0.766   2.136  0.00  0.00    -0.016 A 
ATOM      7  C6  BZF d   1       0.363   0.258   2.500  0.00  0.00     0.022 A 
ATOM      8  C7  BZF d   1      -0.493  -0.242   1.576  0.00  0.00     0.029 A 
ATOM      9  C7A BZF d   1      -0.072  -0.241   0.269  0.00  0.00     0.058 A 
ENDROOT
TORSDOF 0
ENDMDL
