MODEL 1
REMARK minimizedAffinity -0.202775821
REMARK minimizedRMSD -1
REMARK  0 active torsions:
REMARK  status: ('A' for Active; 'I' for Inactive)
ROOT
ATOM      1  O1  BZF d   1      -2.538   0.450   0.581  0.00  0.00    -0.204 OA
ATOM      2  C2  BZF d   1      -2.398   0.715  -0.768  0.00  0.00     0.174 A 
ATOM      3  C3  BZF d   1      -1.099   0.889  -1.088  0.00  0.00    -0.012 A 
ATOM      4  C3A BZF d   1      -0.376   0.630   0.119  0.00  0.00    -0.107 A 
ATOM      5  C4  BZF d   1       0.953   0.628   0.435  0.00  0.00     0.055 A 
ATOM      6  C5  BZF d   1       1.325   0.406   1.723  0.00  0.00    -0.016 A 
ATOM      7  C6  BZF d   1       0.396   0.190   2.720  0.00  0.00     0.022 A 
ATOM      8  C7  BZF d   1      -0.933   0.178   2.454  0.00  0.00     0.029 A 
ATOM      9  C7A BZF d   1      -1.310   0.369   1.147  0.00  0.00     0.058 A 
ENDROOT
TORSDOF 0
ENDMDL
