MODEL 1
REMARK minimizedAffinity -0.30133006
REMARK minimizedRMSD -1
REMARK  0 active torsions:
REMARK  status: ('A' for Active; 'I' for Inactive)
ROOT
ATOM      1  O1  BZF d   1      -0.575  -0.012  -1.474  0.00  0.00    -0.204 OA
ATOM      2  C2  BZF d   1       0.708  -0.234  -1.935  0.00  0.00     0.174 A 
ATOM      3  C3  BZF d   1       1.596  -0.192  -0.921  0.00  0.00    -0.012 A 
ATOM      4  C3A BZF d   1       0.808  -0.018   0.261  0.00  0.00    -0.107 A 
ATOM      5  C4  BZF d   1       1.116   0.080   1.588  0.00  0.00     0.055 A 
ATOM      6  C5  BZF d   1       0.119   0.319   2.481  0.00  0.00    -0.016 A 
ATOM      7  C6  BZF d   1      -1.193   0.470   2.082  0.00  0.00     0.022 A 
ATOM      8  C7  BZF d   1      -1.547   0.375   0.777  0.00  0.00     0.029 A 
ATOM      9  C7A BZF d   1      -0.547   0.101  -0.124  0.00  0.00     0.058 A 
ENDROOT
TORSDOF 0
ENDMDL
