MODEL 1
REMARK minimizedAffinity -2.5485611
REMARK minimizedRMSD -1
REMARK  0 active torsions:
REMARK  status: ('A' for Active; 'I' for Inactive)
ROOT
ATOM      1  O1  BZF d   1      -1.158   0.219  -0.680  0.00  0.00    -0.204 OA
ATOM      2  C2  BZF d   1      -0.222  -0.102  -1.643  0.00  0.00     0.174 A 
ATOM      3  C3  BZF d   1       1.004  -0.229  -1.095  0.00  0.00    -0.012 A 
ATOM      4  C3A BZF d   1       0.806  -0.062   0.312  0.00  0.00    -0.107 A 
ATOM      5  C4  BZF d   1       1.646  -0.095   1.389  0.00  0.00     0.055 A 
ATOM      6  C5  BZF d   1       1.148   0.181   2.623  0.00  0.00    -0.016 A 
ATOM      7  C6  BZF d   1      -0.180   0.498   2.816  0.00  0.00     0.022 A 
ATOM      8  C7  BZF d   1      -1.052   0.538   1.780  0.00  0.00     0.029 A 
ATOM      9  C7A BZF d   1      -0.560   0.228   0.536  0.00  0.00     0.058 A 
ENDROOT
TORSDOF 0
ENDMDL
