MODEL 1
REMARK minimizedAffinity -2.46545243
REMARK minimizedRMSD -1
REMARK  3 active torsions:
REMARK  status: ('A' for Active; 'I' for Inactive)
REMARK    1  A    between atoms: C3'_2  and  C2'_3 
REMARK    2  A    between atoms: C2'_3  and  C1'_4 
REMARK    3  A    between atoms: C1'_4  and  C1_5 
ROOT
ATOM      1  C1  N4B d   1       2.174   3.019   0.822  0.00  0.00    -0.075 A 
ATOM      2  C2  N4B d   1       3.463   3.377   1.276  0.00  0.00     0.002 A 
ATOM      3  C3  N4B d   1       4.406   2.404   1.499  0.00  0.00     0.002 A 
ATOM      4  C4  N4B d   1       4.080   1.072   1.293  0.00  0.00    -0.004 A 
ATOM      5  C5  N4B d   1       2.842   0.737   0.830  0.00  0.00     0.002 A 
ATOM      6  C6  N4B d   1       1.884   1.705   0.598  0.00  0.00     0.002 A 
ENDROOT
BRANCH   1   7
ATOM      7  C1' N4B d   1       1.082   4.039   0.647  0.00  0.00     0.057 C 
BRANCH   7   8
ATOM      8  C2' N4B d   1       0.628   4.527   2.020  0.00  0.00     0.009 C 
BRANCH   8   9
ATOM      9  C3' N4B d   1      -0.869   4.364   2.214  0.00  0.00     0.004 C 
ATOM     10  C4' N4B d   1      -1.673   5.244   1.304  0.00  0.00     0.003 C 
ENDBRANCH   8   9
ENDBRANCH   7   8
ENDBRANCH   1   7
TORSDOF 3
ENDMDL
