MODEL 1
REMARK minimizedAffinity -4.44938326
REMARK minimizedRMSD -1
REMARK  3 active torsions:
REMARK  status: ('A' for Active; 'I' for Inactive)
REMARK    1  A    between atoms: C3'_2  and  C2'_3 
REMARK    2  A    between atoms: C2'_3  and  C1'_4 
REMARK    3  A    between atoms: C1'_4  and  C1_5 
ROOT
ATOM      1  C1  N4B d   1       1.987   1.833  -0.750  0.00  0.00    -0.075 A 
ATOM      2  C2  N4B d   1       2.964   1.664   0.255  0.00  0.00     0.002 A 
ATOM      3  C3  N4B d   1       3.726   2.733   0.659  0.00  0.00     0.002 A 
ATOM      4  C4  N4B d   1       3.542   3.971   0.062  0.00  0.00    -0.004 A 
ATOM      5  C5  N4B d   1       2.578   4.132  -0.890  0.00  0.00     0.002 A 
ATOM      6  C6  N4B d   1       1.802   3.067  -1.303  0.00  0.00     0.002 A 
ENDROOT
BRANCH   1   7
ATOM      7  C1' N4B d   1       1.189   0.676  -1.284  0.00  0.00     0.057 C 
BRANCH   7   8
ATOM      8  C2' N4B d   1      -0.294   0.933  -1.038  0.00  0.00     0.009 C 
BRANCH   8   9
ATOM      9  C3' N4B d   1      -0.673   0.728   0.419  0.00  0.00     0.004 C 
ATOM     10  C4' N4B d   1      -1.869   1.535   0.827  0.00  0.00     0.003 C 
ENDBRANCH   8   9
ENDBRANCH   7   8
ENDBRANCH   1   7
TORSDOF 3
ENDMDL
