MODEL 1
REMARK minimizedAffinity -4.32254219
REMARK minimizedRMSD -1
REMARK  3 active torsions:
REMARK  status: ('A' for Active; 'I' for Inactive)
REMARK    1  A    between atoms: C3'_2  and  C2'_3 
REMARK    2  A    between atoms: C2'_3  and  C1'_4 
REMARK    3  A    between atoms: C1'_4  and  C1_5 
ROOT
ATOM      1  C1  N4B d   1      -0.580   1.447   0.678  0.00  0.00    -0.075 A 
ATOM      2  C2  N4B d   1      -1.870   1.014   1.056  0.00  0.00     0.002 A 
ATOM      3  C3  N4B d   1      -2.169  -0.327   1.063  0.00  0.00     0.002 A 
ATOM      4  C4  N4B d   1      -1.205  -1.246   0.679  0.00  0.00    -0.004 A 
ATOM      5  C5  N4B d   1       0.046  -0.821   0.339  0.00  0.00     0.002 A 
ATOM      6  C6  N4B d   1       0.362   0.523   0.331  0.00  0.00     0.002 A 
ENDROOT
BRANCH   1   7
ATOM      7  C1' N4B d   1      -0.233   2.907   0.572  0.00  0.00     0.057 C 
BRANCH   7   8
ATOM      8  C2' N4B d   1      -1.505   3.737   0.713  0.00  0.00     0.009 C 
BRANCH   8   9
ATOM      9  C3' N4B d   1      -1.307   4.929   1.632  0.00  0.00     0.004 C 
ATOM     10  C4' N4B d   1      -2.351   5.989   1.442  0.00  0.00     0.003 C 
ENDBRANCH   8   9
ENDBRANCH   7   8
ENDBRANCH   1   7
TORSDOF 3
ENDMDL
