MODEL 1
REMARK minimizedAffinity -1.68266881
REMARK minimizedRMSD -1
REMARK  3 active torsions:
REMARK  status: ('A' for Active; 'I' for Inactive)
REMARK    1  A    between atoms: C3'_2  and  C2'_3 
REMARK    2  A    between atoms: C2'_3  and  C1'_4 
REMARK    3  A    between atoms: C1'_4  and  C1_5 
ROOT
ATOM      1  C1  N4B d   1      -0.879   1.270  -0.106  0.00  0.00    -0.075 A 
ATOM      2  C2  N4B d   1      -0.864   0.129   0.726  0.00  0.00     0.002 A 
ATOM      3  C3  N4B d   1      -0.370  -1.061   0.250  0.00  0.00     0.002 A 
ATOM      4  C4  N4B d   1       0.094  -1.138  -1.055  0.00  0.00    -0.004 A 
ATOM      5  C5  N4B d   1       0.099  -0.025  -1.843  0.00  0.00     0.002 A 
ATOM      6  C6  N4B d   1      -0.390   1.179  -1.377  0.00  0.00     0.002 A 
ENDROOT
BRANCH   1   7
ATOM      7  C1' N4B d   1      -1.488   2.571   0.342  0.00  0.00     0.057 C 
BRANCH   7   8
ATOM      8  C2' N4B d   1      -0.379   3.506   0.815  0.00  0.00     0.009 C 
BRANCH   8   9
ATOM      9  C3' N4B d   1      -0.872   4.485   1.867  0.00  0.00     0.004 C 
ATOM     10  C4' N4B d   1      -1.648   5.626   1.281  0.00  0.00     0.003 C 
ENDBRANCH   8   9
ENDBRANCH   7   8
ENDBRANCH   1   7
TORSDOF 3
ENDMDL
