MODEL 1
REMARK minimizedAffinity -2.57873464
REMARK minimizedRMSD -1
REMARK  3 active torsions:
REMARK  status: ('A' for Active; 'I' for Inactive)
REMARK    1  A    between atoms: C3'_2  and  C2'_3 
REMARK    2  A    between atoms: C2'_3  and  C1'_4 
REMARK    3  A    between atoms: C1'_4  and  C1_5 
ROOT
ATOM      1  C1  N4B d   1       0.567   3.319  -0.004  0.00  0.00    -0.075 A 
ATOM      2  C2  N4B d   1      -0.491   3.912   0.720  0.00  0.00     0.002 A 
ATOM      3  C3  N4B d   1      -0.217   4.763   1.762  0.00  0.00     0.002 A 
ATOM      4  C4  N4B d   1       1.101   5.020   2.110  0.00  0.00    -0.004 A 
ATOM      5  C5  N4B d   1       2.117   4.463   1.390  0.00  0.00     0.002 A 
ATOM      6  C6  N4B d   1       1.856   3.608   0.337  0.00  0.00     0.002 A 
ENDROOT
BRANCH   1   7
ATOM      7  C1' N4B d   1       0.317   2.315  -1.096  0.00  0.00     0.057 C 
BRANCH   7   8
ATOM      8  C2' N4B d   1      -0.769   1.343  -0.644  0.00  0.00     0.009 C 
BRANCH   8   9
ATOM      9  C3' N4B d   1      -0.284  -0.097  -0.656  0.00  0.00     0.004 C 
ATOM     10  C4' N4B d   1      -0.857  -0.912   0.464  0.00  0.00     0.003 C 
ENDBRANCH   8   9
ENDBRANCH   7   8
ENDBRANCH   1   7
TORSDOF 3
ENDMDL
