MODEL 1
REMARK minimizedAffinity -3.83726287
REMARK minimizedRMSD -1
REMARK  3 active torsions:
REMARK  status: ('A' for Active; 'I' for Inactive)
REMARK    1  A    between atoms: C3'_2  and  C2'_3 
REMARK    2  A    between atoms: C2'_3  and  C1'_4 
REMARK    3  A    between atoms: C1'_4  and  C1_5 
ROOT
ATOM      1  C1  N4B d   1      -1.141   1.377  -0.265  0.00  0.00    -0.075 A 
ATOM      2  C2  N4B d   1      -0.416   1.528  -1.468  0.00  0.00     0.002 A 
ATOM      3  C3  N4B d   1       0.312   0.476  -1.968  0.00  0.00     0.002 A 
ATOM      4  C4  N4B d   1       0.344  -0.726  -1.276  0.00  0.00    -0.004 A 
ATOM      5  C5  N4B d   1      -0.380  -0.872  -0.129  0.00  0.00     0.002 A 
ATOM      6  C6  N4B d   1      -1.118   0.176   0.383  0.00  0.00     0.002 A 
ENDROOT
BRANCH   1   7
ATOM      7  C1' N4B d   1      -1.881   2.525   0.365  0.00  0.00     0.057 C 
BRANCH   7   8
ATOM      8  C2' N4B d   1      -0.919   3.692   0.565  0.00  0.00     0.009 C 
BRANCH   8   9
ATOM      9  C3' N4B d   1      -1.507   4.767   1.463  0.00  0.00     0.004 C 
ATOM     10  C4' N4B d   1      -1.905   6.000   0.708  0.00  0.00     0.003 C 
ENDBRANCH   8   9
ENDBRANCH   7   8
ENDBRANCH   1   7
TORSDOF 3
ENDMDL
