MODEL 1
REMARK minimizedAffinity -3.71665812
REMARK minimizedRMSD -1
REMARK  3 active torsions:
REMARK  status: ('A' for Active; 'I' for Inactive)
REMARK    1  A    between atoms: C3'_2  and  C2'_3 
REMARK    2  A    between atoms: C2'_3  and  C1'_4 
REMARK    3  A    between atoms: C1'_4  and  C1_5 
ROOT
ATOM      1  C1  N4B d   1       0.155   1.487   0.514  0.00  0.00    -0.075 A 
ATOM      2  C2  N4B d   1       0.464   1.974   1.803  0.00  0.00     0.002 A 
ATOM      3  C3  N4B d   1       1.202   3.124   1.943  0.00  0.00     0.002 A 
ATOM      4  C4  N4B d   1       1.655   3.791   0.814  0.00  0.00    -0.004 A 
ATOM      5  C5  N4B d   1       1.331   3.327  -0.427  0.00  0.00     0.002 A 
ATOM      6  C6  N4B d   1       0.587   2.175  -0.583  0.00  0.00     0.002 A 
ENDROOT
BRANCH   1   7
ATOM      7  C1' N4B d   1      -0.575   0.187   0.310  0.00  0.00     0.057 C 
BRANCH   7   8
ATOM      8  C2' N4B d   1      -0.331  -0.718   1.514  0.00  0.00     0.009 C 
BRANCH   8   9
ATOM      9  C3' N4B d   1      -1.386  -1.804   1.631  0.00  0.00     0.004 C 
ATOM     10  C4' N4B d   1      -1.779  -2.378   0.303  0.00  0.00     0.003 C 
ENDBRANCH   8   9
ENDBRANCH   7   8
ENDBRANCH   1   7
TORSDOF 3
ENDMDL
