MODEL 1
REMARK minimizedAffinity 3.43678021
REMARK minimizedRMSD -1
REMARK  0 active torsions:
REMARK  status: ('A' for Active; 'I' for Inactive)
ROOT
ATOM      1  N1  IND d   1      -0.570   1.871  -1.050  0.00  0.00    -0.196 N 
ATOM      2  C2  IND d   1      -0.814   0.568  -1.382  0.00  0.00     0.054 A 
ATOM      3  C3  IND d   1      -0.632  -0.233  -0.308  0.00  0.00    -0.031 A 
ATOM      4  C4  IND d   1      -0.033   0.393   2.116  0.00  0.00     0.051 A 
ATOM      5  C5  IND d   1       0.322   1.456   2.898  0.00  0.00    -0.031 A 
ATOM      6  C6  IND d   1       0.396   2.739   2.394  0.00  0.00     0.015 A 
ATOM      7  C7  IND d   1       0.106   3.008   1.087  0.00  0.00    -0.016 A 
ATOM      8  C8  IND d   1      -0.248   1.930   0.288  0.00  0.00    -0.047 A 
ATOM      9  C9  IND d   1      -0.284   0.620   0.784  0.00  0.00    -0.096 A 
ATOM     10  HN1 IND d   1      -0.612   2.542  -1.586  0.00  0.00     0.298 HD
ENDROOT
TORSDOF 0
ENDMDL
