MODEL 1
REMARK minimizedAffinity 5.51607466
REMARK minimizedRMSD -1
REMARK  0 active torsions:
REMARK  status: ('A' for Active; 'I' for Inactive)
ROOT
ATOM      1  N1  IND d   1       0.609   2.558   2.280  0.00  0.00    -0.196 N 
ATOM      2  C2  IND d   1       0.226   1.285   2.597  0.00  0.00     0.054 A 
ATOM      3  C3  IND d   1      -0.458   0.730   1.571  0.00  0.00    -0.031 A 
ATOM      4  C4  IND d   1      -0.976   1.694  -0.759  0.00  0.00     0.051 A 
ATOM      5  C5  IND d   1      -0.863   2.836  -1.502  0.00  0.00    -0.031 A 
ATOM      6  C6  IND d   1      -0.238   3.965  -1.014  0.00  0.00     0.015 A 
ATOM      7  C7  IND d   1       0.309   3.991   0.238  0.00  0.00    -0.016 A 
ATOM      8  C8  IND d   1       0.190   2.836   0.998  0.00  0.00    -0.047 A 
ATOM      9  C9  IND d   1      -0.481   1.701   0.523  0.00  0.00    -0.096 A 
ATOM     10  HN1 IND d   1       1.039   3.095   2.796  0.00  0.00     0.298 HD
ENDROOT
TORSDOF 0
ENDMDL
