MODEL 1
REMARK minimizedAffinity 5.92968178
REMARK minimizedRMSD -1
REMARK  0 active torsions:
REMARK  status: ('A' for Active; 'I' for Inactive)
ROOT
ATOM      1  N1  IND d   1       0.255   0.443  -1.290  0.00  0.00    -0.196 N 
ATOM      2  C2  IND d   1      -0.335   1.206  -2.259  0.00  0.00     0.054 A 
ATOM      3  C3  IND d   1      -0.969   2.263  -1.704  0.00  0.00    -0.031 A 
ATOM      4  C4  IND d   1      -1.083   2.993   0.762  0.00  0.00     0.051 A 
ATOM      5  C5  IND d   1      -0.728   2.595   2.020  0.00  0.00    -0.031 A 
ATOM      6  C6  IND d   1      -0.012   1.437   2.244  0.00  0.00     0.015 A 
ATOM      7  C7  IND d   1       0.389   0.637   1.212  0.00  0.00    -0.016 A 
ATOM      8  C8  IND d   1       0.025   1.034  -0.067  0.00  0.00    -0.047 A 
ATOM      9  C9  IND d   1      -0.739   2.186  -0.296  0.00  0.00    -0.096 A 
ATOM     10  HN1 IND d   1       0.695  -0.284  -1.422  0.00  0.00     0.298 HD
ENDROOT
TORSDOF 0
ENDMDL
