MODEL 1
REMARK minimizedAffinity 9.80026245
REMARK minimizedRMSD -1
REMARK  0 active torsions:
REMARK  status: ('A' for Active; 'I' for Inactive)
ROOT
ATOM      1  N1  IND d   1      -1.248   0.528   3.655  0.00  0.00    -0.196 N 
ATOM      2  C2  IND d   1      -0.265  -0.296   4.128  0.00  0.00     0.054 A 
ATOM      3  C3  IND d   1       0.870  -0.134   3.411  0.00  0.00    -0.031 A 
ATOM      4  C4  IND d   1       1.370   1.500   1.486  0.00  0.00     0.051 A 
ATOM      5  C5  IND d   1       0.774   2.428   0.679  0.00  0.00    -0.031 A 
ATOM      6  C6  IND d   1      -0.552   2.780   0.827  0.00  0.00     0.015 A 
ATOM      7  C7  IND d   1      -1.332   2.222   1.800  0.00  0.00    -0.016 A 
ATOM      8  C8  IND d   1      -0.733   1.274   2.617  0.00  0.00    -0.047 A 
ATOM      9  C9  IND d   1       0.601   0.882   2.444  0.00  0.00    -0.096 A 
ATOM     10  HN1 IND d   1      -2.052   0.574   3.955  0.00  0.00     0.298 HD
ENDROOT
TORSDOF 0
ENDMDL
