MODEL 1
REMARK minimizedAffinity 10.3637352
REMARK minimizedRMSD -1
REMARK  0 active torsions:
REMARK  status: ('A' for Active; 'I' for Inactive)
ROOT
ATOM      1  N1  IND d   1      -1.144  -4.691  -4.741  0.00  0.00    -0.196 N 
ATOM      2  C2  IND d   1      -0.367  -5.295  -5.689  0.00  0.00     0.054 A 
ATOM      3  C3  IND d   1       0.721  -5.857  -5.117  0.00  0.00    -0.031 A 
ATOM      4  C4  IND d   1       1.375  -5.995  -2.631  0.00  0.00     0.051 A 
ATOM      5  C5  IND d   1       0.997  -5.560  -1.392  0.00  0.00    -0.031 A 
ATOM      6  C6  IND d   1      -0.138  -4.799  -1.202  0.00  0.00     0.015 A 
ATOM      7  C7  IND d   1      -0.948  -4.454  -2.247  0.00  0.00    -0.016 A 
ATOM      8  C8  IND d   1      -0.564  -4.889  -3.507  0.00  0.00    -0.047 A 
ATOM      9  C9  IND d   1       0.610  -5.625  -3.712  0.00  0.00    -0.096 A 
ATOM     10  HN1 IND d   1      -1.873  -4.260  -4.889  0.00  0.00     0.298 HD
ENDROOT
TORSDOF 0
ENDMDL
