MODEL 1
REMARK minimizedAffinity 5.68209314
REMARK minimizedRMSD -1
REMARK  0 active torsions:
REMARK  status: ('A' for Active; 'I' for Inactive)
ROOT
ATOM      1  N1  IND d   1       0.563  -0.796   3.789  0.00  0.00    -0.196 N 
ATOM      2  C2  IND d   1       1.466  -1.566   3.111  0.00  0.00     0.054 A 
ATOM      3  C3  IND d   1       1.615  -1.112   1.846  0.00  0.00    -0.031 A 
ATOM      4  C4  IND d   1       0.553   0.939   0.709  0.00  0.00     0.051 A 
ATOM      5  C5  IND d   1      -0.365   1.930   0.914  0.00  0.00    -0.031 A 
ATOM      6  C6  IND d   1      -1.033   2.067   2.114  0.00  0.00     0.015 A 
ATOM      7  C7  IND d   1      -0.797   1.222   3.161  0.00  0.00    -0.016 A 
ATOM      8  C8  IND d   1       0.130   0.210   2.954  0.00  0.00    -0.047 A 
ATOM      9  C9  IND d   1       0.779   0.040   1.724  0.00  0.00    -0.096 A 
ATOM     10  HN1 IND d   1       0.308  -0.919   4.601  0.00  0.00     0.298 HD
ENDROOT
TORSDOF 0
ENDMDL
