MODEL 1
REMARK minimizedAffinity 2.17385936
REMARK minimizedRMSD -1
REMARK  0 active torsions:
REMARK  status: ('A' for Active; 'I' for Inactive)
ROOT
ATOM      1  N1  IND d   1       0.481   1.072   3.573  0.00  0.00    -0.196 N 
ATOM      2  C2  IND d   1       0.233  -0.260   3.755  0.00  0.00     0.054 A 
ATOM      3  C3  IND d   1       0.165  -0.893   2.562  0.00  0.00    -0.031 A 
ATOM      4  C4  IND d   1       0.530   0.041   0.192  0.00  0.00     0.051 A 
ATOM      5  C5  IND d   1       0.745   1.209  -0.485  0.00  0.00    -0.031 A 
ATOM      6  C6  IND d   1       0.889   2.415   0.171  0.00  0.00     0.015 A 
ATOM      7  C7  IND d   1       0.834   2.496   1.533  0.00  0.00    -0.016 A 
ATOM      8  C8  IND d   1       0.608   1.313   2.223  0.00  0.00    -0.047 A 
ATOM      9  C9  IND d   1       0.419   0.093   1.561  0.00  0.00    -0.096 A 
ATOM     10  HN1 IND d   1       0.546   1.660   4.197  0.00  0.00     0.298 HD
ENDROOT
TORSDOF 0
ENDMDL
