MODEL 1
REMARK minimizedAffinity 5.2744894
REMARK minimizedRMSD -1
REMARK  0 active torsions:
REMARK  status: ('A' for Active; 'I' for Inactive)
ROOT
ATOM      1  N1  IND d   1       0.337   0.371  -2.113  0.00  0.00    -0.196 N 
ATOM      2  C2  IND d   1       0.048   1.307  -1.160  0.00  0.00     0.054 A 
ATOM      3  C3  IND d   1      -1.284   1.534  -1.113  0.00  0.00    -0.031 A 
ATOM      4  C4  IND d   1      -3.183   0.408  -2.437  0.00  0.00     0.051 A 
ATOM      5  C5  IND d   1      -3.410  -0.482  -3.448  0.00  0.00    -0.031 A 
ATOM      6  C6  IND d   1      -2.379  -1.149  -4.078  0.00  0.00     0.015 A 
ATOM      7  C7  IND d   1      -1.077  -0.958  -3.709  0.00  0.00    -0.016 A 
ATOM      8  C8  IND d   1      -0.842  -0.050  -2.687  0.00  0.00    -0.047 A 
ATOM      9  C9  IND d   1      -1.881   0.662  -2.073  0.00  0.00    -0.096 A 
ATOM     10  HN1 IND d   1       1.124   0.091  -2.320  0.00  0.00     0.298 HD
ENDROOT
TORSDOF 0
ENDMDL
