MODEL 1
REMARK minimizedAffinity 6.03515577
REMARK minimizedRMSD -1
REMARK  0 active torsions:
REMARK  status: ('A' for Active; 'I' for Inactive)
ROOT
ATOM      1  N1  IND d   1       0.213   0.377   0.135  0.00  0.00    -0.196 N 
ATOM      2  C2  IND d   1       0.248  -0.583   1.108  0.00  0.00     0.054 A 
ATOM      3  C3  IND d   1       0.463  -0.020   2.318  0.00  0.00    -0.031 A 
ATOM      4  C4  IND d   1       0.685   2.466   2.948  0.00  0.00     0.051 A 
ATOM      5  C5  IND d   1       0.756   3.715   2.397  0.00  0.00    -0.031 A 
ATOM      6  C6  IND d   1       0.645   3.919   1.037  0.00  0.00     0.015 A 
ATOM      7  C7  IND d   1       0.446   2.879   0.174  0.00  0.00    -0.016 A 
ATOM      8  C8  IND d   1       0.380   1.609   0.729  0.00  0.00    -0.047 A 
ATOM      9  C9  IND d   1       0.535   1.391   2.104  0.00  0.00    -0.096 A 
ATOM     10  HN1 IND d   1       0.104   0.236  -0.706  0.00  0.00     0.298 HD
ENDROOT
TORSDOF 0
ENDMDL
