MODEL 1
REMARK minimizedAffinity 0.364943534
REMARK minimizedRMSD -1
REMARK  0 active torsions:
REMARK  status: ('A' for Active; 'I' for Inactive)
ROOT
ATOM      1  N1  IND d   1       0.481   2.471   2.527  0.00  0.00    -0.196 N 
ATOM      2  C2  IND d   1       0.010   3.399   1.640  0.00  0.00     0.054 A 
ATOM      3  C3  IND d   1       0.129   2.941   0.373  0.00  0.00    -0.031 A 
ATOM      4  C4  IND d   1       0.973   0.660  -0.469  0.00  0.00     0.051 A 
ATOM      5  C5  IND d   1       1.543  -0.505  -0.036  0.00  0.00    -0.031 A 
ATOM      6  C6  IND d   1       1.791  -0.742   1.301  0.00  0.00     0.015 A 
ATOM      7  C7  IND d   1       1.466   0.175   2.259  0.00  0.00    -0.016 A 
ATOM      8  C8  IND d   1       0.893   1.361   1.823  0.00  0.00    -0.047 A 
ATOM      9  C9  IND d   1       0.678   1.626   0.464  0.00  0.00    -0.096 A 
ATOM     10  HN1 IND d   1       0.515   2.566   3.381  0.00  0.00     0.298 HD
ENDROOT
TORSDOF 0
ENDMDL
