MODEL 1
REMARK minimizedAffinity 0.495493859
REMARK minimizedRMSD -1
REMARK  3 active torsions:
REMARK  status: ('A' for Active; 'I' for Inactive)
REMARK    1  A    between atoms: C3'_2  and  C2'_3 
REMARK    2  A    between atoms: C2'_3  and  C1'_4 
REMARK    3  A    between atoms: C1'_4  and  C1_5 
ROOT
ATOM      1  C1  N4B d   1      -0.140  -1.614  -0.748  0.00  0.00    -0.075 A 
ATOM      2  C2  N4B d   1       0.151  -0.455  -1.500  0.00  0.00     0.002 A 
ATOM      3  C3  N4B d   1       1.165   0.383  -1.106  0.00  0.00     0.002 A 
ATOM      4  C4  N4B d   1       1.888   0.093   0.041  0.00  0.00    -0.004 A 
ATOM      5  C5  N4B d   1       1.618  -1.042   0.748  0.00  0.00     0.002 A 
ATOM      6  C6  N4B d   1       0.604  -1.895   0.362  0.00  0.00     0.002 A 
ENDROOT
BRANCH   1   7
ATOM      7  C1' N4B d   1      -1.295  -2.514  -1.090  0.00  0.00     0.057 C 
BRANCH   7   8
ATOM      8  C2' N4B d   1      -0.821  -3.589  -2.064  0.00  0.00     0.009 C 
BRANCH   8   9
ATOM      9  C3' N4B d   1      -0.905  -4.980  -1.459  0.00  0.00     0.004 C 
ATOM     10  C4' N4B d   1      -0.121  -5.998  -2.233  0.00  0.00     0.003 C 
ENDBRANCH   8   9
ENDBRANCH   7   8
ENDBRANCH   1   7
TORSDOF 3
ENDMDL
