MODEL 1
REMARK minimizedAffinity 2.75168109
REMARK minimizedRMSD -1
REMARK  3 active torsions:
REMARK  status: ('A' for Active; 'I' for Inactive)
REMARK    1  A    between atoms: C3'_2  and  C2'_3 
REMARK    2  A    between atoms: C2'_3  and  C1'_4 
REMARK    3  A    between atoms: C1'_4  and  C1_5 
ROOT
ATOM      1  C1  N4B d   1       2.264   2.119  -1.854  0.00  0.00    -0.075 A 
ATOM      2  C2  N4B d   1       2.419   2.983  -0.747  0.00  0.00     0.002 A 
ATOM      3  C3  N4B d   1       1.969   2.599   0.492  0.00  0.00     0.002 A 
ATOM      4  C4  N4B d   1       1.345   1.370   0.645  0.00  0.00    -0.004 A 
ATOM      5  C5  N4B d   1       1.221   0.531  -0.424  0.00  0.00     0.002 A 
ATOM      6  C6  N4B d   1       1.673   0.902  -1.674  0.00  0.00     0.002 A 
ENDROOT
BRANCH   1   7
ATOM      7  C1' N4B d   1       2.663   2.530  -3.245  0.00  0.00     0.057 C 
BRANCH   7   8
ATOM      8  C2' N4B d   1       2.242   1.443  -4.229  0.00  0.00     0.009 C 
BRANCH   8   9
ATOM      9  C3' N4B d   1       3.412   0.945  -5.060  0.00  0.00     0.004 C 
ATOM     10  C4' N4B d   1       4.730   1.108  -4.364  0.00  0.00     0.003 C 
ENDBRANCH   8   9
ENDBRANCH   7   8
ENDBRANCH   1   7
TORSDOF 3
ENDMDL
