MODEL 1
REMARK minimizedAffinity 2.16615129
REMARK minimizedRMSD -1
REMARK  3 active torsions:
REMARK  status: ('A' for Active; 'I' for Inactive)
REMARK    1  A    between atoms: C3'_2  and  C2'_3 
REMARK    2  A    between atoms: C2'_3  and  C1'_4 
REMARK    3  A    between atoms: C1'_4  and  C1_5 
ROOT
ATOM      1  C1  N4B d   1       0.229  -0.619  -0.131  0.00  0.00    -0.075 A 
ATOM      2  C2  N4B d   1      -0.253  -0.035  -1.322  0.00  0.00     0.002 A 
ATOM      3  C3  N4B d   1      -1.605   0.081  -1.531  0.00  0.00     0.002 A 
ATOM      4  C4  N4B d   1      -2.490  -0.395  -0.576  0.00  0.00    -0.004 A 
ATOM      5  C5  N4B d   1      -2.016  -0.935   0.584  0.00  0.00     0.002 A 
ATOM      6  C6  N4B d   1      -0.660  -1.054   0.809  0.00  0.00     0.002 A 
ENDROOT
BRANCH   1   7
ATOM      7  C1' N4B d   1       1.698  -0.845   0.105  0.00  0.00     0.057 C 
BRANCH   7   8
ATOM      8  C2' N4B d   1       2.113  -0.142   1.394  0.00  0.00     0.009 C 
BRANCH   8   9
ATOM      9  C3' N4B d   1       2.199   1.364   1.217  0.00  0.00     0.004 C 
ATOM     10  C4' N4B d   1       1.060   2.092   1.865  0.00  0.00     0.003 C 
ENDBRANCH   8   9
ENDBRANCH   7   8
ENDBRANCH   1   7
TORSDOF 3
ENDMDL
