MODEL 1
REMARK minimizedAffinity 6.61877394
REMARK minimizedRMSD -1
REMARK  3 active torsions:
REMARK  status: ('A' for Active; 'I' for Inactive)
REMARK    1  A    between atoms: C3'_2  and  C2'_3 
REMARK    2  A    between atoms: C2'_3  and  C1'_4 
REMARK    3  A    between atoms: C1'_4  and  C1_5 
ROOT
ATOM      1  C1  N4B d   1       1.139   2.076   1.528  0.00  0.00    -0.075 A 
ATOM      2  C2  N4B d   1       0.630   1.051   0.700  0.00  0.00     0.002 A 
ATOM      3  C3  N4B d   1       1.474   0.087   0.204  0.00  0.00     0.002 A 
ATOM      4  C4  N4B d   1       2.826   0.138   0.506  0.00  0.00    -0.004 A 
ATOM      5  C5  N4B d   1       3.305   1.116   1.327  0.00  0.00     0.002 A 
ATOM      6  C6  N4B d   1       2.469   2.089   1.836  0.00  0.00     0.002 A 
ENDROOT
BRANCH   1   7
ATOM      7  C1' N4B d   1       0.271   3.200   2.024  0.00  0.00     0.057 C 
BRANCH   7   8
ATOM      8  C2' N4B d   1       0.014   4.176   0.879  0.00  0.00     0.009 C 
BRANCH   8   9
ATOM      9  C3' N4B d   1      -1.345   4.845   0.998  0.00  0.00     0.004 C 
ATOM     10  C4' N4B d   1      -1.654   5.741  -0.164  0.00  0.00     0.003 C 
ENDBRANCH   8   9
ENDBRANCH   7   8
ENDBRANCH   1   7
TORSDOF 3
ENDMDL
