MODEL 1
REMARK minimizedAffinity -0.355820626
REMARK minimizedRMSD -1
REMARK  3 active torsions:
REMARK  status: ('A' for Active; 'I' for Inactive)
REMARK    1  A    between atoms: C3'_2  and  C2'_3 
REMARK    2  A    between atoms: C2'_3  and  C1'_4 
REMARK    3  A    between atoms: C1'_4  and  C1_5 
ROOT
ATOM      1  C1  N4B d   1       3.139  -0.382  -2.538  0.00  0.00    -0.075 A 
ATOM      2  C2  N4B d   1       3.176   0.905  -3.118  0.00  0.00     0.002 A 
ATOM      3  C3  N4B d   1       4.258   1.287  -3.873  0.00  0.00     0.002 A 
ATOM      4  C4  N4B d   1       5.318   0.409  -4.046  0.00  0.00    -0.004 A 
ATOM      5  C5  N4B d   1       5.263  -0.841  -3.503  0.00  0.00     0.002 A 
ATOM      6  C6  N4B d   1       4.181  -1.240  -2.745  0.00  0.00     0.002 A 
ENDROOT
BRANCH   1   7
ATOM      7  C1' N4B d   1       2.018  -0.813  -1.634  0.00  0.00     0.057 C 
BRANCH   7   8
ATOM      8  C2' N4B d   1       2.459  -0.661  -0.181  0.00  0.00     0.009 C 
BRANCH   8   9
ATOM      9  C3' N4B d   1       1.363  -0.066   0.686  0.00  0.00     0.004 C 
ATOM     10  C4' N4B d   1       1.785   1.203   1.365  0.00  0.00     0.003 C 
ENDBRANCH   8   9
ENDBRANCH   7   8
ENDBRANCH   1   7
TORSDOF 3
ENDMDL
