MODEL 1
REMARK minimizedAffinity 2.02314615
REMARK minimizedRMSD -1
REMARK  3 active torsions:
REMARK  status: ('A' for Active; 'I' for Inactive)
REMARK    1  A    between atoms: C3'_2  and  C2'_3 
REMARK    2  A    between atoms: C2'_3  and  C1'_4 
REMARK    3  A    between atoms: C1'_4  and  C1_5 
ROOT
ATOM      1  C1  N4B d   1       0.943  -0.024   2.374  0.00  0.00    -0.075 A 
ATOM      2  C2  N4B d   1       1.527   1.141   2.919  0.00  0.00     0.002 A 
ATOM      3  C3  N4B d   1       2.399   1.889   2.166  0.00  0.00     0.002 A 
ATOM      4  C4  N4B d   1       2.716   1.482   0.879  0.00  0.00    -0.004 A 
ATOM      5  C5  N4B d   1       2.128   0.370   0.351  0.00  0.00     0.002 A 
ATOM      6  C6  N4B d   1       1.247  -0.389   1.095  0.00  0.00     0.002 A 
ENDROOT
BRANCH   1   7
ATOM      7  C1' N4B d   1       0.051  -0.920   3.189  0.00  0.00     0.057 C 
BRANCH   7   8
ATOM      8  C2' N4B d   1      -0.894  -0.061   4.024  0.00  0.00     0.009 C 
BRANCH   8   9
ATOM      9  C3' N4B d   1      -1.431  -0.814   5.229  0.00  0.00     0.004 C 
ATOM     10  C4' N4B d   1      -1.762  -2.244   4.920  0.00  0.00     0.003 C 
ENDBRANCH   8   9
ENDBRANCH   7   8
ENDBRANCH   1   7
TORSDOF 3
ENDMDL
