MODEL 1
REMARK minimizedAffinity 17.2481537
REMARK minimizedRMSD -1
REMARK  0 active torsions:
REMARK  status: ('A' for Active; 'I' for Inactive)
ROOT
ATOM      1  C   UNL d   1       2.562   0.371  -1.089  0.00  0.00     0.020 A 
ATOM      2  C1  UNL d   1       2.214   1.651  -1.520  0.00  0.00     0.020 A 
ATOM      3  C2  UNL d   1       2.897   2.764  -1.027  0.00  0.00     0.034 A 
ATOM      4  C3  UNL d   1       3.933   2.601  -0.100  0.00  0.00     0.017 A 
ATOM      5  C4  UNL d   1       4.283   1.316   0.332  0.00  0.00     0.017 A 
ATOM      6  C5  UNL d   1       3.595   0.205  -0.165  0.00  0.00     0.034 A 
ATOM      7 Cl   UNL d   1       5.550   1.035   1.473  0.00  0.00    -0.070 Cl
ATOM      8 Cl1  UNL d   1       4.736   4.022   0.467  0.00  0.00    -0.070 Cl
ENDROOT
TORSDOF 0
ENDMDL
