MODEL 1
REMARK minimizedAffinity 9.81776237
REMARK minimizedRMSD -1
REMARK  0 active torsions:
REMARK  status: ('A' for Active; 'I' for Inactive)
ROOT
ATOM      1  C   UNL d   1      -4.050   2.640   5.968  0.00  0.00     0.020 A 
ATOM      2  C1  UNL d   1      -5.427   2.427   6.000  0.00  0.00     0.020 A 
ATOM      3  C2  UNL d   1      -5.933   1.126   5.999  0.00  0.00     0.034 A 
ATOM      4  C3  UNL d   1      -5.061   0.032   5.966  0.00  0.00     0.017 A 
ATOM      5  C4  UNL d   1      -3.678   0.246   5.934  0.00  0.00     0.017 A 
ATOM      6  C5  UNL d   1      -3.177   1.551   5.935  0.00  0.00     0.034 A 
ATOM      7 Cl   UNL d   1      -2.539  -1.054   5.893  0.00  0.00    -0.070 Cl
ATOM      8 Cl1  UNL d   1      -5.756  -1.550   5.968  0.00  0.00    -0.070 Cl
ENDROOT
TORSDOF 0
ENDMDL
