MODEL 1
REMARK minimizedAffinity 8.19787693
REMARK minimizedRMSD -1
REMARK  0 active torsions:
REMARK  status: ('A' for Active; 'I' for Inactive)
ROOT
ATOM      1  C   UNL d   1       2.553  -0.376  -2.097  0.00  0.00     0.020 A 
ATOM      2  C1  UNL d   1       2.386   0.992  -2.310  0.00  0.00     0.020 A 
ATOM      3  C2  UNL d   1       3.342   1.707  -3.034  0.00  0.00     0.034 A 
ATOM      4  C3  UNL d   1       4.469   1.055  -3.548  0.00  0.00     0.017 A 
ATOM      5  C4  UNL d   1       4.635  -0.318  -3.334  0.00  0.00     0.017 A 
ATOM      6  C5  UNL d   1       3.675  -1.029  -2.608  0.00  0.00     0.034 A 
ATOM      7 Cl   UNL d   1       5.999  -1.192  -3.937  0.00  0.00    -0.070 Cl
ATOM      8 Cl1  UNL d   1       5.611   2.002  -4.434  0.00  0.00    -0.070 Cl
ENDROOT
TORSDOF 0
ENDMDL
