MODEL 1
REMARK minimizedAffinity 12.6005049
REMARK minimizedRMSD -1
REMARK  0 active torsions:
REMARK  status: ('A' for Active; 'I' for Inactive)
ROOT
ATOM      1  C   UNL d   1       3.781   2.129  -0.753  0.00  0.00     0.020 A 
ATOM      2  C1  UNL d   1       3.178   2.244   0.499  0.00  0.00     0.020 A 
ATOM      3  C2  UNL d   1       3.442   3.356   1.301  0.00  0.00     0.034 A 
ATOM      4  C3  UNL d   1       4.311   4.357   0.853  0.00  0.00     0.017 A 
ATOM      5  C4  UNL d   1       4.916   4.241  -0.404  0.00  0.00     0.017 A 
ATOM      6  C5  UNL d   1       4.648   3.125  -1.203  0.00  0.00     0.034 A 
ATOM      7 Cl   UNL d   1       6.000   5.435  -1.025  0.00  0.00    -0.070 Cl
ATOM      8 Cl1  UNL d   1       4.592   5.704   1.898  0.00  0.00    -0.070 Cl
ENDROOT
TORSDOF 0
ENDMDL
