MODEL 1
REMARK minimizedAffinity 14.3529921
REMARK minimizedRMSD -1
REMARK  0 active torsions:
REMARK  status: ('A' for Active; 'I' for Inactive)
ROOT
ATOM      1  C   UNL d   1      -0.668  -4.794   0.644  0.00  0.00     0.020 A 
ATOM      2  C1  UNL d   1      -0.890  -3.419   0.575  0.00  0.00     0.020 A 
ATOM      3  C2  UNL d   1      -1.403  -2.738   1.681  0.00  0.00     0.034 A 
ATOM      4  C3  UNL d   1      -1.696  -3.432   2.861  0.00  0.00     0.017 A 
ATOM      5  C4  UNL d   1      -1.473  -4.812   2.929  0.00  0.00     0.017 A 
ATOM      6  C5  UNL d   1      -0.959  -5.489   1.819  0.00  0.00     0.034 A 
ATOM      7 Cl   UNL d   1      -1.810  -5.736   4.350  0.00  0.00    -0.070 Cl
ATOM      8 Cl1  UNL d   1      -2.328  -2.526   4.189  0.00  0.00    -0.070 Cl
ENDROOT
TORSDOF 0
ENDMDL
