MODEL 1
REMARK minimizedAffinity 9.5840683
REMARK minimizedRMSD -1
REMARK  0 active torsions:
REMARK  status: ('A' for Active; 'I' for Inactive)
ROOT
ATOM      1  C   UNL d   1      -4.009   2.374   5.971  0.00  0.00     0.020 A 
ATOM      2  C1  UNL d   1      -5.371   2.075   5.998  0.00  0.00     0.020 A 
ATOM      3  C2  UNL d   1      -5.799   0.755   5.839  0.00  0.00     0.034 A 
ATOM      4  C3  UNL d   1      -4.865  -0.270   5.651  0.00  0.00     0.017 A 
ATOM      5  C4  UNL d   1      -3.498   0.031   5.624  0.00  0.00     0.017 A 
ATOM      6  C5  UNL d   1      -3.075   1.354   5.785  0.00  0.00     0.034 A 
ATOM      7 Cl   UNL d   1      -2.286  -1.180   5.397  0.00  0.00    -0.070 Cl
ATOM      8 Cl1  UNL d   1      -5.465  -1.879   5.460  0.00  0.00    -0.070 Cl
ENDROOT
TORSDOF 0
ENDMDL
