MODEL 1
REMARK minimizedAffinity 10.6079817
REMARK minimizedRMSD -1
REMARK  0 active torsions:
REMARK  status: ('A' for Active; 'I' for Inactive)
ROOT
ATOM      1  C   UNL d   1      -4.943   1.942   5.986  0.00  0.00     0.020 A 
ATOM      2  C1  UNL d   1      -3.549   1.912   6.000  0.00  0.00     0.020 A 
ATOM      3  C2  UNL d   1      -2.871   0.779   5.546  0.00  0.00     0.034 A 
ATOM      4  C3  UNL d   1      -3.586  -0.328   5.076  0.00  0.00     0.017 A 
ATOM      5  C4  UNL d   1      -4.985  -0.297   5.063  0.00  0.00     0.017 A 
ATOM      6  C5  UNL d   1      -5.659   0.840   5.518  0.00  0.00     0.034 A 
ATOM      7 Cl   UNL d   1      -5.936  -1.625   4.498  0.00  0.00    -0.070 Cl
ATOM      8 Cl1  UNL d   1      -2.682  -1.696   4.530  0.00  0.00    -0.070 Cl
ENDROOT
TORSDOF 0
ENDMDL
