MODEL 1
REMARK minimizedAffinity 11.0003815
REMARK minimizedRMSD -1
REMARK  0 active torsions:
REMARK  status: ('A' for Active; 'I' for Inactive)
ROOT
ATOM      1  C   UNL d   1      -4.141   3.382   5.756  0.00  0.00     0.020 A 
ATOM      2  C1  UNL d   1      -5.493   3.089   5.927  0.00  0.00     0.020 A 
ATOM      3  C2  UNL d   1      -5.916   1.760   6.000  0.00  0.00     0.034 A 
ATOM      4  C3  UNL d   1      -4.985   0.719   5.901  0.00  0.00     0.017 A 
ATOM      5  C4  UNL d   1      -3.628   1.014   5.729  0.00  0.00     0.017 A 
ATOM      6  C5  UNL d   1      -3.210   2.347   5.657  0.00  0.00     0.034 A 
ATOM      7 Cl   UNL d   1      -2.421  -0.216   5.599  0.00  0.00    -0.070 Cl
ATOM      8 Cl1  UNL d   1      -5.579  -0.901   5.999  0.00  0.00    -0.070 Cl
ENDROOT
TORSDOF 0
ENDMDL
