MODEL 1
REMARK minimizedAffinity 2.20796466
REMARK minimizedRMSD -1
REMARK  0 active torsions:
REMARK  status: ('A' for Active; 'I' for Inactive)
ROOT
ATOM      1  C   UNL d   1      -4.110   5.809  -1.439  0.00  0.00     0.020 A 
ATOM      2  C1  UNL d   1      -5.445   6.000  -1.083  0.00  0.00     0.020 A 
ATOM      3  C2  UNL d   1      -5.999   5.265  -0.033  0.00  0.00     0.034 A 
ATOM      4  C3  UNL d   1      -5.219   4.336   0.665  0.00  0.00     0.017 A 
ATOM      5  C4  UNL d   1      -3.879   4.145   0.306  0.00  0.00     0.017 A 
ATOM      6  C5  UNL d   1      -3.329   4.883  -0.746  0.00  0.00     0.034 A 
ATOM      7 Cl   UNL d   1      -2.854   3.016   1.120  0.00  0.00    -0.070 Cl
ATOM      8 Cl1  UNL d   1      -5.969   3.462   1.953  0.00  0.00    -0.070 Cl
ENDROOT
TORSDOF 0
ENDMDL
