MODEL 1
REMARK minimizedAffinity 10.8071661
REMARK minimizedRMSD -1
REMARK  0 active torsions:
REMARK  status: ('A' for Active; 'I' for Inactive)
ROOT
ATOM      1  C   UNL d   1      -3.809  -0.886  -0.313  0.00  0.00     0.020 A 
ATOM      2  C1  UNL d   1      -3.717  -0.252  -1.551  0.00  0.00     0.020 A 
ATOM      3  C2  UNL d   1      -2.608  -0.476  -2.370  0.00  0.00     0.034 A 
ATOM      4  C3  UNL d   1      -1.586  -1.336  -1.952  0.00  0.00     0.017 A 
ATOM      5  C4  UNL d   1      -1.679  -1.972  -0.709  0.00  0.00     0.017 A 
ATOM      6  C5  UNL d   1      -2.792  -1.745   0.107  0.00  0.00     0.034 A 
ATOM      7 Cl   UNL d   1      -0.459  -3.048  -0.124  0.00  0.00    -0.070 Cl
ATOM      8 Cl1  UNL d   1      -0.245  -1.567  -3.016  0.00  0.00    -0.070 Cl
ENDROOT
TORSDOF 0
ENDMDL
