MODEL 1
REMARK minimizedAffinity 16.7820091
REMARK minimizedRMSD -1
REMARK  0 active torsions:
REMARK  status: ('A' for Active; 'I' for Inactive)
ROOT
ATOM      1  C   UNL d   1      -3.291  -1.343   0.804  0.00  0.00     0.020 A 
ATOM      2  C1  UNL d   1      -3.384  -0.563  -0.349  0.00  0.00     0.020 A 
ATOM      3  C2  UNL d   1      -2.495  -0.771  -1.406  0.00  0.00     0.034 A 
ATOM      4  C3  UNL d   1      -1.510  -1.761  -1.313  0.00  0.00     0.017 A 
ATOM      5  C4  UNL d   1      -1.417  -2.542  -0.156  0.00  0.00     0.017 A 
ATOM      6  C5  UNL d   1      -2.309  -2.330   0.900  0.00  0.00     0.034 A 
ATOM      7 Cl   UNL d   1      -0.227  -3.782   0.033  0.00  0.00    -0.070 Cl
ATOM      8 Cl1  UNL d   1      -0.445  -1.963  -2.658  0.00  0.00    -0.070 Cl
ENDROOT
TORSDOF 0
ENDMDL
