MODEL 1
REMARK minimizedAffinity 14.4805126
REMARK minimizedRMSD -1
REMARK  0 active torsions:
REMARK  status: ('A' for Active; 'I' for Inactive)
ROOT
ATOM      1  C   UNL d   1      -1.872  -1.797  -0.614  0.00  0.00     0.020 A 
ATOM      2  C1  UNL d   1      -0.830  -2.143   0.245  0.00  0.00     0.020 A 
ATOM      3  C2  UNL d   1      -1.111  -2.651   1.515  0.00  0.00     0.034 A 
ATOM      4  C3  UNL d   1      -2.438  -2.814   1.930  0.00  0.00     0.017 A 
ATOM      5  C4  UNL d   1      -3.484  -2.466   1.067  0.00  0.00     0.017 A 
ATOM      6  C5  UNL d   1      -3.196  -1.958  -0.203  0.00  0.00     0.034 A 
ATOM      7 Cl   UNL d   1      -5.146  -2.639   1.508  0.00  0.00    -0.070 Cl
ATOM      8 Cl1  UNL d   1      -2.713  -3.448   3.514  0.00  0.00    -0.070 Cl
ENDROOT
TORSDOF 0
ENDMDL
