MODEL 1
REMARK minimizedAffinity 12.3437643
REMARK minimizedRMSD -1
REMARK  0 active torsions:
REMARK  status: ('A' for Active; 'I' for Inactive)
ROOT
ATOM      1  C   UNL d   1      -3.725   2.185   5.794  0.00  0.00     0.020 A 
ATOM      2  C1  UNL d   1      -5.091   1.954   5.956  0.00  0.00     0.020 A 
ATOM      3  C2  UNL d   1      -5.577   0.645   6.000  0.00  0.00     0.034 A 
ATOM      4  C3  UNL d   1      -4.697  -0.437   5.881  0.00  0.00     0.017 A 
ATOM      5  C4  UNL d   1      -3.326  -0.203   5.718  0.00  0.00     0.017 A 
ATOM      6  C5  UNL d   1      -2.845   1.109   5.676  0.00  0.00     0.034 A 
ATOM      7 Cl   UNL d   1      -2.179  -1.487   5.565  0.00  0.00    -0.070 Cl
ATOM      8 Cl1  UNL d   1      -5.367  -2.028   5.944  0.00  0.00    -0.070 Cl
ENDROOT
TORSDOF 0
ENDMDL
