MODEL 1
REMARK minimizedAffinity 11.3985691
REMARK minimizedRMSD -1
REMARK  0 active torsions:
REMARK  status: ('A' for Active; 'I' for Inactive)
ROOT
ATOM      1  C   UNL d   1      -4.002   2.089   5.988  0.00  0.00     0.020 A 
ATOM      2  C1  UNL d   1      -5.391   1.965   6.000  0.00  0.00     0.020 A 
ATOM      3  C2  UNL d   1      -5.987   0.760   5.623  0.00  0.00     0.034 A 
ATOM      4  C3  UNL d   1      -5.195  -0.326   5.234  0.00  0.00     0.017 A 
ATOM      5  C4  UNL d   1      -3.801  -0.201   5.222  0.00  0.00     0.017 A 
ATOM      6  C5  UNL d   1      -3.209   1.008   5.600  0.00  0.00     0.034 A 
ATOM      7 Cl   UNL d   1      -2.758  -1.497   4.754  0.00  0.00    -0.070 Cl
ATOM      8 Cl1  UNL d   1      -6.000  -1.787   4.781  0.00  0.00    -0.070 Cl
ENDROOT
TORSDOF 0
ENDMDL
