MODEL 1
REMARK minimizedAffinity 12.8837194
REMARK minimizedRMSD -1
REMARK  0 active torsions:
REMARK  status: ('A' for Active; 'I' for Inactive)
ROOT
ATOM      1  C   UNL d   1      -5.524   2.606   5.999  0.00  0.00     0.020 A 
ATOM      2  C1  UNL d   1      -4.156   2.868   5.959  0.00  0.00     0.020 A 
ATOM      3  C2  UNL d   1      -3.260   1.853   5.617  0.00  0.00     0.034 A 
ATOM      4  C3  UNL d   1      -3.732   0.571   5.313  0.00  0.00     0.017 A 
ATOM      5  C4  UNL d   1      -5.106   0.309   5.353  0.00  0.00     0.017 A 
ATOM      6  C5  UNL d   1      -5.999   1.329   5.696  0.00  0.00     0.034 A 
ATOM      7 Cl   UNL d   1      -5.764  -1.248   4.991  0.00  0.00    -0.070 Cl
ATOM      8 Cl1  UNL d   1      -2.568  -0.637   4.898  0.00  0.00    -0.070 Cl
ENDROOT
TORSDOF 0
ENDMDL
