MODEL 1
REMARK minimizedAffinity 6.04844856
REMARK minimizedRMSD -1
REMARK  0 active torsions:
REMARK  status: ('A' for Active; 'I' for Inactive)
ROOT
ATOM      1  C   UNL d   1      -2.196  -3.257   3.188  0.00  0.00     0.020 A 
ATOM      2  C1  UNL d   1      -2.464  -1.982   2.693  0.00  0.00     0.020 A 
ATOM      3  C2  UNL d   1      -1.934  -1.584   1.463  0.00  0.00     0.034 A 
ATOM      4  C3  UNL d   1      -1.133  -2.463   0.725  0.00  0.00     0.017 A 
ATOM      5  C4  UNL d   1      -0.865  -3.743   1.222  0.00  0.00     0.017 A 
ATOM      6  C5  UNL d   1      -1.398  -4.136   2.454  0.00  0.00     0.034 A 
ATOM      7 Cl   UNL d   1       0.114  -4.883   0.368  0.00  0.00    -0.070 Cl
ATOM      8 Cl1  UNL d   1      -0.512  -1.905  -0.788  0.00  0.00    -0.070 Cl
ENDROOT
TORSDOF 0
ENDMDL
