MODEL 1
REMARK minimizedAffinity 7.42902184
REMARK minimizedRMSD -1
REMARK  0 active torsions:
REMARK  status: ('A' for Active; 'I' for Inactive)
ROOT
ATOM      1  C   UNL d   1       2.174   0.390  -1.407  0.00  0.00     0.020 A 
ATOM      2  C1  UNL d   1       2.736   0.996  -2.530  0.00  0.00     0.020 A 
ATOM      3  C2  UNL d   1       3.477   2.172  -2.392  0.00  0.00     0.034 A 
ATOM      4  C3  UNL d   1       3.658   2.745  -1.128  0.00  0.00     0.017 A 
ATOM      5  C4  UNL d   1       3.094   2.135  -0.001  0.00  0.00     0.017 A 
ATOM      6  C5  UNL d   1       2.353   0.958  -0.145  0.00  0.00     0.034 A 
ATOM      7 Cl   UNL d   1       3.274   2.783   1.591  0.00  0.00    -0.070 Cl
ATOM      8 Cl1  UNL d   1       4.586   4.199  -1.030  0.00  0.00    -0.070 Cl
ENDROOT
TORSDOF 0
ENDMDL
