MODEL 1
REMARK minimizedAffinity 9.09756947
REMARK minimizedRMSD -1
REMARK  0 active torsions:
REMARK  status: ('A' for Active; 'I' for Inactive)
ROOT
ATOM      1  C   UNL d   1      -2.326  -1.019  -0.056  0.00  0.00     0.020 A 
ATOM      2  C1  UNL d   1      -1.424  -1.645  -0.915  0.00  0.00     0.020 A 
ATOM      3  C2  UNL d   1      -0.882  -2.886  -0.575  0.00  0.00     0.034 A 
ATOM      4  C3  UNL d   1      -1.241  -3.505   0.627  0.00  0.00     0.017 A 
ATOM      5  C4  UNL d   1      -2.147  -2.876   1.489  0.00  0.00     0.017 A 
ATOM      6  C5  UNL d   1      -2.686  -1.633   1.144  0.00  0.00     0.034 A 
ATOM      7 Cl   UNL d   1      -2.638  -3.578   2.990  0.00  0.00    -0.070 Cl
ATOM      8 Cl1  UNL d   1      -0.532  -5.040   0.984  0.00  0.00    -0.070 Cl
ENDROOT
TORSDOF 0
ENDMDL
