MODEL 1
REMARK minimizedAffinity 11.8288965
REMARK minimizedRMSD -1
REMARK  0 active torsions:
REMARK  status: ('A' for Active; 'I' for Inactive)
ROOT
ATOM      1  C   UNL d   1      -0.036  -4.623   0.657  0.00  0.00     0.020 A 
ATOM      2  C1  UNL d   1       0.049  -5.638  -0.295  0.00  0.00     0.020 A 
ATOM      3  C2  UNL d   1       0.030  -5.323  -1.655  0.00  0.00     0.034 A 
ATOM      4  C3  UNL d   1      -0.075  -3.989  -2.067  0.00  0.00     0.017 A 
ATOM      5  C4  UNL d   1      -0.161  -2.971  -1.110  0.00  0.00     0.017 A 
ATOM      6  C5  UNL d   1      -0.141  -3.292   0.250  0.00  0.00     0.034 A 
ATOM      7 Cl   UNL d   1      -0.293  -1.303  -1.542  0.00  0.00    -0.070 Cl
ATOM      8 Cl1  UNL d   1      -0.093  -3.672  -3.765  0.00  0.00    -0.070 Cl
ENDROOT
TORSDOF 0
ENDMDL
