MODEL 1
REMARK minimizedAffinity 5.93454599
REMARK minimizedRMSD -1
REMARK  0 active torsions:
REMARK  status: ('A' for Active; 'I' for Inactive)
ROOT
ATOM      1  C2' OXE d   1      -1.661   0.609  -1.017  0.00  0.00     0.078 C 
ATOM      2  C1' OXE d   1       0.763  -0.734  -0.573  0.00  0.00     0.078 C 
ATOM      3  C1  OXE d   1      -0.168  -0.557   0.600  0.00  0.00    -0.078 A 
ATOM      4  C2  OXE d   1      -1.331   0.142   0.384  0.00  0.00    -0.078 A 
ATOM      5  C3  OXE d   1      -2.250   0.287   1.420  0.00  0.00     0.003 A 
ATOM      6  C4  OXE d   1      -1.932  -0.139   2.715  0.00  0.00    -0.002 A 
ATOM      7  C5  OXE d   1      -0.735  -0.819   2.965  0.00  0.00    -0.002 A 
ATOM      8  C6  OXE d   1       0.137  -1.073   1.912  0.00  0.00     0.003 A 
ENDROOT
TORSDOF 0
ENDMDL
