MODEL 1
REMARK minimizedAffinity 2.55947709
REMARK minimizedRMSD -1
REMARK  0 active torsions:
REMARK  status: ('A' for Active; 'I' for Inactive)
ROOT
ATOM      1  C2' OXE d   1       1.266  -3.532   2.885  0.00  0.00     0.078 C 
ATOM      2  C1' OXE d   1      -1.367  -2.994   3.698  0.00  0.00     0.078 C 
ATOM      3  C1  OXE d   1      -0.805  -2.189   2.553  0.00  0.00    -0.078 A 
ATOM      4  C2  OXE d   1       0.499  -2.426   2.193  0.00  0.00    -0.078 A 
ATOM      5  C3  OXE d   1       1.049  -1.749   1.107  0.00  0.00     0.003 A 
ATOM      6  C4  OXE d   1       0.336  -0.721   0.478  0.00  0.00    -0.002 A 
ATOM      7  C5  OXE d   1      -0.980  -0.436   0.856  0.00  0.00    -0.002 A 
ATOM      8  C6  OXE d   1      -1.579  -1.188   1.861  0.00  0.00     0.003 A 
ENDROOT
TORSDOF 0
ENDMDL
