MODEL 1
REMARK minimizedAffinity -2.32441807
REMARK minimizedRMSD -1
REMARK  0 active torsions:
REMARK  status: ('A' for Active; 'I' for Inactive)
ROOT
ATOM      1  C2' OXE d   1       1.159  -3.726   2.141  0.00  0.00     0.078 C 
ATOM      2  C1' OXE d   1      -1.268  -3.517   3.535  0.00  0.00     0.078 C 
ATOM      3  C1  OXE d   1      -0.919  -2.418   2.563  0.00  0.00    -0.078 A 
ATOM      4  C2  OXE d   1       0.292  -2.505   1.920  0.00  0.00    -0.078 A 
ATOM      5  C3  OXE d   1       0.640  -1.546   0.972  0.00  0.00     0.003 A 
ATOM      6  C4  OXE d   1      -0.163  -0.415   0.781  0.00  0.00    -0.002 A 
ATOM      7  C5  OXE d   1      -1.382  -0.287   1.456  0.00  0.00    -0.002 A 
ATOM      8  C6  OXE d   1      -1.793  -1.299   2.317  0.00  0.00     0.003 A 
ENDROOT
TORSDOF 0
ENDMDL
