MODEL 1
REMARK minimizedAffinity 3.98932171
REMARK minimizedRMSD -1
REMARK  0 active torsions:
REMARK  status: ('A' for Active; 'I' for Inactive)
ROOT
ATOM      1  C2' OXE d   1       1.139  -3.089   1.082  0.00  0.00     0.078 C 
ATOM      2  C1' OXE d   1       0.481  -5.032   2.999  0.00  0.00     0.078 C 
ATOM      3  C1  OXE d   1       1.879  -5.048   2.432  0.00  0.00    -0.078 A 
ATOM      4  C2  OXE d   1       2.178  -4.123   1.460  0.00  0.00    -0.078 A 
ATOM      5  C3  OXE d   1       3.468  -4.058   0.943  0.00  0.00     0.003 A 
ATOM      6  C4  OXE d   1       4.420  -5.024   1.292  0.00  0.00    -0.002 A 
ATOM      7  C5  OXE d   1       4.125  -5.999   2.250  0.00  0.00    -0.002 A 
ATOM      8  C6  OXE d   1       2.875  -5.999   2.860  0.00  0.00     0.003 A 
ENDROOT
TORSDOF 0
ENDMDL
