MODEL 1
REMARK minimizedAffinity -1.89346135
REMARK minimizedRMSD -1
REMARK  0 active torsions:
REMARK  status: ('A' for Active; 'I' for Inactive)
ROOT
ATOM      1  C2' OXE d   1       2.483  -3.712   1.489  0.00  0.00     0.078 C 
ATOM      2  C1' OXE d   1       0.555  -1.775   0.846  0.00  0.00     0.078 C 
ATOM      3  C1  OXE d   1       0.158  -2.872   1.801  0.00  0.00    -0.078 A 
ATOM      4  C2  OXE d   1       1.093  -3.842   2.074  0.00  0.00    -0.078 A 
ATOM      5  C3  OXE d   1       0.797  -4.846   2.992  0.00  0.00     0.003 A 
ATOM      6  C4  OXE d   1      -0.494  -4.965   3.521  0.00  0.00    -0.002 A 
ATOM      7  C5  OXE d   1      -1.473  -4.011   3.225  0.00  0.00    -0.002 A 
ATOM      8  C6  OXE d   1      -1.152  -2.937   2.402  0.00  0.00     0.003 A 
ENDROOT
TORSDOF 0
ENDMDL
