MODEL 1
REMARK minimizedAffinity -1.58864725
REMARK minimizedRMSD -1
REMARK  0 active torsions:
REMARK  status: ('A' for Active; 'I' for Inactive)
ROOT
ATOM      1  C2' OXE d   1       1.226  -4.165   2.702  0.00  0.00     0.078 C 
ATOM      2  C1' OXE d   1      -1.151  -3.572   4.073  0.00  0.00     0.078 C 
ATOM      3  C1  OXE d   1      -0.673  -2.588   3.035  0.00  0.00    -0.078 A 
ATOM      4  C2  OXE d   1       0.515  -2.863   2.402  0.00  0.00    -0.078 A 
ATOM      5  C3  OXE d   1       0.974  -2.015   1.397  0.00  0.00     0.003 A 
ATOM      6  C4  OXE d   1       0.315  -0.808   1.133  0.00  0.00    -0.002 A 
ATOM      7  C5  OXE d   1      -0.875  -0.489   1.794  0.00  0.00    -0.002 A 
ATOM      8  C6  OXE d   1      -1.405  -1.387   2.716  0.00  0.00     0.003 A 
ENDROOT
TORSDOF 0
ENDMDL
