MODEL 1
REMARK minimizedAffinity -0.458770782
REMARK minimizedRMSD -1
REMARK  0 active torsions:
REMARK  status: ('A' for Active; 'I' for Inactive)
ROOT
ATOM      1  C2' OXE d   1       1.171  -3.351   1.448  0.00  0.00     0.078 C 
ATOM      2  C1' OXE d   1      -0.797  -2.383   3.200  0.00  0.00     0.078 C 
ATOM      3  C1  OXE d   1      -0.499  -1.576   1.961  0.00  0.00    -0.078 A 
ATOM      4  C2  OXE d   1       0.499  -2.033   1.133  0.00  0.00    -0.078 A 
ATOM      5  C3  OXE d   1       0.776  -1.355  -0.051  0.00  0.00     0.003 A 
ATOM      6  C4  OXE d   1       0.157  -0.131  -0.329  0.00  0.00    -0.002 A 
ATOM      7  C5  OXE d   1      -0.834   0.373   0.521  0.00  0.00    -0.002 A 
ATOM      8  C6  OXE d   1      -1.202  -0.357   1.646  0.00  0.00     0.003 A 
ENDROOT
TORSDOF 0
ENDMDL
