MODEL 1
REMARK minimizedAffinity -1.18580306
REMARK minimizedRMSD -1
REMARK  0 active torsions:
REMARK  status: ('A' for Active; 'I' for Inactive)
ROOT
ATOM      1  C2' OXE d   1      -2.967   0.388  -2.612  0.00  0.00     0.078 C 
ATOM      2  C1' OXE d   1      -0.970   2.353  -2.438  0.00  0.00     0.078 C 
ATOM      3  C1  OXE d   1      -0.954   1.241  -1.419  0.00  0.00    -0.078 A 
ATOM      4  C2  OXE d   1      -1.962   0.310  -1.483  0.00  0.00    -0.078 A 
ATOM      5  C3  OXE d   1      -1.963  -0.767  -0.601  0.00  0.00     0.003 A 
ATOM      6  C4  OXE d   1      -1.036  -0.826   0.446  0.00  0.00    -0.002 A 
ATOM      7  C5  OXE d   1      -0.024   0.134   0.554  0.00  0.00    -0.002 A 
ATOM      8  C6  OXE d   1       0.056   1.148  -0.394  0.00  0.00     0.003 A 
ENDROOT
TORSDOF 0
ENDMDL
