MODEL 1
REMARK minimizedAffinity 2.30422711
REMARK minimizedRMSD -1
REMARK  0 active torsions:
REMARK  status: ('A' for Active; 'I' for Inactive)
ROOT
ATOM      1  C2' OXE d   1      -0.908   0.037   0.690  0.00  0.00     0.078 C 
ATOM      2  C1' OXE d   1       1.028  -0.852  -1.138  0.00  0.00     0.078 C 
ATOM      3  C1  OXE d   1       0.934  -1.563   0.189  0.00  0.00    -0.078 A 
ATOM      4  C2  OXE d   1       0.015  -1.092   1.095  0.00  0.00    -0.078 A 
ATOM      5  C3  OXE d   1      -0.151  -1.746   2.312  0.00  0.00     0.003 A 
ATOM      6  C4  OXE d   1       0.713  -2.783   2.683  0.00  0.00    -0.002 A 
ATOM      7  C5  OXE d   1       1.682  -3.253   1.791  0.00  0.00    -0.002 A 
ATOM      8  C6  OXE d   1       1.777  -2.683   0.526  0.00  0.00     0.003 A 
ENDROOT
TORSDOF 0
ENDMDL
