MODEL 1
REMARK minimizedAffinity 0.300294906
REMARK minimizedRMSD -1
REMARK  0 active torsions:
REMARK  status: ('A' for Active; 'I' for Inactive)
ROOT
ATOM      1  C2' OXE d   1       2.217   2.611  -2.875  0.00  0.00     0.078 C 
ATOM      2  C1' OXE d   1      -0.440   3.490  -2.663  0.00  0.00     0.078 C 
ATOM      3  C1  OXE d   1      -0.071   2.195  -1.984  0.00  0.00    -0.078 A 
ATOM      4  C2  OXE d   1       1.220   1.749  -2.132  0.00  0.00    -0.078 A 
ATOM      5  C3  OXE d   1       1.627   0.588  -1.481  0.00  0.00     0.003 A 
ATOM      6  C4  OXE d   1       0.696  -0.209  -0.804  0.00  0.00    -0.002 A 
ATOM      7  C5  OXE d   1      -0.633   0.207  -0.675  0.00  0.00    -0.002 A 
ATOM      8  C6  OXE d   1      -1.023   1.425  -1.221  0.00  0.00     0.003 A 
ENDROOT
TORSDOF 0
ENDMDL
