MODEL 1
REMARK minimizedAffinity 2.6919117
REMARK minimizedRMSD -1
REMARK  0 active torsions:
REMARK  status: ('A' for Active; 'I' for Inactive)
ROOT
ATOM      1  C   UNL d   1      -1.610  -0.178   1.390  0.00  0.00     0.124 A 
ATOM      2  C1  UNL d   1      -1.350   0.057   0.047  0.00  0.00     0.062 A 
ATOM      3  C2  UNL d   1      -0.134  -0.327  -0.509  0.00  0.00     0.162 A 
ATOM      4  C3  UNL d   1       0.834  -0.952   0.279  0.00  0.00    -0.034 A 
ATOM      5  C4  UNL d   1       0.566  -1.184   1.629  0.00  0.00     0.162 A 
ATOM      6  C5  UNL d   1      -0.652  -0.798   2.180  0.00  0.00     0.062 A 
ATOM      7  F   UNL d   1      -0.901  -1.025   3.478  0.00  0.00    -0.097 F 
ATOM      8  F1  UNL d   1       1.474  -1.782   2.415  0.00  0.00    -0.096 F 
ATOM      9  I   UNL d   1       2.655  -1.528  -0.548  0.00  0.00    -0.060 I 
ATOM     10  F2  UNL d   1       0.090  -0.088  -1.809  0.00  0.00    -0.096 F 
ATOM     11  F3  UNL d   1      -2.274   0.657  -0.718  0.00  0.00    -0.097 F 
ATOM     12  F4  UNL d   1      -2.781   0.194   1.922  0.00  0.00    -0.092 F 
ENDROOT
TORSDOF 0
ENDMDL
