MODEL 1
REMARK minimizedAffinity -1.51354897
REMARK minimizedRMSD -1
REMARK  0 active torsions:
REMARK  status: ('A' for Active; 'I' for Inactive)
ROOT
ATOM      1  C   UNL d   1       0.874  -1.282   1.282  0.00  0.00     0.124 A 
ATOM      2  C1  UNL d   1      -0.030  -0.317   1.702  0.00  0.00     0.062 A 
ATOM      3  C2  UNL d   1      -0.521   0.623   0.799  0.00  0.00     0.162 A 
ATOM      4  C3  UNL d   1      -0.108   0.602  -0.533  0.00  0.00    -0.034 A 
ATOM      5  C4  UNL d   1       0.803  -0.371  -0.948  0.00  0.00     0.162 A 
ATOM      6  C5  UNL d   1       1.290  -1.308  -0.042  0.00  0.00     0.062 A 
ATOM      7  F   UNL d   1       2.164  -2.240  -0.450  0.00  0.00    -0.097 F 
ATOM      8  F1  UNL d   1       1.221  -0.421  -2.221  0.00  0.00    -0.096 F 
ATOM      9  I   UNL d   1      -0.839   2.005  -1.885  0.00  0.00    -0.060 I 
ATOM     10  F2  UNL d   1      -1.394   1.544   1.233  0.00  0.00    -0.096 F 
ATOM     11  F3  UNL d   1      -0.433  -0.288   2.980  0.00  0.00    -0.097 F 
ATOM     12  F4  UNL d   1       1.345  -2.184   2.152  0.00  0.00    -0.092 F 
ENDROOT
TORSDOF 0
ENDMDL
