MODEL 1
REMARK minimizedAffinity 3.16325879
REMARK minimizedRMSD -1
REMARK  0 active torsions:
REMARK  status: ('A' for Active; 'I' for Inactive)
ROOT
ATOM      1  C   UNL d   1      -0.854   2.181  -2.100  0.00  0.00     0.124 A 
ATOM      2  C1  UNL d   1      -1.693   1.119  -1.793  0.00  0.00     0.062 A 
ATOM      3  C2  UNL d   1      -1.394   0.276  -0.726  0.00  0.00     0.162 A 
ATOM      4  C3  UNL d   1      -0.250   0.493   0.043  0.00  0.00    -0.034 A 
ATOM      5  C4  UNL d   1       0.589   1.563  -0.273  0.00  0.00     0.162 A 
ATOM      6  C5  UNL d   1       0.286   2.402  -1.340  0.00  0.00     0.062 A 
ATOM      7  F   UNL d   1       1.098   3.428  -1.635  0.00  0.00    -0.097 F 
ATOM      8  F1  UNL d   1       1.697   1.800   0.446  0.00  0.00    -0.096 F 
ATOM      9  I   UNL d   1       0.200  -0.765   1.638  0.00  0.00    -0.060 I 
ATOM     10  F2  UNL d   1      -2.222  -0.742  -0.453  0.00  0.00    -0.096 F 
ATOM     11  F3  UNL d   1      -2.794   0.903  -2.526  0.00  0.00    -0.097 F 
ATOM     12  F4  UNL d   1      -1.143   2.990  -3.127  0.00  0.00    -0.092 F 
ENDROOT
TORSDOF 0
ENDMDL
