MODEL 1
REMARK minimizedAffinity -0.51710391
REMARK minimizedRMSD -1
REMARK  0 active torsions:
REMARK  status: ('A' for Active; 'I' for Inactive)
ROOT
ATOM      1  C   UNL d   1       0.930  -1.866   1.549  0.00  0.00     0.124 A 
ATOM      2  C1  UNL d   1       1.395  -1.856   0.241  0.00  0.00     0.062 A 
ATOM      3  C2  UNL d   1       0.892  -0.935  -0.673  0.00  0.00     0.162 A 
ATOM      4  C3  UNL d   1      -0.080  -0.014  -0.283  0.00  0.00    -0.034 A 
ATOM      5  C4  UNL d   1      -0.543  -0.031   1.034  0.00  0.00     0.162 A 
ATOM      6  C5  UNL d   1      -0.038  -0.954   1.944  0.00  0.00     0.062 A 
ATOM      7  F   UNL d   1      -0.488  -0.962   3.207  0.00  0.00    -0.097 F 
ATOM      8  F1  UNL d   1      -1.478   0.840   1.443  0.00  0.00    -0.096 F 
ATOM      9  I   UNL d   1      -0.834   1.365  -1.647  0.00  0.00    -0.060 I 
ATOM     10  F2  UNL d   1       1.360  -0.948  -1.931  0.00  0.00    -0.096 F 
ATOM     11  F3  UNL d   1       2.330  -2.737  -0.144  0.00  0.00    -0.097 F 
ATOM     12  F4  UNL d   1       1.415  -2.754   2.426  0.00  0.00    -0.092 F 
ENDROOT
TORSDOF 0
ENDMDL
