MODEL 1
REMARK minimizedAffinity 0.871649265
REMARK minimizedRMSD -1
REMARK  0 active torsions:
REMARK  status: ('A' for Active; 'I' for Inactive)
ROOT
ATOM      1  C   UNL d   1       0.958  -1.890   1.551  0.00  0.00     0.124 A 
ATOM      2  C1  UNL d   1      -0.028  -0.994   1.942  0.00  0.00     0.062 A 
ATOM      3  C2  UNL d   1      -0.599  -0.131   1.011  0.00  0.00     0.162 A 
ATOM      4  C3  UNL d   1      -0.187  -0.161  -0.322  0.00  0.00    -0.034 A 
ATOM      5  C4  UNL d   1       0.806  -1.064  -0.707  0.00  0.00     0.162 A 
ATOM      6  C5  UNL d   1       1.373  -1.924   0.227  0.00  0.00     0.062 A 
ATOM      7  F   UNL d   1       2.325  -2.789  -0.152  0.00  0.00    -0.097 F 
ATOM      8  F1  UNL d   1       1.225  -1.119  -1.980  0.00  0.00    -0.096 F 
ATOM      9  I   UNL d   1      -1.038   1.127  -1.717  0.00  0.00    -0.060 I 
ATOM     10  F2  UNL d   1      -1.549   0.724   1.416  0.00  0.00    -0.096 F 
ATOM     11  F3  UNL d   1      -0.431  -0.958   3.220  0.00  0.00    -0.097 F 
ATOM     12  F4  UNL d   1       1.506  -2.718   2.449  0.00  0.00    -0.092 F 
ENDROOT
TORSDOF 0
ENDMDL
