MODEL 1
REMARK minimizedAffinity 1.56341374
REMARK minimizedRMSD -1
REMARK  0 active torsions:
REMARK  status: ('A' for Active; 'I' for Inactive)
ROOT
ATOM      1  C   UNL d   1       1.183  -1.724   1.495  0.00  0.00     0.124 A 
ATOM      2  C1  UNL d   1       0.091  -0.956   1.875  0.00  0.00     0.062 A 
ATOM      3  C2  UNL d   1      -0.565  -0.161   0.940  0.00  0.00     0.162 A 
ATOM      4  C3  UNL d   1      -0.132  -0.130  -0.386  0.00  0.00    -0.034 A 
ATOM      5  C4  UNL d   1       0.968  -0.904  -0.760  0.00  0.00     0.162 A 
ATOM      6  C5  UNL d   1       1.620  -1.697   0.178  0.00  0.00     0.062 A 
ATOM      7  F   UNL d   1       2.675  -2.438  -0.191  0.00  0.00    -0.097 F 
ATOM      8  F1  UNL d   1       1.411  -0.897  -2.026  0.00  0.00    -0.096 F 
ATOM      9  I   UNL d   1      -1.110   1.058  -1.787  0.00  0.00    -0.060 I 
ATOM     10  F2  UNL d   1      -1.618   0.570   1.335  0.00  0.00    -0.096 F 
ATOM     11  F3  UNL d   1      -0.333  -0.980   3.147  0.00  0.00    -0.097 F 
ATOM     12  F4  UNL d   1       1.813  -2.487   2.397  0.00  0.00    -0.092 F 
ENDROOT
TORSDOF 0
ENDMDL
