MODEL 1
REMARK minimizedAffinity 2.57153702
REMARK minimizedRMSD -1
REMARK  0 active torsions:
REMARK  status: ('A' for Active; 'I' for Inactive)
ROOT
ATOM      1  C   UNL d   1       1.128  -1.942   1.732  0.00  0.00     0.124 A 
ATOM      2  C1  UNL d   1       0.059  -1.148   2.125  0.00  0.00     0.062 A 
ATOM      3  C2  UNL d   1      -0.518  -0.256   1.225  0.00  0.00     0.162 A 
ATOM      4  C3  UNL d   1      -0.027  -0.153  -0.076  0.00  0.00    -0.034 A 
ATOM      5  C4  UNL d   1       1.049  -0.953  -0.463  0.00  0.00     0.162 A 
ATOM      6  C5  UNL d   1       1.622  -1.844   0.439  0.00  0.00     0.062 A 
ATOM      7  F   UNL d   1       2.654  -2.610   0.058  0.00  0.00    -0.097 F 
ATOM      8  F1  UNL d   1       1.546  -0.880  -1.707  0.00  0.00    -0.096 F 
ATOM      9  I   UNL d   1      -0.886   1.181  -1.424  0.00  0.00    -0.060 I 
ATOM     10  F2  UNL d   1      -1.549   0.499   1.632  0.00  0.00    -0.096 F 
ATOM     11  F3  UNL d   1      -0.420  -1.240   3.374  0.00  0.00    -0.097 F 
ATOM     12  F4  UNL d   1       1.681  -2.799   2.600  0.00  0.00    -0.092 F 
ENDROOT
TORSDOF 0
ENDMDL
