MODEL 1
REMARK minimizedAffinity 0.104505092
REMARK minimizedRMSD -1
REMARK  0 active torsions:
REMARK  status: ('A' for Active; 'I' for Inactive)
ROOT
ATOM      1  C   UNL d   1       0.593  -1.410   1.380  0.00  0.00     0.124 A 
ATOM      2  C1  UNL d   1       0.948  -1.337   0.040  0.00  0.00     0.062 A 
ATOM      3  C2  UNL d   1       0.288  -0.456  -0.812  0.00  0.00     0.162 A 
ATOM      4  C3  UNL d   1      -0.734   0.359  -0.327  0.00  0.00    -0.034 A 
ATOM      5  C4  UNL d   1      -1.087   0.279   1.021  0.00  0.00     0.162 A 
ATOM      6  C5  UNL d   1      -0.424  -0.603   1.869  0.00  0.00     0.062 A 
ATOM      7  F   UNL d   1      -0.770  -0.673   3.163  0.00  0.00    -0.097 F 
ATOM      8  F1  UNL d   1      -2.066   1.048   1.521  0.00  0.00    -0.096 F 
ATOM      9  I   UNL d   1      -1.724   1.677  -1.598  0.00  0.00    -0.060 I 
ATOM     10  F2  UNL d   1       0.653  -0.406  -2.102  0.00  0.00    -0.096 F 
ATOM     11  F3  UNL d   1       1.930  -2.116  -0.435  0.00  0.00    -0.097 F 
ATOM     12  F4  UNL d   1       1.229  -2.259   2.197  0.00  0.00    -0.092 F 
ENDROOT
TORSDOF 0
ENDMDL
