MODEL 1
REMARK minimizedAffinity 0.212691173
REMARK minimizedRMSD -1
REMARK  0 active torsions:
REMARK  status: ('A' for Active; 'I' for Inactive)
ROOT
ATOM      1  C   UNL d   1      -1.177   0.172   0.939  0.00  0.00     0.124 A 
ATOM      2  C1  UNL d   1      -0.703  -0.558   2.021  0.00  0.00     0.062 A 
ATOM      3  C2  UNL d   1       0.388  -1.409   1.866  0.00  0.00     0.162 A 
ATOM      4  C3  UNL d   1       1.012  -1.535   0.626  0.00  0.00    -0.034 A 
ATOM      5  C4  UNL d   1       0.529  -0.799  -0.458  0.00  0.00     0.162 A 
ATOM      6  C5  UNL d   1      -0.561   0.051  -0.298  0.00  0.00     0.062 A 
ATOM      7  F   UNL d   1      -1.018   0.755  -1.344  0.00  0.00    -0.097 F 
ATOM      8  F1  UNL d   1       1.106  -0.897  -1.665  0.00  0.00    -0.096 F 
ATOM      9  I   UNL d   1       2.642  -2.808   0.391  0.00  0.00    -0.060 I 
ATOM     10  F2  UNL d   1       0.825  -2.102   2.929  0.00  0.00    -0.096 F 
ATOM     11  F3  UNL d   1      -1.296  -0.443   3.217  0.00  0.00    -0.097 F 
ATOM     12  F4  UNL d   1      -2.226   0.990   1.090  0.00  0.00    -0.092 F 
ENDROOT
TORSDOF 0
ENDMDL
