MODEL 1
REMARK minimizedAffinity -1.53247702
REMARK minimizedRMSD -1
REMARK  0 active torsions:
REMARK  status: ('A' for Active; 'I' for Inactive)
ROOT
ATOM      1  C   UNL d   1      -1.031  -0.145   0.707  0.00  0.00     0.124 A 
ATOM      2  C1  UNL d   1      -0.679  -0.498  -0.588  0.00  0.00     0.062 A 
ATOM      3  C2  UNL d   1       0.452  -1.274  -0.819  0.00  0.00     0.162 A 
ATOM      4  C3  UNL d   1       1.240  -1.705   0.248  0.00  0.00    -0.034 A 
ATOM      5  C4  UNL d   1       0.880  -1.346   1.548  0.00  0.00     0.162 A 
ATOM      6  C5  UNL d   1      -0.252  -0.569   1.774  0.00  0.00     0.062 A 
ATOM      7  F   UNL d   1      -0.591  -0.229   3.026  0.00  0.00    -0.097 F 
ATOM      8  F1  UNL d   1       1.615  -1.743   2.598  0.00  0.00    -0.096 F 
ATOM      9  I   UNL d   1       2.933  -2.867  -0.093  0.00  0.00    -0.060 I 
ATOM     10  F2  UNL d   1       0.769  -1.600  -2.081  0.00  0.00    -0.096 F 
ATOM     11  F3  UNL d   1      -1.430  -0.088  -1.621  0.00  0.00    -0.097 F 
ATOM     12  F4  UNL d   1      -2.120   0.603   0.926  0.00  0.00    -0.092 F 
ENDROOT
TORSDOF 0
ENDMDL
