MODEL 1
REMARK minimizedAffinity 0.548514128
REMARK minimizedRMSD -1
REMARK  0 active torsions:
REMARK  status: ('A' for Active; 'I' for Inactive)
ROOT
ATOM      1  C   UNL d   1       0.948  -1.610   1.222  0.00  0.00     0.124 A 
ATOM      2  C1  UNL d   1      -0.029  -0.708   1.618  0.00  0.00     0.062 A 
ATOM      3  C2  UNL d   1      -0.506   0.245   0.722  0.00  0.00     0.162 A 
ATOM      4  C3  UNL d   1      -0.006   0.299  -0.580  0.00  0.00    -0.034 A 
ATOM      5  C4  UNL d   1       0.977  -0.612  -0.970  0.00  0.00     0.162 A 
ATOM      6  C5  UNL d   1       1.450  -1.562  -0.070  0.00  0.00     0.062 A 
ATOM      7  F   UNL d   1       2.395  -2.433  -0.454  0.00  0.00    -0.097 F 
ATOM      8  F1  UNL d   1       1.479  -0.588  -2.213  0.00  0.00    -0.096 F 
ATOM      9  I   UNL d   1      -0.717   1.721  -1.923  0.00  0.00    -0.060 I 
ATOM     10  F2  UNL d   1      -1.451   1.104   1.131  0.00  0.00    -0.096 F 
ATOM     11  F3  UNL d   1      -0.515  -0.752   2.867  0.00  0.00    -0.097 F 
ATOM     12  F4  UNL d   1       1.406  -2.525   2.087  0.00  0.00    -0.092 F 
ENDROOT
TORSDOF 0
ENDMDL
