MODEL 1
REMARK minimizedAffinity 1.56109059
REMARK minimizedRMSD -1
REMARK  0 active torsions:
REMARK  status: ('A' for Active; 'I' for Inactive)
ROOT
ATOM      1  C   UNL d   1       1.275  -2.159   1.651  0.00  0.00     0.124 A 
ATOM      2  C1  UNL d   1       0.167  -1.384   1.964  0.00  0.00     0.062 A 
ATOM      3  C2  UNL d   1      -0.414  -0.570   0.997  0.00  0.00     0.162 A 
ATOM      4  C3  UNL d   1       0.111  -0.527  -0.295  0.00  0.00    -0.034 A 
ATOM      5  C4  UNL d   1       1.226  -1.309  -0.602  0.00  0.00     0.162 A 
ATOM      6  C5  UNL d   1       1.803  -2.121   0.369  0.00  0.00     0.062 A 
ATOM      7  F   UNL d   1       2.874  -2.869   0.064  0.00  0.00    -0.097 F 
ATOM      8  F1  UNL d   1       1.757  -1.292  -1.834  0.00  0.00    -0.096 F 
ATOM      9  I   UNL d   1      -0.754   0.690  -1.745  0.00  0.00    -0.060 I 
ATOM     10  F2  UNL d   1      -1.484   0.169   1.327  0.00  0.00    -0.096 F 
ATOM     11  F3  UNL d   1      -0.345  -1.419   3.203  0.00  0.00    -0.097 F 
ATOM     12  F4  UNL d   1       1.832  -2.941   2.585  0.00  0.00    -0.092 F 
ENDROOT
TORSDOF 0
ENDMDL
