MODEL 1
REMARK minimizedAffinity -2.25404334
REMARK minimizedRMSD -1
REMARK  0 active torsions:
REMARK  status: ('A' for Active; 'I' for Inactive)
ROOT
ATOM      1  C1  BNZ d   1       3.075   3.435   0.546  0.00  0.00     0.000 A 
ATOM      2  C2  BNZ d   1       2.740   2.312  -0.162  0.00  0.00     0.000 A 
ATOM      3  C3  BNZ d   1       1.935   1.353   0.386  0.00  0.00     0.000 A 
ATOM      4  C4  BNZ d   1       1.501   1.498   1.655  0.00  0.00     0.000 A 
ATOM      5  C5  BNZ d   1       1.838   2.620   2.385  0.00  0.00     0.000 A 
ATOM      6  C6  BNZ d   1       2.615   3.602   1.816  0.00  0.00     0.000 A 
ENDROOT
TORSDOF 0
ENDMDL
