MODEL 1
REMARK minimizedAffinity -3.49983001
REMARK minimizedRMSD -1
REMARK  0 active torsions:
REMARK  status: ('A' for Active; 'I' for Inactive)
ROOT
ATOM      1  C1  BNZ d   1      -0.632  -0.080  -0.348  0.00  0.00     0.000 A 
ATOM      2  C2  BNZ d   1      -0.028  -0.670   0.731  0.00  0.00     0.000 A 
ATOM      3  C3  BNZ d   1      -0.682  -1.618   1.467  0.00  0.00     0.000 A 
ATOM      4  C4  BNZ d   1      -1.952  -1.945   1.149  0.00  0.00     0.000 A 
ATOM      5  C5  BNZ d   1      -2.577  -1.352   0.070  0.00  0.00     0.000 A 
ATOM      6  C6  BNZ d   1      -1.902  -0.426  -0.692  0.00  0.00     0.000 A 
ENDROOT
TORSDOF 0
ENDMDL
