MODEL 1
REMARK minimizedAffinity -0.875367105
REMARK minimizedRMSD -1
REMARK  0 active torsions:
REMARK  status: ('A' for Active; 'I' for Inactive)
ROOT
ATOM      1  C1  BNZ d   1       3.637   3.474   0.027  0.00  0.00     0.000 A 
ATOM      2  C2  BNZ d   1       3.351   3.961   1.274  0.00  0.00     0.000 A 
ATOM      3  C3  BNZ d   1       2.643   3.212   2.173  0.00  0.00     0.000 A 
ATOM      4  C4  BNZ d   1       2.190   1.995   1.810  0.00  0.00     0.000 A 
ATOM      5  C5  BNZ d   1       2.462   1.494   0.552  0.00  0.00     0.000 A 
ATOM      6  C6  BNZ d   1       3.207   2.235  -0.336  0.00  0.00     0.000 A 
ENDROOT
TORSDOF 0
ENDMDL
