MODEL 1
REMARK minimizedAffinity -0.523633122
REMARK minimizedRMSD -1
REMARK  0 active torsions:
REMARK  status: ('A' for Active; 'I' for Inactive)
ROOT
ATOM      1  C1  BNZ d   1       0.639  -1.313   1.826  0.00  0.00     0.000 A 
ATOM      2  C2  BNZ d   1       1.453  -0.502   1.081  0.00  0.00     0.000 A 
ATOM      3  C3  BNZ d   1       0.966   0.175  -0.002  0.00  0.00     0.000 A 
ATOM      4  C4  BNZ d   1      -0.324   0.009  -0.362  0.00  0.00     0.000 A 
ATOM      5  C5  BNZ d   1      -1.155  -0.812   0.374  0.00  0.00     0.000 A 
ATOM      6  C6  BNZ d   1      -0.670  -1.461   1.486  0.00  0.00     0.000 A 
ENDROOT
TORSDOF 0
ENDMDL
