MODEL 1
REMARK minimizedAffinity -0.115963399
REMARK minimizedRMSD -1
REMARK  0 active torsions:
REMARK  status: ('A' for Active; 'I' for Inactive)
ROOT
ATOM      1  C1  BNZ d   1       1.592   1.025   1.916  0.00  0.00     0.000 A 
ATOM      2  C2  BNZ d   1       2.408   1.954   2.506  0.00  0.00     0.000 A 
ATOM      3  C3  BNZ d   1       3.138   2.826   1.748  0.00  0.00     0.000 A 
ATOM      4  C4  BNZ d   1       3.083   2.743   0.403  0.00  0.00     0.000 A 
ATOM      5  C5  BNZ d   1       2.273   1.805  -0.206  0.00  0.00     0.000 A 
ATOM      6  C6  BNZ d   1       1.510   0.955   0.560  0.00  0.00     0.000 A 
ENDROOT
TORSDOF 0
ENDMDL
