MODEL 1
REMARK minimizedAffinity -3.24093771
REMARK minimizedRMSD -1
REMARK  0 active torsions:
REMARK  status: ('A' for Active; 'I' for Inactive)
ROOT
ATOM      1  C1  BNZ d   1       3.051   1.530   3.103  0.00  0.00     0.000 A 
ATOM      2  C2  BNZ d   1       2.991   1.017   1.835  0.00  0.00     0.000 A 
ATOM      3  C3  BNZ d   1       2.750   1.828   0.762  0.00  0.00     0.000 A 
ATOM      4  C4  BNZ d   1       2.529   3.144   0.962  0.00  0.00     0.000 A 
ATOM      5  C5  BNZ d   1       2.577   3.675   2.236  0.00  0.00     0.000 A 
ATOM      6  C6  BNZ d   1       2.858   2.862   3.309  0.00  0.00     0.000 A 
ENDROOT
TORSDOF 0
ENDMDL
