MODEL 1
REMARK minimizedAffinity -4.2432332
REMARK minimizedRMSD -1
REMARK  0 active torsions:
REMARK  status: ('A' for Active; 'I' for Inactive)
ROOT
ATOM      1  C1  BNZ d   1       1.357   2.631   1.092  0.00  0.00     0.000 A 
ATOM      2  C2  BNZ d   1       0.091   2.247   0.736  0.00  0.00     0.000 A 
ATOM      3  C3  BNZ d   1      -0.260   0.926   0.715  0.00  0.00     0.000 A 
ATOM      4  C4  BNZ d   1       0.664  -0.010   1.011  0.00  0.00     0.000 A 
ATOM      5  C5  BNZ d   1       1.947   0.360   1.363  0.00  0.00     0.000 A 
ATOM      6  C6  BNZ d   1       2.286   1.693   1.420  0.00  0.00     0.000 A 
ENDROOT
TORSDOF 0
ENDMDL
