MODEL 1
REMARK minimizedAffinity -2.37072325
REMARK minimizedRMSD -1
REMARK  0 active torsions:
REMARK  status: ('A' for Active; 'I' for Inactive)
ROOT
ATOM      1  C1  BNZ d   1      -1.067  -1.500   1.722  0.00  0.00     0.000 A 
ATOM      2  C2  BNZ d   1       0.291  -1.508   1.898  0.00  0.00     0.000 A 
ATOM      3  C3  BNZ d   1       1.105  -0.760   1.094  0.00  0.00     0.000 A 
ATOM      4  C4  BNZ d   1       0.565  -0.038   0.091  0.00  0.00     0.000 A 
ATOM      5  C5  BNZ d   1      -0.802  -0.027  -0.105  0.00  0.00     0.000 A 
ATOM      6  C6  BNZ d   1      -1.621  -0.750   0.731  0.00  0.00     0.000 A 
ENDROOT
TORSDOF 0
ENDMDL
