MODEL 1
REMARK minimizedAffinity -4.75948048
REMARK minimizedRMSD -1
REMARK  0 active torsions:
REMARK  status: ('A' for Active; 'I' for Inactive)
ROOT
ATOM      1  C1  BNZ d   1       3.156   2.447   1.003  0.00  0.00     0.000 A 
ATOM      2  C2  BNZ d   1       3.530   2.788  -0.269  0.00  0.00     0.000 A 
ATOM      3  C3  BNZ d   1       3.873   4.074  -0.577  0.00  0.00     0.000 A 
ATOM      4  C4  BNZ d   1       3.804   5.026   0.376  0.00  0.00     0.000 A 
ATOM      5  C5  BNZ d   1       3.419   4.700   1.662  0.00  0.00     0.000 A 
ATOM      6  C6  BNZ d   1       3.112   3.396   1.978  0.00  0.00     0.000 A 
ENDROOT
TORSDOF 0
ENDMDL
