MODEL 1
REMARK minimizedAffinity -4.52974701
REMARK minimizedRMSD -1
REMARK  0 active torsions:
REMARK  status: ('A' for Active; 'I' for Inactive)
ROOT
ATOM      1  C1  BNZ d   1      -0.800  -0.100  -1.069  0.00  0.00     0.000 A 
ATOM      2  C2  BNZ d   1      -2.084  -0.498  -1.329  0.00  0.00     0.000 A 
ATOM      3  C3  BNZ d   1      -2.904  -0.921  -0.320  0.00  0.00     0.000 A 
ATOM      4  C4  BNZ d   1      -2.426  -0.985   0.939  0.00  0.00     0.000 A 
ATOM      5  C5  BNZ d   1      -1.131  -0.596   1.216  0.00  0.00     0.000 A 
ATOM      6  C6  BNZ d   1      -0.321  -0.134   0.205  0.00  0.00     0.000 A 
ENDROOT
TORSDOF 0
ENDMDL
