MODEL 1
REMARK minimizedAffinity -2.32676077
REMARK minimizedRMSD -1
REMARK  0 active torsions:
REMARK  status: ('A' for Active; 'I' for Inactive)
ROOT
ATOM      1  C1  BNZ d   1       2.928  -0.501  -2.953  0.00  0.00     0.000 A 
ATOM      2  C2  BNZ d   1       2.916  -0.557  -4.321  0.00  0.00     0.000 A 
ATOM      3  C3  BNZ d   1       1.813  -0.168  -5.028  0.00  0.00     0.000 A 
ATOM      4  C4  BNZ d   1       0.710   0.239  -4.366  0.00  0.00     0.000 A 
ATOM      5  C5  BNZ d   1       0.704   0.293  -2.986  0.00  0.00     0.000 A 
ATOM      6  C6  BNZ d   1       1.829  -0.063  -2.280  0.00  0.00     0.000 A 
ENDROOT
TORSDOF 0
ENDMDL
