MODEL 1
REMARK minimizedAffinity -3.06028247
REMARK minimizedRMSD -1
REMARK  0 active torsions:
REMARK  status: ('A' for Active; 'I' for Inactive)
ROOT
ATOM      1  C1  BNZ d   1      -0.703  -1.228   0.728  0.00  0.00     0.000 A 
ATOM      2  C2  BNZ d   1      -1.894  -1.878   0.540  0.00  0.00     0.000 A 
ATOM      3  C3  BNZ d   1      -2.759  -1.484  -0.442  0.00  0.00     0.000 A 
ATOM      4  C4  BNZ d   1      -2.451  -0.417  -1.208  0.00  0.00     0.000 A 
ATOM      5  C5  BNZ d   1      -1.259   0.254  -1.025  0.00  0.00     0.000 A 
ATOM      6  C6  BNZ d   1      -0.373  -0.170  -0.061  0.00  0.00     0.000 A 
ENDROOT
TORSDOF 0
ENDMDL
