MODEL 1
REMARK minimizedAffinity -4.06464481
REMARK minimizedRMSD -1
REMARK  0 active torsions:
REMARK  status: ('A' for Active; 'I' for Inactive)
ROOT
ATOM      1  C1  BNZ d   1      -2.337   0.075  -1.260  0.00  0.00     0.000 A 
ATOM      2  C2  BNZ d   1      -0.991   0.202  -1.475  0.00  0.00     0.000 A 
ATOM      3  C3  BNZ d   1      -0.090  -0.186  -0.524  0.00  0.00     0.000 A 
ATOM      4  C4  BNZ d   1      -0.536  -0.664   0.656  0.00  0.00     0.000 A 
ATOM      5  C5  BNZ d   1      -1.890  -0.790   0.892  0.00  0.00     0.000 A 
ATOM      6  C6  BNZ d   1      -2.794  -0.434  -0.083  0.00  0.00     0.000 A 
ENDROOT
TORSDOF 0
ENDMDL
