MODEL 1
REMARK minimizedAffinity -5.14787292
REMARK minimizedRMSD -1
REMARK  0 active torsions:
REMARK  status: ('A' for Active; 'I' for Inactive)
ROOT
ATOM      1  C1  BNZ d   1      -3.425  -1.991   0.371  0.00  0.00     0.000 A 
ATOM      2  C2  BNZ d   1      -3.261  -0.816  -0.314  0.00  0.00     0.000 A 
ATOM      3  C3  BNZ d   1      -2.039  -0.206  -0.373  0.00  0.00     0.000 A 
ATOM      4  C4  BNZ d   1      -0.994  -0.748   0.285  0.00  0.00     0.000 A 
ATOM      5  C5  BNZ d   1      -1.146  -1.928   0.987  0.00  0.00     0.000 A 
ATOM      6  C6  BNZ d   1      -2.368  -2.560   1.012  0.00  0.00     0.000 A 
ENDROOT
TORSDOF 0
ENDMDL
