MODEL 1
REMARK minimizedAffinity -2.07459283
REMARK minimizedRMSD -1
REMARK  0 active torsions:
REMARK  status: ('A' for Active; 'I' for Inactive)
ROOT
ATOM      1  C1  BNZ d   1       2.865   3.947   2.392  0.00  0.00     0.000 A 
ATOM      2  C2  BNZ d   1       2.975   3.200   3.534  0.00  0.00     0.000 A 
ATOM      3  C3  BNZ d   1       3.396   1.900   3.483  0.00  0.00     0.000 A 
ATOM      4  C4  BNZ d   1       3.668   1.338   2.288  0.00  0.00     0.000 A 
ATOM      5  C5  BNZ d   1       3.553   2.075   1.126  0.00  0.00     0.000 A 
ATOM      6  C6  BNZ d   1       3.166   3.394   1.185  0.00  0.00     0.000 A 
ENDROOT
TORSDOF 0
ENDMDL
