MODEL 1
REMARK minimizedAffinity -3.97295594
REMARK minimizedRMSD -1
REMARK  0 active torsions:
REMARK  status: ('A' for Active; 'I' for Inactive)
ROOT
ATOM      1  C1  BNZ d   1      -2.572  -0.756   0.788  0.00  0.00     0.000 A 
ATOM      2  C2  BNZ d   1      -1.360  -0.129   0.895  0.00  0.00     0.000 A 
ATOM      3  C3  BNZ d   1      -0.640   0.198  -0.220  0.00  0.00     0.000 A 
ATOM      4  C4  BNZ d   1      -1.114  -0.137  -1.437  0.00  0.00     0.000 A 
ATOM      5  C5  BNZ d   1      -2.330  -0.779  -1.561  0.00  0.00     0.000 A 
ATOM      6  C6  BNZ d   1      -3.070  -1.072  -0.438  0.00  0.00     0.000 A 
ENDROOT
TORSDOF 0
ENDMDL
