MODEL 1
REMARK minimizedAffinity -3.62883496
REMARK minimizedRMSD -1
REMARK  0 active torsions:
REMARK  status: ('A' for Active; 'I' for Inactive)
ROOT
ATOM      1  C1  BNZ d   1      -0.696   0.342  -0.933  0.00  0.00     0.000 A 
ATOM      2  C2  BNZ d   1      -1.959  -0.148  -0.729  0.00  0.00     0.000 A 
ATOM      3  C3  BNZ d   1      -2.226  -0.980   0.322  0.00  0.00     0.000 A 
ATOM      4  C4  BNZ d   1      -1.223  -1.352   1.144  0.00  0.00     0.000 A 
ATOM      5  C5  BNZ d   1       0.057  -0.874   0.946  0.00  0.00     0.000 A 
ATOM      6  C6  BNZ d   1       0.314  -0.007  -0.090  0.00  0.00     0.000 A 
ENDROOT
TORSDOF 0
ENDMDL
