MODEL 1
REMARK minimizedAffinity -1.68872893
REMARK minimizedRMSD -1
REMARK  1 active torsions:
REMARK  status: ('A' for Active; 'I' for Inactive)
REMARK    1  A    between atoms: C1_2  and  C2_3 
ROOT
ATOM      1  C2  UNL d   1      -4.226   0.597  -5.991  0.00  0.00    -0.076 A 
ATOM      2  C3  UNL d   1      -5.556   1.053  -6.000  0.00  0.00     0.004 A 
ATOM      3  C4  UNL d   1      -5.846   2.416  -5.967  0.00  0.00    -0.003 A 
ATOM      4  C5  UNL d   1      -4.812   3.345  -5.925  0.00  0.00     0.000 A 
ATOM      5  C6  UNL d   1      -3.487   2.910  -5.933  0.00  0.00     0.000 A 
ATOM      6  C7  UNL d   1      -3.177   1.540  -5.983  0.00  0.00    -0.073 A 
ATOM      7  C8  UNL d   1      -1.730   1.127  -5.983  0.00  0.00     0.078 C 
ENDROOT
BRANCH   1   8
ATOM      8  C1  UNL d   1      -3.973  -0.894  -6.000  0.00  0.00     0.053 C 
ATOM      9  C   UNL d   1      -5.254  -1.704  -5.882  0.00  0.00     0.018 C 
ENDBRANCH   1   8
TORSDOF 1
ENDMDL
