MODEL 1
REMARK minimizedAffinity -0.345010549
REMARK minimizedRMSD -1
REMARK  1 active torsions:
REMARK  status: ('A' for Active; 'I' for Inactive)
REMARK    1  A    between atoms: C1_2  and  C2_3 
ROOT
ATOM      1  C2  UNL d   1      -3.266   1.581  -5.994  0.00  0.00    -0.076 A 
ATOM      2  C3  UNL d   1      -4.548   2.158  -6.000  0.00  0.00     0.004 A 
ATOM      3  C4  UNL d   1      -4.712   3.542  -5.971  0.00  0.00    -0.003 A 
ATOM      4  C5  UNL d   1      -3.596   4.372  -5.937  0.00  0.00     0.000 A 
ATOM      5  C6  UNL d   1      -2.317   3.817  -5.949  0.00  0.00     0.000 A 
ATOM      6  C7  UNL d   1      -2.134   2.424  -5.994  0.00  0.00    -0.073 A 
ATOM      7  C8  UNL d   1      -0.732   1.880  -5.999  0.00  0.00     0.078 C 
ENDROOT
BRANCH   1   8
ATOM      8  C1  UNL d   1      -3.150   0.074  -5.999  0.00  0.00     0.053 C 
ATOM      9  C   UNL d   1      -4.506  -0.615  -5.971  0.00  0.00     0.018 C 
ENDBRANCH   1   8
TORSDOF 1
ENDMDL
