MODEL 1
REMARK minimizedAffinity 2.91097045
REMARK minimizedRMSD -1
REMARK  1 active torsions:
REMARK  status: ('A' for Active; 'I' for Inactive)
REMARK    1  A    between atoms: C1_2  and  C2_3 
ROOT
ATOM      1  C2  UNL d   1       1.181   0.753  -1.015  0.00  0.00    -0.076 A 
ATOM      2  C3  UNL d   1       1.140   0.726  -2.420  0.00  0.00     0.004 A 
ATOM      3  C4  UNL d   1       0.457  -0.282  -3.099  0.00  0.00    -0.003 A 
ATOM      4  C5  UNL d   1      -0.197  -1.279  -2.384  0.00  0.00     0.000 A 
ATOM      5  C6  UNL d   1      -0.182  -1.258  -0.990  0.00  0.00     0.000 A 
ATOM      6  C7  UNL d   1       0.488  -0.240  -0.290  0.00  0.00    -0.073 A 
ATOM      7  C8  UNL d   1       0.478  -0.271   1.214  0.00  0.00     0.078 C 
ENDROOT
BRANCH   1   8
ATOM      8  C1  UNL d   1       1.960   1.855  -0.334  0.00  0.00     0.053 C 
ATOM      9  C   UNL d   1       3.356   2.025  -0.913  0.00  0.00     0.018 C 
ENDBRANCH   1   8
TORSDOF 1
ENDMDL
