MODEL 1
REMARK minimizedAffinity -0.811037183
REMARK minimizedRMSD -1
REMARK  1 active torsions:
REMARK  status: ('A' for Active; 'I' for Inactive)
REMARK    1  A    between atoms: C1_2  and  C2_3 
ROOT
ATOM      1  C2  UNL d   1      -3.887   2.392  -5.961  0.00  0.00    -0.076 A 
ATOM      2  C3  UNL d   1      -5.292   2.406  -5.992  0.00  0.00     0.004 A 
ATOM      3  C4  UNL d   1      -5.999   3.606  -5.935  0.00  0.00    -0.003 A 
ATOM      4  C5  UNL d   1      -5.312   4.811  -5.846  0.00  0.00     0.000 A 
ATOM      5  C6  UNL d   1      -3.917   4.817  -5.832  0.00  0.00     0.000 A 
ATOM      6  C7  UNL d   1      -3.189   3.617  -5.905  0.00  0.00    -0.073 A 
ATOM      7  C8  UNL d   1      -1.687   3.682  -5.880  0.00  0.00     0.078 C 
ENDROOT
BRANCH   1   8
ATOM      8  C1  UNL d   1      -3.175   1.058  -5.998  0.00  0.00     0.053 C 
ATOM      9  C   UNL d   1      -4.140  -0.118  -5.989  0.00  0.00     0.018 C 
ENDBRANCH   1   8
TORSDOF 1
ENDMDL
