MODEL 1
REMARK minimizedAffinity -0.5687204
REMARK minimizedRMSD -1
REMARK  1 active torsions:
REMARK  status: ('A' for Active; 'I' for Inactive)
REMARK    1  A    between atoms: C1_2  and  C2_3 
ROOT
ATOM      1  C2  UNL d   1      -3.770  -2.838  -5.867  0.00  0.00    -0.076 A 
ATOM      2  C3  UNL d   1      -3.067  -1.622  -5.921  0.00  0.00     0.004 A 
ATOM      3  C4  UNL d   1      -3.744  -0.405  -5.988  0.00  0.00    -0.003 A 
ATOM      4  C5  UNL d   1      -5.134  -0.385  -6.000  0.00  0.00     0.000 A 
ATOM      5  C6  UNL d   1      -5.847  -1.581  -5.929  0.00  0.00     0.000 A 
ATOM      6  C7  UNL d   1      -5.181  -2.815  -5.845  0.00  0.00    -0.073 A 
ATOM      7  C8  UNL d   1      -6.000  -4.075  -5.777  0.00  0.00     0.078 C 
ENDROOT
BRANCH   1   8
ATOM      8  C1  UNL d   1      -2.982  -4.128  -5.824  0.00  0.00     0.053 C 
ATOM      9  C   UNL d   1      -2.403  -4.411  -4.446  0.00  0.00     0.018 C 
ENDBRANCH   1   8
TORSDOF 1
ENDMDL
