MODEL 1
REMARK minimizedAffinity 7.55505657
REMARK minimizedRMSD -1
REMARK  1 active torsions:
REMARK  status: ('A' for Active; 'I' for Inactive)
REMARK    1  A    between atoms: C1_2  and  C2_3 
ROOT
ATOM      1  C2  UNL d   1      -3.314   1.727  -5.981  0.00  0.00    -0.076 A 
ATOM      2  C3  UNL d   1      -2.967   3.089  -5.961  0.00  0.00     0.004 A 
ATOM      3  C4  UNL d   1      -3.948   4.080  -5.968  0.00  0.00    -0.003 A 
ATOM      4  C5  UNL d   1      -5.292   3.724  -5.995  0.00  0.00     0.000 A 
ATOM      5  C6  UNL d   1      -5.654   2.377  -5.998  0.00  0.00     0.000 A 
ATOM      6  C7  UNL d   1      -4.678   1.367  -5.975  0.00  0.00    -0.073 A 
ATOM      7  C8  UNL d   1      -5.126  -0.070  -5.985  0.00  0.00     0.078 C 
ENDROOT
BRANCH   1   8
ATOM      8  C1  UNL d   1      -2.206   0.698  -6.000  0.00  0.00     0.053 C 
ATOM      9  C   UNL d   1      -0.851   1.294  -5.651  0.00  0.00     0.018 C 
ENDBRANCH   1   8
TORSDOF 1
ENDMDL
