MODEL 1
REMARK minimizedAffinity 9.02388859
REMARK minimizedRMSD -1
REMARK  1 active torsions:
REMARK  status: ('A' for Active; 'I' for Inactive)
REMARK    1  A    between atoms: C1_2  and  C2_3 
ROOT
ATOM      1  C2  UNL d   1       1.127   0.554  -0.973  0.00  0.00    -0.076 A 
ATOM      2  C3  UNL d   1       2.496   0.745  -1.230  0.00  0.00     0.004 A 
ATOM      3  C4  UNL d   1       3.154   1.894  -0.794  0.00  0.00    -0.003 A 
ATOM      4  C5  UNL d   1       2.454   2.870  -0.093  0.00  0.00     0.000 A 
ATOM      5  C6  UNL d   1       1.100   2.689   0.185  0.00  0.00     0.000 A 
ATOM      6  C7  UNL d   1       0.425   1.530  -0.233  0.00  0.00    -0.073 A 
ATOM      7  C8  UNL d   1      -1.037   1.390   0.090  0.00  0.00     0.078 C 
ENDROOT
BRANCH   1   8
ATOM      8  C1  UNL d   1       0.460  -0.698  -1.495  0.00  0.00     0.053 C 
ATOM      9  C   UNL d   1       0.151  -0.619  -2.982  0.00  0.00     0.018 C 
ENDBRANCH   1   8
TORSDOF 1
ENDMDL
