MODEL 1
REMARK minimizedAffinity -3.03949094
REMARK minimizedRMSD -1
REMARK  1 active torsions:
REMARK  status: ('A' for Active; 'I' for Inactive)
REMARK    1  A    between atoms: C1_2  and  C2_3 
ROOT
ATOM      1  C2  UNL d   1      -3.909   1.185  -5.880  0.00  0.00    -0.076 A 
ATOM      2  C3  UNL d   1      -2.520   1.000  -5.772  0.00  0.00     0.004 A 
ATOM      3  C4  UNL d   1      -1.655   2.089  -5.690  0.00  0.00    -0.003 A 
ATOM      4  C5  UNL d   1      -2.165   3.383  -5.714  0.00  0.00     0.000 A 
ATOM      5  C6  UNL d   1      -3.542   3.585  -5.803  0.00  0.00     0.000 A 
ATOM      6  C7  UNL d   1      -4.429   2.497  -5.870  0.00  0.00    -0.073 A 
ATOM      7  C8  UNL d   1      -5.904   2.773  -5.972  0.00  0.00     0.078 C 
ENDROOT
BRANCH   1   8
ATOM      8  C1  UNL d   1      -4.796  -0.035  -5.994  0.00  0.00     0.053 C 
ATOM      9  C   UNL d   1      -4.004  -1.333  -5.992  0.00  0.00     0.018 C 
ENDBRANCH   1   8
TORSDOF 1
ENDMDL
