MODEL 1
REMARK minimizedAffinity -2.35555029
REMARK minimizedRMSD -1
REMARK  1 active torsions:
REMARK  status: ('A' for Active; 'I' for Inactive)
REMARK    1  A    between atoms: C1_2  and  C2_3 
ROOT
ATOM      1  C2  UNL d   1      -4.622   2.392  -5.992  0.00  0.00    -0.076 A 
ATOM      2  C3  UNL d   1      -3.376   3.043  -6.000  0.00  0.00     0.004 A 
ATOM      3  C4  UNL d   1      -2.186   2.318  -5.978  0.00  0.00    -0.003 A 
ATOM      4  C5  UNL d   1      -2.223   0.928  -5.948  0.00  0.00     0.000 A 
ATOM      5  C6  UNL d   1      -3.449   0.264  -5.958  0.00  0.00     0.000 A 
ATOM      6  C7  UNL d   1      -4.658   0.981  -5.997  0.00  0.00    -0.073 A 
ATOM      7  C8  UNL d   1      -5.952   0.214  -6.000  0.00  0.00     0.078 C 
ENDROOT
BRANCH   1   8
ATOM      8  C1  UNL d   1      -5.879   3.232  -5.990  0.00  0.00     0.053 C 
ATOM      9  C   UNL d   1      -5.591   4.711  -5.782  0.00  0.00     0.018 C 
ENDBRANCH   1   8
TORSDOF 1
ENDMDL
