MODEL 1
REMARK minimizedAffinity -1.93286371
REMARK minimizedRMSD -1
REMARK  1 active torsions:
REMARK  status: ('A' for Active; 'I' for Inactive)
REMARK    1  A    between atoms: C1_2  and  C2_3 
ROOT
ATOM      1  C2  UNL d   1      -3.639   2.024  -5.976  0.00  0.00    -0.076 A 
ATOM      2  C3  UNL d   1      -5.043   1.968  -5.991  0.00  0.00     0.004 A 
ATOM      3  C4  UNL d   1      -5.808   3.134  -5.995  0.00  0.00    -0.003 A 
ATOM      4  C5  UNL d   1      -5.180   4.374  -5.984  0.00  0.00     0.000 A 
ATOM      5  C6  UNL d   1      -3.788   4.449  -5.986  0.00  0.00     0.000 A 
ATOM      6  C7  UNL d   1      -3.002   3.284  -5.999  0.00  0.00    -0.073 A 
ATOM      7  C8  UNL d   1      -1.504   3.423  -5.995  0.00  0.00     0.078 C 
ENDROOT
BRANCH   1   8
ATOM      8  C1  UNL d   1      -2.862   0.727  -5.946  0.00  0.00     0.053 C 
ATOM      9  C   UNL d   1      -3.767  -0.495  -5.998  0.00  0.00     0.018 C 
ENDBRANCH   1   8
TORSDOF 1
ENDMDL
