MODEL 1
REMARK minimizedAffinity 3.93179011
REMARK minimizedRMSD -1
REMARK  1 active torsions:
REMARK  status: ('A' for Active; 'I' for Inactive)
REMARK    1  A    between atoms: C1_2  and  C2_3 
ROOT
ATOM      1  C2  UNL d   1       0.628  -0.076  -0.009  0.00  0.00    -0.076 A 
ATOM      2  C3  UNL d   1      -0.495  -0.922   0.006  0.00  0.00     0.004 A 
ATOM      3  C4  UNL d   1      -0.713  -1.842  -1.018  0.00  0.00    -0.003 A 
ATOM      4  C5  UNL d   1       0.188  -1.931  -2.074  0.00  0.00     0.000 A 
ATOM      5  C6  UNL d   1       1.316  -1.112  -2.095  0.00  0.00     0.000 A 
ATOM      6  C7  UNL d   1       1.560  -0.190  -1.063  0.00  0.00    -0.073 A 
ATOM      7  C8  UNL d   1       2.789   0.673  -1.140  0.00  0.00     0.078 C 
ENDROOT
BRANCH   1   8
ATOM      8  C1  UNL d   1       0.798   0.921   1.115  0.00  0.00     0.053 C 
ATOM      9  C   UNL d   1       0.046   2.219   0.862  0.00  0.00     0.018 C 
ENDBRANCH   1   8
TORSDOF 1
ENDMDL
