MODEL 1
REMARK minimizedAffinity -5.27876472
REMARK minimizedRMSD -1
REMARK  1 active torsions:
REMARK  status: ('A' for Active; 'I' for Inactive)
REMARK    1  A    between atoms: C3_4  and  O_7 
ROOT
ATOM      1  C   UNL d   1      -1.284   3.709   1.167  0.00  0.00    -0.033 A 
ATOM      2  C1  UNL d   1      -0.891   3.646  -0.172  0.00  0.00     0.039 A 
ATOM      3  C2  UNL d   1      -0.392   2.453  -0.698  0.00  0.00    -0.080 A 
ATOM      4  C3  UNL d   1      -0.292   1.333   0.122  0.00  0.00     0.150 A 
ATOM      5  C4  UNL d   1      -0.685   1.388   1.455  0.00  0.00    -0.007 A 
ATOM      6  C5  UNL d   1      -1.183   2.580   1.980  0.00  0.00     0.039 A 
ENDROOT
BRANCH   4   7
ATOM      7  O   UNL d   1       0.194   0.148  -0.346  0.00  0.00    -0.526 OA
ATOM      8  H5  UNL d   1       0.453   0.267  -1.275  0.00  0.00     0.418 HD
ENDBRANCH   4   7
TORSDOF 1
ENDMDL
