MODEL 1
REMARK minimizedAffinity -2.5050261
REMARK minimizedRMSD -1
REMARK  1 active torsions:
REMARK  status: ('A' for Active; 'I' for Inactive)
REMARK    1  A    between atoms: C3_4  and  O_7 
ROOT
ATOM      1  C   UNL d   1      -0.105   1.023   1.067  0.00  0.00    -0.033 A 
ATOM      2  C1  UNL d   1      -0.069  -0.249   0.493  0.00  0.00     0.039 A 
ATOM      3  C2  UNL d   1      -0.024  -0.389  -0.896  0.00  0.00    -0.080 A 
ATOM      4  C3  UNL d   1      -0.014   0.749  -1.698  0.00  0.00     0.150 A 
ATOM      5  C4  UNL d   1      -0.046   2.019  -1.133  0.00  0.00    -0.007 A 
ATOM      6  C5  UNL d   1      -0.092   2.157   0.254  0.00  0.00     0.039 A 
ENDROOT
BRANCH   4   7
ATOM      7  O   UNL d   1       0.025   0.662  -3.058  0.00  0.00    -0.526 OA
ATOM      8  H5  UNL d   1       0.014  -0.278  -3.306  0.00  0.00     0.418 HD
ENDBRANCH   4   7
TORSDOF 1
ENDMDL
