MODEL 1
REMARK minimizedAffinity -3.21301532
REMARK minimizedRMSD -1
REMARK  1 active torsions:
REMARK  status: ('A' for Active; 'I' for Inactive)
REMARK    1  A    between atoms: C3_4  and  O_7 
ROOT
ATOM      1  C   UNL d   1      -0.155   1.116   0.247  0.00  0.00    -0.033 A 
ATOM      2  C1  UNL d   1      -0.473   1.316  -1.098  0.00  0.00     0.039 A 
ATOM      3  C2  UNL d   1      -0.401   0.253  -2.000  0.00  0.00    -0.080 A 
ATOM      4  C3  UNL d   1      -0.011  -1.004  -1.545  0.00  0.00     0.150 A 
ATOM      5  C4  UNL d   1       0.303  -1.211  -0.206  0.00  0.00    -0.007 A 
ATOM      6  C5  UNL d   1       0.232  -0.148   0.693  0.00  0.00     0.039 A 
ENDROOT
BRANCH   4   7
ATOM      7  O   UNL d   1       0.078  -2.071  -2.389  0.00  0.00    -0.526 OA
ATOM      8  H5  UNL d   1      -0.141  -1.772  -3.287  0.00  0.00     0.418 HD
ENDBRANCH   4   7
TORSDOF 1
ENDMDL
