MODEL 1
REMARK minimizedAffinity -4.38521099
REMARK minimizedRMSD -1
REMARK  1 active torsions:
REMARK  status: ('A' for Active; 'I' for Inactive)
REMARK    1  A    between atoms: C3_4  and  O_7 
ROOT
ATOM      1  C   UNL d   1       0.366  -0.198   0.353  0.00  0.00    -0.033 A 
ATOM      2  C1  UNL d   1      -0.737   0.395  -0.264  0.00  0.00     0.039 A 
ATOM      3  C2  UNL d   1      -1.421   1.433   0.371  0.00  0.00    -0.080 A 
ATOM      4  C3  UNL d   1      -0.991   1.870   1.621  0.00  0.00     0.150 A 
ATOM      5  C4  UNL d   1       0.110   1.287   2.240  0.00  0.00    -0.007 A 
ATOM      6  C5  UNL d   1       0.791   0.250   1.605  0.00  0.00     0.039 A 
ENDROOT
BRANCH   4   7
ATOM      7  O   UNL d   1      -1.628   2.878   2.282  0.00  0.00    -0.526 OA
ATOM      8  H5  UNL d   1      -2.387   3.165   1.747  0.00  0.00     0.418 HD
ENDBRANCH   4   7
TORSDOF 1
ENDMDL
