MODEL 1
REMARK minimizedAffinity -3.54943514
REMARK minimizedRMSD -1
REMARK  1 active torsions:
REMARK  status: ('A' for Active; 'I' for Inactive)
REMARK    1  A    between atoms: C3_4  and  O_7 
ROOT
ATOM      1  C   UNL d   1       0.178   0.033  -0.028  0.00  0.00    -0.033 A 
ATOM      2  C1  UNL d   1      -0.656   0.873  -0.769  0.00  0.00     0.039 A 
ATOM      3  C2  UNL d   1      -1.304   1.942  -0.146  0.00  0.00    -0.080 A 
ATOM      4  C3  UNL d   1      -1.109   2.160   1.215  0.00  0.00     0.150 A 
ATOM      5  C4  UNL d   1      -0.277   1.330   1.958  0.00  0.00    -0.007 A 
ATOM      6  C5  UNL d   1       0.369   0.262   1.335  0.00  0.00     0.039 A 
ENDROOT
BRANCH   4   7
ATOM      7  O   UNL d   1      -1.724   3.187   1.867  0.00  0.00    -0.526 OA
ATOM      8  H5  UNL d   1      -2.290   3.659   1.233  0.00  0.00     0.418 HD
ENDBRANCH   4   7
TORSDOF 1
ENDMDL
