MODEL 1
REMARK minimizedAffinity -1.43531299
REMARK minimizedRMSD -1
REMARK  1 active torsions:
REMARK  status: ('A' for Active; 'I' for Inactive)
REMARK    1  A    between atoms: C3_4  and  O_7 
ROOT
ATOM      1  C   UNL d   1       1.264  -0.075   0.390  0.00  0.00    -0.033 A 
ATOM      2  C1  UNL d   1       0.149   0.301  -0.362  0.00  0.00     0.039 A 
ATOM      3  C2  UNL d   1      -0.758   1.231   0.148  0.00  0.00    -0.080 A 
ATOM      4  C3  UNL d   1      -0.539   1.778   1.409  0.00  0.00     0.150 A 
ATOM      5  C4  UNL d   1       0.571   1.410   2.163  0.00  0.00    -0.007 A 
ATOM      6  C5  UNL d   1       1.475   0.481   1.652  0.00  0.00     0.039 A 
ENDROOT
BRANCH   4   7
ATOM      7  O   UNL d   1      -1.400   2.686   1.952  0.00  0.00    -0.526 OA
ATOM      8  H5  UNL d   1      -2.135   2.822   1.330  0.00  0.00     0.418 HD
ENDBRANCH   4   7
TORSDOF 1
ENDMDL
