MODEL 1
REMARK minimizedAffinity -1.60835361
REMARK minimizedRMSD -1
REMARK  1 active torsions:
REMARK  status: ('A' for Active; 'I' for Inactive)
REMARK    1  A    between atoms: C3_4  and  O_7 
ROOT
ATOM      1  C   UNL d   1       0.070   0.605  -1.189  0.00  0.00    -0.033 A 
ATOM      2  C1  UNL d   1      -0.475   1.889  -1.261  0.00  0.00     0.039 A 
ATOM      3  C2  UNL d   1      -0.797   2.579  -0.091  0.00  0.00    -0.080 A 
ATOM      4  C3  UNL d   1      -0.569   1.976   1.143  0.00  0.00     0.150 A 
ATOM      5  C4  UNL d   1      -0.023   0.699   1.222  0.00  0.00    -0.007 A 
ATOM      6  C5  UNL d   1       0.297   0.011   0.052  0.00  0.00     0.039 A 
ENDROOT
BRANCH   4   7
ATOM      7  O   UNL d   1      -0.872   2.608   2.312  0.00  0.00    -0.526 OA
ATOM      8  H5  UNL d   1      -1.268   3.470   2.102  0.00  0.00     0.418 HD
ENDBRANCH   4   7
TORSDOF 1
ENDMDL
