MODEL 1
REMARK minimizedAffinity -4.29685116
REMARK minimizedRMSD -1
REMARK  1 active torsions:
REMARK  status: ('A' for Active; 'I' for Inactive)
REMARK    1  A    between atoms: C3_4  and  O_7 
ROOT
ATOM      1  C   UNL d   1       0.496   0.261  -1.476  0.00  0.00    -0.033 A 
ATOM      2  C1  UNL d   1       0.185  -0.548  -0.380  0.00  0.00     0.039 A 
ATOM      3  C2  UNL d   1      -0.847  -0.184   0.487  0.00  0.00    -0.080 A 
ATOM      4  C3  UNL d   1      -1.560   0.987   0.248  0.00  0.00     0.150 A 
ATOM      5  C4  UNL d   1      -1.258   1.795  -0.844  0.00  0.00    -0.007 A 
ATOM      6  C5  UNL d   1      -0.226   1.431  -1.708  0.00  0.00     0.039 A 
ENDROOT
BRANCH   4   7
ATOM      7  O   UNL d   1      -2.572   1.386   1.069  0.00  0.00    -0.526 OA
ATOM      8  H5  UNL d   1      -2.649   0.745   1.796  0.00  0.00     0.418 HD
ENDBRANCH   4   7
TORSDOF 1
ENDMDL
