MODEL 1
REMARK minimizedAffinity 10.1711378
REMARK minimizedRMSD -1
REMARK  0 active torsions:
REMARK  status: ('A' for Active; 'I' for Inactive)
ROOT
ATOM      1  C2' OXE d   1       1.851   3.532   3.095  0.00  0.00     0.078 C 
ATOM      2  C1' OXE d   1       3.410   1.385   4.012  0.00  0.00     0.078 C 
ATOM      3  C1  OXE d   1       2.846   1.299   2.616  0.00  0.00    -0.078 A 
ATOM      4  C2  OXE d   1       2.046   2.333   2.193  0.00  0.00    -0.078 A 
ATOM      5  C3  OXE d   1       1.546   2.329   0.894  0.00  0.00     0.003 A 
ATOM      6  C4  OXE d   1       1.722   1.212   0.069  0.00  0.00    -0.002 A 
ATOM      7  C5  OXE d   1       2.501   0.131   0.495  0.00  0.00    -0.002 A 
ATOM      8  C6  OXE d   1       3.104   0.177   1.747  0.00  0.00     0.003 A 
ENDROOT
TORSDOF 0
ENDMDL
