MODEL 1
REMARK minimizedAffinity 3.80404496
REMARK minimizedRMSD -1
REMARK  0 active torsions:
REMARK  status: ('A' for Active; 'I' for Inactive)
ROOT
ATOM      1  C2' OXE d   1       2.405   0.010   1.539  0.00  0.00     0.078 C 
ATOM      2  C1' OXE d   1       0.760   0.033   3.813  0.00  0.00     0.078 C 
ATOM      3  C1  OXE d   1       0.449   1.014   2.710  0.00  0.00    -0.078 A 
ATOM      4  C2  OXE d   1       1.288   1.027   1.622  0.00  0.00    -0.078 A 
ATOM      5  C3  OXE d   1       1.015   1.874   0.551  0.00  0.00     0.003 A 
ATOM      6  C4  OXE d   1      -0.015   2.819   0.640  0.00  0.00    -0.002 A 
ATOM      7  C5  OXE d   1      -0.856   2.849   1.757  0.00  0.00    -0.002 A 
ATOM      8  C6  OXE d   1      -0.665   1.927   2.780  0.00  0.00     0.003 A 
ENDROOT
TORSDOF 0
ENDMDL
