MODEL 1
REMARK minimizedAffinity -1.78388619
REMARK minimizedRMSD -1
REMARK  0 active torsions:
REMARK  status: ('A' for Active; 'I' for Inactive)
ROOT
ATOM      1  C2' OXE d   1      -5.511   2.439  -2.130  0.00  0.00     0.078 C 
ATOM      2  C1' OXE d   1      -5.092   3.000  -4.849  0.00  0.00     0.078 C 
ATOM      3  C1  OXE d   1      -4.066   2.151  -4.139  0.00  0.00    -0.078 A 
ATOM      4  C2  OXE d   1      -4.255   1.921  -2.798  0.00  0.00    -0.078 A 
ATOM      5  C3  OXE d   1      -3.369   1.099  -2.108  0.00  0.00     0.003 A 
ATOM      6  C4  OXE d   1      -2.205   0.632  -2.730  0.00  0.00    -0.002 A 
ATOM      7  C5  OXE d   1      -1.973   0.888  -4.085  0.00  0.00    -0.002 A 
ATOM      8  C6  OXE d   1      -2.913   1.609  -4.813  0.00  0.00     0.003 A 
ENDROOT
TORSDOF 0
ENDMDL
