MODEL 1
REMARK minimizedAffinity 2.61499476
REMARK minimizedRMSD -1
REMARK  0 active torsions:
REMARK  status: ('A' for Active; 'I' for Inactive)
ROOT
ATOM      1  C2' OXE d   1      -0.110   1.903  -0.476  0.00  0.00     0.078 C 
ATOM      2  C1' OXE d   1       2.234   2.781   0.794  0.00  0.00     0.078 C 
ATOM      3  C1  OXE d   1       2.155   1.331   0.388  0.00  0.00    -0.078 A 
ATOM      4  C2  OXE d   1       0.986   0.899  -0.191  0.00  0.00    -0.078 A 
ATOM      5  C3  OXE d   1       0.881  -0.416  -0.634  0.00  0.00     0.003 A 
ATOM      6  C4  OXE d   1       1.895  -1.341  -0.357  0.00  0.00    -0.002 A 
ATOM      7  C5  OXE d   1       3.078  -0.931   0.267  0.00  0.00    -0.002 A 
ATOM      8  C6  OXE d   1       3.241   0.407   0.607  0.00  0.00     0.003 A 
ENDROOT
TORSDOF 0
ENDMDL
