MODEL 1
REMARK minimizedAffinity 9.8032074
REMARK minimizedRMSD -1
REMARK  0 active torsions:
REMARK  status: ('A' for Active; 'I' for Inactive)
ROOT
ATOM      1  C2' OXE d   1      -1.041   1.424   1.959  0.00  0.00     0.078 C 
ATOM      2  C1' OXE d   1       0.930   2.220   0.126  0.00  0.00     0.078 C 
ATOM      3  C1  OXE d   1      -0.362   1.671  -0.425  0.00  0.00    -0.078 A 
ATOM      4  C2  OXE d   1      -1.302   1.240   0.480  0.00  0.00    -0.078 A 
ATOM      5  C3  OXE d   1      -2.533   0.775   0.026  0.00  0.00     0.003 A 
ATOM      6  C4  OXE d   1      -2.763   0.599  -1.344  0.00  0.00    -0.002 A 
ATOM      7  C5  OXE d   1      -1.803   0.994  -2.282  0.00  0.00    -0.002 A 
ATOM      8  C6  OXE d   1      -0.617   1.570  -1.841  0.00  0.00     0.003 A 
ENDROOT
TORSDOF 0
ENDMDL
