MODEL 1
REMARK minimizedAffinity 0.455785453
REMARK minimizedRMSD -1
REMARK  0 active torsions:
REMARK  status: ('A' for Active; 'I' for Inactive)
ROOT
ATOM      1  C2' OXE d   1       1.569  -1.198  -0.136  0.00  0.00     0.078 C 
ATOM      2  C1' OXE d   1       0.162   1.219   0.107  0.00  0.00     0.078 C 
ATOM      3  C1  OXE d   1       1.669   1.277   0.123  0.00  0.00    -0.078 A 
ATOM      4  C2  OXE d   1       2.349   0.085   0.051  0.00  0.00    -0.078 A 
ATOM      5  C3  OXE d   1       3.740   0.086   0.006  0.00  0.00     0.003 A 
ATOM      6  C4  OXE d   1       4.454   1.276   0.189  0.00  0.00    -0.002 A 
ATOM      7  C5  OXE d   1       3.781   2.497   0.305  0.00  0.00    -0.002 A 
ATOM      8  C6  OXE d   1       2.393   2.520   0.231  0.00  0.00     0.003 A 
ENDROOT
TORSDOF 0
ENDMDL
