MODEL 1
REMARK minimizedAffinity 0.728557587
REMARK minimizedRMSD -1
REMARK  0 active torsions:
REMARK  status: ('A' for Active; 'I' for Inactive)
ROOT
ATOM      1  C2' OXE d   1      -0.438   0.297  -1.724  0.00  0.00     0.078 C 
ATOM      2  C1' OXE d   1       0.504   2.394  -0.113  0.00  0.00     0.078 C 
ATOM      3  C1  OXE d   1       1.320   1.126  -0.166  0.00  0.00    -0.078 A 
ATOM      4  C2  OXE d   1       0.827   0.088  -0.920  0.00  0.00    -0.078 A 
ATOM      5  C3  OXE d   1       1.566  -1.084  -1.046  0.00  0.00     0.003 A 
ATOM      6  C4  OXE d   1       2.730  -1.273  -0.291  0.00  0.00    -0.002 A 
ATOM      7  C5  OXE d   1       3.229  -0.243   0.514  0.00  0.00    -0.002 A 
ATOM      8  C6  OXE d   1       2.560   0.975   0.554  0.00  0.00     0.003 A 
ENDROOT
TORSDOF 0
ENDMDL
