MODEL 1
REMARK minimizedAffinity 0.513373911
REMARK minimizedRMSD -1
REMARK  0 active torsions:
REMARK  status: ('A' for Active; 'I' for Inactive)
ROOT
ATOM      1  C2' OXE d   1       1.969   1.811   0.700  0.00  0.00     0.078 C 
ATOM      2  C1' OXE d   1       4.329   0.906  -0.521  0.00  0.00     0.078 C 
ATOM      3  C1  OXE d   1       3.166  -0.051  -0.442  0.00  0.00    -0.078 A 
ATOM      4  C2  OXE d   1       2.031   0.384   0.199  0.00  0.00    -0.078 A 
ATOM      5  C3  OXE d   1       0.910  -0.439   0.251  0.00  0.00     0.003 A 
ATOM      6  C4  OXE d   1       0.980  -1.761  -0.206  0.00  0.00    -0.002 A 
ATOM      7  C5  OXE d   1       2.139  -2.237  -0.826  0.00  0.00    -0.002 A 
ATOM      8  C6  OXE d   1       3.225  -1.384  -0.990  0.00  0.00     0.003 A 
ENDROOT
TORSDOF 0
ENDMDL
