MODEL 1
REMARK minimizedAffinity -1.61952198
REMARK minimizedRMSD -1
REMARK  0 active torsions:
REMARK  status: ('A' for Active; 'I' for Inactive)
ROOT
ATOM      1  C1  BNZ d   1       3.768  -3.310   5.158  0.00  0.00     0.000 A 
ATOM      2  C2  BNZ d   1       3.854  -2.277   4.263  0.00  0.00     0.000 A 
ATOM      3  C3  BNZ d   1       4.978  -1.503   4.193  0.00  0.00     0.000 A 
ATOM      4  C4  BNZ d   1       5.998  -1.737   5.044  0.00  0.00     0.000 A 
ATOM      5  C5  BNZ d   1       5.923  -2.768   5.959  0.00  0.00     0.000 A 
ATOM      6  C6  BNZ d   1       4.805  -3.570   6.000  0.00  0.00     0.000 A 
ENDROOT
TORSDOF 0
ENDMDL
