MODEL 1
REMARK minimizedAffinity 3.74053502
REMARK minimizedRMSD -1
REMARK  0 active torsions:
REMARK  status: ('A' for Active; 'I' for Inactive)
ROOT
ATOM      1  C1  BNZ d   1       3.799  -5.957   3.660  0.00  0.00     0.000 A 
ATOM      2  C2  BNZ d   1       5.157  -5.956   3.487  0.00  0.00     0.000 A 
ATOM      3  C3  BNZ d   1       6.000  -5.998   4.563  0.00  0.00     0.000 A 
ATOM      4  C4  BNZ d   1       5.484  -5.999   5.809  0.00  0.00     0.000 A 
ATOM      5  C5  BNZ d   1       4.117  -5.990   6.000  0.00  0.00     0.000 A 
ATOM      6  C6  BNZ d   1       3.272  -5.988   4.914  0.00  0.00     0.000 A 
ENDROOT
TORSDOF 0
ENDMDL
