MODEL 1
REMARK minimizedAffinity -0.624831617
REMARK minimizedRMSD -1
REMARK  0 active torsions:
REMARK  status: ('A' for Active; 'I' for Inactive)
ROOT
ATOM      1  C1  BNZ d   1      -4.893   5.968   4.540  0.00  0.00     0.000 A 
ATOM      2  C2  BNZ d   1      -4.196   5.964   5.719  0.00  0.00     0.000 A 
ATOM      3  C3  BNZ d   1      -2.830   6.000   5.725  0.00  0.00     0.000 A 
ATOM      4  C4  BNZ d   1      -2.161   5.998   4.554  0.00  0.00     0.000 A 
ATOM      5  C5  BNZ d   1      -2.849   5.992   3.357  0.00  0.00     0.000 A 
ATOM      6  C6  BNZ d   1      -4.225   5.996   3.354  0.00  0.00     0.000 A 
ENDROOT
TORSDOF 0
ENDMDL
