MODEL 1
REMARK minimizedAffinity -1.49992287
REMARK minimizedRMSD -1
REMARK  0 active torsions:
REMARK  status: ('A' for Active; 'I' for Inactive)
ROOT
ATOM      1  C1  BNZ d   1       4.472   3.258  -4.104  0.00  0.00     0.000 A 
ATOM      2  C2  BNZ d   1       5.602   3.091  -4.860  0.00  0.00     0.000 A 
ATOM      3  C3  BNZ d   1       5.999   1.845  -5.258  0.00  0.00     0.000 A 
ATOM      4  C4  BNZ d   1       5.291   0.766  -4.867  0.00  0.00     0.000 A 
ATOM      5  C5  BNZ d   1       4.155   0.918  -4.097  0.00  0.00     0.000 A 
ATOM      6  C6  BNZ d   1       3.736   2.176  -3.731  0.00  0.00     0.000 A 
ENDROOT
TORSDOF 0
ENDMDL
