MODEL 1
REMARK minimizedAffinity -0.560131907
REMARK minimizedRMSD -1
REMARK  0 active torsions:
REMARK  status: ('A' for Active; 'I' for Inactive)
ROOT
ATOM      1  C1  BNZ d   1       1.630   0.580  -0.852  0.00  0.00     0.000 A 
ATOM      2  C2  BNZ d   1       2.358   0.826   0.281  0.00  0.00     0.000 A 
ATOM      3  C3  BNZ d   1       1.826   1.549   1.312  0.00  0.00     0.000 A 
ATOM      4  C4  BNZ d   1       0.582   2.056   1.192  0.00  0.00     0.000 A 
ATOM      5  C5  BNZ d   1      -0.161   1.824   0.052  0.00  0.00     0.000 A 
ATOM      6  C6  BNZ d   1       0.364   1.064  -0.967  0.00  0.00     0.000 A 
ENDROOT
TORSDOF 0
ENDMDL
