MODEL 1
REMARK minimizedAffinity 4.44119883
REMARK minimizedRMSD -1
REMARK  0 active torsions:
REMARK  status: ('A' for Active; 'I' for Inactive)
ROOT
ATOM      1  C1  BNZ d   1       1.123   1.877   1.213  0.00  0.00     0.000 A 
ATOM      2  C2  BNZ d   1       2.170   1.513   0.409  0.00  0.00     0.000 A 
ATOM      3  C3  BNZ d   1       1.959   1.136  -0.888  0.00  0.00     0.000 A 
ATOM      4  C4  BNZ d   1       0.699   1.086  -1.367  0.00  0.00     0.000 A 
ATOM      5  C5  BNZ d   1      -0.368   1.441  -0.566  0.00  0.00     0.000 A 
ATOM      6  C6  BNZ d   1      -0.148   1.857   0.727  0.00  0.00     0.000 A 
ENDROOT
TORSDOF 0
ENDMDL
