MODEL 1
REMARK minimizedAffinity 3.06226945
REMARK minimizedRMSD -1
REMARK  0 active torsions:
REMARK  status: ('A' for Active; 'I' for Inactive)
ROOT
ATOM      1  C1  BNZ d   1       2.198   0.240  -1.467  0.00  0.00     0.000 A 
ATOM      2  C2  BNZ d   1       2.882  -0.858  -1.018  0.00  0.00     0.000 A 
ATOM      3  C3  BNZ d   1       2.278  -2.082  -0.955  0.00  0.00     0.000 A 
ATOM      4  C4  BNZ d   1       0.980  -2.200  -1.303  0.00  0.00     0.000 A 
ATOM      5  C5  BNZ d   1       0.274  -1.101  -1.750  0.00  0.00     0.000 A 
ATOM      6  C6  BNZ d   1       0.897   0.122  -1.849  0.00  0.00     0.000 A 
ENDROOT
TORSDOF 0
ENDMDL
