MODEL 1
REMARK minimizedAffinity 4.39664459
REMARK minimizedRMSD -1
REMARK  0 active torsions:
REMARK  status: ('A' for Active; 'I' for Inactive)
ROOT
ATOM      1  C1  BNZ d   1       0.305  -0.287  -1.152  0.00  0.00     0.000 A 
ATOM      2  C2  BNZ d   1       0.466  -1.491  -0.520  0.00  0.00     0.000 A 
ATOM      3  C3  BNZ d   1       1.658  -2.158  -0.578  0.00  0.00     0.000 A 
ATOM      4  C4  BNZ d   1       2.673  -1.640  -1.300  0.00  0.00     0.000 A 
ATOM      5  C5  BNZ d   1       2.523  -0.431  -1.950  0.00  0.00     0.000 A 
ATOM      6  C6  BNZ d   1       1.334   0.256  -1.857  0.00  0.00     0.000 A 
ENDROOT
TORSDOF 0
ENDMDL
