MODEL 1
REMARK minimizedAffinity -2.22621179
REMARK minimizedRMSD -1
REMARK  0 active torsions:
REMARK  status: ('A' for Active; 'I' for Inactive)
ROOT
ATOM      1  C1  BNZ d   1       0.881  -1.459  -0.166  0.00  0.00     0.000 A 
ATOM      2  C2  BNZ d   1       1.930  -2.332  -0.283  0.00  0.00     0.000 A 
ATOM      3  C3  BNZ d   1       2.859  -2.181  -1.274  0.00  0.00     0.000 A 
ATOM      4  C4  BNZ d   1       2.717  -1.183  -2.170  0.00  0.00     0.000 A 
ATOM      5  C5  BNZ d   1       1.660  -0.300  -2.071  0.00  0.00     0.000 A 
ATOM      6  C6  BNZ d   1       0.748  -0.432  -1.049  0.00  0.00     0.000 A 
ENDROOT
TORSDOF 0
ENDMDL
