MODEL 1
REMARK minimizedAffinity 3.20594525
REMARK minimizedRMSD -1
REMARK  0 active torsions:
REMARK  status: ('A' for Active; 'I' for Inactive)
ROOT
ATOM      1  C1  BNZ d   1       0.638  -1.475  -0.462  0.00  0.00     0.000 A 
ATOM      2  C2  BNZ d   1       2.007  -1.444  -0.480  0.00  0.00     0.000 A 
ATOM      3  C3  BNZ d   1       2.697  -1.675  -1.637  0.00  0.00     0.000 A 
ATOM      4  C4  BNZ d   1       2.020  -1.976  -2.764  0.00  0.00     0.000 A 
ATOM      5  C5  BNZ d   1       0.640  -2.019  -2.760  0.00  0.00     0.000 A 
ATOM      6  C6  BNZ d   1      -0.053  -1.748  -1.603  0.00  0.00     0.000 A 
ENDROOT
TORSDOF 0
ENDMDL
