MODEL 1
REMARK minimizedAffinity -1.02418184
REMARK minimizedRMSD -1
REMARK  0 active torsions:
REMARK  status: ('A' for Active; 'I' for Inactive)
ROOT
ATOM      1  C1  BNZ d   1       2.300  -3.063  -1.377  0.00  0.00     0.000 A 
ATOM      2  C2  BNZ d   1       3.097  -4.116  -1.012  0.00  0.00     0.000 A 
ATOM      3  C3  BNZ d   1       2.950  -4.714   0.208  0.00  0.00     0.000 A 
ATOM      4  C4  BNZ d   1       2.035  -4.235   1.076  0.00  0.00     0.000 A 
ATOM      5  C5  BNZ d   1       1.231  -3.168   0.726  0.00  0.00     0.000 A 
ATOM      6  C6  BNZ d   1       1.355  -2.593  -0.518  0.00  0.00     0.000 A 
ENDROOT
TORSDOF 0
ENDMDL
