MODEL 1
REMARK minimizedAffinity -3.24843478
REMARK minimizedRMSD -1
REMARK  0 active torsions:
REMARK  status: ('A' for Active; 'I' for Inactive)
ROOT
ATOM      1  C1  BNZ d   1       2.123  -1.712  -1.379  0.00  0.00     0.000 A 
ATOM      2  C2  BNZ d   1       2.035  -0.454  -1.912  0.00  0.00     0.000 A 
ATOM      3  C3  BNZ d   1       0.927   0.319  -1.703  0.00  0.00     0.000 A 
ATOM      4  C4  BNZ d   1      -0.106  -0.182  -0.995  0.00  0.00     0.000 A 
ATOM      5  C5  BNZ d   1      -0.036  -1.452  -0.459  0.00  0.00     0.000 A 
ATOM      6  C6  BNZ d   1       1.096  -2.213  -0.639  0.00  0.00     0.000 A 
ENDROOT
TORSDOF 0
ENDMDL
