MODEL 1
REMARK minimizedAffinity 2.57739615
REMARK minimizedRMSD -1
REMARK  0 active torsions:
REMARK  status: ('A' for Active; 'I' for Inactive)
ROOT
ATOM      1  C1  BNZ d   1       0.996  -1.865  -1.941  0.00  0.00     0.000 A 
ATOM      2  C2  BNZ d   1       0.695  -2.884  -1.076  0.00  0.00     0.000 A 
ATOM      3  C3  BNZ d   1       1.662  -3.440  -0.286  0.00  0.00     0.000 A 
ATOM      4  C4  BNZ d   1       2.935  -3.007  -0.391  0.00  0.00     0.000 A 
ATOM      5  C5  BNZ d   1       3.256  -1.987  -1.265  0.00  0.00     0.000 A 
ATOM      6  C6  BNZ d   1       2.273  -1.403  -2.030  0.00  0.00     0.000 A 
ENDROOT
TORSDOF 0
ENDMDL
