MODEL 1
REMARK minimizedAffinity 5.11332798
REMARK minimizedRMSD -1
REMARK  0 active torsions:
REMARK  status: ('A' for Active; 'I' for Inactive)
ROOT
ATOM      1  C1  BNZ d   1       3.789   5.229  -1.887  0.00  0.00     0.000 A 
ATOM      2  C2  BNZ d   1       3.819   4.456  -0.757  0.00  0.00     0.000 A 
ATOM      3  C3  BNZ d   1       4.917   4.450   0.057  0.00  0.00     0.000 A 
ATOM      4  C4  BNZ d   1       5.997   5.185  -0.280  0.00  0.00     0.000 A 
ATOM      5  C5  BNZ d   1       5.985   5.962  -1.421  0.00  0.00     0.000 A 
ATOM      6  C6  BNZ d   1       4.864   5.996  -2.217  0.00  0.00     0.000 A 
ENDROOT
TORSDOF 0
ENDMDL
