MODEL 1
REMARK minimizedAffinity 1.54402077
REMARK minimizedRMSD -1
REMARK  0 active torsions:
REMARK  status: ('A' for Active; 'I' for Inactive)
ROOT
ATOM      1  C1  BNZ d   1       2.332  -2.233  -1.792  0.00  0.00     0.000 A 
ATOM      2  C2  BNZ d   1       1.739  -1.093  -2.266  0.00  0.00     0.000 A 
ATOM      3  C3  BNZ d   1       1.070  -0.250  -1.424  0.00  0.00     0.000 A 
ATOM      4  C4  BNZ d   1       0.961  -0.567  -0.117  0.00  0.00     0.000 A 
ATOM      5  C5  BNZ d   1       1.546  -1.717   0.374  0.00  0.00     0.000 A 
ATOM      6  C6  BNZ d   1       2.251  -2.544  -0.470  0.00  0.00     0.000 A 
ENDROOT
TORSDOF 0
ENDMDL
