MODEL 1
REMARK minimizedAffinity -1.2415024
REMARK minimizedRMSD -1
REMARK  0 active torsions:
REMARK  status: ('A' for Active; 'I' for Inactive)
ROOT
ATOM      1  C1  BNZ d   1       1.867  -0.598  -1.905  0.00  0.00     0.000 A 
ATOM      2  C2  BNZ d   1       2.969  -1.298  -1.492  0.00  0.00     0.000 A 
ATOM      3  C3  BNZ d   1       4.197  -0.700  -1.437  0.00  0.00     0.000 A 
ATOM      4  C4  BNZ d   1       4.329   0.583  -1.831  0.00  0.00     0.000 A 
ATOM      5  C5  BNZ d   1       3.229   1.299  -2.259  0.00  0.00     0.000 A 
ATOM      6  C6  BNZ d   1       1.987   0.706  -2.276  0.00  0.00     0.000 A 
ENDROOT
TORSDOF 0
ENDMDL
