MODEL 1
REMARK minimizedAffinity -3.16987443
REMARK minimizedRMSD -1
REMARK  0 active torsions:
REMARK  status: ('A' for Active; 'I' for Inactive)
ROOT
ATOM      1  C1  BNZ d   1       1.380  -0.672  -1.770  0.00  0.00     0.000 A 
ATOM      2  C2  BNZ d   1       0.702  -1.666  -1.117  0.00  0.00     0.000 A 
ATOM      3  C3  BNZ d   1       1.371  -2.600  -0.376  0.00  0.00     0.000 A 
ATOM      4  C4  BNZ d   1       2.718  -2.562  -0.322  0.00  0.00     0.000 A 
ATOM      5  C5  BNZ d   1       3.417  -1.572  -0.982  0.00  0.00     0.000 A 
ATOM      6  C6  BNZ d   1       2.738  -0.611  -1.695  0.00  0.00     0.000 A 
ENDROOT
TORSDOF 0
ENDMDL
