MODEL 1
REMARK minimizedAffinity 11.5701895
REMARK minimizedRMSD -1
REMARK  3 active torsions:
REMARK  status: ('A' for Active; 'I' for Inactive)
REMARK    1  A    between atoms: C3'_2  and  C2'_3 
REMARK    2  A    between atoms: C2'_3  and  C1'_4 
REMARK    3  A    between atoms: C1'_4  and  C1_5 
ROOT
ATOM      1  C1  N4B d   1      -0.086  -1.442   1.128  0.00  0.00    -0.075 A 
ATOM      2  C2  N4B d   1      -0.214  -2.608   0.342  0.00  0.00     0.002 A 
ATOM      3  C3  N4B d   1       0.902  -3.332   0.001  0.00  0.00     0.002 A 
ATOM      4  C4  N4B d   1       2.153  -2.901   0.417  0.00  0.00    -0.004 A 
ATOM      5  C5  N4B d   1       2.265  -1.788   1.197  0.00  0.00     0.002 A 
ATOM      6  C6  N4B d   1       1.151  -1.053   1.551  0.00  0.00     0.002 A 
ENDROOT
BRANCH   1   7
ATOM      7  C1' N4B d   1      -1.268  -0.571   1.453  0.00  0.00     0.057 C 
BRANCH   7   8
ATOM      8  C2' N4B d   1      -1.145   0.746   0.692  0.00  0.00     0.009 C 
BRANCH   8   9
ATOM      9  C3' N4B d   1      -2.481   1.457   0.565  0.00  0.00     0.004 C 
ATOM     10  C4' N4B d   1      -3.384   0.820  -0.449  0.00  0.00     0.003 C 
ENDBRANCH   8   9
ENDBRANCH   7   8
ENDBRANCH   1   7
TORSDOF 3
ENDMDL
