MODEL 1
REMARK minimizedAffinity 11.1132841
REMARK minimizedRMSD -1
REMARK  3 active torsions:
REMARK  status: ('A' for Active; 'I' for Inactive)
REMARK    1  A    between atoms: C3'_2  and  C2'_3 
REMARK    2  A    between atoms: C2'_3  and  C1'_4 
REMARK    3  A    between atoms: C1'_4  and  C1_5 
ROOT
ATOM      1  C1  N4B d   1      -3.281  -0.944   2.716  0.00  0.00    -0.075 A 
ATOM      2  C2  N4B d   1      -4.465  -1.667   2.977  0.00  0.00     0.002 A 
ATOM      3  C3  N4B d   1      -5.240  -1.347   4.065  0.00  0.00     0.002 A 
ATOM      4  C4  N4B d   1      -4.843  -0.323   4.912  0.00  0.00    -0.004 A 
ATOM      5  C5  N4B d   1      -3.711   0.387   4.639  0.00  0.00     0.002 A 
ATOM      6  C6  N4B d   1      -2.924   0.079   3.547  0.00  0.00     0.002 A 
ENDROOT
BRANCH   1   7
ATOM      7  C1' N4B d   1      -2.357  -1.314   1.588  0.00  0.00     0.057 C 
BRANCH   7   8
ATOM      8  C2' N4B d   1      -0.950  -0.819   1.911  0.00  0.00     0.009 C 
BRANCH   8   9
ATOM      9  C3' N4B d   1       0.048  -1.961   1.996  0.00  0.00     0.004 C 
ATOM     10  C4' N4B d   1      -0.081  -2.931   0.860  0.00  0.00     0.003 C 
ENDBRANCH   8   9
ENDBRANCH   7   8
ENDBRANCH   1   7
TORSDOF 3
ENDMDL
