MODEL 1
REMARK minimizedAffinity 9.63232327
REMARK minimizedRMSD -1
REMARK  3 active torsions:
REMARK  status: ('A' for Active; 'I' for Inactive)
REMARK    1  A    between atoms: C3'_2  and  C2'_3 
REMARK    2  A    between atoms: C2'_3  and  C1'_4 
REMARK    3  A    between atoms: C1'_4  and  C1_5 
ROOT
ATOM      1  C1  N4B d   1       4.651  -3.418  -0.674  0.00  0.00    -0.075 A 
ATOM      2  C2  N4B d   1       5.871  -3.844  -0.104  0.00  0.00     0.002 A 
ATOM      3  C3  N4B d   1       6.000  -5.131   0.359  0.00  0.00     0.002 A 
ATOM      4  C4  N4B d   1       4.921  -5.999   0.280  0.00  0.00    -0.004 A 
ATOM      5  C5  N4B d   1       3.755  -5.587  -0.295  0.00  0.00     0.002 A 
ATOM      6  C6  N4B d   1       3.613  -4.298  -0.768  0.00  0.00     0.002 A 
ENDROOT
BRANCH   1   7
ATOM      7  C1' N4B d   1       4.435  -1.996  -1.116  0.00  0.00     0.057 C 
BRANCH   7   8
ATOM      8  C2' N4B d   1       3.760  -1.219   0.011  0.00  0.00     0.009 C 
BRANCH   8   9
ATOM      9  C3' N4B d   1       3.061  -2.140   0.997  0.00  0.00     0.004 C 
ATOM     10  C4' N4B d   1       2.642  -1.435   2.252  0.00  0.00     0.003 C 
ENDBRANCH   8   9
ENDBRANCH   7   8
ENDBRANCH   1   7
TORSDOF 3
ENDMDL
