MODEL 1
REMARK minimizedAffinity 9.4075737
REMARK minimizedRMSD -1
REMARK  3 active torsions:
REMARK  status: ('A' for Active; 'I' for Inactive)
REMARK    1  A    between atoms: C3'_2  and  C2'_3 
REMARK    2  A    between atoms: C2'_3  and  C1'_4 
REMARK    3  A    between atoms: C1'_4  and  C1_5 
ROOT
ATOM      1  C1  N4B d   1      -3.832   2.237   5.202  0.00  0.00    -0.075 A 
ATOM      2  C2  N4B d   1      -5.169   1.965   5.565  0.00  0.00     0.002 A 
ATOM      3  C3  N4B d   1      -5.998   2.990   5.950  0.00  0.00     0.002 A 
ATOM      4  C4  N4B d   1      -5.509   4.287   5.998  0.00  0.00    -0.004 A 
ATOM      5  C5  N4B d   1      -4.223   4.544   5.622  0.00  0.00     0.002 A 
ATOM      6  C6  N4B d   1      -3.380   3.525   5.228  0.00  0.00     0.002 A 
ENDROOT
BRANCH   1   7
ATOM      7  C1' N4B d   1      -2.864   1.139   4.856  0.00  0.00     0.057 C 
BRANCH   7   8
ATOM      8  C2' N4B d   1      -2.641   1.124   3.347  0.00  0.00     0.009 C 
BRANCH   8   9
ATOM      9  C3' N4B d   1      -1.929  -0.137   2.889  0.00  0.00     0.004 C 
ATOM     10  C4' N4B d   1      -2.766  -0.977   1.973  0.00  0.00     0.003 C 
ENDBRANCH   8   9
ENDBRANCH   7   8
ENDBRANCH   1   7
TORSDOF 3
ENDMDL
