MODEL 1
REMARK minimizedAffinity 21.2109833
REMARK minimizedRMSD -1
REMARK  3 active torsions:
REMARK  status: ('A' for Active; 'I' for Inactive)
REMARK    1  A    between atoms: C3'_2  and  C2'_3 
REMARK    2  A    between atoms: C2'_3  and  C1'_4 
REMARK    3  A    between atoms: C1'_4  and  C1_5 
ROOT
ATOM      1  C1  N4B d   1      -3.068   2.269   4.448  0.00  0.00    -0.075 A 
ATOM      2  C2  N4B d   1      -2.603   1.731   3.228  0.00  0.00     0.002 A 
ATOM      3  C3  N4B d   1      -1.642   0.750   3.232  0.00  0.00     0.002 A 
ATOM      4  C4  N4B d   1      -1.121   0.306   4.438  0.00  0.00    -0.004 A 
ATOM      5  C5  N4B d   1      -1.594   0.812   5.613  0.00  0.00     0.002 A 
ATOM      6  C6  N4B d   1      -2.563   1.796   5.624  0.00  0.00     0.002 A 
ENDROOT
BRANCH   1   7
ATOM      7  C1' N4B d   1      -4.055   3.403   4.490  0.00  0.00     0.057 C 
BRANCH   7   8
ATOM      8  C2' N4B d   1      -4.194   3.893   5.928  0.00  0.00     0.009 C 
BRANCH   8   9
ATOM      9  C3' N4B d   1      -4.392   5.397   6.000  0.00  0.00     0.004 C 
ATOM     10  C4' N4B d   1      -5.838   5.794   5.982  0.00  0.00     0.003 C 
ENDBRANCH   8   9
ENDBRANCH   7   8
ENDBRANCH   1   7
TORSDOF 3
ENDMDL
