MODEL 1
REMARK minimizedAffinity 8.51210499
REMARK minimizedRMSD -1
REMARK  3 active torsions:
REMARK  status: ('A' for Active; 'I' for Inactive)
REMARK    1  A    between atoms: C3'_2  and  C2'_3 
REMARK    2  A    between atoms: C2'_3  and  C1'_4 
REMARK    3  A    between atoms: C1'_4  and  C1_5 
ROOT
ATOM      1  C1  N4B d   1      -1.213  -4.448  -2.807  0.00  0.00    -0.075 A 
ATOM      2  C2  N4B d   1       0.068  -4.544  -3.395  0.00  0.00     0.002 A 
ATOM      3  C3  N4B d   1       0.251  -5.310  -4.520  0.00  0.00     0.002 A 
ATOM      4  C4  N4B d   1      -0.823  -6.000  -5.062  0.00  0.00    -0.004 A 
ATOM      5  C5  N4B d   1      -2.062  -5.881  -4.504  0.00  0.00     0.002 A 
ATOM      6  C6  N4B d   1      -2.262  -5.112  -3.375  0.00  0.00     0.002 A 
ENDROOT
BRANCH   1   7
ATOM      7  C1' N4B d   1      -1.444  -3.692  -1.527  0.00  0.00     0.057 C 
BRANCH   7   8
ATOM      8  C2' N4B d   1      -1.079  -4.586  -0.345  0.00  0.00     0.009 C 
BRANCH   8   9
ATOM      9  C3' N4B d   1      -0.194  -3.867   0.658  0.00  0.00     0.004 C 
ATOM     10  C4' N4B d   1      -0.953  -2.895   1.511  0.00  0.00     0.003 C 
ENDBRANCH   8   9
ENDBRANCH   7   8
ENDBRANCH   1   7
TORSDOF 3
ENDMDL
