MODEL 1
REMARK minimizedAffinity 8.6285181
REMARK minimizedRMSD -1
REMARK  3 active torsions:
REMARK  status: ('A' for Active; 'I' for Inactive)
REMARK    1  A    between atoms: C3'_2  and  C2'_3 
REMARK    2  A    between atoms: C2'_3  and  C1'_4 
REMARK    3  A    between atoms: C1'_4  and  C1_5 
ROOT
ATOM      1  C1  N4B d   1      -0.170  -1.623   1.549  0.00  0.00    -0.075 A 
ATOM      2  C2  N4B d   1      -1.232  -2.539   1.383  0.00  0.00     0.002 A 
ATOM      3  C3  N4B d   1      -2.532  -2.105   1.465  0.00  0.00     0.002 A 
ATOM      4  C4  N4B d   1      -2.794  -0.769   1.731  0.00  0.00    -0.004 A 
ATOM      5  C5  N4B d   1      -1.763   0.114   1.865  0.00  0.00     0.002 A 
ATOM      6  C6  N4B d   1      -0.451  -0.308   1.781  0.00  0.00     0.002 A 
ENDROOT
BRANCH   1   7
ATOM      7  C1' N4B d   1       1.267  -2.066   1.553  0.00  0.00     0.057 C 
BRANCH   7   8
ATOM      8  C2' N4B d   1       1.406  -3.323   0.699  0.00  0.00     0.009 C 
BRANCH   8   9
ATOM      9  C3' N4B d   1       2.793  -3.448   0.093  0.00  0.00     0.004 C 
ATOM     10  C4' N4B d   1       2.838  -4.399  -1.065  0.00  0.00     0.003 C 
ENDBRANCH   8   9
ENDBRANCH   7   8
ENDBRANCH   1   7
TORSDOF 3
ENDMDL
