MODEL 1
REMARK minimizedAffinity 2.69932413
REMARK minimizedRMSD -1
REMARK  3 active torsions:
REMARK  status: ('A' for Active; 'I' for Inactive)
REMARK    1  A    between atoms: C3'_2  and  C2'_3 
REMARK    2  A    between atoms: C2'_3  and  C1'_4 
REMARK    3  A    between atoms: C1'_4  and  C1_5 
ROOT
ATOM      1  C1  N4B d   1      -1.135  -0.883   1.894  0.00  0.00    -0.075 A 
ATOM      2  C2  N4B d   1      -1.228   0.463   1.478  0.00  0.00     0.002 A 
ATOM      3  C3  N4B d   1      -0.313   0.972   0.590  0.00  0.00     0.002 A 
ATOM      4  C4  N4B d   1       0.711   0.162   0.121  0.00  0.00    -0.004 A 
ATOM      5  C5  N4B d   1       0.778  -1.144   0.508  0.00  0.00     0.002 A 
ATOM      6  C6  N4B d   1      -0.137  -1.670   1.397  0.00  0.00     0.002 A 
ENDROOT
BRANCH   1   7
ATOM      7  C1' N4B d   1      -2.062  -1.460   2.930  0.00  0.00     0.057 C 
BRANCH   7   8
ATOM      8  C2' N4B d   1      -2.405  -2.897   2.549  0.00  0.00     0.009 C 
BRANCH   8   9
ATOM      9  C3' N4B d   1      -3.905  -3.141   2.546  0.00  0.00     0.004 C 
ATOM     10  C4' N4B d   1      -4.258  -4.589   2.709  0.00  0.00     0.003 C 
ENDBRANCH   8   9
ENDBRANCH   7   8
ENDBRANCH   1   7
TORSDOF 3
ENDMDL
