MODEL 1
REMARK minimizedAffinity -4.13390207
REMARK minimizedRMSD -1
REMARK  0 active torsions:
REMARK  status: ('A' for Active; 'I' for Inactive)
ROOT
ATOM      1  C   UNL d   1       1.205  -0.199   2.737  0.00  0.00     0.020 A 
ATOM      2  C1  UNL d   1       2.054   0.138   1.684  0.00  0.00     0.020 A 
ATOM      3  C2  UNL d   1       1.520   0.507   0.447  0.00  0.00     0.034 A 
ATOM      4  C3  UNL d   1       0.134   0.538   0.260  0.00  0.00     0.017 A 
ATOM      5  C4  UNL d   1      -0.718   0.200   1.318  0.00  0.00     0.017 A 
ATOM      6  C5  UNL d   1      -0.178  -0.168   2.554  0.00  0.00     0.034 A 
ATOM      7 Cl   UNL d   1      -2.439   0.215   1.164  0.00  0.00    -0.070 Cl
ATOM      8 Cl1  UNL d   1      -0.457   1.003  -1.296  0.00  0.00    -0.070 Cl
ENDROOT
TORSDOF 0
ENDMDL
