MODEL 1
REMARK minimizedAffinity -2.90768933
REMARK minimizedRMSD -1
REMARK  0 active torsions:
REMARK  status: ('A' for Active; 'I' for Inactive)
ROOT
ATOM      1  C   UNL d   1       2.791  -1.442  -3.671  0.00  0.00     0.020 A 
ATOM      2  C1  UNL d   1       2.949  -0.316  -2.865  0.00  0.00     0.020 A 
ATOM      3  C2  UNL d   1       1.834   0.438  -2.492  0.00  0.00     0.034 A 
ATOM      4  C3  UNL d   1       0.556   0.066  -2.925  0.00  0.00     0.017 A 
ATOM      5  C4  UNL d   1       0.399  -1.065  -3.734  0.00  0.00     0.017 A 
ATOM      6  C5  UNL d   1       1.518  -1.816  -4.104  0.00  0.00     0.034 A 
ATOM      7 Cl   UNL d   1      -1.146  -1.586  -4.307  0.00  0.00    -0.070 Cl
ATOM      8 Cl1  UNL d   1      -0.777   1.044  -2.426  0.00  0.00    -0.070 Cl
ENDROOT
TORSDOF 0
ENDMDL
