MODEL 1
REMARK minimizedAffinity -4.2092886
REMARK minimizedRMSD -1
REMARK  0 active torsions:
REMARK  status: ('A' for Active; 'I' for Inactive)
ROOT
ATOM      1  C   UNL d   1       1.954   0.309   1.919  0.00  0.00     0.020 A 
ATOM      2  C1  UNL d   1       0.743   0.710   2.482  0.00  0.00     0.020 A 
ATOM      3  C2  UNL d   1      -0.366   0.934   1.664  0.00  0.00     0.034 A 
ATOM      4  C3  UNL d   1      -0.267   0.758   0.279  0.00  0.00     0.017 A 
ATOM      5  C4  UNL d   1       0.949   0.356  -0.285  0.00  0.00     0.017 A 
ATOM      6  C5  UNL d   1       2.057   0.133   0.539  0.00  0.00     0.034 A 
ATOM      7 Cl   UNL d   1       1.149   0.118  -1.985  0.00  0.00    -0.070 Cl
ATOM      8 Cl1  UNL d   1      -1.679   1.052  -0.672  0.00  0.00    -0.070 Cl
ENDROOT
TORSDOF 0
ENDMDL
