MODEL 1
REMARK minimizedAffinity -3.04277062
REMARK minimizedRMSD -1
REMARK  0 active torsions:
REMARK  status: ('A' for Active; 'I' for Inactive)
ROOT
ATOM      1  C   UNL d   1      -1.391   0.483   3.293  0.00  0.00     0.020 A 
ATOM      2  C1  UNL d   1      -2.318   0.435   2.252  0.00  0.00     0.020 A 
ATOM      3  C2  UNL d   1      -1.878   0.383   0.927  0.00  0.00     0.034 A 
ATOM      4  C3  UNL d   1      -0.509   0.379   0.640  0.00  0.00     0.017 A 
ATOM      5  C4  UNL d   1       0.421   0.427   1.685  0.00  0.00     0.017 A 
ATOM      6  C5  UNL d   1      -0.025   0.479   3.010  0.00  0.00     0.034 A 
ATOM      7 Cl   UNL d   1       2.127   0.425   1.409  0.00  0.00    -0.070 Cl
ATOM      8 Cl1  UNL d   1      -0.036   0.312  -1.021  0.00  0.00    -0.070 Cl
ENDROOT
TORSDOF 0
ENDMDL
