MODEL 1
REMARK minimizedAffinity -5.48848343
REMARK minimizedRMSD -1
REMARK  0 active torsions:
REMARK  status: ('A' for Active; 'I' for Inactive)
ROOT
ATOM      1  C   UNL d   1      -1.772  -0.748   2.368  0.00  0.00     0.020 A 
ATOM      2  C1  UNL d   1      -0.982  -0.179   3.366  0.00  0.00     0.020 A 
ATOM      3  C2  UNL d   1       0.238   0.416   3.037  0.00  0.00     0.034 A 
ATOM      4  C3  UNL d   1       0.671   0.444   1.707  0.00  0.00     0.017 A 
ATOM      5  C4  UNL d   1      -0.123  -0.128   0.705  0.00  0.00     0.017 A 
ATOM      6  C5  UNL d   1      -1.343  -0.722   1.041  0.00  0.00     0.034 A 
ATOM      7 Cl   UNL d   1       0.345  -0.133  -0.958  0.00  0.00    -0.070 Cl
ATOM      8 Cl1  UNL d   1       2.190   1.196   1.372  0.00  0.00    -0.070 Cl
ENDROOT
TORSDOF 0
ENDMDL
