MODEL 1
REMARK minimizedAffinity -4.78566885
REMARK minimizedRMSD -1
REMARK  0 active torsions:
REMARK  status: ('A' for Active; 'I' for Inactive)
ROOT
ATOM      1  C   UNL d   1       0.115  -1.084   3.203  0.00  0.00     0.020 A 
ATOM      2  C1  UNL d   1      -1.112  -0.658   3.711  0.00  0.00     0.020 A 
ATOM      3  C2  UNL d   1      -2.043  -0.050   2.867  0.00  0.00     0.034 A 
ATOM      4  C3  UNL d   1      -1.749   0.135   1.511  0.00  0.00     0.017 A 
ATOM      5  C4  UNL d   1      -0.518  -0.292   1.002  0.00  0.00     0.017 A 
ATOM      6  C5  UNL d   1       0.411  -0.901   1.852  0.00  0.00     0.034 A 
ATOM      7 Cl   UNL d   1      -0.083  -0.099  -0.659  0.00  0.00    -0.070 Cl
ATOM      8 Cl1  UNL d   1      -2.948   0.894   0.525  0.00  0.00    -0.070 Cl
ENDROOT
TORSDOF 0
ENDMDL
