MODEL 1
REMARK minimizedAffinity -0.515342593
REMARK minimizedRMSD -1
REMARK  0 active torsions:
REMARK  status: ('A' for Active; 'I' for Inactive)
ROOT
ATOM      1  C   UNL d   1       2.246   0.239   0.385  0.00  0.00     0.020 A 
ATOM      2  C1  UNL d   1       1.128  -0.512   0.027  0.00  0.00     0.020 A 
ATOM      3  C2  UNL d   1      -0.029  -0.458   0.808  0.00  0.00     0.034 A 
ATOM      4  C3  UNL d   1      -0.069   0.349   1.951  0.00  0.00     0.017 A 
ATOM      5  C4  UNL d   1       1.055   1.102   2.309  0.00  0.00     0.017 A 
ATOM      6  C5  UNL d   1       2.210   1.045   1.524  0.00  0.00     0.034 A 
ATOM      7 Cl   UNL d   1       1.081   2.121   3.705  0.00  0.00    -0.070 Cl
ATOM      8 Cl1  UNL d   1      -1.532   0.367   2.870  0.00  0.00    -0.070 Cl
ENDROOT
TORSDOF 0
ENDMDL
