MODEL 1
REMARK minimizedAffinity -3.30986905
REMARK minimizedRMSD -1
REMARK  0 active torsions:
REMARK  status: ('A' for Active; 'I' for Inactive)
ROOT
ATOM      1  C   UNL d   1       0.005  -0.023   3.503  0.00  0.00     0.020 A 
ATOM      2  C1  UNL d   1       1.127  -0.052   2.676  0.00  0.00     0.020 A 
ATOM      3  C2  UNL d   1       0.977   0.062   1.292  0.00  0.00     0.034 A 
ATOM      4  C3  UNL d   1      -0.297   0.206   0.732  0.00  0.00     0.017 A 
ATOM      5  C4  UNL d   1      -1.423   0.235   1.563  0.00  0.00     0.017 A 
ATOM      6  C5  UNL d   1      -1.267   0.120   2.948  0.00  0.00     0.034 A 
ATOM      7 Cl   UNL d   1      -3.028   0.409   0.945  0.00  0.00    -0.070 Cl
ATOM      8 Cl1  UNL d   1      -0.408   0.342  -0.987  0.00  0.00    -0.070 Cl
ENDROOT
TORSDOF 0
ENDMDL
