MODEL 1
REMARK minimizedAffinity -4.72847414
REMARK minimizedRMSD -1
REMARK  0 active torsions:
REMARK  status: ('A' for Active; 'I' for Inactive)
ROOT
ATOM      1  C   UNL d   1      -1.123   0.392  -0.212  0.00  0.00     0.020 A 
ATOM      2  C1  UNL d   1      -0.046   1.263  -0.375  0.00  0.00     0.020 A 
ATOM      3  C2  UNL d   1       1.034   1.211   0.508  0.00  0.00     0.034 A 
ATOM      4  C3  UNL d   1       1.040   0.286   1.559  0.00  0.00     0.017 A 
ATOM      5  C4  UNL d   1      -0.041  -0.588   1.722  0.00  0.00     0.017 A 
ATOM      6  C5  UNL d   1      -1.120  -0.531   0.834  0.00  0.00     0.034 A 
ATOM      7 Cl   UNL d   1      -0.105  -1.756   2.994  0.00  0.00    -0.070 Cl
ATOM      8 Cl1  UNL d   1       2.409   0.276   2.613  0.00  0.00    -0.070 Cl
ENDROOT
TORSDOF 0
ENDMDL
