MODEL 1
REMARK minimizedAffinity -5.90269661
REMARK minimizedRMSD -1
REMARK  0 active torsions:
REMARK  status: ('A' for Active; 'I' for Inactive)
ROOT
ATOM      1  C   UNL d   1       0.535  -0.629   2.604  0.00  0.00     0.020 A 
ATOM      2  C1  UNL d   1      -0.732  -0.412   3.143  0.00  0.00     0.020 A 
ATOM      3  C2  UNL d   1      -1.796  -0.064   2.308  0.00  0.00     0.034 A 
ATOM      4  C3  UNL d   1      -1.594   0.068   0.929  0.00  0.00     0.017 A 
ATOM      5  C4  UNL d   1      -0.321  -0.151   0.389  0.00  0.00     0.017 A 
ATOM      6  C5  UNL d   1       0.740  -0.499   1.230  0.00  0.00     0.034 A 
ATOM      7 Cl   UNL d   1       0.005  -0.008  -1.302  0.00  0.00    -0.070 Cl
ATOM      8 Cl1  UNL d   1      -2.954   0.500  -0.044  0.00  0.00    -0.070 Cl
ENDROOT
TORSDOF 0
ENDMDL
