MODEL 1
REMARK minimizedAffinity -5.30321598
REMARK minimizedRMSD -1
REMARK  0 active torsions:
REMARK  status: ('A' for Active; 'I' for Inactive)
ROOT
ATOM      1  C   UNL d   1      -0.866   0.078   2.849  0.00  0.00     0.020 A 
ATOM      2  C1  UNL d   1      -1.644   0.036   1.693  0.00  0.00     0.020 A 
ATOM      3  C2  UNL d   1      -1.035   0.095   0.438  0.00  0.00     0.034 A 
ATOM      4  C3  UNL d   1       0.358   0.196   0.335  0.00  0.00     0.017 A 
ATOM      5  C4  UNL d   1       1.138   0.237   1.496  0.00  0.00     0.017 A 
ATOM      6  C5  UNL d   1       0.523   0.178   2.750  0.00  0.00     0.034 A 
ATOM      7 Cl   UNL d   1       2.862   0.361   1.450  0.00  0.00    -0.070 Cl
ATOM      8 Cl1  UNL d   1       1.044   0.263  -1.249  0.00  0.00    -0.070 Cl
ENDROOT
TORSDOF 0
ENDMDL
