MODEL 1
REMARK minimizedAffinity -5.30314255
REMARK minimizedRMSD -1
REMARK  0 active torsions:
REMARK  status: ('A' for Active; 'I' for Inactive)
ROOT
ATOM      1  C   UNL d   1       0.109  -0.366   2.965  0.00  0.00     0.020 A 
ATOM      2  C1  UNL d   1       1.116  -0.206   2.015  0.00  0.00     0.020 A 
ATOM      3  C2  UNL d   1       0.788   0.131   0.700  0.00  0.00     0.034 A 
ATOM      4  C3  UNL d   1      -0.551   0.309   0.332  0.00  0.00     0.017 A 
ATOM      5  C4  UNL d   1      -1.561   0.148   1.287  0.00  0.00     0.017 A 
ATOM      6  C5  UNL d   1      -1.227  -0.189   2.602  0.00  0.00     0.034 A 
ATOM      7 Cl   UNL d   1      -3.236   0.352   0.909  0.00  0.00    -0.070 Cl
ATOM      8 Cl1  UNL d   1      -0.884   0.725  -1.312  0.00  0.00    -0.070 Cl
ENDROOT
TORSDOF 0
ENDMDL
