MODEL 1
REMARK minimizedAffinity 4.51358032
REMARK minimizedRMSD -1
REMARK  0 active torsions:
REMARK  status: ('A' for Active; 'I' for Inactive)
ROOT
ATOM      1  C   UNL d   1       0.044   0.829   2.893  0.00  0.00     0.020 A 
ATOM      2  C1  UNL d   1       0.893   1.670   3.612  0.00  0.00     0.020 A 
ATOM      3  C2  UNL d   1       2.089   2.108   3.041  0.00  0.00     0.034 A 
ATOM      4  C3  UNL d   1       2.441   1.706   1.748  0.00  0.00     0.017 A 
ATOM      5  C4  UNL d   1       1.589   0.862   1.027  0.00  0.00     0.017 A 
ATOM      6  C5  UNL d   1       0.392   0.426   1.603  0.00  0.00     0.034 A 
ATOM      7 Cl   UNL d   1       1.955   0.323  -0.574  0.00  0.00    -0.070 Cl
ATOM      8 Cl1  UNL d   1       3.936   2.287   1.104  0.00  0.00    -0.070 Cl
ENDROOT
TORSDOF 0
ENDMDL
