MODEL 1
REMARK minimizedAffinity 2.30014682
REMARK minimizedRMSD -1
REMARK  0 active torsions:
REMARK  status: ('A' for Active; 'I' for Inactive)
ROOT
ATOM      1  C   UNL d   1      -2.750   0.629  -0.142  0.00  0.00     0.020 A 
ATOM      2  C1  UNL d   1      -3.031   0.105  -1.403  0.00  0.00     0.020 A 
ATOM      3  C2  UNL d   1      -1.989  -0.318  -2.231  0.00  0.00     0.034 A 
ATOM      4  C3  UNL d   1      -0.662  -0.218  -1.799  0.00  0.00     0.017 A 
ATOM      5  C4  UNL d   1      -0.381   0.308  -0.533  0.00  0.00     0.017 A 
ATOM      6  C5  UNL d   1      -1.428   0.731   0.292  0.00  0.00     0.034 A 
ATOM      7 Cl   UNL d   1       1.232   0.464   0.070  0.00  0.00    -0.070 Cl
ATOM      8 Cl1  UNL d   1       0.577  -0.761  -2.875  0.00  0.00    -0.070 Cl
ENDROOT
TORSDOF 0
ENDMDL
