MODEL 1
REMARK minimizedAffinity -4.532547
REMARK minimizedRMSD -1
REMARK  0 active torsions:
REMARK  status: ('A' for Active; 'I' for Inactive)
ROOT
ATOM      1  C   UNL d   1      -1.266  -0.851   3.313  0.00  0.00     0.020 A 
ATOM      2  C1  UNL d   1      -2.082  -1.008   2.193  0.00  0.00     0.020 A 
ATOM      3  C2  UNL d   1      -1.616  -0.632   0.932  0.00  0.00     0.034 A 
ATOM      4  C3  UNL d   1      -0.330  -0.098   0.787  0.00  0.00     0.017 A 
ATOM      5  C4  UNL d   1       0.488   0.058   1.911  0.00  0.00     0.017 A 
ATOM      6  C5  UNL d   1       0.017  -0.320   3.172  0.00  0.00     0.034 A 
ATOM      7 Cl   UNL d   1       2.086   0.709   1.811  0.00  0.00    -0.070 Cl
ATOM      8 Cl1  UNL d   1       0.182   0.344  -0.803  0.00  0.00    -0.070 Cl
ENDROOT
TORSDOF 0
ENDMDL
