MODEL 1
REMARK minimizedAffinity -4.6242671
REMARK minimizedRMSD -1
REMARK  0 active torsions:
REMARK  status: ('A' for Active; 'I' for Inactive)
ROOT
ATOM      1  C   UNL d   1      -0.848  -0.521   3.375  0.00  0.00     0.020 A 
ATOM      2  C1  UNL d   1      -1.724  -1.129   2.478  0.00  0.00     0.020 A 
ATOM      3  C2  UNL d   1      -1.520  -0.995   1.103  0.00  0.00     0.034 A 
ATOM      4  C3  UNL d   1      -0.436  -0.252   0.621  0.00  0.00     0.017 A 
ATOM      5  C4  UNL d   1       0.443   0.358   1.523  0.00  0.00     0.017 A 
ATOM      6  C5  UNL d   1       0.234   0.221   2.899  0.00  0.00     0.034 A 
ATOM      7 Cl   UNL d   1       1.802   1.292   1.005  0.00  0.00    -0.070 Cl
ATOM      8 Cl1  UNL d   1      -0.244  -0.128  -1.091  0.00  0.00    -0.070 Cl
ENDROOT
TORSDOF 0
ENDMDL
