MODEL 1
REMARK minimizedAffinity 6.9078474
REMARK minimizedRMSD -1
REMARK  0 active torsions:
REMARK  status: ('A' for Active; 'I' for Inactive)
ROOT
ATOM      1  C   UNL d   1       0.436   1.593   2.564  0.00  0.00     0.020 A 
ATOM      2  C1  UNL d   1       1.725   1.497   2.040  0.00  0.00     0.020 A 
ATOM      3  C2  UNL d   1       1.913   1.068   0.724  0.00  0.00     0.034 A 
ATOM      4  C3  UNL d   1       0.812   0.733  -0.071  0.00  0.00     0.017 A 
ATOM      5  C4  UNL d   1      -0.481   0.829   0.456  0.00  0.00     0.017 A 
ATOM      6  C5  UNL d   1      -0.664   1.259   1.774  0.00  0.00     0.034 A 
ATOM      7 Cl   UNL d   1      -1.890   0.433  -0.465  0.00  0.00    -0.070 Cl
ATOM      8 Cl1  UNL d   1       1.119   0.210  -1.689  0.00  0.00    -0.070 Cl
ENDROOT
TORSDOF 0
ENDMDL
