MODEL 1
REMARK minimizedAffinity -3.27998924
REMARK minimizedRMSD -1
REMARK  0 active torsions:
REMARK  status: ('A' for Active; 'I' for Inactive)
ROOT
ATOM      1  C   UNL d   1       1.749  -0.317  -1.121  0.00  0.00     0.023 A 
ATOM      2  C1  UNL d   1       1.087  -0.947  -0.068  0.00  0.00     0.003 A 
ATOM      3  C2  UNL d   1       0.022  -0.309   0.570  0.00  0.00     0.048 A 
ATOM      4  C3  UNL d   1      -0.376   0.960   0.150  0.00  0.00     0.023 A 
ATOM      5  C4  UNL d   1       0.284   1.595  -0.904  0.00  0.00     0.048 A 
ATOM      6  C5  UNL d   1       1.348   0.953  -1.538  0.00  0.00     0.003 A 
ATOM      7  I   UNL d   1      -1.961   1.912   1.099  0.00  0.00    -0.146 I 
ENDROOT
TORSDOF 0
ENDMDL
