MODEL 1
REMARK minimizedAffinity 0.923181236
REMARK minimizedRMSD -1
REMARK  0 active torsions:
REMARK  status: ('A' for Active; 'I' for Inactive)
ROOT
ATOM      1  C   UNL d   1      -0.371   1.232   0.588  0.00  0.00     0.023 A 
ATOM      2  C1  UNL d   1       0.379   1.229  -0.589  0.00  0.00     0.003 A 
ATOM      3  C2  UNL d   1       0.818   0.022  -1.136  0.00  0.00     0.048 A 
ATOM      4  C3  UNL d   1       0.503  -1.179  -0.502  0.00  0.00     0.023 A 
ATOM      5  C4  UNL d   1      -0.248  -1.182   0.674  0.00  0.00     0.048 A 
ATOM      6  C5  UNL d   1      -0.684   0.028   1.218  0.00  0.00     0.003 A 
ATOM      7  I   UNL d   1       1.155  -2.978  -1.315  0.00  0.00    -0.146 I 
ENDROOT
TORSDOF 0
ENDMDL
