MODEL 1
REMARK minimizedAffinity 0.633999467
REMARK minimizedRMSD -1
REMARK  0 active torsions:
REMARK  status: ('A' for Active; 'I' for Inactive)
ROOT
ATOM      1  C   UNL d   1      -0.751   1.119   0.988  0.00  0.00     0.023 A 
ATOM      2  C1  UNL d   1      -0.651   1.367  -0.381  0.00  0.00     0.003 A 
ATOM      3  C2  UNL d   1      -0.008   0.448  -1.213  0.00  0.00     0.048 A 
ATOM      4  C3  UNL d   1       0.532  -0.717  -0.670  0.00  0.00     0.023 A 
ATOM      5  C4  UNL d   1       0.432  -0.970   0.699  0.00  0.00     0.048 A 
ATOM      6  C5  UNL d   1      -0.211  -0.048   1.527  0.00  0.00     0.003 A 
ATOM      7  I   UNL d   1       1.489  -2.086  -1.906  0.00  0.00    -0.146 I 
ENDROOT
TORSDOF 0
ENDMDL
