MODEL 1
REMARK minimizedAffinity -0.543750942
REMARK minimizedRMSD -1
REMARK  0 active torsions:
REMARK  status: ('A' for Active; 'I' for Inactive)
ROOT
ATOM      1  C   UNL d   1      -1.130  -0.379   2.265  0.00  0.00     0.023 A 
ATOM      2  C1  UNL d   1      -0.966   1.006   2.249  0.00  0.00     0.003 A 
ATOM      3  C2  UNL d   1      -0.353   1.625   1.158  0.00  0.00     0.048 A 
ATOM      4  C3  UNL d   1       0.093   0.853   0.086  0.00  0.00     0.023 A 
ATOM      5  C4  UNL d   1      -0.069  -0.533   0.097  0.00  0.00     0.048 A 
ATOM      6  C5  UNL d   1      -0.682  -1.148   1.191  0.00  0.00     0.003 A 
ATOM      7  I   UNL d   1       1.006   1.772  -1.539  0.00  0.00    -0.146 I 
ENDROOT
TORSDOF 0
ENDMDL
