MODEL 1
REMARK minimizedAffinity -3.8265233
REMARK minimizedRMSD -1
REMARK  0 active torsions:
REMARK  status: ('A' for Active; 'I' for Inactive)
ROOT
ATOM      1  C   UNL d   1      -1.391   2.023   1.523  0.00  0.00     0.023 A 
ATOM      2  C1  UNL d   1      -1.061   0.829   2.165  0.00  0.00     0.003 A 
ATOM      3  C2  UNL d   1      -0.461  -0.207   1.448  0.00  0.00     0.048 A 
ATOM      4  C3  UNL d   1      -0.192  -0.043   0.090  0.00  0.00     0.023 A 
ATOM      5  C4  UNL d   1      -0.519   1.150  -0.557  0.00  0.00     0.048 A 
ATOM      6  C5  UNL d   1      -1.121   2.183   0.164  0.00  0.00     0.003 A 
ATOM      7  I   UNL d   1       0.702  -1.585  -0.980  0.00  0.00    -0.146 I 
ENDROOT
TORSDOF 0
ENDMDL
