MODEL 1
REMARK minimizedAffinity -3.9726603
REMARK minimizedRMSD -1
REMARK  0 active torsions:
REMARK  status: ('A' for Active; 'I' for Inactive)
ROOT
ATOM      1  C   UNL d   1      -1.885   2.147   1.755  0.00  0.00     0.023 A 
ATOM      2  C1  UNL d   1      -1.558   0.878   2.231  0.00  0.00     0.003 A 
ATOM      3  C2  UNL d   1      -0.790   0.013   1.448  0.00  0.00     0.048 A 
ATOM      4  C3  UNL d   1      -0.352   0.425   0.190  0.00  0.00     0.023 A 
ATOM      5  C4  UNL d   1      -0.676   1.695  -0.290  0.00  0.00     0.048 A 
ATOM      6  C5  UNL d   1      -1.445   2.555   0.495  0.00  0.00     0.003 A 
ATOM      7  I   UNL d   1       0.792  -0.860  -0.976  0.00  0.00    -0.146 I 
ENDROOT
TORSDOF 0
ENDMDL
