MODEL 1
REMARK minimizedAffinity -3.62116838
REMARK minimizedRMSD -1
REMARK  0 active torsions:
REMARK  status: ('A' for Active; 'I' for Inactive)
ROOT
ATOM      1  C   UNL d   1       1.516   0.105  -1.103  0.00  0.00     0.023 A 
ATOM      2  C1  UNL d   1       1.079   1.415  -1.301  0.00  0.00     0.003 A 
ATOM      3  C2  UNL d   1      -0.026   1.898  -0.597  0.00  0.00     0.048 A 
ATOM      4  C3  UNL d   1      -0.689   1.065   0.304  0.00  0.00     0.023 A 
ATOM      5  C4  UNL d   1      -0.255  -0.246   0.506  0.00  0.00     0.048 A 
ATOM      6  C5  UNL d   1       0.849  -0.725  -0.201  0.00  0.00     0.003 A 
ATOM      7  I   UNL d   1      -2.334   1.781   1.354  0.00  0.00    -0.146 I 
ENDROOT
TORSDOF 0
ENDMDL
