MODEL 1
REMARK minimizedAffinity -3.61351943
REMARK minimizedRMSD -1
REMARK  0 active torsions:
REMARK  status: ('A' for Active; 'I' for Inactive)
ROOT
ATOM      1  C   UNL d   1       0.730  -0.277  -1.154  0.00  0.00     0.023 A 
ATOM      2  C1  UNL d   1       0.251  -0.828   0.034  0.00  0.00     0.003 A 
ATOM      3  C2  UNL d   1      -0.579  -0.077   0.869  0.00  0.00     0.048 A 
ATOM      4  C3  UNL d   1      -0.927   1.225   0.508  0.00  0.00     0.023 A 
ATOM      5  C4  UNL d   1      -0.451   1.780  -0.680  0.00  0.00     0.048 A 
ATOM      6  C5  UNL d   1       0.380   1.025  -1.511  0.00  0.00     0.003 A 
ATOM      7  I   UNL d   1      -2.163   2.345   1.748  0.00  0.00    -0.146 I 
ENDROOT
TORSDOF 0
ENDMDL
