MODEL 1
REMARK minimizedAffinity -0.793973625
REMARK minimizedRMSD -1
REMARK  0 active torsions:
REMARK  status: ('A' for Active; 'I' for Inactive)
ROOT
ATOM      1  C   UNL d   1      -1.728   1.744   1.454  0.00  0.00     0.023 A 
ATOM      2  C1  UNL d   1      -1.105   0.809   2.281  0.00  0.00     0.003 A 
ATOM      3  C2  UNL d   1      -0.389  -0.252   1.723  0.00  0.00     0.048 A 
ATOM      4  C3  UNL d   1      -0.298  -0.371   0.336  0.00  0.00     0.023 A 
ATOM      5  C4  UNL d   1      -0.918   0.562  -0.495  0.00  0.00     0.048 A 
ATOM      6  C5  UNL d   1      -1.634   1.621   0.067  0.00  0.00     0.003 A 
ATOM      7  I   UNL d   1       0.768  -1.949  -0.497  0.00  0.00    -0.146 I 
ENDROOT
TORSDOF 0
ENDMDL
