MODEL 1
REMARK minimizedAffinity -1.72707105
REMARK minimizedRMSD -1
REMARK  0 active torsions:
REMARK  status: ('A' for Active; 'I' for Inactive)
ROOT
ATOM      1  C   UNL d   1       1.448   0.011  -0.389  0.00  0.00     0.023 A 
ATOM      2  C1  UNL d   1       1.038   1.043  -1.234  0.00  0.00     0.003 A 
ATOM      3  C2  UNL d   1      -0.255   1.558  -1.132  0.00  0.00     0.048 A 
ATOM      4  C3  UNL d   1      -1.134   1.038  -0.183  0.00  0.00     0.023 A 
ATOM      5  C4  UNL d   1      -0.729   0.006   0.665  0.00  0.00     0.048 A 
ATOM      6  C5  UNL d   1       0.565  -0.507   0.559  0.00  0.00     0.003 A 
ATOM      7  I   UNL d   1      -3.060   1.804  -0.030  0.00  0.00    -0.146 I 
ENDROOT
TORSDOF 0
ENDMDL
