MODEL 1
REMARK minimizedAffinity -2.7282443
REMARK minimizedRMSD -1
REMARK  0 active torsions:
REMARK  status: ('A' for Active; 'I' for Inactive)
ROOT
ATOM      1  C   UNL d   1      -1.677   1.655   1.956  0.00  0.00     0.023 A 
ATOM      2  C1  UNL d   1      -1.905   1.726   0.582  0.00  0.00     0.003 A 
ATOM      3  C2  UNL d   1      -1.203   0.889  -0.288  0.00  0.00     0.048 A 
ATOM      4  C3  UNL d   1      -0.275  -0.018   0.224  0.00  0.00     0.023 A 
ATOM      5  C4  UNL d   1      -0.044  -0.093   1.598  0.00  0.00     0.048 A 
ATOM      6  C5  UNL d   1      -0.748   0.747   2.464  0.00  0.00     0.003 A 
ATOM      7  I   UNL d   1       0.771  -1.265  -1.068  0.00  0.00    -0.146 I 
ENDROOT
TORSDOF 0
ENDMDL
