MODEL 1
REMARK minimizedAffinity -2.75579405
REMARK minimizedRMSD -1
REMARK  0 active torsions:
REMARK  status: ('A' for Active; 'I' for Inactive)
ROOT
ATOM      1  C   UNL d   1      -1.664   1.512   1.902  0.00  0.00     0.023 A 
ATOM      2  C1  UNL d   1      -1.158   2.007   0.700  0.00  0.00     0.003 A 
ATOM      3  C2  UNL d   1      -0.497   1.153  -0.185  0.00  0.00     0.048 A 
ATOM      4  C3  UNL d   1      -0.347  -0.195   0.137  0.00  0.00     0.023 A 
ATOM      5  C4  UNL d   1      -0.852  -0.695   1.338  0.00  0.00     0.048 A 
ATOM      6  C5  UNL d   1      -1.511   0.163   2.221  0.00  0.00     0.003 A 
ATOM      7  I   UNL d   1       0.635  -1.468  -1.180  0.00  0.00    -0.146 I 
ENDROOT
TORSDOF 0
ENDMDL
