MODEL 1
REMARK minimizedAffinity -3.01855588
REMARK minimizedRMSD -1
REMARK  0 active torsions:
REMARK  status: ('A' for Active; 'I' for Inactive)
ROOT
ATOM      1  C   UNL d   1      -0.252   2.535  -1.320  0.00  0.00     0.023 A 
ATOM      2  C1  UNL d   1       0.741   1.580  -1.540  0.00  0.00     0.003 A 
ATOM      3  C2  UNL d   1       0.831   0.461  -0.709  0.00  0.00     0.048 A 
ATOM      4  C3  UNL d   1      -0.075   0.304   0.339  0.00  0.00     0.023 A 
ATOM      5  C4  UNL d   1      -1.071   1.257   0.562  0.00  0.00     0.048 A 
ATOM      6  C5  UNL d   1      -1.156   2.374  -0.271  0.00  0.00     0.003 A 
ATOM      7  I   UNL d   1       0.057  -1.360   1.578  0.00  0.00    -0.146 I 
ENDROOT
TORSDOF 0
ENDMDL
