MODEL 1
REMARK minimizedAffinity 3.29799819
REMARK minimizedRMSD -1
REMARK  1 active torsions:
REMARK  status: ('A' for Active; 'I' for Inactive)
REMARK    1  A    between atoms: N_2  and  C1_3 
ROOT
ATOM      1  C1  UNL d   1       2.980   0.616  -1.149  0.00  0.00     0.143 A 
ATOM      2  C2  UNL d   1       1.649   0.187  -1.122  0.00  0.00    -0.057 A 
ATOM      3  C3  UNL d   1       1.017  -0.146   0.082  0.00  0.00     0.033 A 
ATOM      4  C4  UNL d   1       1.718  -0.082   1.282  0.00  0.00    -0.042 A 
ATOM      5  C5  UNL d   1       3.050   0.318   1.277  0.00  0.00     0.033 A 
ATOM      6  C6  UNL d   1       3.672   0.655   0.071  0.00  0.00    -0.057 A 
ENDROOT
BRANCH   1   7
ATOM      7  N   UNL d   1       3.693   0.867  -2.324  0.00  0.00    -0.732 N 
ATOM      8  C   UNL d   1       4.857   1.727  -2.311  0.00  0.00     0.284 C 
ATOM      9  H3  UNL d   1       3.797   0.035  -2.900  0.00  0.00     0.395 HD
ENDBRANCH   1   7
TORSDOF 1
ENDMDL
