MODEL 1
REMARK minimizedAffinity -1.95390689
REMARK minimizedRMSD -1
REMARK  1 active torsions:
REMARK  status: ('A' for Active; 'I' for Inactive)
REMARK    1  A    between atoms: N_2  and  C1_3 
ROOT
ATOM      1  C1  UNL d   1       3.273   0.414  -1.875  0.00  0.00     0.143 A 
ATOM      2  C2  UNL d   1       3.739  -0.010  -3.124  0.00  0.00    -0.057 A 
ATOM      3  C3  UNL d   1       5.091   0.105  -3.473  0.00  0.00     0.033 A 
ATOM      4  C4  UNL d   1       5.998   0.674  -2.585  0.00  0.00    -0.042 A 
ATOM      5  C5  UNL d   1       5.553   1.125  -1.347  0.00  0.00     0.033 A 
ATOM      6  C6  UNL d   1       4.203   1.001  -1.003  0.00  0.00    -0.057 A 
ENDROOT
BRANCH   1   7
ATOM      7  N   UNL d   1       1.926   0.417  -1.508  0.00  0.00    -0.732 N 
ATOM      8  C   UNL d   1       1.542   0.458  -0.113  0.00  0.00     0.284 C 
ATOM      9  H3  UNL d   1       1.360   1.007  -2.113  0.00  0.00     0.395 HD
ENDBRANCH   1   7
TORSDOF 1
ENDMDL
