MODEL 1
REMARK minimizedAffinity 2.58004141
REMARK minimizedRMSD -1
REMARK  1 active torsions:
REMARK  status: ('A' for Active; 'I' for Inactive)
REMARK    1  A    between atoms: N_2  and  C1_3 
ROOT
ATOM      1  C1  UNL d   1       3.889   1.116  -1.855  0.00  0.00     0.143 A 
ATOM      2  C2  UNL d   1       4.169   1.173  -0.485  0.00  0.00    -0.057 A 
ATOM      3  C3  UNL d   1       3.247   0.719   0.464  0.00  0.00     0.033 A 
ATOM      4  C4  UNL d   1       2.011   0.224   0.061  0.00  0.00    -0.042 A 
ATOM      5  C5  UNL d   1       1.700   0.181  -1.293  0.00  0.00     0.033 A 
ATOM      6  C6  UNL d   1       2.629   0.630  -2.237  0.00  0.00    -0.057 A 
ENDROOT
BRANCH   1   7
ATOM      7  N   UNL d   1       4.725   1.642  -2.843  0.00  0.00    -0.732 N 
ATOM      8  C   UNL d   1       5.903   2.402  -2.483  0.00  0.00     0.284 C 
ATOM      9  H3  UNL d   1       4.866   0.997  -3.617  0.00  0.00     0.395 HD
ENDBRANCH   1   7
TORSDOF 1
ENDMDL
