MODEL 1
REMARK minimizedAffinity 2.19587517
REMARK minimizedRMSD -1
REMARK  1 active torsions:
REMARK  status: ('A' for Active; 'I' for Inactive)
REMARK    1  A    between atoms: N_2  and  C1_3 
ROOT
ATOM      1  C1  UNL d   1      -0.304   2.186  -0.496  0.00  0.00     0.143 A 
ATOM      2  C2  UNL d   1      -1.646   2.582  -0.532  0.00  0.00    -0.057 A 
ATOM      3  C3  UNL d   1      -2.101   3.673   0.218  0.00  0.00     0.033 A 
ATOM      4  C4  UNL d   1      -1.225   4.371   1.043  0.00  0.00    -0.042 A 
ATOM      5  C5  UNL d   1       0.107   3.979   1.114  0.00  0.00     0.033 A 
ATOM      6  C6  UNL d   1       0.557   2.893   0.358  0.00  0.00    -0.057 A 
ENDROOT
BRANCH   1   7
ATOM      7  N   UNL d   1       0.189   1.049  -1.142  0.00  0.00    -0.732 N 
ATOM      8  C   UNL d   1       1.563   0.634  -0.957  0.00  0.00     0.284 C 
ATOM      9  H3  UNL d   1      -0.481   0.283  -1.145  0.00  0.00     0.395 HD
ENDBRANCH   1   7
TORSDOF 1
ENDMDL
