MODEL 1
REMARK minimizedAffinity 2.76360202
REMARK minimizedRMSD -1
REMARK  1 active torsions:
REMARK  status: ('A' for Active; 'I' for Inactive)
REMARK    1  A    between atoms: N_2  and  C1_3 
ROOT
ATOM      1  C1  UNL d   1       0.180   1.261  -0.548  0.00  0.00     0.143 A 
ATOM      2  C2  UNL d   1       0.510   2.464   0.087  0.00  0.00    -0.057 A 
ATOM      3  C3  UNL d   1      -0.481   3.346   0.532  0.00  0.00     0.033 A 
ATOM      4  C4  UNL d   1      -1.825   3.054   0.324  0.00  0.00    -0.042 A 
ATOM      5  C5  UNL d   1      -2.176   1.877  -0.327  0.00  0.00     0.033 A 
ATOM      6  C6  UNL d   1      -1.181   0.996  -0.763  0.00  0.00    -0.057 A 
ENDROOT
BRANCH   1   7
ATOM      7  N   UNL d   1       1.121   0.389  -1.101  0.00  0.00    -0.732 N 
ATOM      8  C   UNL d   1       2.470   0.333  -0.579  0.00  0.00     0.284 C 
ATOM      9  H3  UNL d   1       0.724  -0.520  -1.324  0.00  0.00     0.395 HD
ENDBRANCH   1   7
TORSDOF 1
ENDMDL
