MODEL 1
REMARK minimizedAffinity 8.59989166
REMARK minimizedRMSD -1
REMARK  1 active torsions:
REMARK  status: ('A' for Active; 'I' for Inactive)
REMARK    1  A    between atoms: N_2  and  C1_3 
ROOT
ATOM      1  C1  UNL d   1       5.012   1.895  -1.956  0.00  0.00     0.143 A 
ATOM      2  C2  UNL d   1       5.149   1.903  -0.564  0.00  0.00    -0.057 A 
ATOM      3  C3  UNL d   1       4.268   1.189   0.257  0.00  0.00     0.033 A 
ATOM      4  C4  UNL d   1       3.212   0.476  -0.301  0.00  0.00    -0.042 A 
ATOM      5  C5  UNL d   1       3.041   0.473  -1.680  0.00  0.00     0.033 A 
ATOM      6  C6  UNL d   1       3.929   1.183  -2.495  0.00  0.00    -0.057 A 
ENDROOT
BRANCH   1   7
ATOM      7  N   UNL d   1       5.796   2.664  -2.820  0.00  0.00    -0.732 N 
ATOM      8  C   UNL d   1       5.539   4.078  -2.987  0.00  0.00     0.284 C 
ATOM      9  H3  UNL d   1       6.783   2.424  -2.765  0.00  0.00     0.395 HD
ENDBRANCH   1   7
TORSDOF 1
ENDMDL
