MODEL 1
REMARK minimizedAffinity 3.76375508
REMARK minimizedRMSD -1
REMARK  1 active torsions:
REMARK  status: ('A' for Active; 'I' for Inactive)
REMARK    1  A    between atoms: N_2  and  C1_3 
ROOT
ATOM      1  C1  UNL d   1       2.601  -0.364   1.302  0.00  0.00     0.143 A 
ATOM      2  C2  UNL d   1       3.282   0.799   0.925  0.00  0.00    -0.057 A 
ATOM      3  C3  UNL d   1       3.307   1.226  -0.408  0.00  0.00     0.033 A 
ATOM      4  C4  UNL d   1       2.673   0.480  -1.395  0.00  0.00    -0.042 A 
ATOM      5  C5  UNL d   1       2.010  -0.692  -1.048  0.00  0.00     0.033 A 
ATOM      6  C6  UNL d   1       1.984  -1.110   0.286  0.00  0.00    -0.057 A 
ENDROOT
BRANCH   1   7
ATOM      7  N   UNL d   1       2.622  -0.893   2.595  0.00  0.00    -0.732 N 
ATOM      8  C   UNL d   1       1.706  -1.948   2.974  0.00  0.00     0.284 C 
ATOM      9  H3  UNL d   1       3.568  -1.017   2.948  0.00  0.00     0.395 HD
ENDBRANCH   1   7
TORSDOF 1
ENDMDL
