MODEL 1
REMARK minimizedAffinity 5.74374723
REMARK minimizedRMSD -1
REMARK  1 active torsions:
REMARK  status: ('A' for Active; 'I' for Inactive)
REMARK    1  A    between atoms: C1_2  and  C2_3 
ROOT
ATOM      1  C2  UNL d   1      -3.525   4.598   3.601  0.00  0.00    -0.077 A 
ATOM      2  C3  UNL d   1      -4.620   5.162   4.272  0.00  0.00     0.002 A 
ATOM      3  C4  UNL d   1      -4.432   5.858   5.467  0.00  0.00     0.002 A 
ATOM      4  C5  UNL d   1      -3.153   6.000   6.000  0.00  0.00    -0.004 A 
ATOM      5  C6  UNL d   1      -2.058   5.441   5.341  0.00  0.00     0.002 A 
ATOM      6  C7  UNL d   1      -2.244   4.744   4.146  0.00  0.00     0.002 A 
ENDROOT
BRANCH   1   7
ATOM      7  C1  UNL d   1      -3.719   3.889   2.286  0.00  0.00     0.055 C 
ATOM      8  C   UNL d   1      -4.866   4.498   1.492  0.00  0.00     0.019 C 
ENDBRANCH   1   7
TORSDOF 1
ENDMDL
