MODEL 1
REMARK minimizedAffinity 6.28296423
REMARK minimizedRMSD -1
REMARK  1 active torsions:
REMARK  status: ('A' for Active; 'I' for Inactive)
REMARK    1  A    between atoms: C1_2  and  C2_3 
ROOT
ATOM      1  C2  UNL d   1       4.966  -3.241   5.067  0.00  0.00    -0.077 A 
ATOM      2  C3  UNL d   1       3.792  -3.922   4.715  0.00  0.00     0.002 A 
ATOM      3  C4  UNL d   1       3.652  -5.282   5.000  0.00  0.00     0.002 A 
ATOM      4  C5  UNL d   1       4.679  -5.971   5.640  0.00  0.00    -0.004 A 
ATOM      5  C6  UNL d   1       5.852  -5.303   5.992  0.00  0.00     0.002 A 
ATOM      6  C7  UNL d   1       5.994  -3.945   5.708  0.00  0.00     0.002 A 
ENDROOT
BRANCH   1   7
ATOM      7  C1  UNL d   1       5.100  -1.764   4.805  0.00  0.00     0.055 C 
ATOM      8  C   UNL d   1       5.936  -1.085   5.880  0.00  0.00     0.019 C 
ENDBRANCH   1   7
TORSDOF 1
ENDMDL
