MODEL 1
REMARK minimizedAffinity 6.10142708
REMARK minimizedRMSD -1
REMARK  1 active torsions:
REMARK  status: ('A' for Active; 'I' for Inactive)
REMARK    1  A    between atoms: C1_2  and  C2_3 
ROOT
ATOM      1  C2  UNL d   1      -3.734   4.704   4.055  0.00  0.00    -0.077 A 
ATOM      2  C3  UNL d   1      -4.021   5.595   5.098  0.00  0.00     0.002 A 
ATOM      3  C4  UNL d   1      -3.018   5.987   5.988  0.00  0.00     0.002 A 
ATOM      4  C5  UNL d   1      -1.723   5.496   5.841  0.00  0.00    -0.004 A 
ATOM      5  C6  UNL d   1      -1.428   4.608   4.808  0.00  0.00     0.002 A 
ATOM      6  C7  UNL d   1      -2.429   4.214   3.918  0.00  0.00     0.002 A 
ENDROOT
BRANCH   1   7
ATOM      7  C1  UNL d   1      -4.802   4.318   3.065  0.00  0.00     0.055 C 
ATOM      8  C   UNL d   1      -4.202   3.661   1.831  0.00  0.00     0.019 C 
ENDBRANCH   1   7
TORSDOF 1
ENDMDL
