MODEL 1
REMARK minimizedAffinity 11.6037006
REMARK minimizedRMSD -1
REMARK  1 active torsions:
REMARK  status: ('A' for Active; 'I' for Inactive)
REMARK    1  A    between atoms: C1_2  and  C2_3 
ROOT
ATOM      1  C2  UNL d   1      -3.253  -1.396   1.243  0.00  0.00    -0.077 A 
ATOM      2  C3  UNL d   1      -2.567  -0.213   0.933  0.00  0.00     0.002 A 
ATOM      3  C4  UNL d   1      -2.545   0.848   1.839  0.00  0.00     0.002 A 
ATOM      4  C5  UNL d   1      -3.202   0.736   3.063  0.00  0.00    -0.004 A 
ATOM      5  C6  UNL d   1      -3.888  -0.435   3.380  0.00  0.00     0.002 A 
ATOM      6  C7  UNL d   1      -3.913  -1.497   2.475  0.00  0.00     0.002 A 
ENDROOT
BRANCH   1   7
ATOM      7  C1  UNL d   1      -3.237  -2.561   0.288  0.00  0.00     0.055 C 
ATOM      8  C   UNL d   1      -4.494  -2.591  -0.569  0.00  0.00     0.019 C 
ENDBRANCH   1   7
TORSDOF 1
ENDMDL
