MODEL 1
REMARK minimizedAffinity -4.36862659
REMARK minimizedRMSD -1
REMARK  1 active torsions:
REMARK  status: ('A' for Active; 'I' for Inactive)
REMARK    1  A    between atoms: C1_2  and  C2_3 
ROOT
ATOM      1  C2  UNL d   1       4.712  -3.585   5.500  0.00  0.00    -0.077 A 
ATOM      2  C3  UNL d   1       3.887  -3.053   4.499  0.00  0.00     0.002 A 
ATOM      3  C4  UNL d   1       4.113  -1.766   4.008  0.00  0.00     0.002 A 
ATOM      4  C5  UNL d   1       5.165  -1.002   4.508  0.00  0.00    -0.004 A 
ATOM      5  C6  UNL d   1       5.990  -1.521   5.505  0.00  0.00     0.002 A 
ATOM      6  C7  UNL d   1       5.765  -2.807   5.998  0.00  0.00     0.002 A 
ENDROOT
BRANCH   1   7
ATOM      7  C1  UNL d   1       4.501  -4.991   5.996  0.00  0.00     0.055 C 
ATOM      8  C   UNL d   1       5.412  -5.975   5.276  0.00  0.00     0.019 C 
ENDBRANCH   1   7
TORSDOF 1
ENDMDL
