MODEL 1
REMARK minimizedAffinity 9.08722687
REMARK minimizedRMSD -1
REMARK  1 active torsions:
REMARK  status: ('A' for Active; 'I' for Inactive)
REMARK    1  A    between atoms: C1_2  and  C2_3 
ROOT
ATOM      1  C2  UNL d   1      -3.104   2.478   2.693  0.00  0.00    -0.077 A 
ATOM      2  C3  UNL d   1      -4.157   2.756   1.810  0.00  0.00     0.002 A 
ATOM      3  C4  UNL d   1      -4.793   3.999   1.837  0.00  0.00     0.002 A 
ATOM      4  C5  UNL d   1      -4.380   4.974   2.743  0.00  0.00    -0.004 A 
ATOM      5  C6  UNL d   1      -3.335   4.707   3.626  0.00  0.00     0.002 A 
ATOM      6  C7  UNL d   1      -2.699   3.465   3.601  0.00  0.00     0.002 A 
ENDROOT
BRANCH   1   7
ATOM      7  C1  UNL d   1      -2.385   1.156   2.631  0.00  0.00     0.055 C 
ATOM      8  C   UNL d   1      -3.361  -0.009   2.703  0.00  0.00     0.019 C 
ENDBRANCH   1   7
TORSDOF 1
ENDMDL
