MODEL 1
REMARK minimizedAffinity 2.15221214
REMARK minimizedRMSD -1
REMARK  1 active torsions:
REMARK  status: ('A' for Active; 'I' for Inactive)
REMARK    1  A    between atoms: C1_2  and  C2_3 
ROOT
ATOM      1  C2  UNL d   1      -3.890   5.143   4.026  0.00  0.00    -0.077 A 
ATOM      2  C3  UNL d   1      -2.796   4.299   3.790  0.00  0.00     0.002 A 
ATOM      3  C4  UNL d   1      -2.712   3.564   2.606  0.00  0.00     0.002 A 
ATOM      4  C5  UNL d   1      -3.717   3.669   1.647  0.00  0.00    -0.004 A 
ATOM      5  C6  UNL d   1      -4.811   4.504   1.873  0.00  0.00     0.002 A 
ATOM      6  C7  UNL d   1      -4.897   5.238   3.056  0.00  0.00     0.002 A 
ENDROOT
BRANCH   1   7
ATOM      7  C1  UNL d   1      -3.957   5.974   5.280  0.00  0.00     0.055 C 
ATOM      8  C   UNL d   1      -2.617   5.999   6.000  0.00  0.00     0.019 C 
ENDBRANCH   1   7
TORSDOF 1
ENDMDL
