MODEL 1
REMARK minimizedAffinity 0.184897572
REMARK minimizedRMSD -1
REMARK  1 active torsions:
REMARK  status: ('A' for Active; 'I' for Inactive)
REMARK    1  A    between atoms: C1_2  and  C2_3 
ROOT
ATOM      1  C2  UNL d   1       3.595  -5.748   3.561  0.00  0.00    -0.077 A 
ATOM      2  C3  UNL d   1       3.497  -5.652   4.957  0.00  0.00     0.002 A 
ATOM      3  C4  UNL d   1       4.642  -5.730   5.752  0.00  0.00     0.002 A 
ATOM      4  C5  UNL d   1       5.892  -5.901   5.161  0.00  0.00    -0.004 A 
ATOM      5  C6  UNL d   1       6.000  -6.000   3.775  0.00  0.00     0.002 A 
ATOM      6  C7  UNL d   1       4.857  -5.923   2.978  0.00  0.00     0.002 A 
ENDROOT
BRANCH   1   7
ATOM      7  C1  UNL d   1       2.367  -5.615   2.699  0.00  0.00     0.055 C 
ATOM      8  C   UNL d   1       2.678  -5.923   1.241  0.00  0.00     0.019 C 
ENDBRANCH   1   7
TORSDOF 1
ENDMDL
