MODEL 1
REMARK minimizedAffinity -1.36230516
REMARK minimizedRMSD -1
REMARK  1 active torsions:
REMARK  status: ('A' for Active; 'I' for Inactive)
REMARK    1  A    between atoms: C1_2  and  C2_3 
ROOT
ATOM      1  C2  UNL d   1      -3.409   5.496   3.543  0.00  0.00    -0.077 A 
ATOM      2  C3  UNL d   1      -2.792   5.001   2.386  0.00  0.00     0.002 A 
ATOM      3  C4  UNL d   1      -3.547   4.732   1.243  0.00  0.00     0.002 A 
ATOM      4  C5  UNL d   1      -4.922   4.957   1.245  0.00  0.00    -0.004 A 
ATOM      5  C6  UNL d   1      -5.546   5.446   2.392  0.00  0.00     0.002 A 
ATOM      6  C7  UNL d   1      -4.793   5.715   3.536  0.00  0.00     0.002 A 
ENDROOT
BRANCH   1   7
ATOM      7  C1  UNL d   1      -2.589   5.834   4.761  0.00  0.00     0.055 C 
ATOM      8  C   UNL d   1      -3.468   5.990   5.994  0.00  0.00     0.019 C 
ENDBRANCH   1   7
TORSDOF 1
ENDMDL
