MODEL 1
REMARK minimizedAffinity 13.2211514
REMARK minimizedRMSD -1
REMARK  1 active torsions:
REMARK  status: ('A' for Active; 'I' for Inactive)
REMARK    1  A    between atoms: C1_2  and  C2_3 
ROOT
ATOM      1  C2  UNL d   1       2.671   4.588   0.142  0.00  0.00    -0.077 A 
ATOM      2  C3  UNL d   1       2.780   4.117   1.458  0.00  0.00     0.002 A 
ATOM      3  C4  UNL d   1       4.030   4.022   2.073  0.00  0.00     0.002 A 
ATOM      4  C5  UNL d   1       5.179   4.400   1.381  0.00  0.00    -0.004 A 
ATOM      5  C6  UNL d   1       5.081   4.868   0.071  0.00  0.00     0.002 A 
ATOM      6  C7  UNL d   1       3.832   4.962  -0.545  0.00  0.00     0.002 A 
ENDROOT
BRANCH   1   7
ATOM      7  C1  UNL d   1       1.319   4.738  -0.505  0.00  0.00     0.055 C 
ATOM      8  C   UNL d   1       0.606   5.990  -0.015  0.00  0.00     0.019 C 
ENDBRANCH   1   7
TORSDOF 1
ENDMDL
