MODEL 1
REMARK minimizedAffinity 9.30472946
REMARK minimizedRMSD -1
REMARK  1 active torsions:
REMARK  status: ('A' for Active; 'I' for Inactive)
REMARK    1  A    between atoms: C1_2  and  C2_3 
ROOT
ATOM      1  C2  UNL d   1       2.528   2.384  -2.798  0.00  0.00    -0.077 A 
ATOM      2  C3  UNL d   1       1.685   2.260  -3.911  0.00  0.00     0.002 A 
ATOM      3  C4  UNL d   1       0.882   1.128  -4.066  0.00  0.00     0.002 A 
ATOM      4  C5  UNL d   1       0.911   0.115  -3.110  0.00  0.00    -0.004 A 
ATOM      5  C6  UNL d   1       1.748   0.229  -2.000  0.00  0.00     0.002 A 
ATOM      6  C7  UNL d   1       2.552   1.358  -1.845  0.00  0.00     0.002 A 
ENDROOT
BRANCH   1   7
ATOM      7  C1  UNL d   1       3.359   3.626  -2.605  0.00  0.00     0.055 C 
ATOM      8  C   UNL d   1       3.151   4.614  -3.744  0.00  0.00     0.019 C 
ENDBRANCH   1   7
TORSDOF 1
ENDMDL
