MODEL 1
REMARK minimizedAffinity 11.4732819
REMARK minimizedRMSD -1
REMARK  0 active torsions:
REMARK  status: ('A' for Active; 'I' for Inactive)
ROOT
ATOM      1  O1  BZF d   1       4.508   1.230  -2.922  0.00  0.00    -0.204 OA
ATOM      2  C2  BZF d   1       5.671   1.823  -2.469  0.00  0.00     0.174 A 
ATOM      3  C3  BZF d   1       5.766   1.727  -1.127  0.00  0.00    -0.012 A 
ATOM      4  C3A BZF d   1       4.634   0.949  -0.725  0.00  0.00    -0.107 A 
ATOM      5  C4  BZF d   1       4.186   0.499   0.485  0.00  0.00     0.055 A 
ATOM      6  C5  BZF d   1       3.007  -0.173   0.543  0.00  0.00    -0.016 A 
ATOM      7  C6  BZF d   1       2.249  -0.410  -0.585  0.00  0.00     0.022 A 
ATOM      8  C7  BZF d   1       2.655   0.012  -1.807  0.00  0.00     0.029 A 
ATOM      9  C7A BZF d   1       3.862   0.664  -1.874  0.00  0.00     0.058 A 
ENDROOT
TORSDOF 0
ENDMDL
