MODEL 1
REMARK minimizedAffinity 12.404295
REMARK minimizedRMSD -1
REMARK  0 active torsions:
REMARK  status: ('A' for Active; 'I' for Inactive)
ROOT
ATOM      1  O1  BZF d   1       1.843   6.000   4.058  0.00  0.00    -0.204 OA
ATOM      2  C2  BZF d   1       1.156   5.842   2.870  0.00  0.00     0.174 A 
ATOM      3  C3  BZF d   1       2.013   5.690   1.839  0.00  0.00    -0.012 A 
ATOM      4  C3A BZF d   1       3.315   5.666   2.432  0.00  0.00    -0.107 A 
ATOM      5  C4  BZF d   1       4.575   5.524   1.925  0.00  0.00     0.055 A 
ATOM      6  C5  BZF d   1       5.639   5.618   2.765  0.00  0.00    -0.016 A 
ATOM      7  C6  BZF d   1       5.480   5.858   4.115  0.00  0.00     0.022 A 
ATOM      8  C7  BZF d   1       4.250   6.000   4.664  0.00  0.00     0.029 A 
ATOM      9  C7A BZF d   1       3.171   5.873   3.824  0.00  0.00     0.058 A 
ENDROOT
TORSDOF 0
ENDMDL
