MODEL 1
REMARK minimizedAffinity 10.7170086
REMARK minimizedRMSD -1
REMARK  0 active torsions:
REMARK  status: ('A' for Active; 'I' for Inactive)
ROOT
ATOM      1  O1  BZF d   1       2.667   0.227  -1.831  0.00  0.00    -0.204 OA
ATOM      2  C2  BZF d   1       2.326   0.235  -0.493  0.00  0.00     0.174 A 
ATOM      3  C3  BZF d   1       3.235   0.922   0.229  0.00  0.00    -0.012 A 
ATOM      4  C3A BZF d   1       4.156   1.449  -0.730  0.00  0.00    -0.107 A 
ATOM      5  C4  BZF d   1       5.271   2.232  -0.629  0.00  0.00     0.055 A 
ATOM      6  C5  BZF d   1       5.987   2.508  -1.751  0.00  0.00    -0.016 A 
ATOM      7  C6  BZF d   1       5.621   2.016  -2.986  0.00  0.00     0.022 A 
ATOM      8  C7  BZF d   1       4.520   1.240  -3.137  0.00  0.00     0.029 A 
ATOM      9  C7A BZF d   1       3.775   0.986  -2.011  0.00  0.00     0.058 A 
ENDROOT
TORSDOF 0
ENDMDL
