MODEL 1
REMARK minimizedAffinity 0.645081699
REMARK minimizedRMSD -1
REMARK  0 active torsions:
REMARK  status: ('A' for Active; 'I' for Inactive)
ROOT
ATOM      1  O1  BZF d   1      -2.227  -0.974  -3.987  0.00  0.00    -0.204 OA
ATOM      2  C2  BZF d   1      -3.219  -0.924  -4.947  0.00  0.00     0.174 A 
ATOM      3  C3  BZF d   1      -3.538  -2.164  -5.371  0.00  0.00    -0.012 A 
ATOM      4  C3A BZF d   1      -2.757  -3.050  -4.563  0.00  0.00    -0.107 A 
ATOM      5  C4  BZF d   1      -2.646  -4.409  -4.498  0.00  0.00     0.055 A 
ATOM      6  C5  BZF d   1      -1.738  -4.958  -3.649  0.00  0.00    -0.016 A 
ATOM      7  C6  BZF d   1      -0.923  -4.179  -2.855  0.00  0.00     0.022 A 
ATOM      8  C7  BZF d   1      -1.000  -2.826  -2.880  0.00  0.00     0.029 A 
ATOM      9  C7A BZF d   1      -1.940  -2.269  -3.713  0.00  0.00     0.058 A 
ENDROOT
TORSDOF 0
ENDMDL
