MODEL 1
REMARK minimizedAffinity 16.9633751
REMARK minimizedRMSD -1
REMARK  0 active torsions:
REMARK  status: ('A' for Active; 'I' for Inactive)
ROOT
ATOM      1  O1  BZF d   1       4.814   2.217  -2.276  0.00  0.00    -0.204 OA
ATOM      2  C2  BZF d   1       5.929   2.850  -1.761  0.00  0.00     0.174 A 
ATOM      3  C3  BZF d   1       5.998   2.686  -0.424  0.00  0.00    -0.012 A 
ATOM      4  C3A BZF d   1       4.905   1.823  -0.095  0.00  0.00    -0.107 A 
ATOM      5  C4  BZF d   1       4.455   1.283   1.076  0.00  0.00     0.055 A 
ATOM      6  C5  BZF d   1       3.316   0.541   1.067  0.00  0.00    -0.016 A 
ATOM      7  C6  BZF d   1       2.601   0.324  -0.092  0.00  0.00     0.022 A 
ATOM      8  C7  BZF d   1       3.010   0.835  -1.279  0.00  0.00     0.029 A 
ATOM      9  C7A BZF d   1       4.178   1.558  -1.278  0.00  0.00     0.058 A 
ENDROOT
TORSDOF 0
ENDMDL
