MODEL 1
REMARK minimizedAffinity 12.6675901
REMARK minimizedRMSD -1
REMARK  0 active torsions:
REMARK  status: ('A' for Active; 'I' for Inactive)
ROOT
ATOM      1  O1  BZF d   1       2.644   0.409  -1.554  0.00  0.00    -0.204 OA
ATOM      2  C2  BZF d   1       1.830  -0.221  -0.633  0.00  0.00     0.174 A 
ATOM      3  C3  BZF d   1       2.281  -0.017   0.622  0.00  0.00    -0.012 A 
ATOM      4  C3A BZF d   1       3.397   0.867   0.482  0.00  0.00    -0.107 A 
ATOM      5  C4  BZF d   1       4.253   1.447   1.374  0.00  0.00     0.055 A 
ATOM      6  C5  BZF d   1       5.282   2.201   0.906  0.00  0.00    -0.016 A 
ATOM      7  C6  BZF d   1       5.488   2.392  -0.444  0.00  0.00     0.022 A 
ATOM      8  C7  BZF d   1       4.662   1.841  -1.367  0.00  0.00     0.029 A 
ATOM      9  C7A BZF d   1       3.602   1.105  -0.897  0.00  0.00     0.058 A 
ENDROOT
TORSDOF 0
ENDMDL
