MODEL 1
REMARK minimizedAffinity 14.7805223
REMARK minimizedRMSD -1
REMARK  0 active torsions:
REMARK  status: ('A' for Active; 'I' for Inactive)
ROOT
ATOM      1  O1  BZF d   1       5.300  -1.612   3.712  0.00  0.00    -0.204 OA
ATOM      2  C2  BZF d   1       6.000  -1.740   4.896  0.00  0.00     0.174 A 
ATOM      3  C3  BZF d   1       5.417  -1.020   5.877  0.00  0.00    -0.012 A 
ATOM      4  C3A BZF d   1       4.230  -0.477   5.290  0.00  0.00    -0.107 A 
ATOM      5  C4  BZF d   1       3.224   0.314   5.767  0.00  0.00     0.055 A 
ATOM      6  C5  BZF d   1       2.249   0.727   4.916  0.00  0.00    -0.016 A 
ATOM      7  C6  BZF d   1       2.251   0.373   3.582  0.00  0.00     0.022 A 
ATOM      8  C7  BZF d   1       3.225  -0.414   3.064  0.00  0.00     0.029 A 
ATOM      9  C7A BZF d   1       4.195  -0.860   3.929  0.00  0.00     0.058 A 
ENDROOT
TORSDOF 0
ENDMDL
