MODEL 1
REMARK minimizedAffinity 9.7937336
REMARK minimizedRMSD -1
REMARK  0 active torsions:
REMARK  status: ('A' for Active; 'I' for Inactive)
ROOT
ATOM      1  O1  BZF d   1       0.652   3.366   4.624  0.00  0.00    -0.204 OA
ATOM      2  C2  BZF d   1       1.505   2.496   5.276  0.00  0.00     0.174 A 
ATOM      3  C3  BZF d   1       2.338   1.897   4.401  0.00  0.00    -0.012 A 
ATOM      4  C3A BZF d   1       2.046   2.494   3.134  0.00  0.00    -0.107 A 
ATOM      5  C4  BZF d   1       2.555   2.328   1.878  0.00  0.00     0.055 A 
ATOM      6  C5  BZF d   1       1.999   3.012   0.844  0.00  0.00    -0.016 A 
ATOM      7  C6  BZF d   1       0.932   3.867   1.029  0.00  0.00     0.022 A 
ATOM      8  C7  BZF d   1       0.397   4.069   2.257  0.00  0.00     0.029 A 
ATOM      9  C7A BZF d   1       0.977   3.403   3.309  0.00  0.00     0.058 A 
ENDROOT
TORSDOF 0
ENDMDL
