MODEL 1
REMARK minimizedAffinity 8.07917023
REMARK minimizedRMSD -1
REMARK  0 active torsions:
REMARK  status: ('A' for Active; 'I' for Inactive)
ROOT
ATOM      1  O1  BZF d   1       2.742   0.438  -0.856  0.00  0.00    -0.204 OA
ATOM      2  C2  BZF d   1       2.391   0.216   0.462  0.00  0.00     0.174 A 
ATOM      3  C3  BZF d   1       3.274   0.802   1.297  0.00  0.00    -0.012 A 
ATOM      4  C3A BZF d   1       4.185   1.507   0.447  0.00  0.00    -0.107 A 
ATOM      5  C4  BZF d   1       5.274   2.294   0.687  0.00  0.00     0.055 A 
ATOM      6  C5  BZF d   1       5.989   2.772  -0.365  0.00  0.00    -0.016 A 
ATOM      7  C6  BZF d   1       5.646   2.477  -1.669  0.00  0.00     0.022 A 
ATOM      8  C7  BZF d   1       4.571   1.704  -1.957  0.00  0.00     0.029 A 
ATOM      9  C7A BZF d   1       3.827   1.248  -0.896  0.00  0.00     0.058 A 
ENDROOT
TORSDOF 0
ENDMDL
