MODEL 1
REMARK minimizedAffinity -1.6043334
REMARK minimizedRMSD -1
REMARK  0 active torsions:
REMARK  status: ('A' for Active; 'I' for Inactive)
ROOT
ATOM      1  C   UNL d   1      -0.219   1.220   1.465  0.00  0.00     0.023 A 
ATOM      2  C1  UNL d   1       0.404   0.049   1.898  0.00  0.00     0.003 A 
ATOM      3  C2  UNL d   1       0.487  -1.055   1.046  0.00  0.00     0.048 A 
ATOM      4  C3  UNL d   1      -0.056  -0.981  -0.236  0.00  0.00     0.023 A 
ATOM      5  C4  UNL d   1      -0.680   0.189  -0.673  0.00  0.00     0.048 A 
ATOM      6  C5  UNL d   1      -0.760   1.290   0.181  0.00  0.00     0.003 A 
ATOM      7  I   UNL d   1       0.066  -2.622  -1.505  0.00  0.00    -0.146 I 
ENDROOT
TORSDOF 0
ENDMDL
