MODEL 1
REMARK minimizedAffinity -5.03959703
REMARK minimizedRMSD -1
REMARK  0 active torsions:
REMARK  status: ('A' for Active; 'I' for Inactive)
ROOT
ATOM      1  C   UNL d   1      -1.125   4.100  -0.010  0.00  0.00     0.023 A 
ATOM      2  C1  UNL d   1      -1.341   3.213   1.044  0.00  0.00     0.003 A 
ATOM      3  C2  UNL d   1      -0.933   1.882   0.932  0.00  0.00     0.048 A 
ATOM      4  C3  UNL d   1      -0.309   1.446  -0.236  0.00  0.00     0.023 A 
ATOM      5  C4  UNL d   1      -0.090   2.330  -1.293  0.00  0.00     0.048 A 
ATOM      6  C5  UNL d   1      -0.501   3.660  -1.177  0.00  0.00     0.003 A 
ATOM      7  I   UNL d   1       0.299  -0.535  -0.404  0.00  0.00    -0.146 I 
ENDROOT
TORSDOF 0
ENDMDL
