MODEL 1
REMARK minimizedAffinity 4.01848745
REMARK minimizedRMSD -1
REMARK  0 active torsions:
REMARK  status: ('A' for Active; 'I' for Inactive)
ROOT
ATOM      1  C   UNL d   1       0.313   3.348   2.412  0.00  0.00     0.023 A 
ATOM      2  C1  UNL d   1      -0.036   2.033   2.719  0.00  0.00     0.003 A 
ATOM      3  C2  UNL d   1      -0.171   1.088   1.700  0.00  0.00     0.048 A 
ATOM      4  C3  UNL d   1       0.045   1.465   0.375  0.00  0.00     0.023 A 
ATOM      5  C4  UNL d   1       0.396   2.780   0.063  0.00  0.00     0.048 A 
ATOM      6  C5  UNL d   1       0.529   3.721   1.085  0.00  0.00     0.003 A 
ATOM      7  I   UNL d   1      -0.154   0.061  -1.144  0.00  0.00    -0.146 I 
ENDROOT
TORSDOF 0
ENDMDL
