MODEL 1
REMARK minimizedAffinity 6.21832657
REMARK minimizedRMSD -1
REMARK  0 active torsions:
REMARK  status: ('A' for Active; 'I' for Inactive)
ROOT
ATOM      1  C   UNL d   1       1.515  -0.703   2.659  0.00  0.00     0.023 A 
ATOM      2  C1  UNL d   1       1.894  -1.236   1.427  0.00  0.00     0.003 A 
ATOM      3  C2  UNL d   1       1.327  -0.746   0.249  0.00  0.00     0.048 A 
ATOM      4  C3  UNL d   1       0.383   0.279   0.310  0.00  0.00     0.023 A 
ATOM      5  C4  UNL d   1       0.002   0.816   1.541  0.00  0.00     0.048 A 
ATOM      6  C5  UNL d   1       0.571   0.322   2.716  0.00  0.00     0.003 A 
ATOM      7  I   UNL d   1      -0.461   1.011  -1.442  0.00  0.00    -0.146 I 
ENDROOT
TORSDOF 0
ENDMDL
