MODEL 1
REMARK minimizedAffinity 7.19519615
REMARK minimizedRMSD -1
REMARK  1 active torsions:
REMARK  status: ('A' for Active; 'I' for Inactive)
REMARK    1  A    between atoms: N_2  and  C1_3 
ROOT
ATOM      1  C1  UNL d   1      -1.465  -3.715  -3.299  0.00  0.00     0.143 A 
ATOM      2  C2  UNL d   1      -1.305  -3.478  -4.669  0.00  0.00    -0.057 A 
ATOM      3  C3  UNL d   1      -1.595  -4.467  -5.616  0.00  0.00     0.033 A 
ATOM      4  C4  UNL d   1      -2.023  -5.726  -5.207  0.00  0.00    -0.042 A 
ATOM      5  C5  UNL d   1      -2.165  -5.993  -3.850  0.00  0.00     0.033 A 
ATOM      6  C6  UNL d   1      -1.880  -4.998  -2.909  0.00  0.00    -0.057 A 
ENDROOT
BRANCH   1   7
ATOM      7  N   UNL d   1      -1.100  -2.805  -2.304  0.00  0.00    -0.732 N 
ATOM      8  C   UNL d   1      -0.617  -1.486  -2.653  0.00  0.00     0.284 C 
ATOM      9  H3  UNL d   1      -1.739  -2.819  -1.512  0.00  0.00     0.395 HD
ENDBRANCH   1   7
TORSDOF 1
ENDMDL
