MODEL 1
REMARK minimizedAffinity 5.8109479
REMARK minimizedRMSD -1
REMARK  1 active torsions:
REMARK  status: ('A' for Active; 'I' for Inactive)
REMARK    1  A    between atoms: N_2  and  C1_3 
ROOT
ATOM      1  C1  UNL d   1      -1.245  -0.281   2.559  0.00  0.00     0.143 A 
ATOM      2  C2  UNL d   1      -0.728   0.475   3.616  0.00  0.00    -0.057 A 
ATOM      3  C3  UNL d   1       0.645   0.494   3.892  0.00  0.00     0.033 A 
ATOM      4  C4  UNL d   1       1.524  -0.270   3.131  0.00  0.00    -0.042 A 
ATOM      5  C5  UNL d   1       1.029  -1.049   2.092  0.00  0.00     0.033 A 
ATOM      6  C6  UNL d   1      -0.342  -1.058   1.817  0.00  0.00    -0.057 A 
ENDROOT
BRANCH   1   7
ATOM      7  N   UNL d   1      -2.610  -0.419   2.296  0.00  0.00    -0.732 N 
ATOM      8  C   UNL d   1      -3.377  -1.481   2.912  0.00  0.00     0.284 C 
ATOM      9  H3  UNL d   1      -3.092   0.477   2.265  0.00  0.00     0.395 HD
ENDBRANCH   1   7
TORSDOF 1
ENDMDL
