MODEL 1
REMARK minimizedAffinity 9.8794384
REMARK minimizedRMSD -1
REMARK  1 active torsions:
REMARK  status: ('A' for Active; 'I' for Inactive)
REMARK    1  A    between atoms: N_2  and  C1_3 
ROOT
ATOM      1  C1  UNL d   1      -0.692  -1.043   2.503  0.00  0.00     0.143 A 
ATOM      2  C2  UNL d   1      -0.064  -2.168   3.046  0.00  0.00    -0.057 A 
ATOM      3  C3  UNL d   1       1.313  -2.180   3.299  0.00  0.00     0.033 A 
ATOM      4  C4  UNL d   1       2.094  -1.072   2.984  0.00  0.00    -0.042 A 
ATOM      5  C5  UNL d   1       1.495   0.048   2.420  0.00  0.00     0.033 A 
ATOM      6  C6  UNL d   1       0.118   0.056   2.176  0.00  0.00    -0.057 A 
ENDROOT
BRANCH   1   7
ATOM      7  N   UNL d   1      -2.040  -1.005   2.137  0.00  0.00    -0.732 N 
ATOM      8  C   UNL d   1      -2.838  -2.212   2.137  0.00  0.00     0.284 C 
ATOM      9  H3  UNL d   1      -2.520  -0.189   2.508  0.00  0.00     0.395 HD
ENDBRANCH   1   7
TORSDOF 1
ENDMDL
