MODEL 1
REMARK minimizedAffinity 9.29736519
REMARK minimizedRMSD -1
REMARK  0 active torsions:
REMARK  status: ('A' for Active; 'I' for Inactive)
ROOT
ATOM      1  C2' OXE d   1       4.807   5.297   4.989  0.00  0.00     0.078 C 
ATOM      2  C1' OXE d   1       3.649   4.074   2.743  0.00  0.00     0.078 C 
ATOM      3  C1  OXE d   1       2.730   4.756   3.725  0.00  0.00    -0.078 A 
ATOM      4  C2  OXE d   1       3.300   5.311   4.845  0.00  0.00    -0.078 A 
ATOM      5  C3  OXE d   1       2.503   6.000   5.755  0.00  0.00     0.003 A 
ATOM      6  C4  OXE d   1       1.110   6.000   5.619  0.00  0.00    -0.002 A 
ATOM      7  C5  OXE d   1       0.505   5.406   4.506  0.00  0.00    -0.002 A 
ATOM      8  C6  OXE d   1       1.302   4.818   3.530  0.00  0.00     0.003 A 
ENDROOT
TORSDOF 0
ENDMDL
