MODEL 1
REMARK minimizedAffinity 0.933203697
REMARK minimizedRMSD -1
REMARK  0 active torsions:
REMARK  status: ('A' for Active; 'I' for Inactive)
ROOT
ATOM      1  C2' OXE d   1       3.045   4.757   2.632  0.00  0.00     0.078 C 
ATOM      2  C1' OXE d   1       4.087   5.662   5.077  0.00  0.00     0.078 C 
ATOM      3  C1  OXE d   1       2.587   5.620   4.924  0.00  0.00    -0.078 A 
ATOM      4  C2  OXE d   1       2.087   5.220   3.708  0.00  0.00    -0.078 A 
ATOM      5  C3  OXE d   1       0.710   5.111   3.531  0.00  0.00     0.003 A 
ATOM      6  C4  OXE d   1      -0.169   5.551   4.528  0.00  0.00    -0.002 A 
ATOM      7  C5  OXE d   1       0.320   6.000   5.759  0.00  0.00    -0.002 A 
ATOM      8  C6  OXE d   1       1.692   6.000   5.988  0.00  0.00     0.003 A 
ENDROOT
TORSDOF 0
ENDMDL
