MODEL 1
REMARK minimizedAffinity 4.42395639
REMARK minimizedRMSD -1
REMARK  0 active torsions:
REMARK  status: ('A' for Active; 'I' for Inactive)
ROOT
ATOM      1  C2' OXE d   1       4.280   5.141   5.604  0.00  0.00     0.078 C 
ATOM      2  C1' OXE d   1       3.354   3.700   3.380  0.00  0.00     0.078 C 
ATOM      3  C1  OXE d   1       2.350   4.510   4.161  0.00  0.00    -0.078 A 
ATOM      4  C2  OXE d   1       2.803   5.175   5.275  0.00  0.00    -0.078 A 
ATOM      5  C3  OXE d   1       1.930   5.981   6.000  0.00  0.00     0.003 A 
ATOM      6  C4  OXE d   1       0.563   5.999   5.695  0.00  0.00    -0.002 A 
ATOM      7  C5  OXE d   1       0.074   5.298   4.588  0.00  0.00    -0.002 A 
ATOM      8  C6  OXE d   1       0.959   4.584   3.787  0.00  0.00     0.003 A 
ENDROOT
TORSDOF 0
ENDMDL
