MODEL 1
REMARK minimizedAffinity -0.0490011647
REMARK minimizedRMSD -1
REMARK  0 active torsions:
REMARK  status: ('A' for Active; 'I' for Inactive)
ROOT
ATOM      1  C2' OXE d   1       1.234   5.727   4.103  0.00  0.00     0.078 C 
ATOM      2  C1' OXE d   1       3.708   5.669   5.428  0.00  0.00     0.078 C 
ATOM      3  C1  OXE d   1       3.585   4.907   4.133  0.00  0.00    -0.078 A 
ATOM      4  C2  OXE d   1       2.358   4.902   3.515  0.00  0.00    -0.078 A 
ATOM      5  C3  OXE d   1       2.205   4.260   2.290  0.00  0.00     0.003 A 
ATOM      6  C4  OXE d   1       3.247   3.491   1.758  0.00  0.00    -0.002 A 
ATOM      7  C5  OXE d   1       4.494   3.449   2.391  0.00  0.00    -0.002 A 
ATOM      8  C6  OXE d   1       4.692   4.184   3.555  0.00  0.00     0.003 A 
ENDROOT
TORSDOF 0
ENDMDL
