MODEL 1
REMARK minimizedAffinity -2.06640053
REMARK minimizedRMSD -1
REMARK  0 active torsions:
REMARK  status: ('A' for Active; 'I' for Inactive)
ROOT
ATOM      1  C2' OXE d   1       5.988   5.688  -5.796  0.00  0.00     0.078 C 
ATOM      2  C1' OXE d   1       5.814   2.887  -5.789  0.00  0.00     0.078 C 
ATOM      3  C1  OXE d   1       4.529   3.671  -5.879  0.00  0.00    -0.078 A 
ATOM      4  C2  OXE d   1       4.620   5.041  -5.834  0.00  0.00    -0.078 A 
ATOM      5  C3  OXE d   1       3.470   5.813  -5.968  0.00  0.00     0.003 A 
ATOM      6  C4  OXE d   1       2.208   5.207  -5.993  0.00  0.00    -0.002 A 
ATOM      7  C5  OXE d   1       2.090   3.813  -5.999  0.00  0.00    -0.002 A 
ATOM      8  C6  OXE d   1       3.240   3.032  -5.985  0.00  0.00     0.003 A 
ENDROOT
TORSDOF 0
ENDMDL
