MODEL 1
REMARK minimizedAffinity 2.56966591
REMARK minimizedRMSD -1
REMARK  0 active torsions:
REMARK  status: ('A' for Active; 'I' for Inactive)
ROOT
ATOM      1  C2' OXE d   1       4.048   4.815   4.938  0.00  0.00     0.078 C 
ATOM      2  C1' OXE d   1       2.760   3.799   2.660  0.00  0.00     0.078 C 
ATOM      3  C1  OXE d   1       1.930   4.581   3.647  0.00  0.00    -0.078 A 
ATOM      4  C2  OXE d   1       2.558   5.035   4.782  0.00  0.00    -0.078 A 
ATOM      5  C3  OXE d   1       1.852   5.808   5.699  0.00  0.00     0.003 A 
ATOM      6  C4  OXE d   1       0.473   5.999   5.552  0.00  0.00    -0.002 A 
ATOM      7  C5  OXE d   1      -0.195   5.511   4.424  0.00  0.00    -0.002 A 
ATOM      8  C6  OXE d   1       0.526   4.838   3.443  0.00  0.00     0.003 A 
ENDROOT
TORSDOF 0
ENDMDL
