MODEL 1
REMARK minimizedAffinity 14.3815699
REMARK minimizedRMSD -1
REMARK  0 active torsions:
REMARK  status: ('A' for Active; 'I' for Inactive)
ROOT
ATOM      1  C2' OXE d   1       3.376   3.096   2.971  0.00  0.00     0.078 C 
ATOM      2  C1' OXE d   1       1.484   3.801   4.920  0.00  0.00     0.078 C 
ATOM      3  C1  OXE d   1       2.833   4.472   4.975  0.00  0.00    -0.078 A 
ATOM      4  C2  OXE d   1       3.769   4.087   4.045  0.00  0.00    -0.078 A 
ATOM      5  C3  OXE d   1       5.011   4.715   4.016  0.00  0.00     0.003 A 
ATOM      6  C4  OXE d   1       5.370   5.623   5.020  0.00  0.00    -0.002 A 
ATOM      7  C5  OXE d   1       4.445   6.000   6.000  0.00  0.00    -0.002 A 
ATOM      8  C6  OXE d   1       3.161   5.467   5.966  0.00  0.00     0.003 A 
ENDROOT
TORSDOF 0
ENDMDL
