MODEL 1
REMARK minimizedAffinity 2.4657886
REMARK minimizedRMSD -1
REMARK  0 active torsions:
REMARK  status: ('A' for Active; 'I' for Inactive)
ROOT
ATOM      1  C2' OXE d   1       3.534   5.028   4.530  0.00  0.00     0.078 C 
ATOM      2  C1' OXE d   1       2.305   3.238   2.752  0.00  0.00     0.078 C 
ATOM      3  C1  OXE d   1       1.421   4.206   3.499  0.00  0.00    -0.078 A 
ATOM      4  C2  OXE d   1       2.027   5.047   4.402  0.00  0.00    -0.078 A 
ATOM      5  C3  OXE d   1       1.265   5.996   5.077  0.00  0.00     0.003 A 
ATOM      6  C4  OXE d   1      -0.130   6.000   4.960  0.00  0.00    -0.002 A 
ATOM      7  C5  OXE d   1      -0.770   5.125   4.075  0.00  0.00    -0.002 A 
ATOM      8  C6  OXE d   1      -0.007   4.253   3.307  0.00  0.00     0.003 A 
ENDROOT
TORSDOF 0
ENDMDL
