MODEL 1
REMARK minimizedAffinity -3.93206286
REMARK minimizedRMSD -1
REMARK  0 active torsions:
REMARK  status: ('A' for Active; 'I' for Inactive)
ROOT
ATOM      1  C   UNL d   1       0.426   0.296   0.399  0.00  0.00     0.172 C 
ATOM      2  N   UNL d   1       1.411  -0.538   1.048  0.00  0.00    -0.070 N 
ATOM      3  C1  UNL d   1       2.760  -0.511   0.812  0.00  0.00    -0.004 A 
ATOM      4  C2  UNL d   1       3.350  -1.453   1.627  0.00  0.00    -0.047 A 
ATOM      5  C3  UNL d   1       2.320  -2.069   2.376  0.00  0.00    -0.047 A 
ATOM      6  C4  UNL d   1       1.130  -1.484   1.998  0.00  0.00    -0.004 A 
ENDROOT
TORSDOF 0
ENDMDL
