MODEL 1
REMARK minimizedAffinity -1.53753805
REMARK minimizedRMSD -1
REMARK  0 active torsions:
REMARK  status: ('A' for Active; 'I' for Inactive)
ROOT
ATOM      1  C   UNL d   1      -0.805   0.936   0.899  0.00  0.00     0.172 C 
ATOM      2  N   UNL d   1      -0.116  -0.303   0.622  0.00  0.00    -0.070 N 
ATOM      3  C1  UNL d   1       1.191  -0.575   0.929  0.00  0.00    -0.004 A 
ATOM      4  C2  UNL d   1       1.466  -1.857   0.504  0.00  0.00    -0.047 A 
ATOM      5  C3  UNL d   1       0.284  -2.373  -0.079  0.00  0.00    -0.047 A 
ATOM      6  C4  UNL d   1      -0.680  -1.390   0.007  0.00  0.00    -0.004 A 
ENDROOT
TORSDOF 0
ENDMDL
