MODEL 1
REMARK minimizedAffinity -3.98019552
REMARK minimizedRMSD -1
REMARK  0 active torsions:
REMARK  status: ('A' for Active; 'I' for Inactive)
ROOT
ATOM      1  C   UNL d   1      -0.873  -0.056  -0.067  0.00  0.00     0.172 C 
ATOM      2  N   UNL d   1       0.543  -0.214   0.167  0.00  0.00    -0.070 N 
ATOM      3  C1  UNL d   1       1.126  -1.223   0.887  0.00  0.00    -0.004 A 
ATOM      4  C2  UNL d   1       2.488  -1.018   0.875  0.00  0.00    -0.047 A 
ATOM      5  C3  UNL d   1       2.734   0.156   0.124  0.00  0.00    -0.047 A 
ATOM      6  C4  UNL d   1       1.512   0.633  -0.303  0.00  0.00    -0.004 A 
ENDROOT
TORSDOF 0
ENDMDL
