MODEL 1
REMARK minimizedAffinity -0.955656052
REMARK minimizedRMSD -1
REMARK  0 active torsions:
REMARK  status: ('A' for Active; 'I' for Inactive)
ROOT
ATOM      1  C   UNL d   1       2.542  -0.807   0.309  0.00  0.00     0.172 C 
ATOM      2  N   UNL d   1       1.105  -0.668   0.276  0.00  0.00    -0.070 N 
ATOM      3  C1  UNL d   1       0.209  -1.478   0.922  0.00  0.00    -0.004 A 
ATOM      4  C2  UNL d   1      -1.058  -1.015   0.640  0.00  0.00    -0.047 A 
ATOM      5  C3  UNL d   1      -0.919   0.111  -0.206  0.00  0.00    -0.047 A 
ATOM      6  C4  UNL d   1       0.430   0.303  -0.415  0.00  0.00    -0.004 A 
ENDROOT
TORSDOF 0
ENDMDL
