MODEL 1
REMARK minimizedAffinity -1.06751704
REMARK minimizedRMSD -1
REMARK  0 active torsions:
REMARK  status: ('A' for Active; 'I' for Inactive)
ROOT
ATOM      1  C   UNL d   1       2.677   1.301   2.094  0.00  0.00     0.172 C 
ATOM      2  N   UNL d   1       1.967   0.395   1.222  0.00  0.00    -0.070 N 
ATOM      3  C1  UNL d   1       0.968   0.744   0.352  0.00  0.00    -0.004 A 
ATOM      4  C2  UNL d   1       0.552  -0.401  -0.293  0.00  0.00    -0.047 A 
ATOM      5  C3  UNL d   1       1.327  -1.474   0.206  0.00  0.00    -0.047 A 
ATOM      6  C4  UNL d   1       2.195  -0.953   1.143  0.00  0.00    -0.004 A 
ENDROOT
TORSDOF 0
ENDMDL
