MODEL 1
REMARK minimizedAffinity -2.81776977
REMARK minimizedRMSD -1
REMARK  0 active torsions:
REMARK  status: ('A' for Active; 'I' for Inactive)
ROOT
ATOM      1  C   UNL d   1      -0.649   0.968   0.197  0.00  0.00     0.172 C 
ATOM      2  N   UNL d   1       0.241  -0.150   0.404  0.00  0.00    -0.070 N 
ATOM      3  C1  UNL d   1      -0.139  -1.422   0.739  0.00  0.00    -0.004 A 
ATOM      4  C2  UNL d   1       1.000  -2.190   0.843  0.00  0.00    -0.047 A 
ATOM      5  C3  UNL d   1       2.104  -1.350   0.562  0.00  0.00    -0.047 A 
ATOM      6  C4  UNL d   1       1.605  -0.093   0.294  0.00  0.00    -0.004 A 
ENDROOT
TORSDOF 0
ENDMDL
