MODEL 1
REMARK minimizedAffinity -2.34818673
REMARK minimizedRMSD -1
REMARK  0 active torsions:
REMARK  status: ('A' for Active; 'I' for Inactive)
ROOT
ATOM      1  C   UNL d   1      -1.573  -0.382  -1.152  0.00  0.00     0.172 C 
ATOM      2  N   UNL d   1      -0.275  -0.273  -0.528  0.00  0.00    -0.070 N 
ATOM      3  C1  UNL d   1       0.175   0.797   0.198  0.00  0.00    -0.004 A 
ATOM      4  C2  UNL d   1       1.455   0.513   0.620  0.00  0.00    -0.047 A 
ATOM      5  C3  UNL d   1       1.787  -0.773   0.130  0.00  0.00    -0.047 A 
ATOM      6  C4  UNL d   1       0.698  -1.236  -0.577  0.00  0.00    -0.004 A 
ENDROOT
TORSDOF 0
ENDMDL
