MODEL 1
REMARK minimizedAffinity 13.7458
REMARK minimizedRMSD -1
REMARK  0 active torsions:
REMARK  status: ('A' for Active; 'I' for Inactive)
ROOT
ATOM      1  C   UNL d   1       5.999   2.314  -1.605  0.00  0.00     0.020 A 
ATOM      2  C1  UNL d   1       5.363   2.334  -0.364  0.00  0.00     0.020 A 
ATOM      3  C2  UNL d   1       4.244   1.530  -0.141  0.00  0.00     0.034 A 
ATOM      4  C3  UNL d   1       3.756   0.703  -1.159  0.00  0.00     0.017 A 
ATOM      5  C4  UNL d   1       4.395   0.683  -2.404  0.00  0.00     0.017 A 
ATOM      6  C5  UNL d   1       5.516   1.490  -2.622  0.00  0.00     0.034 A 
ATOM      7 Cl   UNL d   1       3.853  -0.311  -3.710  0.00  0.00    -0.070 Cl
ATOM      8 Cl1  UNL d   1       2.367  -0.265  -0.813  0.00  0.00    -0.070 Cl
ENDROOT
TORSDOF 0
ENDMDL
