MODEL 1
REMARK minimizedAffinity 0.225863963
REMARK minimizedRMSD -1
REMARK  0 active torsions:
REMARK  status: ('A' for Active; 'I' for Inactive)
ROOT
ATOM      1  C   UNL d   1      -0.746   1.075  -1.497  0.00  0.00     0.020 A 
ATOM      2  C1  UNL d   1       0.093   0.020  -1.141  0.00  0.00     0.020 A 
ATOM      3  C2  UNL d   1       1.014   0.180  -0.103  0.00  0.00     0.034 A 
ATOM      4  C3  UNL d   1       1.097   1.397   0.583  0.00  0.00     0.017 A 
ATOM      5  C4  UNL d   1       0.255   2.456   0.224  0.00  0.00     0.017 A 
ATOM      6  C5  UNL d   1      -0.665   2.290  -0.816  0.00  0.00     0.034 A 
ATOM      7 Cl   UNL d   1       0.299   3.988   1.024  0.00  0.00    -0.070 Cl
ATOM      8 Cl1  UNL d   1       2.258   1.524   1.856  0.00  0.00    -0.070 Cl
ENDROOT
TORSDOF 0
ENDMDL
