MODEL 1
REMARK minimizedAffinity 1.45269299
REMARK minimizedRMSD -1
REMARK  0 active torsions:
REMARK  status: ('A' for Active; 'I' for Inactive)
ROOT
ATOM      1  C   UNL d   1      -0.143  -1.143  -0.947  0.00  0.00     0.020 A 
ATOM      2  C1  UNL d   1       1.126  -1.673  -1.175  0.00  0.00     0.020 A 
ATOM      3  C2  UNL d   1       2.257  -0.870  -1.013  0.00  0.00     0.034 A 
ATOM      4  C3  UNL d   1       2.122   0.467  -0.624  0.00  0.00     0.017 A 
ATOM      5  C4  UNL d   1       0.847   0.998  -0.396  0.00  0.00     0.017 A 
ATOM      6  C5  UNL d   1      -0.282   0.190  -0.558  0.00  0.00     0.034 A 
ATOM      7 Cl   UNL d   1       0.600   2.639   0.088  0.00  0.00    -0.070 Cl
ATOM      8 Cl1  UNL d   1       3.564   1.402  -0.443  0.00  0.00    -0.070 Cl
ENDROOT
TORSDOF 0
ENDMDL
