MODEL 1
REMARK minimizedAffinity 3.39829254
REMARK minimizedRMSD -1
REMARK  0 active torsions:
REMARK  status: ('A' for Active; 'I' for Inactive)
ROOT
ATOM      1  C   UNL d   1       5.580   5.905   4.153  0.00  0.00     0.020 A 
ATOM      2  C1  UNL d   1       5.886   5.492   5.450  0.00  0.00     0.020 A 
ATOM      3  C2  UNL d   1       5.239   4.383   6.000  0.00  0.00     0.034 A 
ATOM      4  C3  UNL d   1       4.283   3.684   5.254  0.00  0.00     0.017 A 
ATOM      5  C4  UNL d   1       3.977   4.099   3.953  0.00  0.00     0.017 A 
ATOM      6  C5  UNL d   1       4.628   5.210   3.407  0.00  0.00     0.034 A 
ATOM      7 Cl   UNL d   1       2.809   3.287   2.971  0.00  0.00    -0.070 Cl
ATOM      8 Cl1  UNL d   1       3.522   2.322   5.998  0.00  0.00    -0.070 Cl
ENDROOT
TORSDOF 0
ENDMDL
