MODEL 1
REMARK minimizedAffinity 9.76866245
REMARK minimizedRMSD -1
REMARK  0 active torsions:
REMARK  status: ('A' for Active; 'I' for Inactive)
ROOT
ATOM      1  C   UNL d   1       1.523   1.794   4.638  0.00  0.00     0.020 A 
ATOM      2  C1  UNL d   1       0.244   2.319   4.454  0.00  0.00     0.020 A 
ATOM      3  C2  UNL d   1       0.066   3.471   3.686  0.00  0.00     0.034 A 
ATOM      4  C3  UNL d   1       1.168   4.103   3.099  0.00  0.00     0.017 A 
ATOM      5  C4  UNL d   1       2.451   3.576   3.284  0.00  0.00     0.017 A 
ATOM      6  C5  UNL d   1       2.624   2.422   4.054  0.00  0.00     0.034 A 
ATOM      7 Cl   UNL d   1       3.859   4.301   2.591  0.00  0.00    -0.070 Cl
ATOM      8 Cl1  UNL d   1       0.873   5.525   2.162  0.00  0.00    -0.070 Cl
ENDROOT
TORSDOF 0
ENDMDL
