MODEL 1
REMARK minimizedAffinity 8.00294399
REMARK minimizedRMSD -1
REMARK  0 active torsions:
REMARK  status: ('A' for Active; 'I' for Inactive)
ROOT
ATOM      1  C   UNL d   1       1.341   3.147   6.000  0.00  0.00     0.020 A 
ATOM      2  C1  UNL d   1       0.590   2.260   5.230  0.00  0.00     0.020 A 
ATOM      3  C2  UNL d   1       0.872   2.105   3.871  0.00  0.00     0.034 A 
ATOM      4  C3  UNL d   1       1.907   2.837   3.278  0.00  0.00     0.017 A 
ATOM      5  C4  UNL d   1       2.660   3.727   4.052  0.00  0.00     0.017 A 
ATOM      6  C5  UNL d   1       2.374   3.879   5.412  0.00  0.00     0.034 A 
ATOM      7 Cl   UNL d   1       3.953   4.665   3.391  0.00  0.00    -0.070 Cl
ATOM      8 Cl1  UNL d   1       2.200   2.594   1.593  0.00  0.00    -0.070 Cl
ENDROOT
TORSDOF 0
ENDMDL
