MODEL 1
REMARK minimizedAffinity 9.74799156
REMARK minimizedRMSD -1
REMARK  0 active torsions:
REMARK  status: ('A' for Active; 'I' for Inactive)
ROOT
ATOM      1  C   UNL d   1       4.372   4.122   4.778  0.00  0.00     0.020 A 
ATOM      2  C1  UNL d   1       3.756   3.814   5.990  0.00  0.00     0.020 A 
ATOM      3  C2  UNL d   1       2.491   3.222   5.999  0.00  0.00     0.034 A 
ATOM      4  C3  UNL d   1       1.839   2.937   4.794  0.00  0.00     0.017 A 
ATOM      5  C4  UNL d   1       2.458   3.247   3.578  0.00  0.00     0.017 A 
ATOM      6  C5  UNL d   1       3.725   3.840   3.575  0.00  0.00     0.034 A 
ATOM      7 Cl   UNL d   1       1.716   2.926   2.051  0.00  0.00    -0.070 Cl
ATOM      8 Cl1  UNL d   1       0.276   2.204   4.880  0.00  0.00    -0.070 Cl
ENDROOT
TORSDOF 0
ENDMDL
