MODEL 1
REMARK minimizedAffinity 0.623518527
REMARK minimizedRMSD -1
REMARK  0 active torsions:
REMARK  status: ('A' for Active; 'I' for Inactive)
ROOT
ATOM      1  C   UNL d   1       2.093   4.665   3.730  0.00  0.00     0.020 A 
ATOM      2  C1  UNL d   1       2.014   5.602   4.760  0.00  0.00     0.020 A 
ATOM      3  C2  UNL d   1       3.172   6.000   5.432  0.00  0.00     0.034 A 
ATOM      4  C3  UNL d   1       4.413   5.461   5.074  0.00  0.00     0.017 A 
ATOM      5  C4  UNL d   1       4.492   4.522   4.040  0.00  0.00     0.017 A 
ATOM      6  C5  UNL d   1       3.329   4.127   3.371  0.00  0.00     0.034 A 
ATOM      7 Cl   UNL d   1       5.988   3.813   3.542  0.00  0.00    -0.070 Cl
ATOM      8 Cl1  UNL d   1       5.804   6.000   5.947  0.00  0.00    -0.070 Cl
ENDROOT
TORSDOF 0
ENDMDL
