MODEL 1
REMARK minimizedAffinity 5.96870184
REMARK minimizedRMSD -1
REMARK  0 active torsions:
REMARK  status: ('A' for Active; 'I' for Inactive)
ROOT
ATOM      1  C   UNL d   1      -2.393   2.781  -0.130  0.00  0.00     0.020 A 
ATOM      2  C1  UNL d   1      -1.158   3.312   0.242  0.00  0.00     0.020 A 
ATOM      3  C2  UNL d   1       0.020   2.648  -0.104  0.00  0.00     0.034 A 
ATOM      4  C3  UNL d   1      -0.033   1.448  -0.824  0.00  0.00     0.017 A 
ATOM      5  C4  UNL d   1      -1.273   0.916  -1.196  0.00  0.00     0.017 A 
ATOM      6  C5  UNL d   1      -2.450   1.586  -0.848  0.00  0.00     0.034 A 
ATOM      7 Cl   UNL d   1      -1.419  -0.559  -2.085  0.00  0.00    -0.070 Cl
ATOM      8 Cl1  UNL d   1       1.464   0.680  -1.218  0.00  0.00    -0.070 Cl
ENDROOT
TORSDOF 0
ENDMDL
