MODEL 1
REMARK minimizedAffinity 2.85043216
REMARK minimizedRMSD -1
REMARK  0 active torsions:
REMARK  status: ('A' for Active; 'I' for Inactive)
ROOT
ATOM      1  C   UNL d   1      -1.926   2.444  -0.029  0.00  0.00     0.020 A 
ATOM      2  C1  UNL d   1      -0.615   2.867   0.186  0.00  0.00     0.020 A 
ATOM      3  C2  UNL d   1       0.450   2.131  -0.336  0.00  0.00     0.034 A 
ATOM      4  C3  UNL d   1       0.207   0.967  -1.076  0.00  0.00     0.017 A 
ATOM      5  C4  UNL d   1      -1.110   0.543  -1.291  0.00  0.00     0.017 A 
ATOM      6  C5  UNL d   1      -2.173   1.284  -0.766  0.00  0.00     0.034 A 
ATOM      7 Cl   UNL d   1      -1.489  -0.881  -2.193  0.00  0.00    -0.070 Cl
ATOM      8 Cl1  UNL d   1       1.572   0.107  -1.692  0.00  0.00    -0.070 Cl
ENDROOT
TORSDOF 0
ENDMDL
