MODEL 1
REMARK minimizedAffinity -1.14287996
REMARK minimizedRMSD -1
REMARK  0 active torsions:
REMARK  status: ('A' for Active; 'I' for Inactive)
ROOT
ATOM      1  C4' PXY d   1      -1.983   0.002  -0.245  0.00  0.00     0.077 C 
ATOM      2  C1' PXY d   1       1.025  -1.444   4.475  0.00  0.00     0.077 C 
ATOM      3  C1  PXY d   1       0.225  -1.069   3.243  0.00  0.00    -0.082 A 
ATOM      4  C2  PXY d   1       0.833  -0.977   2.072  0.00  0.00     0.003 A 
ATOM      5  C3  PXY d   1       0.131  -0.608   0.953  0.00  0.00     0.003 A 
ATOM      6  C4  PXY d   1      -1.217  -0.383   1.024  0.00  0.00    -0.082 A 
ATOM      7  C5  PXY d   1      -1.847  -0.486   2.214  0.00  0.00     0.003 A 
ATOM      8  C6  PXY d   1      -1.109  -0.821   3.345  0.00  0.00     0.003 A 
ENDROOT
TORSDOF 0
ENDMDL
