MODEL 1
REMARK minimizedAffinity -1.29269576
REMARK minimizedRMSD -1
REMARK  0 active torsions:
REMARK  status: ('A' for Active; 'I' for Inactive)
ROOT
ATOM      1  C4' PXY d   1      -2.246   0.003   1.694  0.00  0.00     0.077 C 
ATOM      2  C1' PXY d   1       2.485  -1.869   4.439  0.00  0.00     0.077 C 
ATOM      3  C1  PXY d   1       1.237  -1.385   3.727  0.00  0.00    -0.082 A 
ATOM      4  C2  PXY d   1       1.317  -0.973   2.473  0.00  0.00     0.003 A 
ATOM      5  C3  PXY d   1       0.205  -0.502   1.824  0.00  0.00     0.003 A 
ATOM      6  C4  PXY d   1      -1.014  -0.503   2.449  0.00  0.00    -0.082 A 
ATOM      7  C5  PXY d   1      -1.106  -0.932   3.726  0.00  0.00     0.003 A 
ATOM      8  C6  PXY d   1       0.043  -1.368   4.380  0.00  0.00     0.003 A 
ENDROOT
TORSDOF 0
ENDMDL
