MODEL 1
REMARK minimizedAffinity -0.669887483
REMARK minimizedRMSD -1
REMARK  0 active torsions:
REMARK  status: ('A' for Active; 'I' for Inactive)
ROOT
ATOM      1  C4' PXY d   1      -0.492  -0.589  -2.656  0.00  0.00     0.077 C 
ATOM      2  C1' PXY d   1      -2.305   0.245   2.769  0.00  0.00     0.077 C 
ATOM      3  C1  PXY d   1      -1.818   0.029   1.350  0.00  0.00    -0.082 A 
ATOM      4  C2  PXY d   1      -2.661   0.167   0.340  0.00  0.00     0.003 A 
ATOM      5  C3  PXY d   1      -2.245  -0.056  -0.947  0.00  0.00     0.003 A 
ATOM      6  C4  PXY d   1      -0.938  -0.371  -1.208  0.00  0.00    -0.082 A 
ATOM      7  C5  PXY d   1      -0.069  -0.503  -0.184  0.00  0.00     0.003 A 
ATOM      8  C6  PXY d   1      -0.521  -0.313   1.119  0.00  0.00     0.003 A 
ENDROOT
TORSDOF 0
ENDMDL
