MODEL 1
REMARK minimizedAffinity -2.62391853
REMARK minimizedRMSD -1
REMARK  0 active torsions:
REMARK  status: ('A' for Active; 'I' for Inactive)
ROOT
ATOM      1  C4' PXY d   1       0.987  -0.982   3.802  0.00  0.00     0.077 C 
ATOM      2  C1' PXY d   1      -2.196   0.846  -0.663  0.00  0.00     0.077 C 
ATOM      3  C1  PXY d   1      -1.354   0.359   0.500  0.00  0.00    -0.082 A 
ATOM      4  C2  PXY d   1      -1.844   0.410   1.728  0.00  0.00     0.003 A 
ATOM      5  C3  PXY d   1      -1.084   0.004   2.795  0.00  0.00     0.003 A 
ATOM      6  C4  PXY d   1       0.169  -0.510   2.597  0.00  0.00    -0.082 A 
ATOM      7  C5  PXY d   1       0.672  -0.575   1.346  0.00  0.00     0.003 A 
ATOM      8  C6  PXY d   1      -0.100  -0.119   0.281  0.00  0.00     0.003 A 
ENDROOT
TORSDOF 0
ENDMDL
