MODEL 1
REMARK minimizedAffinity -0.282972842
REMARK minimizedRMSD -1
REMARK  0 active torsions:
REMARK  status: ('A' for Active; 'I' for Inactive)
ROOT
ATOM      1  C4' PXY d   1       1.271  -1.109   3.530  0.00  0.00     0.077 C 
ATOM      2  C1' PXY d   1      -2.465   0.115  -0.707  0.00  0.00     0.077 C 
ATOM      3  C1  PXY d   1      -1.478  -0.213   0.396  0.00  0.00    -0.082 A 
ATOM      4  C2  PXY d   1      -1.858  -0.127   1.660  0.00  0.00     0.003 A 
ATOM      5  C3  PXY d   1      -0.969  -0.389   2.671  0.00  0.00     0.003 A 
ATOM      6  C4  PXY d   1       0.306  -0.796   2.384  0.00  0.00    -0.082 A 
ATOM      7  C5  PXY d   1       0.698  -0.897   1.096  0.00  0.00     0.003 A 
ATOM      8  C6  PXY d   1      -0.207  -0.586   0.085  0.00  0.00     0.003 A 
ENDROOT
TORSDOF 0
ENDMDL
