MODEL 1
REMARK minimizedAffinity -0.136086747
REMARK minimizedRMSD -1
REMARK  0 active torsions:
REMARK  status: ('A' for Active; 'I' for Inactive)
ROOT
ATOM      1  C4' PXY d   1       1.618  -1.144   4.154  0.00  0.00     0.077 C 
ATOM      2  C1' PXY d   1      -2.125   0.206  -0.040  0.00  0.00     0.077 C 
ATOM      3  C1  PXY d   1      -1.137  -0.156   1.052  0.00  0.00    -0.082 A 
ATOM      4  C2  PXY d   1      -1.492  -0.039   2.321  0.00  0.00     0.003 A 
ATOM      5  C3  PXY d   1      -0.601  -0.331   3.321  0.00  0.00     0.003 A 
ATOM      6  C4  PXY d   1       0.650  -0.799   3.019  0.00  0.00    -0.082 A 
ATOM      7  C5  PXY d   1       1.017  -0.932   1.726  0.00  0.00     0.003 A 
ATOM      8  C6  PXY d   1       0.111  -0.590   0.726  0.00  0.00     0.003 A 
ENDROOT
TORSDOF 0
ENDMDL
