MODEL 1
REMARK minimizedAffinity 0.992926002
REMARK minimizedRMSD -1
REMARK  0 active torsions:
REMARK  status: ('A' for Active; 'I' for Inactive)
ROOT
ATOM      1  C4' PXY d   1       0.474  -1.332   4.402  0.00  0.00     0.077 C 
ATOM      2  C1' PXY d   1      -2.282   0.112  -0.470  0.00  0.00     0.077 C 
ATOM      3  C1  PXY d   1      -1.568  -0.261   0.815  0.00  0.00    -0.082 A 
ATOM      4  C2  PXY d   1      -0.267  -0.499   0.795  0.00  0.00     0.003 A 
ATOM      5  C3  PXY d   1       0.388  -0.869   1.941  0.00  0.00     0.003 A 
ATOM      6  C4  PXY d   1      -0.286  -0.943   3.131  0.00  0.00    -0.082 A 
ATOM      7  C5  PXY d   1      -1.611  -0.692   3.161  0.00  0.00     0.003 A 
ATOM      8  C6  PXY d   1      -2.266  -0.358   1.979  0.00  0.00     0.003 A 
ENDROOT
TORSDOF 0
ENDMDL
