MODEL 1
REMARK minimizedAffinity -0.169401929
REMARK minimizedRMSD -1
REMARK  0 active torsions:
REMARK  status: ('A' for Active; 'I' for Inactive)
ROOT
ATOM      1  C4' PXY d   1       2.139  -0.765   0.317  0.00  0.00     0.077 C 
ATOM      2  C1' PXY d   1      -3.486   0.411   0.944  0.00  0.00     0.077 C 
ATOM      3  C1  PXY d   1      -2.014   0.092   0.773  0.00  0.00    -0.082 A 
ATOM      4  C2  PXY d   1      -1.130   0.614   1.608  0.00  0.00     0.003 A 
ATOM      5  C3  PXY d   1       0.208   0.361   1.449  0.00  0.00     0.003 A 
ATOM      6  C4  PXY d   1       0.641  -0.477   0.457  0.00  0.00    -0.082 A 
ATOM      7  C5  PXY d   1      -0.255  -1.022  -0.392  0.00  0.00     0.003 A 
ATOM      8  C6  PXY d   1      -1.605  -0.720  -0.239  0.00  0.00     0.003 A 
ENDROOT
TORSDOF 0
ENDMDL
