MODEL 1
REMARK minimizedAffinity 6.22291374
REMARK minimizedRMSD -1
REMARK  0 active torsions:
REMARK  status: ('A' for Active; 'I' for Inactive)
ROOT
ATOM      1  C4' PXY d   1      -3.915  -1.600   3.432  0.00  0.00     0.077 C 
ATOM      2  C1' PXY d   1      -1.481  -0.452  -1.685  0.00  0.00     0.077 C 
ATOM      3  C1  PXY d   1      -2.110  -0.746  -0.337  0.00  0.00    -0.082 A 
ATOM      4  C2  PXY d   1      -2.828  -1.846  -0.176  0.00  0.00     0.003 A 
ATOM      5  C3  PXY d   1      -3.431  -2.111   1.027  0.00  0.00     0.003 A 
ATOM      6  C4  PXY d   1      -3.253  -1.268   2.091  0.00  0.00    -0.082 A 
ATOM      7  C5  PXY d   1      -2.513  -0.149   1.938  0.00  0.00     0.003 A 
ATOM      8  C6  PXY d   1      -1.944   0.122   0.697  0.00  0.00     0.003 A 
ENDROOT
TORSDOF 0
ENDMDL
