MODEL 1
REMARK minimizedAffinity 0.0770868137
REMARK minimizedRMSD -1
REMARK  0 active torsions:
REMARK  status: ('A' for Active; 'I' for Inactive)
ROOT
ATOM      1  C4' PXY d   1       1.099  -1.159   3.789  0.00  0.00     0.077 C 
ATOM      2  C1' PXY d   1      -2.648   0.446  -0.309  0.00  0.00     0.077 C 
ATOM      3  C1  PXY d   1      -1.658   0.020   0.756  0.00  0.00    -0.082 A 
ATOM      4  C2  PXY d   1      -2.066  -0.132   2.006  0.00  0.00     0.003 A 
ATOM      5  C3  PXY d   1      -1.177  -0.486   2.988  0.00  0.00     0.003 A 
ATOM      6  C4  PXY d   1       0.132  -0.739   2.678  0.00  0.00    -0.082 A 
ATOM      7  C5  PXY d   1       0.554  -0.596   1.404  0.00  0.00     0.003 A 
ATOM      8  C6  PXY d   1      -0.355  -0.196   0.429  0.00  0.00     0.003 A 
ENDROOT
TORSDOF 0
ENDMDL
