MODEL 1
REMARK minimizedAffinity -3.10566854
REMARK minimizedRMSD -1
REMARK  0 active torsions:
REMARK  status: ('A' for Active; 'I' for Inactive)
ROOT
ATOM      1  C4' PXY d   1      -3.811  -1.698   3.941  0.00  0.00     0.077 C 
ATOM      2  C1' PXY d   1       1.950  -1.330   4.243  0.00  0.00     0.077 C 
ATOM      3  C1  PXY d   1       0.440  -1.439   4.166  0.00  0.00    -0.082 A 
ATOM      4  C2  PXY d   1      -0.251  -0.510   3.527  0.00  0.00     0.003 A 
ATOM      5  C3  PXY d   1      -1.620  -0.576   3.474  0.00  0.00     0.003 A 
ATOM      6  C4  PXY d   1      -2.284  -1.633   4.036  0.00  0.00    -0.082 A 
ATOM      7  C5  PXY d   1      -1.585  -2.592   4.681  0.00  0.00     0.003 A 
ATOM      8  C6  PXY d   1      -0.199  -2.484   4.759  0.00  0.00     0.003 A 
ENDROOT
TORSDOF 0
ENDMDL
