MODEL 1
REMARK minimizedAffinity -1.84304643
REMARK minimizedRMSD -1
REMARK  0 active torsions:
REMARK  status: ('A' for Active; 'I' for Inactive)
ROOT
ATOM      1  C   UNL d   1       0.005  -0.393   2.692  0.00  0.00    -0.002 A 
ATOM      2  C1  UNL d   1       1.309  -0.372   2.220  0.00  0.00     0.010 A 
ATOM      3  C2  UNL d   1       1.569  -0.232   0.855  0.00  0.00     0.041 A 
ATOM      4  C3  UNL d   1       0.484  -0.111  -0.036  0.00  0.00    -0.075 A 
ATOM      5  S   UNL d   1       0.561   0.070  -1.748  0.00  0.00     0.015 SA
ATOM      6  C4  UNL d   1      -1.136   0.125  -1.893  0.00  0.00     0.022 A 
ATOM      7  C5  UNL d   1      -1.762   0.009  -0.675  0.00  0.00     0.026 A 
ATOM      8  C6  UNL d   1      -0.839  -0.129   0.416  0.00  0.00    -0.082 A 
ATOM      9  C7  UNL d   1      -1.069  -0.273   1.806  0.00  0.00     0.045 A 
ENDROOT
TORSDOF 0
ENDMDL
