MODEL 1
REMARK minimizedAffinity 0.120345496
REMARK minimizedRMSD -1
REMARK  0 active torsions:
REMARK  status: ('A' for Active; 'I' for Inactive)
ROOT
ATOM      1  C   UNL d   1      -0.695   3.698  -2.679  0.00  0.00    -0.002 A 
ATOM      2  C1  UNL d   1       0.125   3.141  -3.650  0.00  0.00     0.010 A 
ATOM      3  C2  UNL d   1       0.627   1.847  -3.499  0.00  0.00     0.041 A 
ATOM      4  C3  UNL d   1       0.286   1.114  -2.346  0.00  0.00    -0.075 A 
ATOM      5  S   UNL d   1       0.783  -0.489  -1.948  0.00  0.00     0.015 SA
ATOM      6  C4  UNL d   1      -0.083  -0.472  -0.479  0.00  0.00     0.022 A 
ATOM      7  C5  UNL d   1      -0.740   0.719  -0.281  0.00  0.00     0.026 A 
ATOM      8  C6  UNL d   1      -0.539   1.653  -1.354  0.00  0.00    -0.082 A 
ATOM      9  C7  UNL d   1      -1.031   2.968  -1.536  0.00  0.00     0.045 A 
ENDROOT
TORSDOF 0
ENDMDL
