MODEL 1
REMARK minimizedAffinity -3.81559038
REMARK minimizedRMSD -1
REMARK  0 active torsions:
REMARK  status: ('A' for Active; 'I' for Inactive)
ROOT
ATOM      1  C   UNL d   1       0.403  -0.766  -1.661  0.00  0.00    -0.002 A 
ATOM      2  C1  UNL d   1       1.706  -1.029  -1.263  0.00  0.00     0.010 A 
ATOM      3  C2  UNL d   1       2.041  -1.070   0.092  0.00  0.00     0.041 A 
ATOM      4  C3  UNL d   1       1.033  -0.841   1.049  0.00  0.00    -0.075 A 
ATOM      5  S   UNL d   1       1.210  -0.841   2.764  0.00  0.00     0.015 SA
ATOM      6  C4  UNL d   1      -0.441  -0.493   3.009  0.00  0.00     0.022 A 
ATOM      7  C5  UNL d   1      -1.124  -0.376   1.822  0.00  0.00     0.026 A 
ATOM      8  C6  UNL d   1      -0.286  -0.575   0.673  0.00  0.00    -0.082 A 
ATOM      9  C7  UNL d   1      -0.593  -0.539  -0.708  0.00  0.00     0.045 A 
ENDROOT
TORSDOF 0
ENDMDL
