MODEL 1
REMARK minimizedAffinity 0.512327969
REMARK minimizedRMSD -1
REMARK  0 active torsions:
REMARK  status: ('A' for Active; 'I' for Inactive)
ROOT
ATOM      1  C   UNL d   1      -0.226   0.779  -1.405  0.00  0.00    -0.002 A 
ATOM      2  C1  UNL d   1      -1.281  -0.090  -1.169  0.00  0.00     0.010 A 
ATOM      3  C2  UNL d   1      -1.350  -0.818   0.020  0.00  0.00     0.041 A 
ATOM      4  C3  UNL d   1      -0.332  -0.653   0.980  0.00  0.00    -0.075 A 
ATOM      5  S   UNL d   1      -0.208  -1.438   2.510  0.00  0.00     0.015 SA
ATOM      6  C4  UNL d   1       1.248  -0.637   2.887  0.00  0.00     0.022 A 
ATOM      7  C5  UNL d   1       1.645   0.213   1.882  0.00  0.00     0.026 A 
ATOM      8  C6  UNL d   1       0.740   0.218   0.766  0.00  0.00    -0.082 A 
ATOM      9  C7  UNL d   1       0.782   0.940  -0.451  0.00  0.00     0.045 A 
ENDROOT
TORSDOF 0
ENDMDL
