MODEL 1
REMARK minimizedAffinity -3.97729993
REMARK minimizedRMSD -1
REMARK  0 active torsions:
REMARK  status: ('A' for Active; 'I' for Inactive)
ROOT
ATOM      1  C   UNL d   1       2.579  -0.446   2.301  0.00  0.00    -0.002 A 
ATOM      2  C1  UNL d   1       2.787  -0.416   0.930  0.00  0.00     0.010 A 
ATOM      3  C2  UNL d   1       1.708  -0.483   0.046  0.00  0.00     0.041 A 
ATOM      4  C3  UNL d   1       0.404  -0.579   0.569  0.00  0.00    -0.075 A 
ATOM      5  S   UNL d   1      -1.069  -0.671  -0.322  0.00  0.00     0.015 SA
ATOM      6  C4  UNL d   1      -2.010  -0.752   1.097  0.00  0.00     0.022 A 
ATOM      7  C5  UNL d   1      -1.235  -0.710   2.232  0.00  0.00     0.026 A 
ATOM      8  C6  UNL d   1       0.169  -0.609   1.946  0.00  0.00    -0.082 A 
ATOM      9  C7  UNL d   1       1.283  -0.541   2.816  0.00  0.00     0.045 A 
ENDROOT
TORSDOF 0
ENDMDL
