MODEL 1
REMARK minimizedAffinity -2.82591486
REMARK minimizedRMSD -1
REMARK  0 active torsions:
REMARK  status: ('A' for Active; 'I' for Inactive)
ROOT
ATOM      1  C   UNL d   1      -0.327  -1.170   2.273  0.00  0.00    -0.002 A 
ATOM      2  C1  UNL d   1       0.958  -0.647   2.325  0.00  0.00     0.010 A 
ATOM      3  C2  UNL d   1       1.395   0.260   1.358  0.00  0.00     0.041 A 
ATOM      4  C3  UNL d   1       0.511   0.637   0.328  0.00  0.00    -0.075 A 
ATOM      5  S   UNL d   1       0.828   1.732  -0.965  0.00  0.00     0.015 SA
ATOM      6  C4  UNL d   1      -0.734   1.532  -1.617  0.00  0.00     0.022 A 
ATOM      7  C5  UNL d   1      -1.492   0.654  -0.879  0.00  0.00     0.026 A 
ATOM      8  C6  UNL d   1      -0.787   0.124   0.254  0.00  0.00    -0.082 A 
ATOM      9  C7  UNL d   1      -1.201  -0.794   1.250  0.00  0.00     0.045 A 
ENDROOT
TORSDOF 0
ENDMDL
