MODEL 1
REMARK minimizedAffinity -3.70930409
REMARK minimizedRMSD -1
REMARK  0 active torsions:
REMARK  status: ('A' for Active; 'I' for Inactive)
ROOT
ATOM      1  C   UNL d   1       0.462  -0.527   2.999  0.00  0.00    -0.002 A 
ATOM      2  C1  UNL d   1      -0.759   0.043   2.668  0.00  0.00     0.010 A 
ATOM      3  C2  UNL d   1      -1.159   0.142   1.334  0.00  0.00     0.041 A 
ATOM      4  C3  UNL d   1      -0.303  -0.349   0.328  0.00  0.00    -0.075 A 
ATOM      5  S   UNL d   1      -0.584  -0.336  -1.373  0.00  0.00     0.015 SA
ATOM      6  C4  UNL d   1       0.909  -1.088  -1.701  0.00  0.00     0.022 A 
ATOM      7  C5  UNL d   1       1.618  -1.349  -0.552  0.00  0.00     0.026 A 
ATOM      8  C6  UNL d   1       0.931  -0.928   0.636  0.00  0.00    -0.082 A 
ATOM      9  C7  UNL d   1       1.308  -1.013   1.998  0.00  0.00     0.045 A 
ENDROOT
TORSDOF 0
ENDMDL
