MODEL 1
REMARK minimizedAffinity -0.77218771
REMARK minimizedRMSD -1
REMARK  0 active torsions:
REMARK  status: ('A' for Active; 'I' for Inactive)
ROOT
ATOM      1  C2' OXE d   1       2.978  -0.762   5.121  0.00  0.00     0.078 C 
ATOM      2  C1' OXE d   1       2.929  -2.483   2.904  0.00  0.00     0.078 C 
ATOM      3  C1  OXE d   1       4.010  -2.694   3.934  0.00  0.00    -0.078 A 
ATOM      4  C2  OXE d   1       4.054  -1.818   4.992  0.00  0.00    -0.078 A 
ATOM      5  C3  OXE d   1       4.997  -2.002   6.000  0.00  0.00     0.003 A 
ATOM      6  C4  OXE d   1       5.995  -2.975   5.868  0.00  0.00    -0.002 A 
ATOM      7  C5  OXE d   1       5.992  -3.852   4.778  0.00  0.00    -0.002 A 
ATOM      8  C6  OXE d   1       4.983  -3.753   3.827  0.00  0.00     0.003 A 
ENDROOT
TORSDOF 0
ENDMDL
