MODEL 1
REMARK minimizedAffinity 8.9252882
REMARK minimizedRMSD -1
REMARK  0 active torsions:
REMARK  status: ('A' for Active; 'I' for Inactive)
ROOT
ATOM      1  C2' OXE d   1       2.920  -1.309   3.374  0.00  0.00     0.078 C 
ATOM      2  C1' OXE d   1       3.940  -3.606   2.123  0.00  0.00     0.078 C 
ATOM      3  C1  OXE d   1       4.479  -3.248   3.485  0.00  0.00    -0.078 A 
ATOM      4  C2  OXE d   1       4.008  -2.097   4.070  0.00  0.00    -0.078 A 
ATOM      5  C3  OXE d   1       4.432  -1.751   5.349  0.00  0.00     0.003 A 
ATOM      6  C4  OXE d   1       5.447  -2.479   5.982  0.00  0.00    -0.002 A 
ATOM      7  C5  OXE d   1       5.969  -3.633   5.387  0.00  0.00    -0.002 A 
ATOM      8  C6  OXE d   1       5.467  -4.054   4.160  0.00  0.00     0.003 A 
ENDROOT
TORSDOF 0
ENDMDL
