MODEL 1
REMARK minimizedAffinity 3.48389816
REMARK minimizedRMSD -1
REMARK  0 active torsions:
REMARK  status: ('A' for Active; 'I' for Inactive)
ROOT
ATOM      1  C2' OXE d   1       2.543   5.999  -3.390  0.00  0.00     0.078 C 
ATOM      2  C1' OXE d   1       4.768   6.000  -1.677  0.00  0.00     0.078 C 
ATOM      3  C1  OXE d   1       4.835   5.144  -2.918  0.00  0.00    -0.078 A 
ATOM      4  C2  OXE d   1       3.724   5.114  -3.726  0.00  0.00    -0.078 A 
ATOM      5  C3  OXE d   1       3.753   4.384  -4.911  0.00  0.00     0.003 A 
ATOM      6  C4  OXE d   1       4.845   3.560  -5.209  0.00  0.00    -0.002 A 
ATOM      7  C5  OXE d   1       5.971   3.546  -4.379  0.00  0.00    -0.002 A 
ATOM      8  C6  OXE d   1       5.999   4.363  -3.255  0.00  0.00     0.003 A 
ENDROOT
TORSDOF 0
ENDMDL
