MODEL 1
REMARK minimizedAffinity -2.44941759
REMARK minimizedRMSD -1
REMARK  0 active torsions:
REMARK  status: ('A' for Active; 'I' for Inactive)
ROOT
ATOM      1  C2' OXE d   1       5.997  -4.867   3.194  0.00  0.00     0.078 C 
ATOM      2  C1' OXE d   1       5.152  -5.383   5.821  0.00  0.00     0.078 C 
ATOM      3  C1  OXE d   1       4.887  -4.011   5.253  0.00  0.00    -0.078 A 
ATOM      4  C2  OXE d   1       5.345  -3.753   3.983  0.00  0.00    -0.078 A 
ATOM      5  C3  OXE d   1       5.079  -2.521   3.392  0.00  0.00     0.003 A 
ATOM      6  C4  OXE d   1       4.485  -1.493   4.133  0.00  0.00    -0.002 A 
ATOM      7  C5  OXE d   1       4.046  -1.722   5.441  0.00  0.00    -0.002 A 
ATOM      8  C6  OXE d   1       4.201  -2.986   6.000  0.00  0.00     0.003 A 
ENDROOT
TORSDOF 0
ENDMDL
