MODEL 1
REMARK minimizedAffinity 1.67166018
REMARK minimizedRMSD -1
REMARK  0 active torsions:
REMARK  status: ('A' for Active; 'I' for Inactive)
ROOT
ATOM      1  C2' OXE d   1       4.096   5.021  -5.798  0.00  0.00     0.078 C 
ATOM      2  C1' OXE d   1       5.528   2.716  -5.079  0.00  0.00     0.078 C 
ATOM      3  C1  OXE d   1       5.420   3.823  -4.060  0.00  0.00    -0.078 A 
ATOM      4  C2  OXE d   1       4.757   4.966  -4.437  0.00  0.00    -0.078 A 
ATOM      5  C3  OXE d   1       4.580   5.996  -3.517  0.00  0.00     0.003 A 
ATOM      6  C4  OXE d   1       5.203   5.941  -2.264  0.00  0.00    -0.002 A 
ATOM      7  C5  OXE d   1       5.917   4.803  -1.875  0.00  0.00    -0.002 A 
ATOM      8  C6  OXE d   1       5.998   3.720  -2.744  0.00  0.00     0.003 A 
ENDROOT
TORSDOF 0
ENDMDL
