MODEL 1
REMARK minimizedAffinity 6.28808498
REMARK minimizedRMSD -1
REMARK  0 active torsions:
REMARK  status: ('A' for Active; 'I' for Inactive)
ROOT
ATOM      1  C2' OXE d   1       3.547  -4.450   3.648  0.00  0.00     0.078 C 
ATOM      2  C1' OXE d   1       5.983  -4.425   5.043  0.00  0.00     0.078 C 
ATOM      3  C1  OXE d   1       5.090  -3.215   5.164  0.00  0.00    -0.078 A 
ATOM      4  C2  OXE d   1       3.922  -3.217   4.441  0.00  0.00    -0.078 A 
ATOM      5  C3  OXE d   1       3.036  -2.150   4.560  0.00  0.00     0.003 A 
ATOM      6  C4  OXE d   1       3.394  -1.009   5.288  0.00  0.00    -0.002 A 
ATOM      7  C5  OXE d   1       4.598  -0.970   6.000  0.00  0.00    -0.002 A 
ATOM      8  C6  OXE d   1       5.436  -2.080   5.983  0.00  0.00     0.003 A 
ENDROOT
TORSDOF 0
ENDMDL
