MODEL 1
REMARK minimizedAffinity 2.16605997
REMARK minimizedRMSD -1
REMARK  0 active torsions:
REMARK  status: ('A' for Active; 'I' for Inactive)
ROOT
ATOM      1  C2' OXE d   1       4.939   5.725  -2.002  0.00  0.00     0.078 C 
ATOM      2  C1' OXE d   1       2.745   5.998  -3.731  0.00  0.00     0.078 C 
ATOM      3  C1  OXE d   1       3.863   5.078  -4.153  0.00  0.00    -0.078 A 
ATOM      4  C2  OXE d   1       4.954   4.986  -3.323  0.00  0.00    -0.078 A 
ATOM      5  C3  OXE d   1       5.989   4.111  -3.638  0.00  0.00     0.003 A 
ATOM      6  C4  OXE d   1       6.000   3.439  -4.867  0.00  0.00    -0.002 A 
ATOM      7  C5  OXE d   1       4.916   3.548  -5.745  0.00  0.00    -0.002 A 
ATOM      8  C6  OXE d   1       3.823   4.329  -5.385  0.00  0.00     0.003 A 
ENDROOT
TORSDOF 0
ENDMDL
