MODEL 1
REMARK minimizedAffinity 19.1425838
REMARK minimizedRMSD -1
REMARK  0 active torsions:
REMARK  status: ('A' for Active; 'I' for Inactive)
ROOT
ATOM      1  C2' OXE d   1      -1.121   2.568   0.612  0.00  0.00     0.078 C 
ATOM      2  C1' OXE d   1      -2.392   4.727   1.879  0.00  0.00     0.078 C 
ATOM      3  C1  OXE d   1      -0.907   4.830   1.634  0.00  0.00    -0.078 A 
ATOM      4  C2  OXE d   1      -0.285   3.750   1.055  0.00  0.00    -0.078 A 
ATOM      5  C3  OXE d   1       1.073   3.814   0.757  0.00  0.00     0.003 A 
ATOM      6  C4  OXE d   1       1.840   4.906   1.180  0.00  0.00    -0.002 A 
ATOM      7  C5  OXE d   1       1.234   6.000   1.806  0.00  0.00    -0.002 A 
ATOM      8  C6  OXE d   1      -0.143   5.996   2.002  0.00  0.00     0.003 A 
ENDROOT
TORSDOF 0
ENDMDL
