MODEL 1
REMARK minimizedAffinity -3.36024499
REMARK minimizedRMSD -1
REMARK  0 active torsions:
REMARK  status: ('A' for Active; 'I' for Inactive)
ROOT
ATOM      1  C2' OXE d   1       3.370  -1.476   5.698  0.00  0.00     0.078 C 
ATOM      2  C1' OXE d   1       3.052  -2.309   3.036  0.00  0.00     0.078 C 
ATOM      3  C1  OXE d   1       4.085  -3.017   3.876  0.00  0.00    -0.078 A 
ATOM      4  C2  OXE d   1       4.266  -2.572   5.164  0.00  0.00    -0.078 A 
ATOM      5  C3  OXE d   1       5.167  -3.226   5.999  0.00  0.00     0.003 A 
ATOM      6  C4  OXE d   1       6.000  -4.233   5.494  0.00  0.00    -0.002 A 
ATOM      7  C5  OXE d   1       5.859  -4.675   4.174  0.00  0.00    -0.002 A 
ATOM      8  C6  OXE d   1       4.879  -4.108   3.366  0.00  0.00     0.003 A 
ENDROOT
TORSDOF 0
ENDMDL
