MODEL 1
REMARK minimizedAffinity 8.67226219
REMARK minimizedRMSD -1
REMARK  0 active torsions:
REMARK  status: ('A' for Active; 'I' for Inactive)
ROOT
ATOM      1  C2' OXE d   1       4.956   5.996  -1.644  0.00  0.00     0.078 C 
ATOM      2  C1' OXE d   1       2.777   5.916  -3.413  0.00  0.00     0.078 C 
ATOM      3  C1  OXE d   1       3.884   4.911  -3.613  0.00  0.00    -0.078 A 
ATOM      4  C2  OXE d   1       4.968   4.988  -2.772  0.00  0.00    -0.078 A 
ATOM      5  C3  OXE d   1       5.991   4.050  -2.879  0.00  0.00     0.003 A 
ATOM      6  C4  OXE d   1       5.999   3.127  -3.932  0.00  0.00    -0.002 A 
ATOM      7  C5  OXE d   1       4.924   3.057  -4.824  0.00  0.00    -0.002 A 
ATOM      8  C6  OXE d   1       3.840   3.912  -4.653  0.00  0.00     0.003 A 
ENDROOT
TORSDOF 0
ENDMDL
