MODEL 1
REMARK minimizedAffinity 3.86845756
REMARK minimizedRMSD -1
REMARK  0 active torsions:
REMARK  status: ('A' for Active; 'I' for Inactive)
ROOT
ATOM      1  C2' OXE d   1       3.377   4.878  -1.396  0.00  0.00     0.078 C 
ATOM      2  C1' OXE d   1       5.919   6.000  -1.795  0.00  0.00     0.078 C 
ATOM      3  C1  OXE d   1       5.322   5.191  -2.920  0.00  0.00    -0.078 A 
ATOM      4  C2  OXE d   1       4.098   4.607  -2.699  0.00  0.00    -0.078 A 
ATOM      5  C3  OXE d   1       3.479   3.896  -3.722  0.00  0.00     0.003 A 
ATOM      6  C4  OXE d   1       4.157   3.641  -4.920  0.00  0.00    -0.002 A 
ATOM      7  C5  OXE d   1       5.422   4.193  -5.151  0.00  0.00    -0.002 A 
ATOM      8  C6  OXE d   1       5.999   5.004  -4.180  0.00  0.00     0.003 A 
ENDROOT
TORSDOF 0
ENDMDL
