MODEL 1
REMARK minimizedAffinity 4.11049366
REMARK minimizedRMSD -1
REMARK  0 active torsions:
REMARK  status: ('A' for Active; 'I' for Inactive)
ROOT
ATOM      1  C2' OXE d   1       3.333   5.312  -5.731  0.00  0.00     0.078 C 
ATOM      2  C1' OXE d   1       5.400   3.413  -5.673  0.00  0.00     0.078 C 
ATOM      3  C1  OXE d   1       5.191   4.263  -4.445  0.00  0.00    -0.078 A 
ATOM      4  C2  OXE d   1       4.208   5.221  -4.499  0.00  0.00    -0.078 A 
ATOM      5  C3  OXE d   1       3.937   5.995  -3.374  0.00  0.00     0.003 A 
ATOM      6  C4  OXE d   1       4.758   5.912  -2.243  0.00  0.00    -0.002 A 
ATOM      7  C5  OXE d   1       5.790   4.970  -2.182  0.00  0.00    -0.002 A 
ATOM      8  C6  OXE d   1       5.993   4.111  -3.256  0.00  0.00     0.003 A 
ENDROOT
TORSDOF 0
ENDMDL
