MODEL 1
REMARK minimizedAffinity 0.918397963
REMARK minimizedRMSD -1
REMARK  0 active torsions:
REMARK  status: ('A' for Active; 'I' for Inactive)
ROOT
ATOM      1  C2' OXE d   1       1.768   5.783  -3.286  0.00  0.00     0.078 C 
ATOM      2  C1' OXE d   1       3.148   5.486  -5.713  0.00  0.00     0.078 C 
ATOM      3  C1  OXE d   1       3.925   5.299  -4.434  0.00  0.00    -0.078 A 
ATOM      4  C2  OXE d   1       3.252   5.492  -3.251  0.00  0.00    -0.078 A 
ATOM      5  C3  OXE d   1       3.909   5.279  -2.042  0.00  0.00     0.003 A 
ATOM      6  C4  OXE d   1       5.284   5.021  -2.018  0.00  0.00    -0.002 A 
ATOM      7  C5  OXE d   1       5.997   4.859  -3.211  0.00  0.00    -0.002 A 
ATOM      8  C6  OXE d   1       5.325   4.953  -4.425  0.00  0.00     0.003 A 
ENDROOT
TORSDOF 0
ENDMDL
