MODEL 1
REMARK minimizedAffinity -2.36911082
REMARK minimizedRMSD -1
REMARK  0 active torsions:
REMARK  status: ('A' for Active; 'I' for Inactive)
ROOT
ATOM      1  C2' OXE d   1       5.999  -5.428   4.941  0.00  0.00     0.078 C 
ATOM      2  C1' OXE d   1       4.480  -4.793   2.668  0.00  0.00     0.078 C 
ATOM      3  C1  OXE d   1       4.480  -3.809   3.811  0.00  0.00    -0.078 A 
ATOM      4  C2  OXE d   1       5.189  -4.149   4.938  0.00  0.00    -0.078 A 
ATOM      5  C3  OXE d   1       5.268  -3.253   6.000  0.00  0.00     0.003 A 
ATOM      6  C4  OXE d   1       4.507  -2.077   5.993  0.00  0.00    -0.002 A 
ATOM      7  C5  OXE d   1       3.747  -1.730   4.871  0.00  0.00    -0.002 A 
ATOM      8  C6  OXE d   1       3.757  -2.563   3.757  0.00  0.00     0.003 A 
ENDROOT
TORSDOF 0
ENDMDL
