MODEL 1
REMARK minimizedAffinity -1.78994036
REMARK minimizedRMSD -1
REMARK  0 active torsions:
REMARK  status: ('A' for Active; 'I' for Inactive)
ROOT
ATOM      1  C2' OXE d   1       5.151  -3.072   6.000  0.00  0.00     0.078 C 
ATOM      2  C1' OXE d   1       3.418  -5.280   6.000  0.00  0.00     0.078 C 
ATOM      3  C1  OXE d   1       3.117  -4.149   5.048  0.00  0.00    -0.078 A 
ATOM      4  C2  OXE d   1       3.943  -3.052   5.088  0.00  0.00    -0.078 A 
ATOM      5  C3  OXE d   1       3.743  -2.005   4.193  0.00  0.00     0.003 A 
ATOM      6  C4  OXE d   1       2.618  -1.991   3.359  0.00  0.00    -0.002 A 
ATOM      7  C5  OXE d   1       1.741  -3.080   3.331  0.00  0.00    -0.002 A 
ATOM      8  C6  OXE d   1       1.999  -4.184   4.137  0.00  0.00     0.003 A 
ENDROOT
TORSDOF 0
ENDMDL
