MODEL 1
REMARK minimizedAffinity -3.30740523
REMARK minimizedRMSD -1
REMARK  0 active torsions:
REMARK  status: ('A' for Active; 'I' for Inactive)
ROOT
ATOM      1  C2' OXE d   1       3.120  -2.249   3.126  0.00  0.00     0.078 C 
ATOM      2  C1' OXE d   1       3.630  -1.491   5.781  0.00  0.00     0.078 C 
ATOM      3  C1  OXE d   1       4.394  -2.668   5.226  0.00  0.00    -0.078 A 
ATOM      4  C2  OXE d   1       4.104  -3.061   3.942  0.00  0.00    -0.078 A 
ATOM      5  C3  OXE d   1       4.818  -4.106   3.363  0.00  0.00     0.003 A 
ATOM      6  C4  OXE d   1       5.719  -4.857   4.127  0.00  0.00    -0.002 A 
ATOM      7  C5  OXE d   1       6.000  -4.498   5.449  0.00  0.00    -0.002 A 
ATOM      8  C6  OXE d   1       5.379  -3.383   5.999  0.00  0.00     0.003 A 
ENDROOT
TORSDOF 0
ENDMDL
