MODEL 1
REMARK minimizedAffinity 6.5889411
REMARK minimizedRMSD -1
REMARK  0 active torsions:
REMARK  status: ('A' for Active; 'I' for Inactive)
ROOT
ATOM      1  C2' OXE d   1       2.428   3.053  -3.718  0.00  0.00     0.078 C 
ATOM      2  C1' OXE d   1       2.370   5.839  -3.379  0.00  0.00     0.078 C 
ATOM      3  C1  OXE d   1       3.656   5.215  -3.860  0.00  0.00    -0.078 A 
ATOM      4  C2  OXE d   1       3.690   3.847  -3.979  0.00  0.00    -0.078 A 
ATOM      5  C3  OXE d   1       4.834   3.225  -4.471  0.00  0.00     0.003 A 
ATOM      6  C4  OXE d   1       6.000   3.966  -4.700  0.00  0.00    -0.002 A 
ATOM      7  C5  OXE d   1       5.999   5.356  -4.547  0.00  0.00    -0.002 A 
ATOM      8  C6  OXE d   1       4.826   6.000  -4.170  0.00  0.00     0.003 A 
ENDROOT
TORSDOF 0
ENDMDL
