MODEL 1
REMARK minimizedAffinity 0.357987255
REMARK minimizedRMSD -1
REMARK  0 active torsions:
REMARK  status: ('A' for Active; 'I' for Inactive)
ROOT
ATOM      1  C2' OXE d   1       4.882   5.989  -1.618  0.00  0.00     0.078 C 
ATOM      2  C1' OXE d   1       2.577   5.998  -3.221  0.00  0.00     0.078 C 
ATOM      3  C1  OXE d   1       3.755   5.179  -3.687  0.00  0.00    -0.078 A 
ATOM      4  C2  OXE d   1       4.895   5.218  -2.920  0.00  0.00    -0.078 A 
ATOM      5  C3  OXE d   1       5.992   4.438  -3.276  0.00  0.00     0.003 A 
ATOM      6  C4  OXE d   1       5.999   3.736  -4.488  0.00  0.00    -0.002 A 
ATOM      7  C5  OXE d   1       4.863   3.716  -5.303  0.00  0.00    -0.002 A 
ATOM      8  C6  OXE d   1       3.720   4.396  -4.897  0.00  0.00     0.003 A 
ENDROOT
TORSDOF 0
ENDMDL
