MODEL 1
REMARK minimizedAffinity 4.55464649
REMARK minimizedRMSD -1
REMARK  0 active torsions:
REMARK  status: ('A' for Active; 'I' for Inactive)
ROOT
ATOM      1  C2' OXE d   1       2.631  -2.608   3.005  0.00  0.00     0.078 C 
ATOM      2  C1' OXE d   1       2.764  -1.091   5.363  0.00  0.00     0.078 C 
ATOM      3  C1  OXE d   1       3.870  -2.083   5.101  0.00  0.00    -0.078 A 
ATOM      4  C2  OXE d   1       3.772  -2.854   3.968  0.00  0.00    -0.078 A 
ATOM      5  C3  OXE d   1       4.793  -3.746   3.652  0.00  0.00     0.003 A 
ATOM      6  C4  OXE d   1       5.840  -3.975   4.553  0.00  0.00    -0.002 A 
ATOM      7  C5  OXE d   1       5.937  -3.228   5.732  0.00  0.00    -0.002 A 
ATOM      8  C6  OXE d   1       4.985  -2.251   6.000  0.00  0.00     0.003 A 
ENDROOT
TORSDOF 0
ENDMDL
