MODEL 1
REMARK minimizedAffinity -3.51115155
REMARK minimizedRMSD -1
REMARK  0 active torsions:
REMARK  status: ('A' for Active; 'I' for Inactive)
ROOT
ATOM      1  C   UNL d   1       2.495  -4.150   0.052  0.00  0.00     0.172 C 
ATOM      2  N   UNL d   1       1.751  -2.921   0.206  0.00  0.00    -0.070 N 
ATOM      3  C1  UNL d   1       0.388  -2.818   0.280  0.00  0.00    -0.004 A 
ATOM      4  C2  UNL d   1       0.073  -1.484   0.425  0.00  0.00    -0.047 A 
ATOM      5  C3  UNL d   1       1.289  -0.761   0.436  0.00  0.00    -0.047 A 
ATOM      6  C4  UNL d   1       2.312  -1.675   0.299  0.00  0.00    -0.004 A 
ENDROOT
TORSDOF 0
ENDMDL
