MODEL 1
REMARK minimizedAffinity -0.350713432
REMARK minimizedRMSD -1
REMARK  0 active torsions:
REMARK  status: ('A' for Active; 'I' for Inactive)
ROOT
ATOM      1  C   UNL d   1      -3.812   1.392   0.030  0.00  0.00     0.172 C 
ATOM      2  N   UNL d   1      -2.683   0.966   0.822  0.00  0.00    -0.070 N 
ATOM      3  C1  UNL d   1      -1.898  -0.128   0.570  0.00  0.00    -0.004 A 
ATOM      4  C2  UNL d   1      -0.932  -0.190   1.552  0.00  0.00    -0.047 A 
ATOM      5  C3  UNL d   1      -1.145   0.904   2.425  0.00  0.00    -0.047 A 
ATOM      6  C4  UNL d   1      -2.235   1.602   1.950  0.00  0.00    -0.004 A 
ENDROOT
TORSDOF 0
ENDMDL
