MODEL 1
REMARK minimizedAffinity -2.38080478
REMARK minimizedRMSD -1
REMARK  0 active torsions:
REMARK  status: ('A' for Active; 'I' for Inactive)
ROOT
ATOM      1  C   UNL d   1       3.573  -4.003  -0.256  0.00  0.00     0.172 C 
ATOM      2  N   UNL d   1       2.358  -3.255  -0.027  0.00  0.00    -0.070 N 
ATOM      3  C1  UNL d   1       2.289  -1.939   0.343  0.00  0.00    -0.004 A 
ATOM      4  C2  UNL d   1       0.958  -1.602   0.459  0.00  0.00    -0.047 A 
ATOM      5  C3  UNL d   1       0.201  -2.757   0.148  0.00  0.00    -0.047 A 
ATOM      6  C4  UNL d   1       1.093  -3.766  -0.148  0.00  0.00    -0.004 A 
ENDROOT
TORSDOF 0
ENDMDL
