MODEL 1
REMARK minimizedAffinity -1.28143072
REMARK minimizedRMSD -1
REMARK  0 active torsions:
REMARK  status: ('A' for Active; 'I' for Inactive)
ROOT
ATOM      1  C   UNL d   1       1.924  -3.592   1.042  0.00  0.00     0.172 C 
ATOM      2  N   UNL d   1       1.286  -2.298   0.991  0.00  0.00    -0.070 N 
ATOM      3  C1  UNL d   1       1.932  -1.091   0.934  0.00  0.00    -0.004 A 
ATOM      4  C2  UNL d   1       0.973  -0.101   0.899  0.00  0.00    -0.047 A 
ATOM      5  C3  UNL d   1      -0.292  -0.735   0.938  0.00  0.00    -0.047 A 
ATOM      6  C4  UNL d   1      -0.069  -2.094   0.995  0.00  0.00    -0.004 A 
ENDROOT
TORSDOF 0
ENDMDL
