MODEL 1
REMARK minimizedAffinity -3.67295241
REMARK minimizedRMSD -1
REMARK  0 active torsions:
REMARK  status: ('A' for Active; 'I' for Inactive)
ROOT
ATOM      1  C   UNL d   1       3.075  -4.565   0.130  0.00  0.00     0.172 C 
ATOM      2  N   UNL d   1       2.263  -3.372   0.064  0.00  0.00    -0.070 N 
ATOM      3  C1  UNL d   1       2.692  -2.099   0.328  0.00  0.00    -0.004 A 
ATOM      4  C2  UNL d   1       1.622  -1.248   0.153  0.00  0.00    -0.047 A 
ATOM      5  C3  UNL d   1       0.511  -2.038  -0.228  0.00  0.00    -0.047 A 
ATOM      6  C4  UNL d   1       0.936  -3.349  -0.276  0.00  0.00    -0.004 A 
ENDROOT
TORSDOF 0
ENDMDL
