MODEL 1
REMARK minimizedAffinity -2.13180351
REMARK minimizedRMSD -1
REMARK  0 active torsions:
REMARK  status: ('A' for Active; 'I' for Inactive)
ROOT
ATOM      1  C   UNL d   1       1.484  -3.740  -0.095  0.00  0.00     0.172 C 
ATOM      2  N   UNL d   1       1.217  -2.351   0.198  0.00  0.00    -0.070 N 
ATOM      3  C1  UNL d   1       2.114  -1.323   0.078  0.00  0.00    -0.004 A 
ATOM      4  C2  UNL d   1       1.475  -0.160   0.451  0.00  0.00    -0.047 A 
ATOM      5  C3  UNL d   1       0.149  -0.501   0.809  0.00  0.00    -0.047 A 
ATOM      6  C4  UNL d   1       0.016  -1.863   0.643  0.00  0.00    -0.004 A 
ENDROOT
TORSDOF 0
ENDMDL
