MODEL 1
REMARK minimizedAffinity -2.6659801
REMARK minimizedRMSD -1
REMARK  0 active torsions:
REMARK  status: ('A' for Active; 'I' for Inactive)
ROOT
ATOM      1  C   UNL d   1      -0.435  -0.465   1.437  0.00  0.00     0.172 C 
ATOM      2  N   UNL d   1       0.520  -1.432   0.950  0.00  0.00    -0.070 N 
ATOM      3  C1  UNL d   1       1.496  -1.192   0.019  0.00  0.00    -0.004 A 
ATOM      4  C2  UNL d   1       2.194  -2.364  -0.172  0.00  0.00    -0.047 A 
ATOM      5  C3  UNL d   1       1.618  -3.343   0.672  0.00  0.00    -0.047 A 
ATOM      6  C4  UNL d   1       0.583  -2.739   1.355  0.00  0.00    -0.004 A 
ENDROOT
TORSDOF 0
ENDMDL
