MODEL 1
REMARK minimizedAffinity -2.84053612
REMARK minimizedRMSD -1
REMARK  0 active torsions:
REMARK  status: ('A' for Active; 'I' for Inactive)
ROOT
ATOM      1  C   UNL d   1      -1.623  -0.480   1.159  0.00  0.00     0.172 C 
ATOM      2  N   UNL d   1      -0.426  -1.225   0.846  0.00  0.00    -0.070 N 
ATOM      3  C1  UNL d   1      -0.385  -2.447   0.231  0.00  0.00    -0.004 A 
ATOM      4  C2  UNL d   1       0.938  -2.816   0.114  0.00  0.00    -0.047 A 
ATOM      5  C3  UNL d   1       1.718  -1.779   0.678  0.00  0.00    -0.047 A 
ATOM      6  C4  UNL d   1       0.848  -0.806   1.124  0.00  0.00    -0.004 A 
ENDROOT
TORSDOF 0
ENDMDL
