MODEL 1
REMARK minimizedAffinity -3.79543805
REMARK minimizedRMSD -1
REMARK  0 active torsions:
REMARK  status: ('A' for Active; 'I' for Inactive)
ROOT
ATOM      1  C   UNL d   1       3.167  -3.367  -0.076  0.00  0.00     0.172 C 
ATOM      2  N   UNL d   1       2.050  -2.531   0.295  0.00  0.00    -0.070 N 
ATOM      3  C1  UNL d   1       2.026  -1.163   0.245  0.00  0.00    -0.004 A 
ATOM      4  C2  UNL d   1       0.786  -0.746   0.679  0.00  0.00    -0.047 A 
ATOM      5  C3  UNL d   1       0.039  -1.904   1.002  0.00  0.00    -0.047 A 
ATOM      6  C4  UNL d   1       0.846  -2.995   0.755  0.00  0.00    -0.004 A 
ENDROOT
TORSDOF 0
ENDMDL
