MODEL 1
REMARK minimizedAffinity -2.06919742
REMARK minimizedRMSD -1
REMARK  0 active torsions:
REMARK  status: ('A' for Active; 'I' for Inactive)
ROOT
ATOM      1  C   UNL d   1      -1.025  -3.288   0.544  0.00  0.00     0.172 C 
ATOM      2  N   UNL d   1      -0.118  -2.164   0.544  0.00  0.00    -0.070 N 
ATOM      3  C1  UNL d   1      -0.234  -1.045   1.324  0.00  0.00    -0.004 A 
ATOM      4  C2  UNL d   1       0.825  -0.213   1.029  0.00  0.00    -0.047 A 
ATOM      5  C3  UNL d   1       1.603  -0.854   0.036  0.00  0.00    -0.047 A 
ATOM      6  C4  UNL d   1       0.996  -2.060  -0.246  0.00  0.00    -0.004 A 
ENDROOT
TORSDOF 0
ENDMDL
