MODEL 1
REMARK minimizedAffinity -2.83032346
REMARK minimizedRMSD -1
REMARK  0 active torsions:
REMARK  status: ('A' for Active; 'I' for Inactive)
ROOT
ATOM      1  C   UNL d   1       3.385  -3.278  -0.292  0.00  0.00     0.172 C 
ATOM      2  N   UNL d   1       2.240  -2.467   0.047  0.00  0.00    -0.070 N 
ATOM      3  C1  UNL d   1       0.966  -2.928   0.249  0.00  0.00    -0.004 A 
ATOM      4  C2  UNL d   1       0.169  -1.846   0.552  0.00  0.00    -0.047 A 
ATOM      5  C3  UNL d   1       0.991  -0.694   0.529  0.00  0.00    -0.047 A 
ATOM      6  C4  UNL d   1       2.268  -1.107   0.214  0.00  0.00    -0.004 A 
ENDROOT
TORSDOF 0
ENDMDL
