MODEL 1
REMARK minimizedAffinity 0.0235313438
REMARK minimizedRMSD -1
REMARK  0 active torsions:
REMARK  status: ('A' for Active; 'I' for Inactive)
ROOT
ATOM      1  C   UNL d   1       1.968  -3.853   0.460  0.00  0.00     0.172 C 
ATOM      2  N   UNL d   1       1.078  -2.720   0.558  0.00  0.00    -0.070 N 
ATOM      3  C1  UNL d   1      -0.192  -2.656   0.050  0.00  0.00    -0.004 A 
ATOM      4  C2  UNL d   1      -0.706  -1.414   0.352  0.00  0.00    -0.047 A 
ATOM      5  C3  UNL d   1       0.291  -0.706   1.066  0.00  0.00    -0.047 A 
ATOM      6  C4  UNL d   1       1.384  -1.538   1.179  0.00  0.00    -0.004 A 
ENDROOT
TORSDOF 0
ENDMDL
