MODEL 1
REMARK minimizedAffinity -0.582961619
REMARK minimizedRMSD -1
REMARK  0 active torsions:
REMARK  status: ('A' for Active; 'I' for Inactive)
ROOT
ATOM      1  C   UNL d   1       1.282  -3.693   1.145  0.00  0.00     0.172 C 
ATOM      2  N   UNL d   1       0.799  -2.338   1.014  0.00  0.00    -0.070 N 
ATOM      3  C1  UNL d   1       1.532  -1.204   1.241  0.00  0.00    -0.004 A 
ATOM      4  C2  UNL d   1       0.714  -0.119   1.008  0.00  0.00    -0.047 A 
ATOM      5  C3  UNL d   1      -0.555  -0.619   0.629  0.00  0.00    -0.047 A 
ATOM      6  C4  UNL d   1      -0.474  -1.996   0.641  0.00  0.00    -0.004 A 
ENDROOT
TORSDOF 0
ENDMDL
