MODEL 1
REMARK minimizedAffinity -1.71284044
REMARK minimizedRMSD -1
REMARK  0 active torsions:
REMARK  status: ('A' for Active; 'I' for Inactive)
ROOT
ATOM      1  C   UNL d   1      -0.425  -1.577   0.394  0.00  0.00     0.172 C 
ATOM      2  N   UNL d   1       0.918  -2.087   0.248  0.00  0.00    -0.070 N 
ATOM      3  C1  UNL d   1       2.067  -1.350   0.352  0.00  0.00    -0.004 A 
ATOM      4  C2  UNL d   1       3.133  -2.200   0.150  0.00  0.00    -0.047 A 
ATOM      5  C3  UNL d   1       2.606  -3.493  -0.084  0.00  0.00    -0.047 A 
ATOM      6  C4  UNL d   1       1.232  -3.394  -0.018  0.00  0.00    -0.004 A 
ENDROOT
TORSDOF 0
ENDMDL
