MODEL 1
REMARK minimizedAffinity 0.26784721
REMARK minimizedRMSD -1
REMARK  0 active torsions:
REMARK  status: ('A' for Active; 'I' for Inactive)
ROOT
ATOM      1  C   UNL d   1       1.152  -3.422   0.000  0.00  0.00     0.172 C 
ATOM      2  N   UNL d   1       0.663  -2.137   0.442  0.00  0.00    -0.070 N 
ATOM      3  C1  UNL d   1      -0.613  -1.667   0.275  0.00  0.00    -0.004 A 
ATOM      4  C2  UNL d   1      -0.676  -0.409   0.834  0.00  0.00    -0.047 A 
ATOM      5  C3  UNL d   1       0.606  -0.112   1.354  0.00  0.00    -0.047 A 
ATOM      6  C4  UNL d   1       1.415  -1.199   1.098  0.00  0.00    -0.004 A 
ENDROOT
TORSDOF 0
ENDMDL
