MODEL 1
REMARK minimizedAffinity -0.0401197001
REMARK minimizedRMSD -1
REMARK  0 active torsions:
REMARK  status: ('A' for Active; 'I' for Inactive)
ROOT
ATOM      1  C   UNL d   1       3.023  -2.478   0.033  0.00  0.00     0.172 C 
ATOM      2  N   UNL d   1       1.730  -2.023   0.486  0.00  0.00    -0.070 N 
ATOM      3  C1  UNL d   1       1.360  -0.717   0.663  0.00  0.00    -0.004 A 
ATOM      4  C2  UNL d   1       0.054  -0.703   1.101  0.00  0.00    -0.047 A 
ATOM      5  C3  UNL d   1      -0.376  -2.048   1.192  0.00  0.00    -0.047 A 
ATOM      6  C4  UNL d   1       0.681  -2.845   0.805  0.00  0.00    -0.004 A 
ENDROOT
TORSDOF 0
ENDMDL
