MODEL 1
REMARK minimizedAffinity -2.26929522
REMARK minimizedRMSD -1
REMARK  0 active torsions:
REMARK  status: ('A' for Active; 'I' for Inactive)
ROOT
ATOM      1  C   UNL d   1       1.872  -4.007   0.081  0.00  0.00     0.172 C 
ATOM      2  N   UNL d   1       1.159  -2.779   0.343  0.00  0.00    -0.070 N 
ATOM      3  C1  UNL d   1      -0.033  -2.675   1.010  0.00  0.00    -0.004 A 
ATOM      4  C2  UNL d   1      -0.378  -1.342   1.051  0.00  0.00    -0.047 A 
ATOM      5  C3  UNL d   1       0.640  -0.619   0.386  0.00  0.00    -0.047 A 
ATOM      6  C4  UNL d   1       1.580  -1.533  -0.042  0.00  0.00    -0.004 A 
ENDROOT
TORSDOF 0
ENDMDL
