MODEL 1
REMARK minimizedAffinity -3.39930153
REMARK minimizedRMSD -1
REMARK  0 active torsions:
REMARK  status: ('A' for Active; 'I' for Inactive)
ROOT
ATOM      1  C   UNL d   1       2.486  -3.548   0.018  0.00  0.00     0.172 C 
ATOM      2  N   UNL d   1       1.519  -2.532   0.361  0.00  0.00    -0.070 N 
ATOM      3  C1  UNL d   1       1.739  -1.181   0.339  0.00  0.00    -0.004 A 
ATOM      4  C2  UNL d   1       0.574  -0.557   0.731  0.00  0.00    -0.047 A 
ATOM      5  C3  UNL d   1      -0.378  -1.569   1.000  0.00  0.00    -0.047 A 
ATOM      6  C4  UNL d   1       0.233  -2.782   0.763  0.00  0.00    -0.004 A 
ENDROOT
TORSDOF 0
ENDMDL
