MODEL 1
REMARK minimizedAffinity -3.5977447
REMARK minimizedRMSD -1
REMARK  0 active torsions:
REMARK  status: ('A' for Active; 'I' for Inactive)
ROOT
ATOM      1  C   UNL d   1      -1.287  -0.393  -0.180  0.00  0.00     0.078 C 
ATOM      2  C1  UNL d   1       0.169  -0.084   0.005  0.00  0.00    -0.077 A 
ATOM      3  C2  UNL d   1       1.100  -1.105   0.231  0.00  0.00    -0.001 A 
ATOM      4  C3  UNL d   1       2.451  -0.801   0.411  0.00  0.00     0.003 A 
ATOM      5  C4  UNL d   1       2.882   0.523   0.369  0.00  0.00    -0.005 A 
ATOM      6  C5  UNL d   1       1.962   1.546   0.147  0.00  0.00     0.003 A 
ATOM      7  C6  UNL d   1       0.611   1.245  -0.033  0.00  0.00    -0.001 A 
ENDROOT
TORSDOF 0
ENDMDL
