MODEL 1
REMARK minimizedAffinity -4.89497995
REMARK minimizedRMSD -1
REMARK  0 active torsions:
REMARK  status: ('A' for Active; 'I' for Inactive)
ROOT
ATOM      1  C   UNL d   1      -1.533   0.301  -0.064  0.00  0.00     0.078 C 
ATOM      2  C1  UNL d   1      -0.068   0.520   0.170  0.00  0.00    -0.077 A 
ATOM      3  C2  UNL d   1       0.786  -0.553   0.453  0.00  0.00    -0.001 A 
ATOM      4  C3  UNL d   1       2.145  -0.333   0.679  0.00  0.00     0.003 A 
ATOM      5  C4  UNL d   1       2.664   0.959   0.625  0.00  0.00    -0.005 A 
ATOM      6  C5  UNL d   1       1.822   2.034   0.347  0.00  0.00     0.003 A 
ATOM      7  C6  UNL d   1       0.461   1.816   0.121  0.00  0.00    -0.001 A 
ENDROOT
TORSDOF 0
ENDMDL
