MODEL 1
REMARK minimizedAffinity -5.25619459
REMARK minimizedRMSD -1
REMARK  0 active torsions:
REMARK  status: ('A' for Active; 'I' for Inactive)
ROOT
ATOM      1  C   UNL d   1       0.687   1.937  -0.358  0.00  0.00     0.078 C 
ATOM      2  C1  UNL d   1       1.401   0.821   0.344  0.00  0.00    -0.077 A 
ATOM      3  C2  UNL d   1       0.867  -0.473   0.372  0.00  0.00    -0.001 A 
ATOM      4  C3  UNL d   1       1.538  -1.500   1.038  0.00  0.00     0.003 A 
ATOM      5  C4  UNL d   1       2.747  -1.243   1.682  0.00  0.00    -0.005 A 
ATOM      6  C5  UNL d   1       3.285   0.042   1.662  0.00  0.00     0.003 A 
ATOM      7  C6  UNL d   1       2.616   1.070   0.996  0.00  0.00    -0.001 A 
ENDROOT
TORSDOF 0
ENDMDL
