MODEL 1
REMARK minimizedAffinity -0.00805088878
REMARK minimizedRMSD -1
REMARK  0 active torsions:
REMARK  status: ('A' for Active; 'I' for Inactive)
ROOT
ATOM      1  C   UNL d   1       2.762  -0.670   1.925  0.00  0.00     0.078 C 
ATOM      2  C1  UNL d   1       1.422  -1.114   1.420  0.00  0.00    -0.077 A 
ATOM      3  C2  UNL d   1       0.851  -2.318   1.851  0.00  0.00    -0.001 A 
ATOM      4  C3  UNL d   1      -0.393  -2.723   1.365  0.00  0.00     0.003 A 
ATOM      5  C4  UNL d   1      -1.077  -1.930   0.445  0.00  0.00    -0.005 A 
ATOM      6  C5  UNL d   1      -0.516  -0.732   0.009  0.00  0.00     0.003 A 
ATOM      7  C6  UNL d   1       0.728  -0.325   0.494  0.00  0.00    -0.001 A 
ENDROOT
TORSDOF 0
ENDMDL
