MODEL 1
REMARK minimizedAffinity -4.50394201
REMARK minimizedRMSD -1
REMARK  0 active torsions:
REMARK  status: ('A' for Active; 'I' for Inactive)
ROOT
ATOM      1  C   UNL d   1      -0.957   1.107  -0.364  0.00  0.00     0.078 C 
ATOM      2  C1  UNL d   1       0.347   0.424  -0.076  0.00  0.00    -0.077 A 
ATOM      3  C2  UNL d   1       0.416  -0.968   0.063  0.00  0.00    -0.001 A 
ATOM      4  C3  UNL d   1       1.634  -1.590   0.340  0.00  0.00     0.003 A 
ATOM      5  C4  UNL d   1       2.793  -0.828   0.482  0.00  0.00    -0.005 A 
ATOM      6  C5  UNL d   1       2.733   0.557   0.346  0.00  0.00     0.003 A 
ATOM      7  C6  UNL d   1       1.516   1.181   0.069  0.00  0.00    -0.001 A 
ENDROOT
TORSDOF 0
ENDMDL
