MODEL 1
REMARK minimizedAffinity -5.28196096
REMARK minimizedRMSD -1
REMARK  0 active torsions:
REMARK  status: ('A' for Active; 'I' for Inactive)
ROOT
ATOM      1  C   UNL d   1       3.348  -1.103   1.452  0.00  0.00     0.078 C 
ATOM      2  C1  UNL d   1       2.218  -0.262   0.937  0.00  0.00    -0.077 A 
ATOM      3  C2  UNL d   1       2.436   1.052   0.504  0.00  0.00    -0.001 A 
ATOM      4  C3  UNL d   1       1.373   1.826   0.037  0.00  0.00     0.003 A 
ATOM      5  C4  UNL d   1       0.085   1.296  -0.001  0.00  0.00    -0.005 A 
ATOM      6  C5  UNL d   1      -0.142  -0.009   0.430  0.00  0.00     0.003 A 
ATOM      7  C6  UNL d   1       0.920  -0.785   0.898  0.00  0.00    -0.001 A 
ENDROOT
TORSDOF 0
ENDMDL
