MODEL 1
REMARK minimizedAffinity -2.57166409
REMARK minimizedRMSD -1
REMARK  0 active torsions:
REMARK  status: ('A' for Active; 'I' for Inactive)
ROOT
ATOM      1  C   UNL d   1      -0.119  -0.692   0.251  0.00  0.00     0.078 C 
ATOM      2  C1  UNL d   1      -1.208  -0.484  -0.758  0.00  0.00    -0.077 A 
ATOM      3  C2  UNL d   1      -1.396  -1.386  -1.813  0.00  0.00    -0.001 A 
ATOM      4  C3  UNL d   1      -2.408  -1.174  -2.750  0.00  0.00     0.003 A 
ATOM      5  C4  UNL d   1      -3.240  -0.061  -2.643  0.00  0.00    -0.005 A 
ATOM      6  C5  UNL d   1      -3.059   0.843  -1.598  0.00  0.00     0.003 A 
ATOM      7  C6  UNL d   1      -2.047   0.633  -0.660  0.00  0.00    -0.001 A 
ENDROOT
TORSDOF 0
ENDMDL
