MODEL 1
REMARK minimizedAffinity 10.6272478
REMARK minimizedRMSD -1
REMARK  0 active torsions:
REMARK  status: ('A' for Active; 'I' for Inactive)
ROOT
ATOM      1  C   UNL d   1       0.809   4.280  -1.022  0.00  0.00     0.124 A 
ATOM      2  C1  UNL d   1      -0.324   3.481  -0.961  0.00  0.00     0.062 A 
ATOM      3  C2  UNL d   1      -0.622   2.776   0.202  0.00  0.00     0.162 A 
ATOM      4  C3  UNL d   1       0.215   2.868   1.314  0.00  0.00    -0.034 A 
ATOM      5  C4  UNL d   1       1.354   3.673   1.245  0.00  0.00     0.162 A 
ATOM      6  C5  UNL d   1       1.647   4.375   0.080  0.00  0.00     0.062 A 
ATOM      7  F   UNL d   1       2.742   5.147   0.022  0.00  0.00    -0.097 F 
ATOM      8  F1  UNL d   1       2.180   3.784   2.295  0.00  0.00    -0.096 F 
ATOM      9  I   UNL d   1      -0.226   1.816   3.055  0.00  0.00    -0.060 I 
ATOM     10  F2  UNL d   1      -1.723   2.012   0.234  0.00  0.00    -0.096 F 
ATOM     11  F3  UNL d   1      -1.135   3.386  -2.025  0.00  0.00    -0.097 F 
ATOM     12  F4  UNL d   1       1.093   4.956  -2.143  0.00  0.00    -0.092 F 
ENDROOT
TORSDOF 0
ENDMDL
