MODEL 1
REMARK minimizedAffinity 12.9431295
REMARK minimizedRMSD -1
REMARK  0 active torsions:
REMARK  status: ('A' for Active; 'I' for Inactive)
ROOT
ATOM      1  C   UNL d   1      -5.889   2.107  -4.125  0.00  0.00     0.124 A 
ATOM      2  C1  UNL d   1      -5.880   1.889  -2.755  0.00  0.00     0.062 A 
ATOM      3  C2  UNL d   1      -5.765   2.962  -1.876  0.00  0.00     0.162 A 
ATOM      4  C3  UNL d   1      -5.660   4.264  -2.365  0.00  0.00    -0.034 A 
ATOM      5  C4  UNL d   1      -5.670   4.476  -3.745  0.00  0.00     0.162 A 
ATOM      6  C5  UNL d   1      -5.785   3.400  -4.619  0.00  0.00     0.062 A 
ATOM      7  F   UNL d   1      -5.794   3.613  -5.943  0.00  0.00    -0.097 F 
ATOM      8  F1  UNL d   1      -5.571   5.715  -4.249  0.00  0.00    -0.096 F 
ATOM      9  I   UNL d   1      -5.489   5.872  -1.054  0.00  0.00    -0.060 I 
ATOM     10  F2  UNL d   1      -5.758   2.722  -0.556  0.00  0.00    -0.096 F 
ATOM     11  F3  UNL d   1      -5.980   0.641  -2.275  0.00  0.00    -0.097 F 
ATOM     12  F4  UNL d   1      -5.999   1.073  -4.969  0.00  0.00    -0.092 F 
ENDROOT
TORSDOF 0
ENDMDL
