MODEL 1
REMARK minimizedAffinity 5.24980879
REMARK minimizedRMSD -1
REMARK  0 active torsions:
REMARK  status: ('A' for Active; 'I' for Inactive)
ROOT
ATOM      1  C   UNL d   1      -5.997   3.757  -4.708  0.00  0.00     0.124 A 
ATOM      2  C1  UNL d   1      -5.997   2.393  -4.450  0.00  0.00     0.062 A 
ATOM      3  C2  UNL d   1      -5.996   1.929  -3.138  0.00  0.00     0.162 A 
ATOM      4  C3  UNL d   1      -5.995   2.830  -2.073  0.00  0.00    -0.034 A 
ATOM      5  C4  UNL d   1      -5.994   4.200  -2.341  0.00  0.00     0.162 A 
ATOM      6  C5  UNL d   1      -5.995   4.659  -3.654  0.00  0.00     0.062 A 
ATOM      7  F   UNL d   1      -5.994   5.977  -3.902  0.00  0.00    -0.097 F 
ATOM      8  F1  UNL d   1      -5.993   5.094  -1.340  0.00  0.00    -0.096 F 
ATOM      9  I   UNL d   1      -5.994   2.141  -0.109  0.00  0.00    -0.060 I 
ATOM     10  F2  UNL d   1      -5.997   0.606  -2.917  0.00  0.00    -0.096 F 
ATOM     11  F3  UNL d   1      -5.998   1.519  -5.467  0.00  0.00    -0.097 F 
ATOM     12  F4  UNL d   1      -5.997   4.200  -5.972  0.00  0.00    -0.092 F 
ENDROOT
TORSDOF 0
ENDMDL
