MODEL 1
REMARK minimizedAffinity 37.3176155
REMARK minimizedRMSD -1
REMARK  0 active torsions:
REMARK  status: ('A' for Active; 'I' for Inactive)
ROOT
ATOM      1  C   UNL d   1       5.315  -2.487  -1.800  0.00  0.00     0.124 A 
ATOM      2  C1  UNL d   1       5.260  -2.209  -3.159  0.00  0.00     0.062 A 
ATOM      3  C2  UNL d   1       4.921  -3.210  -4.065  0.00  0.00     0.162 A 
ATOM      4  C3  UNL d   1       4.633  -4.499  -3.615  0.00  0.00    -0.034 A 
ATOM      5  C4  UNL d   1       4.692  -4.771  -2.247  0.00  0.00     0.162 A 
ATOM      6  C5  UNL d   1       5.031  -3.767  -1.346  0.00  0.00     0.062 A 
ATOM      7  F   UNL d   1       5.084  -4.038  -0.033  0.00  0.00    -0.097 F 
ATOM      8  F1  UNL d   1       4.422  -5.999  -1.781  0.00  0.00    -0.096 F 
ATOM      9  I   UNL d   1       4.126  -5.998  -4.967  0.00  0.00    -0.060 I 
ATOM     10  F2  UNL d   1       4.875  -2.913  -5.372  0.00  0.00    -0.096 F 
ATOM     11  F3  UNL d   1       5.535  -0.974  -3.601  0.00  0.00    -0.097 F 
ATOM     12  F4  UNL d   1       5.643  -1.523  -0.931  0.00  0.00    -0.092 F 
ENDROOT
TORSDOF 0
ENDMDL
