MODEL 1
REMARK minimizedAffinity 25.2751369
REMARK minimizedRMSD -1
REMARK  0 active torsions:
REMARK  status: ('A' for Active; 'I' for Inactive)
ROOT
ATOM      1  C   UNL d   1      -0.257  -4.221  -1.879  0.00  0.00     0.124 A 
ATOM      2  C1  UNL d   1      -0.336  -3.983  -3.245  0.00  0.00     0.062 A 
ATOM      3  C2  UNL d   1       0.719  -4.341  -4.080  0.00  0.00     0.162 A 
ATOM      4  C3  UNL d   1       1.862  -4.942  -3.552  0.00  0.00    -0.034 A 
ATOM      5  C4  UNL d   1       1.935  -5.176  -2.178  0.00  0.00     0.162 A 
ATOM      6  C5  UNL d   1       0.878  -4.817  -1.347  0.00  0.00     0.062 A 
ATOM      7  F   UNL d   1       0.956  -5.047  -0.029  0.00  0.00    -0.097 F 
ATOM      8  F1  UNL d   1       3.019  -5.752  -1.637  0.00  0.00    -0.096 F 
ATOM      9  I   UNL d   1       3.441  -5.478  -4.797  0.00  0.00    -0.060 I 
ATOM     10  F2  UNL d   1       0.615  -4.100  -5.395  0.00  0.00    -0.096 F 
ATOM     11  F3  UNL d   1      -1.431  -3.406  -3.761  0.00  0.00    -0.097 F 
ATOM     12  F4  UNL d   1      -1.272  -3.874  -1.078  0.00  0.00    -0.092 F 
ENDROOT
TORSDOF 0
ENDMDL
