MODEL 1
REMARK minimizedAffinity 17.0140266
REMARK minimizedRMSD -1
REMARK  0 active torsions:
REMARK  status: ('A' for Active; 'I' for Inactive)
ROOT
ATOM      1  C   UNL d   1      -4.864   4.238  -2.914  0.00  0.00     0.124 A 
ATOM      2  C1  UNL d   1      -3.686   4.876  -3.276  0.00  0.00     0.062 A 
ATOM      3  C2  UNL d   1      -2.504   4.604  -2.593  0.00  0.00     0.162 A 
ATOM      4  C3  UNL d   1      -2.494   3.689  -1.540  0.00  0.00    -0.034 A 
ATOM      5  C4  UNL d   1      -3.683   3.052  -1.181  0.00  0.00     0.162 A 
ATOM      6  C5  UNL d   1      -4.862   3.327  -1.867  0.00  0.00     0.062 A 
ATOM      7  F   UNL d   1      -5.999   2.710  -1.516  0.00  0.00    -0.097 F 
ATOM      8  F1  UNL d   1      -3.710   2.167  -0.174  0.00  0.00    -0.096 F 
ATOM      9  I   UNL d   1      -0.729   3.280  -0.516  0.00  0.00    -0.060 I 
ATOM     10  F2  UNL d   1      -1.380   5.235  -2.964  0.00  0.00    -0.096 F 
ATOM     11  F3  UNL d   1      -3.685   5.758  -4.287  0.00  0.00    -0.097 F 
ATOM     12  F4  UNL d   1      -6.000   4.503  -3.572  0.00  0.00    -0.092 F 
ENDROOT
TORSDOF 0
ENDMDL
