MODEL 1
REMARK minimizedAffinity 24.3661079
REMARK minimizedRMSD -1
REMARK  0 active torsions:
REMARK  status: ('A' for Active; 'I' for Inactive)
ROOT
ATOM      1  C   UNL d   1      -2.737   4.955  -2.303  0.00  0.00     0.124 A 
ATOM      2  C1  UNL d   1      -3.979   4.395  -2.037  0.00  0.00     0.062 A 
ATOM      3  C2  UNL d   1      -4.805   3.996  -3.084  0.00  0.00     0.162 A 
ATOM      4  C3  UNL d   1      -4.391   4.155  -4.407  0.00  0.00    -0.034 A 
ATOM      5  C4  UNL d   1      -3.141   4.720  -4.666  0.00  0.00     0.162 A 
ATOM      6  C5  UNL d   1      -2.319   5.117  -3.616  0.00  0.00     0.062 A 
ATOM      7  F   UNL d   1      -1.120   5.658  -3.875  0.00  0.00    -0.097 F 
ATOM      8  F1  UNL d   1      -2.713   4.887  -5.926  0.00  0.00    -0.096 F 
ATOM      9  I   UNL d   1      -5.624   3.560  -5.975  0.00  0.00    -0.060 I 
ATOM     10  F2  UNL d   1      -6.000   3.458  -2.798  0.00  0.00    -0.096 F 
ATOM     11  F3  UNL d   1      -4.385   4.238  -0.769  0.00  0.00    -0.097 F 
ATOM     12  F4  UNL d   1      -1.944   5.339  -1.294  0.00  0.00    -0.092 F 
ENDROOT
TORSDOF 0
ENDMDL
