MODEL 1
REMARK minimizedAffinity -1.0235126
REMARK minimizedRMSD -1
REMARK  1 active torsions:
REMARK  status: ('A' for Active; 'I' for Inactive)
REMARK    1  A    between atoms: C1_2  and  C2_3 
ROOT
ATOM      1  C2  UNL d   1       4.990   5.399   3.643  0.00  0.00    -0.077 A 
ATOM      2  C3  UNL d   1       5.999   4.777   2.894  0.00  0.00     0.002 A 
ATOM      3  C4  UNL d   1       5.932   4.756   1.499  0.00  0.00     0.002 A 
ATOM      4  C5  UNL d   1       4.861   5.359   0.842  0.00  0.00    -0.004 A 
ATOM      5  C6  UNL d   1       3.852   5.978   1.578  0.00  0.00     0.002 A 
ATOM      6  C7  UNL d   1       3.917   5.999   2.972  0.00  0.00     0.002 A 
ENDROOT
BRANCH   1   7
ATOM      7  C1  UNL d   1       5.085   5.466   5.145  0.00  0.00     0.055 C 
ATOM      8  C   UNL d   1       5.966   4.352   5.693  0.00  0.00     0.019 C 
ENDBRANCH   1   7
TORSDOF 1
ENDMDL
