MODEL 1
REMARK minimizedAffinity -1.99476969
REMARK minimizedRMSD -1
REMARK  1 active torsions:
REMARK  status: ('A' for Active; 'I' for Inactive)
REMARK    1  A    between atoms: C1_2  and  C2_3 
ROOT
ATOM      1  C2  UNL d   1       2.350   1.483  -3.143  0.00  0.00    -0.077 A 
ATOM      2  C3  UNL d   1       2.857   0.661  -2.126  0.00  0.00     0.002 A 
ATOM      3  C4  UNL d   1       2.005  -0.179  -1.407  0.00  0.00     0.002 A 
ATOM      4  C5  UNL d   1       0.643  -0.210  -1.699  0.00  0.00    -0.004 A 
ATOM      5  C6  UNL d   1       0.129   0.605  -2.706  0.00  0.00     0.002 A 
ATOM      6  C7  UNL d   1       0.978   1.447  -3.426  0.00  0.00     0.002 A 
ENDROOT
BRANCH   1   7
ATOM      7  C1  UNL d   1       3.274   2.354  -3.953  0.00  0.00     0.055 C 
ATOM      8  C   UNL d   1       3.039   2.172  -5.445  0.00  0.00     0.019 C 
ENDBRANCH   1   7
TORSDOF 1
ENDMDL
