MODEL 1
REMARK minimizedAffinity 3.19721174
REMARK minimizedRMSD -1
REMARK  1 active torsions:
REMARK  status: ('A' for Active; 'I' for Inactive)
REMARK    1  A    between atoms: C1_2  and  C2_3 
ROOT
ATOM      1  C2  UNL d   1       2.545   1.427  -3.236  0.00  0.00    -0.077 A 
ATOM      2  C3  UNL d   1       3.276   0.526  -2.449  0.00  0.00     0.002 A 
ATOM      3  C4  UNL d   1       2.617  -0.419  -1.660  0.00  0.00     0.002 A 
ATOM      4  C5  UNL d   1       1.225  -0.474  -1.653  0.00  0.00    -0.004 A 
ATOM      5  C6  UNL d   1       0.489   0.419  -2.430  0.00  0.00     0.002 A 
ATOM      6  C7  UNL d   1       1.145   1.364  -3.219  0.00  0.00     0.002 A 
ENDROOT
BRANCH   1   7
ATOM      7  C1  UNL d   1       3.254   2.414  -4.126  0.00  0.00     0.055 C 
ATOM      8  C   UNL d   1       2.943   2.159  -5.593  0.00  0.00     0.019 C 
ENDBRANCH   1   7
TORSDOF 1
ENDMDL
