MODEL 1
REMARK minimizedAffinity -2.56178045
REMARK minimizedRMSD -1
REMARK  1 active torsions:
REMARK  status: ('A' for Active; 'I' for Inactive)
REMARK    1  A    between atoms: C1_2  and  C2_3 
ROOT
ATOM      1  C2  UNL d   1       1.566   1.579  -3.231  0.00  0.00    -0.077 A 
ATOM      2  C3  UNL d   1       0.922   0.628  -2.428  0.00  0.00     0.002 A 
ATOM      3  C4  UNL d   1       1.655  -0.385  -1.808  0.00  0.00     0.002 A 
ATOM      4  C5  UNL d   1       3.036  -0.455  -1.982  0.00  0.00    -0.004 A 
ATOM      5  C6  UNL d   1       3.685   0.485  -2.781  0.00  0.00     0.002 A 
ATOM      6  C7  UNL d   1       2.953   1.498  -3.403  0.00  0.00     0.002 A 
ENDROOT
BRANCH   1   7
ATOM      7  C1  UNL d   1       0.783   2.702  -3.861  0.00  0.00     0.055 C 
ATOM      8  C   UNL d   1       0.120   3.575  -2.805  0.00  0.00     0.019 C 
ENDBRANCH   1   7
TORSDOF 1
ENDMDL
