MODEL 1
REMARK minimizedAffinity -4.38140249
REMARK minimizedRMSD -1
REMARK  1 active torsions:
REMARK  status: ('A' for Active; 'I' for Inactive)
REMARK    1  A    between atoms: C1_2  and  C2_3 
ROOT
ATOM      1  C2  UNL d   1       1.012   1.555  -2.761  0.00  0.00    -0.077 A 
ATOM      2  C3  UNL d   1       0.286   0.521  -2.154  0.00  0.00     0.002 A 
ATOM      3  C4  UNL d   1       0.948  -0.506  -1.478  0.00  0.00     0.002 A 
ATOM      4  C5  UNL d   1       2.339  -0.506  -1.399  0.00  0.00    -0.004 A 
ATOM      5  C6  UNL d   1       3.071   0.517  -2.002  0.00  0.00     0.002 A 
ATOM      6  C7  UNL d   1       2.410   1.543  -2.679  0.00  0.00     0.002 A 
ENDROOT
BRANCH   1   7
ATOM      7  C1  UNL d   1       0.297   2.689  -3.448  0.00  0.00     0.055 C 
ATOM      8  C   UNL d   1      -0.492   3.529  -2.454  0.00  0.00     0.019 C 
ENDBRANCH   1   7
TORSDOF 1
ENDMDL
