MODEL 1
REMARK minimizedAffinity 0.261079878
REMARK minimizedRMSD -1
REMARK  1 active torsions:
REMARK  status: ('A' for Active; 'I' for Inactive)
REMARK    1  A    between atoms: C1_2  and  C2_3 
ROOT
ATOM      1  C2  UNL d   1       4.891   5.634   3.629  0.00  0.00    -0.077 A 
ATOM      2  C3  UNL d   1       5.998   5.071   2.978  0.00  0.00     0.002 A 
ATOM      3  C4  UNL d   1       5.978   4.872   1.596  0.00  0.00     0.002 A 
ATOM      4  C5  UNL d   1       4.857   5.236   0.854  0.00  0.00    -0.004 A 
ATOM      5  C6  UNL d   1       3.751   5.795   1.492  0.00  0.00     0.002 A 
ATOM      6  C7  UNL d   1       3.768   5.993   2.873  0.00  0.00     0.002 A 
ENDROOT
BRANCH   1   7
ATOM      7  C1  UNL d   1       4.929   5.895   5.112  0.00  0.00     0.055 C 
ATOM      8  C   UNL d   1       5.925   4.980   5.810  0.00  0.00     0.019 C 
ENDBRANCH   1   7
TORSDOF 1
ENDMDL
