MODEL 1
REMARK minimizedAffinity -0.115495749
REMARK minimizedRMSD -1
REMARK  1 active torsions:
REMARK  status: ('A' for Active; 'I' for Inactive)
REMARK    1  A    between atoms: C1_2  and  C2_3 
ROOT
ATOM      1  C2  UNL d   1       5.251   5.236   3.881  0.00  0.00    -0.077 A 
ATOM      2  C3  UNL d   1       6.000   4.385   3.056  0.00  0.00     0.002 A 
ATOM      3  C4  UNL d   1       5.700   4.275   1.696  0.00  0.00     0.002 A 
ATOM      4  C5  UNL d   1       4.655   5.017   1.150  0.00  0.00    -0.004 A 
ATOM      5  C6  UNL d   1       3.904   5.866   1.962  0.00  0.00     0.002 A 
ATOM      6  C7  UNL d   1       4.201   5.975   3.321  0.00  0.00     0.002 A 
ENDROOT
BRANCH   1   7
ATOM      7  C1  UNL d   1       5.604   5.393   5.337  0.00  0.00     0.055 C 
ATOM      8  C   UNL d   1       5.992   4.059   5.959  0.00  0.00     0.019 C 
ENDBRANCH   1   7
TORSDOF 1
ENDMDL
