MODEL 1
REMARK minimizedAffinity -1.70741713
REMARK minimizedRMSD -1
REMARK  1 active torsions:
REMARK  status: ('A' for Active; 'I' for Inactive)
REMARK    1  A    between atoms: C1_2  and  C2_3 
ROOT
ATOM      1  C2  UNL d   1       1.642   1.738  -3.507  0.00  0.00    -0.077 A 
ATOM      2  C3  UNL d   1       1.717   2.167  -4.840  0.00  0.00     0.002 A 
ATOM      3  C4  UNL d   1       2.954   2.275  -5.478  0.00  0.00     0.002 A 
ATOM      4  C5  UNL d   1       4.124   1.952  -4.794  0.00  0.00    -0.004 A 
ATOM      5  C6  UNL d   1       4.060   1.526  -3.468  0.00  0.00     0.002 A 
ATOM      6  C7  UNL d   1       2.824   1.419  -2.828  0.00  0.00     0.002 A 
ENDROOT
BRANCH   1   7
ATOM      7  C1  UNL d   1       0.305   1.574  -2.833  0.00  0.00     0.055 C 
ATOM      8  C   UNL d   1       0.195   0.221  -2.143  0.00  0.00     0.019 C 
ENDBRANCH   1   7
TORSDOF 1
ENDMDL
