MODEL 1
REMARK minimizedAffinity 0.472423255
REMARK minimizedRMSD -1
REMARK  1 active torsions:
REMARK  status: ('A' for Active; 'I' for Inactive)
REMARK    1  A    between atoms: C1_2  and  C2_3 
ROOT
ATOM      1  C2  UNL d   1       2.277   1.513  -3.471  0.00  0.00    -0.077 A 
ATOM      2  C3  UNL d   1       0.964   1.041  -3.611  0.00  0.00     0.002 A 
ATOM      3  C4  UNL d   1       0.358   1.000  -4.868  0.00  0.00     0.002 A 
ATOM      4  C5  UNL d   1       1.059   1.424  -5.995  0.00  0.00    -0.004 A 
ATOM      5  C6  UNL d   1       2.365   1.896  -5.866  0.00  0.00     0.002 A 
ATOM      6  C7  UNL d   1       2.971   1.940  -4.610  0.00  0.00     0.002 A 
ENDROOT
BRANCH   1   7
ATOM      7  C1  UNL d   1       2.949   1.512  -2.123  0.00  0.00     0.055 C 
ATOM      8  C   UNL d   1       3.550   0.151  -1.805  0.00  0.00     0.019 C 
ENDBRANCH   1   7
TORSDOF 1
ENDMDL
