MODEL 1
REMARK minimizedAffinity 0.461836547
REMARK minimizedRMSD -1
REMARK  1 active torsions:
REMARK  status: ('A' for Active; 'I' for Inactive)
REMARK    1  A    between atoms: C1_2  and  C2_3 
ROOT
ATOM      1  C2  UNL d   1       5.144   5.949   3.355  0.00  0.00    -0.077 A 
ATOM      2  C3  UNL d   1       5.999   5.922   2.244  0.00  0.00     0.002 A 
ATOM      3  C4  UNL d   1       5.475   5.931   0.950  0.00  0.00     0.002 A 
ATOM      4  C5  UNL d   1       4.096   5.972   0.755  0.00  0.00    -0.004 A 
ATOM      5  C6  UNL d   1       3.238   5.998   1.853  0.00  0.00     0.002 A 
ATOM      6  C7  UNL d   1       3.759   5.987   3.148  0.00  0.00     0.002 A 
ENDROOT
BRANCH   1   7
ATOM      7  C1  UNL d   1       5.708   5.989   4.752  0.00  0.00     0.055 C 
ATOM      8  C   UNL d   1       4.629   5.726   5.792  0.00  0.00     0.019 C 
ENDBRANCH   1   7
TORSDOF 1
ENDMDL
