MODEL 1
REMARK minimizedAffinity -6.35068321
REMARK minimizedRMSD -1
REMARK  1 active torsions:
REMARK  status: ('A' for Active; 'I' for Inactive)
REMARK    1  A    between atoms: C1_2  and  C2_3 
ROOT
ATOM      1  C2  UNL d   1       1.767   1.197  -3.208  0.00  0.00    -0.077 A 
ATOM      2  C3  UNL d   1       0.743   1.332  -4.157  0.00  0.00     0.002 A 
ATOM      3  C4  UNL d   1       1.004   1.912  -5.400  0.00  0.00     0.002 A 
ATOM      4  C5  UNL d   1       2.287   2.358  -5.707  0.00  0.00    -0.004 A 
ATOM      5  C6  UNL d   1       3.312   2.230  -4.770  0.00  0.00     0.002 A 
ATOM      6  C7  UNL d   1       3.053   1.652  -3.527  0.00  0.00     0.002 A 
ENDROOT
BRANCH   1   7
ATOM      7  C1  UNL d   1       1.499   0.527  -1.886  0.00  0.00     0.055 C 
ATOM      8  C   UNL d   1       1.807  -0.962  -1.948  0.00  0.00     0.019 C 
ENDBRANCH   1   7
TORSDOF 1
ENDMDL
