MODEL 1
REMARK minimizedAffinity 6.61999798
REMARK minimizedRMSD -1
REMARK  1 active torsions:
REMARK  status: ('A' for Active; 'I' for Inactive)
REMARK    1  A    between atoms: C1_2  and  C2_3 
ROOT
ATOM      1  C2  UNL d   1       3.591   5.843   1.536  0.00  0.00    -0.077 A 
ATOM      2  C3  UNL d   1       4.828   5.589   0.927  0.00  0.00     0.002 A 
ATOM      3  C4  UNL d   1       5.987   5.489   1.698  0.00  0.00     0.002 A 
ATOM      4  C5  UNL d   1       5.920   5.636   3.082  0.00  0.00    -0.004 A 
ATOM      5  C6  UNL d   1       4.695   5.891   3.697  0.00  0.00     0.002 A 
ATOM      6  C7  UNL d   1       3.535   5.993   2.927  0.00  0.00     0.002 A 
ENDROOT
BRANCH   1   7
ATOM      7  C1  UNL d   1       2.332   5.903   0.711  0.00  0.00     0.055 C 
ATOM      8  C   UNL d   1       1.095   5.996   1.593  0.00  0.00     0.019 C 
ENDBRANCH   1   7
TORSDOF 1
ENDMDL
