MODEL 1
REMARK minimizedAffinity -6.14116144
REMARK minimizedRMSD -1
REMARK  0 active torsions:
REMARK  status: ('A' for Active; 'I' for Inactive)
ROOT
ATOM      1  N1  IND d   1      -0.330   0.870   0.326  0.00  0.00    -0.196 N 
ATOM      2  C2  IND d   1       0.806   0.322  -0.201  0.00  0.00     0.054 A 
ATOM      3  C3  IND d   1       0.805  -1.019  -0.028  0.00  0.00    -0.031 A 
ATOM      4  C4  IND d   1      -1.004  -2.534   1.003  0.00  0.00     0.051 A 
ATOM      5  C5  IND d   1      -2.205  -2.488   1.654  0.00  0.00    -0.031 A 
ATOM      6  C6  IND d   1      -2.857  -1.296   1.898  0.00  0.00     0.015 A 
ATOM      7  C7  IND d   1      -2.335  -0.102   1.488  0.00  0.00    -0.016 A 
ATOM      8  C8  IND d   1      -1.112  -0.144   0.833  0.00  0.00    -0.047 A 
ATOM      9  C9  IND d   1      -0.426  -1.346   0.620  0.00  0.00    -0.096 A 
ATOM     10  HN1 IND d   1      -0.524   1.708   0.339  0.00  0.00     0.298 HD
ENDROOT
TORSDOF 0
ENDMDL
