MODEL 1
REMARK minimizedAffinity -4.94478226
REMARK minimizedRMSD -1
REMARK  0 active torsions:
REMARK  status: ('A' for Active; 'I' for Inactive)
ROOT
ATOM      1  N1  IND d   1      -0.044   0.716   0.132  0.00  0.00    -0.196 N 
ATOM      2  C2  IND d   1       1.063   0.075  -0.351  0.00  0.00     0.054 A 
ATOM      3  C3  IND d   1       0.972  -1.255  -0.126  0.00  0.00    -0.031 A 
ATOM      4  C4  IND d   1      -0.948  -2.608   0.926  0.00  0.00     0.051 A 
ATOM      5  C5  IND d   1      -2.155  -2.460   1.551  0.00  0.00    -0.031 A 
ATOM      6  C6  IND d   1      -2.732  -1.220   1.736  0.00  0.00     0.015 A 
ATOM      7  C7  IND d   1      -2.127  -0.079   1.291  0.00  0.00    -0.016 A 
ATOM      8  C8  IND d   1      -0.899  -0.225   0.662  0.00  0.00    -0.047 A 
ATOM      9  C9  IND d   1      -0.288  -1.477   0.509  0.00  0.00    -0.096 A 
ATOM     10  HN1 IND d   1      -0.183   1.564   0.109  0.00  0.00     0.298 HD
ENDROOT
TORSDOF 0
ENDMDL
