MODEL 1
REMARK minimizedAffinity -4.50262451
REMARK minimizedRMSD -1
REMARK  0 active torsions:
REMARK  status: ('A' for Active; 'I' for Inactive)
ROOT
ATOM      1  N1  IND d   1      -0.678   0.279  -0.279  0.00  0.00    -0.196 N 
ATOM      2  C2  IND d   1       0.679   0.445  -0.281  0.00  0.00     0.054 A 
ATOM      3  C3  IND d   1       1.277  -0.555   0.404  0.00  0.00    -0.031 A 
ATOM      4  C4  IND d   1       0.230  -2.624   1.524  0.00  0.00     0.051 A 
ATOM      5  C5  IND d   1      -0.976  -3.193   1.821  0.00  0.00    -0.031 A 
ATOM      6  C6  IND d   1      -2.169  -2.624   1.424  0.00  0.00     0.015 A 
ATOM      7  C7  IND d   1      -2.199  -1.465   0.701  0.00  0.00    -0.016 A 
ATOM      8  C8  IND d   1      -0.976  -0.881   0.403  0.00  0.00    -0.047 A 
ATOM      9  C9  IND d   1       0.236  -1.431   0.840  0.00  0.00    -0.096 A 
ATOM     10  HN1 IND d   1      -1.249   0.809  -0.642  0.00  0.00     0.298 HD
ENDROOT
TORSDOF 0
ENDMDL
