MODEL 1
REMARK minimizedAffinity -1.89438725
REMARK minimizedRMSD -1
REMARK  0 active torsions:
REMARK  status: ('A' for Active; 'I' for Inactive)
ROOT
ATOM      1  N1  IND d   1      -0.736   0.254  -1.231  0.00  0.00    -0.196 N 
ATOM      2  C2  IND d   1      -0.291   0.303   0.060  0.00  0.00     0.054 A 
ATOM      3  C3  IND d   1       0.877   0.980   0.131  0.00  0.00    -0.031 A 
ATOM      4  C4  IND d   1       2.185   2.181  -1.733  0.00  0.00     0.051 A 
ATOM      5  C5  IND d   1       2.194   2.384  -3.084  0.00  0.00    -0.031 A 
ATOM      6  C6  IND d   1       1.205   1.879  -3.903  0.00  0.00     0.015 A 
ATOM      7  C7  IND d   1       0.160   1.159  -3.398  0.00  0.00    -0.016 A 
ATOM      8  C8  IND d   1       0.152   0.945  -2.027  0.00  0.00    -0.047 A 
ATOM      9  C9  IND d   1       1.175   1.419  -1.196  0.00  0.00    -0.096 A 
ATOM     10  HN1 IND d   1      -1.450  -0.142  -1.502  0.00  0.00     0.298 HD
ENDROOT
TORSDOF 0
ENDMDL
