MODEL 1
REMARK minimizedAffinity -4.88815641
REMARK minimizedRMSD -1
REMARK  0 active torsions:
REMARK  status: ('A' for Active; 'I' for Inactive)
ROOT
ATOM      1  N1  IND d   1       0.197   0.616  -0.018  0.00  0.00    -0.196 N 
ATOM      2  C2  IND d   1       1.353  -0.105  -0.128  0.00  0.00     0.054 A 
ATOM      3  C3  IND d   1       1.148  -1.383   0.261  0.00  0.00    -0.031 A 
ATOM      4  C4  IND d   1      -1.026  -2.534   1.019  0.00  0.00     0.051 A 
ATOM      5  C5  IND d   1      -2.335  -2.276   1.314  0.00  0.00    -0.031 A 
ATOM      6  C6  IND d   1      -2.879  -1.015   1.175  0.00  0.00     0.015 A 
ATOM      7  C7  IND d   1      -2.133   0.036   0.722  0.00  0.00    -0.016 A 
ATOM      8  C8  IND d   1      -0.802  -0.221   0.428  0.00  0.00    -0.047 A 
ATOM      9  C9  IND d   1      -0.233  -1.489   0.608  0.00  0.00    -0.096 A 
ATOM     10  HN1 IND d   1       0.108   1.453  -0.198  0.00  0.00     0.298 HD
ENDROOT
TORSDOF 0
ENDMDL
