MODEL 1
REMARK minimizedAffinity -5.80262995
REMARK minimizedRMSD -1
REMARK  0 active torsions:
REMARK  status: ('A' for Active; 'I' for Inactive)
ROOT
ATOM      1  N1  IND d   1      -0.614   0.941   0.749  0.00  0.00    -0.196 N 
ATOM      2  C2  IND d   1       0.363   0.730  -0.183  0.00  0.00     0.054 A 
ATOM      3  C3  IND d   1       0.439  -0.583  -0.496  0.00  0.00    -0.031 A 
ATOM      4  C4  IND d   1      -1.009  -2.547   0.324  0.00  0.00     0.051 A 
ATOM      5  C5  IND d   1      -2.005  -2.855   1.208  0.00  0.00    -0.031 A 
ATOM      6  C6  IND d   1      -2.602  -1.894   1.998  0.00  0.00     0.015 A 
ATOM      7  C7  IND d   1      -2.232  -0.581   1.925  0.00  0.00    -0.016 A 
ATOM      8  C8  IND d   1      -1.216  -0.266   1.034  0.00  0.00    -0.047 A 
ATOM      9  C9  IND d   1      -0.577  -1.243   0.260  0.00  0.00    -0.096 A 
ATOM     10  HN1 IND d   1      -0.818   1.699   1.100  0.00  0.00     0.298 HD
ENDROOT
TORSDOF 0
ENDMDL
