MODEL 1
REMARK minimizedAffinity -4.85176373
REMARK minimizedRMSD -1
REMARK  0 active torsions:
REMARK  status: ('A' for Active; 'I' for Inactive)
ROOT
ATOM      1  N1  IND d   1      -0.379   0.991  -0.022  0.00  0.00    -0.196 N 
ATOM      2  C2  IND d   1       0.900   0.635  -0.350  0.00  0.00     0.054 A 
ATOM      3  C3  IND d   1       1.141  -0.643   0.019  0.00  0.00    -0.031 A 
ATOM      4  C4  IND d   1      -0.449  -2.366   1.082  0.00  0.00     0.051 A 
ATOM      5  C5  IND d   1      -1.707  -2.496   1.600  0.00  0.00    -0.031 A 
ATOM      6  C6  IND d   1      -2.606  -1.449   1.601  0.00  0.00     0.015 A 
ATOM      7  C7  IND d   1      -2.282  -0.231   1.072  0.00  0.00    -0.016 A 
ATOM      8  C8  IND d   1      -1.003  -0.094   0.551  0.00  0.00    -0.047 A 
ATOM      9  C9  IND d   1      -0.072  -1.141   0.586  0.00  0.00    -0.096 A 
ATOM     10  HN1 IND d   1      -0.733   1.764  -0.152  0.00  0.00     0.298 HD
ENDROOT
TORSDOF 0
ENDMDL
