MODEL 1
REMARK minimizedAffinity -6.40833759
REMARK minimizedRMSD -1
REMARK  0 active torsions:
REMARK  status: ('A' for Active; 'I' for Inactive)
ROOT
ATOM      1  N1  IND d   1      -1.780   1.279   1.202  0.00  0.00    -0.196 N 
ATOM      2  C2  IND d   1      -0.728   1.893   0.582  0.00  0.00     0.054 A 
ATOM      3  C3  IND d   1       0.219   0.985   0.254  0.00  0.00    -0.031 A 
ATOM      4  C4  IND d   1       0.206  -1.572   0.548  0.00  0.00     0.051 A 
ATOM      5  C5  IND d   1      -0.524  -2.590   1.096  0.00  0.00    -0.031 A 
ATOM      6  C6  IND d   1      -1.735  -2.366   1.718  0.00  0.00     0.015 A 
ATOM      7  C7  IND d   1      -2.270  -1.111   1.805  0.00  0.00    -0.016 A 
ATOM      8  C8  IND d   1      -1.528  -0.075   1.256  0.00  0.00    -0.047 A 
ATOM      9  C9  IND d   1      -0.278  -0.290   0.661  0.00  0.00    -0.096 A 
ATOM     10  HN1 IND d   1      -2.481   1.672   1.508  0.00  0.00     0.298 HD
ENDROOT
TORSDOF 0
ENDMDL
