MODEL 1
REMARK minimizedAffinity -3.82298255
REMARK minimizedRMSD -1
REMARK  0 active torsions:
REMARK  status: ('A' for Active; 'I' for Inactive)
ROOT
ATOM      1  N1  IND d   1       1.554   0.118   0.744  0.00  0.00    -0.196 N 
ATOM      2  C2  IND d   1       1.234   1.201  -0.028  0.00  0.00     0.054 A 
ATOM      3  C3  IND d   1       0.001   1.049  -0.562  0.00  0.00    -0.031 A 
ATOM      4  C4  IND d   1      -1.707  -0.847  -0.223  0.00  0.00     0.051 A 
ATOM      5  C5  IND d   1      -1.854  -2.071   0.366  0.00  0.00    -0.031 A 
ATOM      6  C6  IND d   1      -0.854  -2.639   1.129  0.00  0.00     0.015 A 
ATOM      7  C7  IND d   1       0.332  -1.995   1.342  0.00  0.00    -0.016 A 
ATOM      8  C8  IND d   1       0.488  -0.754   0.739  0.00  0.00    -0.047 A 
ATOM      9  C9  IND d   1      -0.507  -0.193  -0.071  0.00  0.00    -0.096 A 
ATOM     10  HN1 IND d   1       2.296   0.002   1.162  0.00  0.00     0.298 HD
ENDROOT
TORSDOF 0
ENDMDL
