MODEL 1
REMARK minimizedAffinity -6.07065535
REMARK minimizedRMSD -1
REMARK  0 active torsions:
REMARK  status: ('A' for Active; 'I' for Inactive)
ROOT
ATOM      1  N1  IND d   1      -0.426   1.119   0.385  0.00  0.00    -0.196 N 
ATOM      2  C2  IND d   1       0.802   0.688  -0.034  0.00  0.00     0.054 A 
ATOM      3  C3  IND d   1       0.896  -0.655   0.091  0.00  0.00    -0.031 A 
ATOM      4  C4  IND d   1      -0.878  -2.354   0.863  0.00  0.00     0.051 A 
ATOM      5  C5  IND d   1      -2.141  -2.434   1.380  0.00  0.00    -0.031 A 
ATOM      6  C6  IND d   1      -2.913  -1.310   1.593  0.00  0.00     0.015 A 
ATOM      7  C7  IND d   1      -2.454  -0.061   1.286  0.00  0.00    -0.016 A 
ATOM      8  C8  IND d   1      -1.169   0.024   0.767  0.00  0.00    -0.047 A 
ATOM      9  C9  IND d   1      -0.365  -1.109   0.588  0.00  0.00    -0.096 A 
ATOM     10  HN1 IND d   1      -0.690   1.938   0.406  0.00  0.00     0.298 HD
ENDROOT
TORSDOF 0
ENDMDL
