MODEL 1
REMARK minimizedAffinity -6.6685338
REMARK minimizedRMSD -1
REMARK  0 active torsions:
REMARK  status: ('A' for Active; 'I' for Inactive)
ROOT
ATOM      1  N1  IND d   1       0.405  -0.877  -0.161  0.00  0.00    -0.196 N 
ATOM      2  C2  IND d   1       0.823  -2.168  -0.001  0.00  0.00     0.054 A 
ATOM      3  C3  IND d   1      -0.047  -2.851   0.776  0.00  0.00    -0.031 A 
ATOM      4  C4  IND d   1      -2.274  -2.076   1.808  0.00  0.00     0.051 A 
ATOM      5  C5  IND d   1      -3.059  -0.968   1.969  0.00  0.00    -0.031 A 
ATOM      6  C6  IND d   1      -2.724   0.250   1.415  0.00  0.00     0.015 A 
ATOM      7  C7  IND d   1      -1.592   0.404   0.666  0.00  0.00    -0.016 A 
ATOM      8  C8  IND d   1      -0.789  -0.716   0.506  0.00  0.00    -0.047 A 
ATOM      9  C9  IND d   1      -1.102  -1.945   1.102  0.00  0.00    -0.096 A 
ATOM     10  HN1 IND d   1       0.819  -0.267  -0.605  0.00  0.00     0.298 HD
ENDROOT
TORSDOF 0
ENDMDL
