MODEL 1
REMARK minimizedAffinity -6.6210475
REMARK minimizedRMSD -1
REMARK  0 active torsions:
REMARK  status: ('A' for Active; 'I' for Inactive)
ROOT
ATOM      1  N1  IND d   1      -0.402   1.276   0.343  0.00  0.00    -0.196 N 
ATOM      2  C2  IND d   1       0.702   0.755  -0.271  0.00  0.00     0.054 A 
ATOM      3  C3  IND d   1       0.763  -0.581  -0.075  0.00  0.00    -0.031 A 
ATOM      4  C4  IND d   1      -0.895  -2.134   1.135  0.00  0.00     0.051 A 
ATOM      5  C5  IND d   1      -2.036  -2.115   1.887  0.00  0.00    -0.031 A 
ATOM      6  C6  IND d   1      -2.706  -0.941   2.167  0.00  0.00     0.015 A 
ATOM      7  C7  IND d   1      -2.263   0.262   1.693  0.00  0.00    -0.016 A 
ATOM      8  C8  IND d   1      -1.101   0.247   0.934  0.00  0.00    -0.047 A 
ATOM      9  C9  IND d   1      -0.394  -0.936   0.683  0.00  0.00    -0.096 A 
ATOM     10  HN1 IND d   1      -0.623   2.107   0.358  0.00  0.00     0.298 HD
ENDROOT
TORSDOF 0
ENDMDL
