MODEL 1
REMARK minimizedAffinity -5.97334814
REMARK minimizedRMSD -1
REMARK  0 active torsions:
REMARK  status: ('A' for Active; 'I' for Inactive)
ROOT
ATOM      1  N1  IND d   1      -0.565   1.104   0.412  0.00  0.00    -0.196 N 
ATOM      2  C2  IND d   1       0.624   0.751  -0.160  0.00  0.00     0.054 A 
ATOM      3  C3  IND d   1       0.796  -0.589  -0.100  0.00  0.00    -0.031 A 
ATOM      4  C4  IND d   1      -0.794  -2.402   0.802  0.00  0.00     0.051 A 
ATOM      5  C5  IND d   1      -1.983  -2.564   1.456  0.00  0.00    -0.031 A 
ATOM      6  C6  IND d   1      -2.777  -1.490   1.800  0.00  0.00     0.015 A 
ATOM      7  C7  IND d   1      -2.416  -0.209   1.491  0.00  0.00    -0.016 A 
ATOM      8  C8  IND d   1      -1.206  -0.040   0.834  0.00  0.00    -0.047 A 
ATOM      9  C9  IND d   1      -0.375  -1.123   0.520  0.00  0.00    -0.096 A 
ATOM     10  HN1 IND d   1      -0.864   1.907   0.495  0.00  0.00     0.298 HD
ENDROOT
TORSDOF 0
ENDMDL
