MODEL 1
REMARK minimizedAffinity 0.640961051
REMARK minimizedRMSD -1
REMARK  0 active torsions:
REMARK  status: ('A' for Active; 'I' for Inactive)
ROOT
ATOM      1  N1  IND d   1      -2.109   0.975   1.525  0.00  0.00    -0.196 N 
ATOM      2  C2  IND d   1      -2.874   0.330   2.457  0.00  0.00     0.054 A 
ATOM      3  C3  IND d   1      -2.407  -0.922   2.663  0.00  0.00    -0.031 A 
ATOM      4  C4  IND d   1      -0.343  -2.085   1.657  0.00  0.00     0.051 A 
ATOM      5  C5  IND d   1       0.647  -1.910   0.731  0.00  0.00    -0.031 A 
ATOM      6  C6  IND d   1       0.773  -0.741   0.010  0.00  0.00     0.015 A 
ATOM      7  C7  IND d   1      -0.083   0.307   0.197  0.00  0.00    -0.016 A 
ATOM      8  C8  IND d   1      -1.094   0.131   1.131  0.00  0.00    -0.047 A 
ATOM      9  C9  IND d   1      -1.253  -1.070   1.835  0.00  0.00    -0.096 A 
ATOM     10  HN1 IND d   1      -2.240   1.773   1.234  0.00  0.00     0.298 HD
ENDROOT
TORSDOF 0
ENDMDL
