MODEL 1
REMARK minimizedAffinity -5.76986742
REMARK minimizedRMSD -1
REMARK  0 active torsions:
REMARK  status: ('A' for Active; 'I' for Inactive)
ROOT
ATOM      1  N1  IND d   1      -0.221   0.832   0.332  0.00  0.00    -0.196 N 
ATOM      2  C2  IND d   1       0.992   0.342  -0.064  0.00  0.00     0.054 A 
ATOM      3  C3  IND d   1       1.064  -0.986   0.176  0.00  0.00    -0.031 A 
ATOM      4  C4  IND d   1      -0.728  -2.577   1.118  0.00  0.00     0.051 A 
ATOM      5  C5  IND d   1      -1.984  -2.586   1.656  0.00  0.00    -0.031 A 
ATOM      6  C6  IND d   1      -2.733  -1.434   1.781  0.00  0.00     0.015 A 
ATOM      7  C7  IND d   1      -2.255  -0.225   1.360  0.00  0.00    -0.016 A 
ATOM      8  C8  IND d   1      -0.978  -0.211   0.819  0.00  0.00    -0.047 A 
ATOM      9  C9  IND d   1      -0.197  -1.370   0.728  0.00  0.00    -0.096 A 
ATOM     10  HN1 IND d   1      -0.469   1.654   0.285  0.00  0.00     0.298 HD
ENDROOT
TORSDOF 0
ENDMDL
