MODEL 1
REMARK minimizedAffinity -5.55150986
REMARK minimizedRMSD -1
REMARK  0 active torsions:
REMARK  status: ('A' for Active; 'I' for Inactive)
ROOT
ATOM      1  N1  IND d   1      -0.425   1.127   0.133  0.00  0.00    -0.196 N 
ATOM      2  C2  IND d   1       0.742   0.597  -0.345  0.00  0.00     0.054 A 
ATOM      3  C3  IND d   1       0.828  -0.714  -0.027  0.00  0.00    -0.031 A 
ATOM      4  C4  IND d   1      -0.875  -2.219   1.183  0.00  0.00     0.051 A 
ATOM      5  C5  IND d   1      -2.073  -2.178   1.839  0.00  0.00    -0.031 A 
ATOM      6  C6  IND d   1      -2.799  -1.011   1.960  0.00  0.00     0.015 A 
ATOM      7  C7  IND d   1      -2.357   0.162   1.417  0.00  0.00    -0.016 A 
ATOM      8  C8  IND d   1      -1.137   0.126   0.756  0.00  0.00    -0.047 A 
ATOM      9  C9  IND d   1      -0.376  -1.046   0.667  0.00  0.00    -0.096 A 
ATOM     10  HN1 IND d   1      -0.671   1.947   0.056  0.00  0.00     0.298 HD
ENDROOT
TORSDOF 0
ENDMDL
