MODEL 1
REMARK minimizedAffinity 0.457793593
REMARK minimizedRMSD -1
REMARK  0 active torsions:
REMARK  status: ('A' for Active; 'I' for Inactive)
ROOT
ATOM      1  N1  IND d   1      -0.511   2.302  -1.688  0.00  0.00    -0.196 N 
ATOM      2  C2  IND d   1      -0.074   2.099  -0.408  0.00  0.00     0.054 A 
ATOM      3  C3  IND d   1       1.246   1.808  -0.403  0.00  0.00    -0.031 A 
ATOM      4  C4  IND d   1       2.907   1.712  -2.368  0.00  0.00     0.051 A 
ATOM      5  C5  IND d   1       2.969   1.790  -3.731  0.00  0.00    -0.031 A 
ATOM      6  C6  IND d   1       1.852   2.050  -4.498  0.00  0.00     0.015 A 
ATOM      7  C7  IND d   1       0.628   2.255  -3.927  0.00  0.00    -0.016 A 
ATOM      8  C8  IND d   1       0.560   2.170  -2.543  0.00  0.00    -0.047 A 
ATOM      9  C9  IND d   1       1.682   1.864  -1.763  0.00  0.00    -0.096 A 
ATOM     10  HN1 IND d   1      -1.320   2.483  -1.919  0.00  0.00     0.298 HD
ENDROOT
TORSDOF 0
ENDMDL
