MODEL 1
REMARK minimizedAffinity -4.01077652
REMARK minimizedRMSD -1
REMARK  0 active torsions:
REMARK  status: ('A' for Active; 'I' for Inactive)
ROOT
ATOM      1  N1  IND d   1      -0.198   0.719   0.074  0.00  0.00    -0.196 N 
ATOM      2  C2  IND d   1       0.898   0.071  -0.425  0.00  0.00     0.054 A 
ATOM      3  C3  IND d   1       0.923  -1.210   0.006  0.00  0.00    -0.031 A 
ATOM      4  C4  IND d   1      -0.784  -2.484   1.452  0.00  0.00     0.051 A 
ATOM      5  C5  IND d   1      -1.930  -2.304   2.175  0.00  0.00    -0.031 A 
ATOM      6  C6  IND d   1      -2.571  -1.084   2.234  0.00  0.00     0.015 A 
ATOM      7  C7  IND d   1      -2.095   0.005   1.559  0.00  0.00    -0.016 A 
ATOM      8  C8  IND d   1      -0.928  -0.172   0.830  0.00  0.00    -0.047 A 
ATOM      9  C9  IND d   1      -0.249  -1.397   0.801  0.00  0.00    -0.096 A 
ATOM     10  HN1 IND d   1      -0.397   1.544  -0.061  0.00  0.00     0.298 HD
ENDROOT
TORSDOF 0
ENDMDL
