MODEL 1
REMARK minimizedAffinity -4.53729534
REMARK minimizedRMSD -1
REMARK  0 active torsions:
REMARK  status: ('A' for Active; 'I' for Inactive)
ROOT
ATOM      1  N1  IND d   1      -0.482   1.370   0.342  0.00  0.00    -0.196 N 
ATOM      2  C2  IND d   1       0.627   0.795  -0.212  0.00  0.00     0.054 A 
ATOM      3  C3  IND d   1       0.585  -0.548  -0.063  0.00  0.00    -0.031 A 
ATOM      4  C4  IND d   1      -1.257  -2.022   0.968  0.00  0.00     0.051 A 
ATOM      5  C5  IND d   1      -2.446  -1.950   1.638  0.00  0.00    -0.031 A 
ATOM      6  C6  IND d   1      -3.054  -0.742   1.914  0.00  0.00     0.015 A 
ATOM      7  C7  IND d   1      -2.500   0.442   1.518  0.00  0.00    -0.016 A 
ATOM      8  C8  IND d   1      -1.289   0.372   0.843  0.00  0.00    -0.047 A 
ATOM      9  C9  IND d   1      -0.646  -0.848   0.598  0.00  0.00    -0.096 A 
ATOM     10  HN1 IND d   1      -0.648   2.213   0.373  0.00  0.00     0.298 HD
ENDROOT
TORSDOF 0
ENDMDL
