MODEL 1
REMARK minimizedAffinity -3.07309318
REMARK minimizedRMSD -1
REMARK  0 active torsions:
REMARK  status: ('A' for Active; 'I' for Inactive)
ROOT
ATOM      1  C   UNL d   1       1.682   0.328  -2.673  0.00  0.00    -0.002 A 
ATOM      2  C1  UNL d   1       1.224  -0.981  -2.723  0.00  0.00     0.010 A 
ATOM      3  C2  UNL d   1       0.552  -1.540  -1.635  0.00  0.00     0.041 A 
ATOM      4  C3  UNL d   1       0.344  -0.754  -0.485  0.00  0.00    -0.075 A 
ATOM      5  S   UNL d   1      -0.454  -1.227   0.968  0.00  0.00     0.015 SA
ATOM      6  C4  UNL d   1      -0.208   0.298   1.689  0.00  0.00     0.022 A 
ATOM      7  C5  UNL d   1       0.466   1.159   0.856  0.00  0.00     0.026 A 
ATOM      8  C6  UNL d   1       0.795   0.567  -0.411  0.00  0.00    -0.082 A 
ATOM      9  C7  UNL d   1       1.473   1.105  -1.531  0.00  0.00     0.045 A 
ENDROOT
TORSDOF 0
ENDMDL
