MODEL 1
REMARK minimizedAffinity -1.03779674
REMARK minimizedRMSD -1
REMARK  0 active torsions:
REMARK  status: ('A' for Active; 'I' for Inactive)
ROOT
ATOM      1  C   UNL d   1       0.664  -1.482  -2.212  0.00  0.00    -0.002 A 
ATOM      2  C1  UNL d   1      -0.007  -2.221  -1.248  0.00  0.00     0.010 A 
ATOM      3  C2  UNL d   1      -0.258  -1.681   0.015  0.00  0.00     0.041 A 
ATOM      4  C3  UNL d   1       0.179  -0.371   0.294  0.00  0.00    -0.075 A 
ATOM      5  S   UNL d   1      -0.017   0.498   1.771  0.00  0.00     0.015 SA
ATOM      6  C4  UNL d   1       0.784   1.871   1.156  0.00  0.00     0.022 A 
ATOM      7  C5  UNL d   1       1.198   1.689  -0.142  0.00  0.00     0.026 A 
ATOM      8  C6  UNL d   1       0.856   0.394  -0.661  0.00  0.00    -0.082 A 
ATOM      9  C7  UNL d   1       1.096  -0.183  -1.931  0.00  0.00     0.045 A 
ENDROOT
TORSDOF 0
ENDMDL
