MODEL 1
REMARK minimizedAffinity -4.63418531
REMARK minimizedRMSD -1
REMARK  0 active torsions:
REMARK  status: ('A' for Active; 'I' for Inactive)
ROOT
ATOM      1  C   UNL d   1       2.011   0.586  -2.018  0.00  0.00    -0.002 A 
ATOM      2  C1  UNL d   1       0.927   0.773  -2.864  0.00  0.00     0.010 A 
ATOM      3  C2  UNL d   1      -0.377   0.738  -2.365  0.00  0.00     0.041 A 
ATOM      4  C3  UNL d   1      -0.574   0.511  -0.989  0.00  0.00    -0.075 A 
ATOM      5  S   UNL d   1      -2.081   0.427  -0.156  0.00  0.00     0.015 SA
ATOM      6  C4  UNL d   1      -1.321   0.141   1.343  0.00  0.00     0.022 A 
ATOM      7  C5  UNL d   1       0.048   0.107   1.228  0.00  0.00     0.026 A 
ATOM      8  C6  UNL d   1       0.501   0.320  -0.117  0.00  0.00    -0.082 A 
ATOM      9  C7  UNL d   1       1.811   0.361  -0.653  0.00  0.00     0.045 A 
ENDROOT
TORSDOF 0
ENDMDL
