MODEL 1
REMARK minimizedAffinity -3.61701965
REMARK minimizedRMSD -1
REMARK  0 active torsions:
REMARK  status: ('A' for Active; 'I' for Inactive)
ROOT
ATOM      1  C   UNL d   1       1.926   0.429  -2.714  0.00  0.00    -0.002 A 
ATOM      2  C1  UNL d   1       1.362  -0.832  -2.840  0.00  0.00     0.010 A 
ATOM      3  C2  UNL d   1       0.548  -1.351  -1.830  0.00  0.00     0.041 A 
ATOM      4  C3  UNL d   1       0.308  -0.571  -0.682  0.00  0.00    -0.075 A 
ATOM      5  S   UNL d   1      -0.657  -0.999   0.682  0.00  0.00     0.015 SA
ATOM      6  C4  UNL d   1      -0.343   0.483   1.463  0.00  0.00     0.022 A 
ATOM      7  C5  UNL d   1       0.475   1.296   0.716  0.00  0.00     0.026 A 
ATOM      8  C6  UNL d   1       0.863   0.703  -0.533  0.00  0.00    -0.082 A 
ATOM      9  C7  UNL d   1       1.685   1.200  -1.574  0.00  0.00     0.045 A 
ENDROOT
TORSDOF 0
ENDMDL
