MODEL 1
REMARK minimizedAffinity 0.284102917
REMARK minimizedRMSD -1
REMARK  0 active torsions:
REMARK  status: ('A' for Active; 'I' for Inactive)
ROOT
ATOM      1  C   UNL d   1       1.661   1.898  -1.089  0.00  0.00    -0.002 A 
ATOM      2  C1  UNL d   1       1.804   0.712  -1.795  0.00  0.00     0.010 A 
ATOM      3  C2  UNL d   1       1.036  -0.406  -1.467  0.00  0.00     0.041 A 
ATOM      4  C3  UNL d   1       0.110  -0.311  -0.409  0.00  0.00    -0.075 A 
ATOM      5  S   UNL d   1      -0.939  -1.551   0.169  0.00  0.00     0.015 SA
ATOM      6  C4  UNL d   1      -1.603  -0.535   1.365  0.00  0.00     0.022 A 
ATOM      7  C5  UNL d   1      -1.049   0.722   1.339  0.00  0.00     0.026 A 
ATOM      8  C6  UNL d   1      -0.053   0.873   0.316  0.00  0.00    -0.082 A 
ATOM      9  C7  UNL d   1       0.742   1.989  -0.040  0.00  0.00     0.045 A 
ENDROOT
TORSDOF 0
ENDMDL
