MODEL 1
REMARK minimizedAffinity -3.59745622
REMARK minimizedRMSD -1
REMARK  0 active torsions:
REMARK  status: ('A' for Active; 'I' for Inactive)
ROOT
ATOM      1  C   UNL d   1       2.517  -0.551  -2.966  0.00  0.00    -0.002 A 
ATOM      2  C1  UNL d   1       2.006  -1.780  -2.574  0.00  0.00     0.010 A 
ATOM      3  C2  UNL d   1       1.127  -1.871  -1.493  0.00  0.00     0.041 A 
ATOM      4  C3  UNL d   1       0.766  -0.695  -0.807  0.00  0.00    -0.075 A 
ATOM      5  S   UNL d   1      -0.296  -0.565   0.546  0.00  0.00     0.015 SA
ATOM      6  C4  UNL d   1      -0.096   1.125   0.634  0.00  0.00     0.022 A 
ATOM      7  C5  UNL d   1       0.757   1.596  -0.336  0.00  0.00     0.026 A 
ATOM      8  C6  UNL d   1       1.267   0.554  -1.183  0.00  0.00    -0.082 A 
ATOM      9  C7  UNL d   1       2.157   0.614  -2.283  0.00  0.00     0.045 A 
ENDROOT
TORSDOF 0
ENDMDL
