MODEL 1
REMARK minimizedAffinity -3.70973349
REMARK minimizedRMSD -1
REMARK  0 active torsions:
REMARK  status: ('A' for Active; 'I' for Inactive)
ROOT
ATOM      1  C   UNL d   1       1.461   0.777  -2.040  0.00  0.00    -0.002 A 
ATOM      2  C1  UNL d   1       1.052   1.851  -1.262  0.00  0.00     0.010 A 
ATOM      3  C2  UNL d   1       0.397   1.640  -0.047  0.00  0.00     0.041 A 
ATOM      4  C3  UNL d   1       0.158   0.318   0.378  0.00  0.00    -0.075 A 
ATOM      5  S   UNL d   1      -0.626  -0.182   1.829  0.00  0.00     0.015 SA
ATOM      6  C4  UNL d   1      -0.437  -1.833   1.452  0.00  0.00     0.022 A 
ATOM      7  C5  UNL d   1       0.206  -2.017   0.251  0.00  0.00     0.026 A 
ATOM      8  C6  UNL d   1       0.560  -0.780  -0.388  0.00  0.00    -0.082 A 
ATOM      9  C7  UNL d   1       1.222  -0.533  -1.615  0.00  0.00     0.045 A 
ENDROOT
TORSDOF 0
ENDMDL
