MODEL 1
REMARK minimizedAffinity -1.03320217
REMARK minimizedRMSD -1
REMARK  0 active torsions:
REMARK  status: ('A' for Active; 'I' for Inactive)
ROOT
ATOM      1  O1  BZF d   1       5.960   2.277   4.196  0.00  0.00    -0.204 OA
ATOM      2  C2  BZF d   1       5.272   2.529   3.024  0.00  0.00     0.174 A 
ATOM      3  C3  BZF d   1       4.492   1.481   2.693  0.00  0.00    -0.012 A 
ATOM      4  C3A BZF d   1       4.635   0.550   3.770  0.00  0.00    -0.107 A 
ATOM      5  C4  BZF d   1       4.095  -0.678   4.027  0.00  0.00     0.055 A 
ATOM      6  C5  BZF d   1       4.498  -1.358   5.133  0.00  0.00    -0.016 A 
ATOM      7  C6  BZF d   1       5.440  -0.842   5.999  0.00  0.00     0.022 A 
ATOM      8  C7  BZF d   1       5.999   0.374   5.788  0.00  0.00     0.029 A 
ATOM      9  C7A BZF d   1       5.571   1.077   4.689  0.00  0.00     0.058 A 
ENDROOT
TORSDOF 0
ENDMDL
