MODEL 1
REMARK minimizedAffinity 4.71912432
REMARK minimizedRMSD -1
REMARK  0 active torsions:
REMARK  status: ('A' for Active; 'I' for Inactive)
ROOT
ATOM      1  O1  BZF d   1       5.265   3.268   4.178  0.00  0.00    -0.204 OA
ATOM      2  C2  BZF d   1       4.634   3.590   2.993  0.00  0.00     0.174 A 
ATOM      3  C3  BZF d   1       4.413   2.485   2.252  0.00  0.00    -0.012 A 
ATOM      4  C3A BZF d   1       4.856   1.393   3.064  0.00  0.00    -0.107 A 
ATOM      5  C4  BZF d   1       4.881   0.040   2.885  0.00  0.00     0.055 A 
ATOM      6  C5  BZF d   1       5.447  -0.743   3.842  0.00  0.00    -0.016 A 
ATOM      7  C6  BZF d   1       6.000  -0.206   4.986  0.00  0.00     0.022 A 
ATOM      8  C7  BZF d   1       5.994   1.131   5.210  0.00  0.00     0.029 A 
ATOM      9  C7A BZF d   1       5.394   1.922   4.261  0.00  0.00     0.058 A 
ENDROOT
TORSDOF 0
ENDMDL
