MODEL 1
REMARK minimizedAffinity 9.21516037
REMARK minimizedRMSD -1
REMARK  0 active torsions:
REMARK  status: ('A' for Active; 'I' for Inactive)
ROOT
ATOM      1  O1  BZF d   1       2.702  -0.752   3.385  0.00  0.00    -0.204 OA
ATOM      2  C2  BZF d   1       2.012  -1.428   4.372  0.00  0.00     0.174 A 
ATOM      3  C3  BZF d   1       2.730  -1.470   5.514  0.00  0.00    -0.012 A 
ATOM      4  C3A BZF d   1       3.904  -0.696   5.249  0.00  0.00    -0.107 A 
ATOM      5  C4  BZF d   1       4.992  -0.355   5.999  0.00  0.00     0.055 A 
ATOM      6  C5  BZF d   1       5.999   0.350   5.420  0.00  0.00    -0.016 A 
ATOM      7  C6  BZF d   1       5.953   0.725   4.093  0.00  0.00     0.022 A 
ATOM      8  C7  BZF d   1       4.892   0.414   3.310  0.00  0.00     0.029 A 
ATOM      9  C7A BZF d   1       3.858  -0.270   3.901  0.00  0.00     0.058 A 
ENDROOT
TORSDOF 0
ENDMDL
