MODEL 1
REMARK minimizedAffinity 6.11198235
REMARK minimizedRMSD -1
REMARK  0 active torsions:
REMARK  status: ('A' for Active; 'I' for Inactive)
ROOT
ATOM      1  O1  BZF d   1       2.103   3.714  -3.754  0.00  0.00    -0.204 OA
ATOM      2  C2  BZF d   1       2.843   4.765  -3.249  0.00  0.00     0.174 A 
ATOM      3  C3  BZF d   1       2.503   5.019  -1.969  0.00  0.00    -0.012 A 
ATOM      4  C3A BZF d   1       1.551   4.006  -1.625  0.00  0.00    -0.107 A 
ATOM      5  C4  BZF d   1       0.859   3.718  -0.484  0.00  0.00     0.055 A 
ATOM      6  C5  BZF d   1      -0.048   2.705  -0.500  0.00  0.00    -0.016 A 
ATOM      7  C6  BZF d   1      -0.290   1.965  -1.639  0.00  0.00     0.022 A 
ATOM      8  C7  BZF d   1       0.377   2.211  -2.793  0.00  0.00     0.029 A 
ATOM      9  C7A BZF d   1       1.317   3.212  -2.771  0.00  0.00     0.058 A 
ENDROOT
TORSDOF 0
ENDMDL
