MODEL 1
REMARK minimizedAffinity 3.21757746
REMARK minimizedRMSD -1
REMARK  0 active torsions:
REMARK  status: ('A' for Active; 'I' for Inactive)
ROOT
ATOM      1  O1  BZF d   1       5.611   1.893   5.289  0.00  0.00    -0.204 OA
ATOM      2  C2  BZF d   1       5.998   3.069   4.675  0.00  0.00     0.174 A 
ATOM      3  C3  BZF d   1       5.618   3.080   3.381  0.00  0.00    -0.012 A 
ATOM      4  C3A BZF d   1       4.873   1.873   3.197  0.00  0.00    -0.107 A 
ATOM      5  C4  BZF d   1       4.223   1.324   2.128  0.00  0.00     0.055 A 
ATOM      6  C5  BZF d   1       3.654   0.097   2.260  0.00  0.00    -0.016 A 
ATOM      7  C6  BZF d   1       3.721  -0.611   3.443  0.00  0.00     0.022 A 
ATOM      8  C7  BZF d   1       4.350  -0.106   4.531  0.00  0.00     0.029 A 
ATOM      9  C7A BZF d   1       4.897   1.148   4.411  0.00  0.00     0.058 A 
ENDROOT
TORSDOF 0
ENDMDL
