MODEL 1
REMARK minimizedAffinity -4.36744261
REMARK minimizedRMSD -1
REMARK  0 active torsions:
REMARK  status: ('A' for Active; 'I' for Inactive)
ROOT
ATOM      1  O1  BZF d   1      -2.443   3.237   2.341  0.00  0.00    -0.204 OA
ATOM      2  C2  BZF d   1      -3.348   4.062   1.702  0.00  0.00     0.174 A 
ATOM      3  C3  BZF d   1      -4.040   3.380   0.767  0.00  0.00    -0.012 A 
ATOM      4  C3A BZF d   1      -3.601   2.024   0.889  0.00  0.00    -0.107 A 
ATOM      5  C4  BZF d   1      -3.933   0.867   0.243  0.00  0.00     0.055 A 
ATOM      6  C5  BZF d   1      -3.267  -0.276   0.551  0.00  0.00    -0.016 A 
ATOM      7  C6  BZF d   1      -2.260  -0.299   1.493  0.00  0.00     0.022 A 
ATOM      8  C7  BZF d   1      -1.898   0.822   2.164  0.00  0.00     0.029 A 
ATOM      9  C7A BZF d   1      -2.592   1.973   1.879  0.00  0.00     0.058 A 
ENDROOT
TORSDOF 0
ENDMDL
