MODEL 1
REMARK minimizedAffinity 4.94992161
REMARK minimizedRMSD -1
REMARK  0 active torsions:
REMARK  status: ('A' for Active; 'I' for Inactive)
ROOT
ATOM      1  O1  BZF d   1      -5.106  -1.134   4.554  0.00  0.00    -0.204 OA
ATOM      2  C2  BZF d   1      -6.000  -1.799   3.738  0.00  0.00     0.174 A 
ATOM      3  C3  BZF d   1      -5.788  -1.487   2.443  0.00  0.00    -0.012 A 
ATOM      4  C3A BZF d   1      -4.634  -0.642   2.443  0.00  0.00    -0.107 A 
ATOM      5  C4  BZF d   1      -3.924  -0.021   1.455  0.00  0.00     0.055 A 
ATOM      6  C5  BZF d   1      -2.891   0.793   1.795  0.00  0.00    -0.016 A 
ATOM      7  C6  BZF d   1      -2.544   1.014   3.112  0.00  0.00     0.022 A 
ATOM      8  C7  BZF d   1      -3.215   0.417   4.127  0.00  0.00     0.029 A 
ATOM      9  C7A BZF d   1      -4.238  -0.433   3.785  0.00  0.00     0.058 A 
ENDROOT
TORSDOF 0
ENDMDL
