MODEL 1
REMARK minimizedAffinity -2.70247269
REMARK minimizedRMSD -1
REMARK  0 active torsions:
REMARK  status: ('A' for Active; 'I' for Inactive)
ROOT
ATOM      1  O1  BZF d   1       5.274   1.138   4.461  0.00  0.00    -0.204 OA
ATOM      2  C2  BZF d   1       6.000   0.221   5.196  0.00  0.00     0.174 A 
ATOM      3  C3  BZF d   1       5.686  -1.040   4.833  0.00  0.00    -0.012 A 
ATOM      4  C3A BZF d   1       4.770  -0.900   3.743  0.00  0.00    -0.107 A 
ATOM      5  C4  BZF d   1       4.114  -1.796   2.947  0.00  0.00     0.055 A 
ATOM      6  C5  BZF d   1       3.234  -1.335   2.020  0.00  0.00    -0.016 A 
ATOM      7  C6  BZF d   1       2.982   0.013   1.866  0.00  0.00     0.022 A 
ATOM      8  C7  BZF d   1       3.612   0.939   2.628  0.00  0.00     0.029 A 
ATOM      9  C7A BZF d   1       4.527   0.478   3.543  0.00  0.00     0.058 A 
ENDROOT
TORSDOF 0
ENDMDL
