MODEL 1
REMARK minimizedAffinity 3.37575054
REMARK minimizedRMSD -1
REMARK  0 active torsions:
REMARK  status: ('A' for Active; 'I' for Inactive)
ROOT
ATOM      1  O1  BZF d   1       5.716   2.344   5.094  0.00  0.00    -0.204 OA
ATOM      2  C2  BZF d   1       5.999   1.101   5.626  0.00  0.00     0.174 A 
ATOM      3  C3  BZF d   1       5.420   0.125   4.896  0.00  0.00    -0.012 A 
ATOM      4  C3A BZF d   1       4.808   0.796   3.790  0.00  0.00    -0.107 A 
ATOM      5  C4  BZF d   1       4.093   0.364   2.710  0.00  0.00     0.055 A 
ATOM      6  C5  BZF d   1       3.574   1.281   1.852  0.00  0.00    -0.016 A 
ATOM      7  C6  BZF d   1       3.745   2.636   2.047  0.00  0.00     0.022 A 
ATOM      8  C7  BZF d   1       4.450   3.112   3.102  0.00  0.00     0.029 A 
ATOM      9  C7A BZF d   1       5.005   2.186   3.952  0.00  0.00     0.058 A 
ENDROOT
TORSDOF 0
ENDMDL
