MODEL 1
REMARK minimizedAffinity -3.7163868
REMARK minimizedRMSD -1
REMARK  0 active torsions:
REMARK  status: ('A' for Active; 'I' for Inactive)
ROOT
ATOM      1  O1  BZF d   1       5.511   2.294   4.574  0.00  0.00    -0.204 OA
ATOM      2  C2  BZF d   1       5.994   1.710   5.729  0.00  0.00     0.174 A 
ATOM      3  C3  BZF d   1       5.545   0.444   5.849  0.00  0.00    -0.012 A 
ATOM      4  C3A BZF d   1       4.804   0.192   4.651  0.00  0.00    -0.107 A 
ATOM      5  C4  BZF d   1       4.128  -0.895   4.177  0.00  0.00     0.055 A 
ATOM      6  C5  BZF d   1       3.450  -0.791   3.004  0.00  0.00    -0.016 A 
ATOM      7  C6  BZF d   1       3.422   0.385   2.283  0.00  0.00     0.022 A 
ATOM      8  C7  BZF d   1       4.081   1.489   2.711  0.00  0.00     0.029 A 
ATOM      9  C7A BZF d   1       4.795   1.377   3.879  0.00  0.00     0.058 A 
ENDROOT
TORSDOF 0
ENDMDL
