MODEL 1
REMARK minimizedAffinity -2.82523108
REMARK minimizedRMSD -1
REMARK  0 active torsions:
REMARK  status: ('A' for Active; 'I' for Inactive)
ROOT
ATOM      1  O1  BZF d   1       1.711  -4.449   1.537  0.00  0.00    -0.204 OA
ATOM      2  C2  BZF d   1       0.667  -5.337   1.366  0.00  0.00     0.174 A 
ATOM      3  C3  BZF d   1      -0.387  -4.730   0.782  0.00  0.00    -0.012 A 
ATOM      4  C3A BZF d   1       0.058  -3.401   0.491  0.00  0.00    -0.107 A 
ATOM      5  C4  BZF d   1      -0.532  -2.322  -0.102  0.00  0.00     0.055 A 
ATOM      6  C5  BZF d   1       0.150  -1.149  -0.167  0.00  0.00    -0.016 A 
ATOM      7  C6  BZF d   1       1.420  -1.017   0.356  0.00  0.00     0.022 A 
ATOM      8  C7  BZF d   1       2.048  -2.060   0.950  0.00  0.00     0.029 A 
ATOM      9  C7A BZF d   1       1.375  -3.257   0.987  0.00  0.00     0.058 A 
ENDROOT
TORSDOF 0
ENDMDL
