MODEL 1
REMARK minimizedAffinity -0.0450202338
REMARK minimizedRMSD -1
REMARK  0 active torsions:
REMARK  status: ('A' for Active; 'I' for Inactive)
ROOT
ATOM      1  O1  BZF d   1       5.392   2.004   3.876  0.00  0.00    -0.204 OA
ATOM      2  C2  BZF d   1       5.997   1.625   5.058  0.00  0.00     0.174 A 
ATOM      3  C3  BZF d   1       5.526   0.432   5.476  0.00  0.00    -0.012 A 
ATOM      4  C3A BZF d   1       4.633  -0.002   4.446  0.00  0.00    -0.107 A 
ATOM      5  C4  BZF d   1       3.867  -1.120   4.276  0.00  0.00     0.055 A 
ATOM      6  C5  BZF d   1       3.051  -1.203   3.193  0.00  0.00    -0.016 A 
ATOM      7  C6  BZF d   1       2.971  -0.187   2.264  0.00  0.00     0.022 A 
ATOM      8  C7  BZF d   1       3.715   0.939   2.387  0.00  0.00     0.029 A 
ATOM      9  C7A BZF d   1       4.565   1.013   3.463  0.00  0.00     0.058 A 
ENDROOT
TORSDOF 0
ENDMDL
