MODEL 1
REMARK minimizedAffinity 7.95373821
REMARK minimizedRMSD -1
REMARK  0 active torsions:
REMARK  status: ('A' for Active; 'I' for Inactive)
ROOT
ATOM      1  O1  BZF d   1      -0.737  -5.276  -2.625  0.00  0.00    -0.204 OA
ATOM      2  C2  BZF d   1      -0.001  -4.123  -2.817  0.00  0.00     0.174 A 
ATOM      3  C3  BZF d   1      -0.289  -3.208  -1.868  0.00  0.00    -0.012 A 
ATOM      4  C3A BZF d   1      -1.198  -3.863  -0.978  0.00  0.00    -0.107 A 
ATOM      5  C4  BZF d   1      -1.831  -3.477   0.169  0.00  0.00     0.055 A 
ATOM      6  C5  BZF d   1      -2.712  -4.329   0.756  0.00  0.00    -0.016 A 
ATOM      7  C6  BZF d   1      -2.987  -5.571   0.222  0.00  0.00     0.022 A 
ATOM      8  C7  BZF d   1      -2.380  -6.000  -0.912  0.00  0.00     0.029 A 
ATOM      9  C7A BZF d   1      -1.465  -5.154  -1.489  0.00  0.00     0.058 A 
ENDROOT
TORSDOF 0
ENDMDL
