MODEL 1
REMARK minimizedAffinity -0.413868487
REMARK minimizedRMSD -1
REMARK  0 active torsions:
REMARK  status: ('A' for Active; 'I' for Inactive)
ROOT
ATOM      1  O1  BZF d   1      -2.312   2.700   1.622  0.00  0.00    -0.204 OA
ATOM      2  C2  BZF d   1      -2.337   3.082   0.294  0.00  0.00     0.174 A 
ATOM      3  C3  BZF d   1      -2.538   2.015  -0.506  0.00  0.00    -0.012 A 
ATOM      4  C3A BZF d   1      -2.737   0.911   0.382  0.00  0.00    -0.107 A 
ATOM      5  C4  BZF d   1      -2.998  -0.416   0.187  0.00  0.00     0.055 A 
ATOM      6  C5  BZF d   1      -3.064  -1.241   1.264  0.00  0.00    -0.016 A 
ATOM      7  C6  BZF d   1      -2.869  -0.776   2.548  0.00  0.00     0.022 A 
ATOM      8  C7  BZF d   1      -2.612   0.532   2.792  0.00  0.00     0.029 A 
ATOM      9  C7A BZF d   1      -2.578   1.375   1.708  0.00  0.00     0.058 A 
ENDROOT
TORSDOF 0
ENDMDL
