MODEL 1
REMARK minimizedAffinity 0.673952341
REMARK minimizedRMSD -1
REMARK  0 active torsions:
REMARK  status: ('A' for Active; 'I' for Inactive)
ROOT
ATOM      1  O1  BZF d   1      -2.485   2.852   1.739  0.00  0.00    -0.204 OA
ATOM      2  C2  BZF d   1      -2.797   2.984   0.399  0.00  0.00     0.174 A 
ATOM      3  C3  BZF d   1      -3.285   1.827  -0.094  0.00  0.00    -0.012 A 
ATOM      4  C3A BZF d   1      -3.363   0.942   1.028  0.00  0.00    -0.107 A 
ATOM      5  C4  BZF d   1      -3.784  -0.348   1.179  0.00  0.00     0.055 A 
ATOM      6  C5  BZF d   1      -3.662  -0.945   2.393  0.00  0.00    -0.016 A 
ATOM      7  C6  BZF d   1      -3.118  -0.284   3.475  0.00  0.00     0.022 A 
ATOM      8  C7  BZF d   1      -2.691   0.998   3.376  0.00  0.00     0.029 A 
ATOM      9  C7A BZF d   1      -2.844   1.615   2.158  0.00  0.00     0.058 A 
ENDROOT
TORSDOF 0
ENDMDL
