MODEL 1
REMARK minimizedAffinity 3.69135118
REMARK minimizedRMSD -1
REMARK  0 active torsions:
REMARK  status: ('A' for Active; 'I' for Inactive)
ROOT
ATOM      1  O1  BZF d   1      -5.164  -0.893   2.425  0.00  0.00    -0.204 OA
ATOM      2  C2  BZF d   1      -4.017  -1.067   3.175  0.00  0.00     0.174 A 
ATOM      3  C3  BZF d   1      -2.924  -0.717   2.467  0.00  0.00    -0.012 A 
ATOM      4  C3A BZF d   1      -3.426  -0.210   1.226  0.00  0.00    -0.107 A 
ATOM      5  C4  BZF d   1      -2.828   0.307   0.113  0.00  0.00     0.055 A 
ATOM      6  C5  BZF d   1      -3.599   0.642  -0.956  0.00  0.00    -0.016 A 
ATOM      7  C6  BZF d   1      -4.967   0.468  -0.946  0.00  0.00     0.022 A 
ATOM      8  C7  BZF d   1      -5.606  -0.037   0.137  0.00  0.00     0.029 A 
ATOM      9  C7A BZF d   1      -4.834  -0.345   1.230  0.00  0.00     0.058 A 
ENDROOT
TORSDOF 0
ENDMDL
