MODEL 1
REMARK minimizedAffinity 9.77449989
REMARK minimizedRMSD -1
REMARK  0 active torsions:
REMARK  status: ('A' for Active; 'I' for Inactive)
ROOT
ATOM      1  O1  BZF d   1       6.000   3.378  -4.221  0.00  0.00    -0.204 OA
ATOM      2  C2  BZF d   1       5.935   2.562  -5.334  0.00  0.00     0.174 A 
ATOM      3  C3  BZF d   1       4.756   2.714  -5.971  0.00  0.00    -0.012 A 
ATOM      4  C3A BZF d   1       4.076   3.754  -5.261  0.00  0.00    -0.107 A 
ATOM      5  C4  BZF d   1       2.867   4.366  -5.424  0.00  0.00     0.055 A 
ATOM      6  C5  BZF d   1       2.469   5.295  -4.515  0.00  0.00    -0.016 A 
ATOM      7  C6  BZF d   1       3.251   5.631  -3.430  0.00  0.00     0.022 A 
ATOM      8  C7  BZF d   1       4.461   5.054  -3.229  0.00  0.00     0.029 A 
ATOM      9  C7A BZF d   1       4.881   4.140  -4.164  0.00  0.00     0.058 A 
ENDROOT
TORSDOF 0
ENDMDL
