MODEL 1
REMARK minimizedAffinity 5.59541273
REMARK minimizedRMSD -1
REMARK  0 active torsions:
REMARK  status: ('A' for Active; 'I' for Inactive)
ROOT
ATOM      1  O1  BZF d   1       4.430   0.792   5.288  0.00  0.00    -0.204 OA
ATOM      2  C2  BZF d   1       5.611   1.253   4.738  0.00  0.00     0.174 A 
ATOM      3  C3  BZF d   1       5.822   0.700   3.526  0.00  0.00    -0.012 A 
ATOM      4  C3A BZF d   1       4.658  -0.090   3.265  0.00  0.00    -0.107 A 
ATOM      5  C4  BZF d   1       4.268  -0.869   2.213  0.00  0.00     0.055 A 
ATOM      6  C5  BZF d   1       3.105  -1.566   2.302  0.00  0.00    -0.016 A 
ATOM      7  C6  BZF d   1       2.310  -1.510   3.429  0.00  0.00     0.022 A 
ATOM      8  C7  BZF d   1       2.652  -0.748   4.495  0.00  0.00     0.029 A 
ATOM      9  C7A BZF d   1       3.811  -0.017   4.395  0.00  0.00     0.058 A 
ENDROOT
TORSDOF 0
ENDMDL
