MODEL 1
REMARK minimizedAffinity -3.52324867
REMARK minimizedRMSD -1
REMARK  0 active torsions:
REMARK  status: ('A' for Active; 'I' for Inactive)
ROOT
ATOM      1  C1  DEN d   1      -0.641   0.277   1.108  0.00  0.00     0.130 A 
ATOM      2  C2  DEN d   1      -0.748  -0.818   0.148  0.00  0.00    -0.031 A 
ATOM      3  C3  DEN d   1       0.508  -0.870  -0.627  0.00  0.00     0.027 A 
ATOM      4  C4  DEN d   1       2.598   0.628  -0.432  0.00  0.00     0.027 A 
ATOM      5  C5  DEN d   1       3.153   1.700   0.231  0.00  0.00    -0.003 A 
ATOM      6  C6  DEN d   1       2.474   2.389   1.202  0.00  0.00     0.001 A 
ATOM      7  C7  DEN d   1       1.218   1.985   1.568  0.00  0.00     0.017 A 
ATOM      8  C8  DEN d   1       0.649   0.909   0.899  0.00  0.00    -0.094 A 
ATOM      9  C9  DEN d   1       1.356   0.218  -0.071  0.00  0.00    -0.072 A 
ENDROOT
TORSDOF 0
ENDMDL
