MODEL 1
REMARK minimizedAffinity -4.45726681
REMARK minimizedRMSD -1
REMARK  0 active torsions:
REMARK  status: ('A' for Active; 'I' for Inactive)
ROOT
ATOM      1  C1  DEN d   1       2.005   1.862   0.550  0.00  0.00     0.130 A 
ATOM      2  C2  DEN d   1       1.403   2.727   1.561  0.00  0.00    -0.031 A 
ATOM      3  C3  DEN d   1       0.090   2.157   1.926  0.00  0.00     0.027 A 
ATOM      4  C4  DEN d   1      -1.060   0.028   1.033  0.00  0.00     0.027 A 
ATOM      5  C5  DEN d   1      -0.942  -1.028   0.156  0.00  0.00    -0.003 A 
ATOM      6  C6  DEN d   1       0.142  -1.174  -0.669  0.00  0.00     0.001 A 
ATOM      7  C7  DEN d   1       1.173  -0.274  -0.601  0.00  0.00     0.017 A 
ATOM      8  C8  DEN d   1       1.058   0.797   0.275  0.00  0.00    -0.094 A 
ATOM      9  C9  DEN d   1      -0.040   0.921   1.109  0.00  0.00    -0.072 A 
ENDROOT
TORSDOF 0
ENDMDL
