MODEL 1
REMARK minimizedAffinity -5.68498135
REMARK minimizedRMSD -1
REMARK  0 active torsions:
REMARK  status: ('A' for Active; 'I' for Inactive)
ROOT
ATOM      1  C1  DEN d   1      -1.034  -0.481   0.140  0.00  0.00     0.130 A 
ATOM      2  C2  DEN d   1      -0.677  -1.639  -0.675  0.00  0.00    -0.031 A 
ATOM      3  C3  DEN d   1       0.647  -1.384  -1.277  0.00  0.00     0.027 A 
ATOM      4  C4  DEN d   1       2.174   0.679  -1.023  0.00  0.00     0.027 A 
ATOM      5  C5  DEN d   1       2.294   1.922  -0.442  0.00  0.00    -0.003 A 
ATOM      6  C6  DEN d   1       1.307   2.461   0.340  0.00  0.00     0.001 A 
ATOM      7  C7  DEN d   1       0.174   1.735   0.599  0.00  0.00     0.017 A 
ATOM      8  C8  DEN d   1       0.043   0.485   0.010  0.00  0.00    -0.094 A 
ATOM      9  C9  DEN d   1       1.057  -0.048  -0.767  0.00  0.00    -0.072 A 
ENDROOT
TORSDOF 0
ENDMDL
