MODEL 1
REMARK minimizedAffinity -3.80923486
REMARK minimizedRMSD -1
REMARK  0 active torsions:
REMARK  status: ('A' for Active; 'I' for Inactive)
ROOT
ATOM      1  C1  DEN d   1       1.372   2.337  -0.039  0.00  0.00     0.130 A 
ATOM      2  C2  DEN d   1       1.043   3.034   1.201  0.00  0.00    -0.031 A 
ATOM      3  C3  DEN d   1       0.057   2.216   1.937  0.00  0.00     0.027 A 
ATOM      4  C4  DEN d   1      -0.982  -0.052   1.282  0.00  0.00     0.027 A 
ATOM      5  C5  DEN d   1      -1.020  -1.031   0.314  0.00  0.00    -0.003 A 
ATOM      6  C6  DEN d   1      -0.295  -0.941  -0.845  0.00  0.00     0.001 A 
ATOM      7  C7  DEN d   1       0.534   0.131  -1.046  0.00  0.00     0.017 A 
ATOM      8  C8  DEN d   1       0.572   1.126  -0.078  0.00  0.00    -0.094 A 
ATOM      9  C9  DEN d   1      -0.159   1.011   1.092  0.00  0.00    -0.072 A 
ENDROOT
TORSDOF 0
ENDMDL
