MODEL 1
REMARK minimizedAffinity -4.45891094
REMARK minimizedRMSD -1
REMARK  0 active torsions:
REMARK  status: ('A' for Active; 'I' for Inactive)
ROOT
ATOM      1  C1  DEN d   1       1.135   1.458  -0.972  0.00  0.00     0.130 A 
ATOM      2  C2  DEN d   1       1.357   2.747  -0.322  0.00  0.00    -0.031 A 
ATOM      3  C3  DEN d   1       0.759   2.687   1.027  0.00  0.00     0.027 A 
ATOM      4  C4  DEN d   1      -0.479   0.733   2.168  0.00  0.00     0.027 A 
ATOM      5  C5  DEN d   1      -0.924  -0.561   2.007  0.00  0.00    -0.003 A 
ATOM      6  C6  DEN d   1      -0.746  -1.254   0.840  0.00  0.00     0.001 A 
ATOM      7  C7  DEN d   1      -0.065  -0.674  -0.198  0.00  0.00     0.017 A 
ATOM      8  C8  DEN d   1       0.380   0.633  -0.046  0.00  0.00    -0.094 A 
ATOM      9  C9  DEN d   1       0.200   1.313   1.147  0.00  0.00    -0.072 A 
ENDROOT
TORSDOF 0
ENDMDL
