MODEL 1
REMARK minimizedAffinity -1.56616998
REMARK minimizedRMSD -1
REMARK  0 active torsions:
REMARK  status: ('A' for Active; 'I' for Inactive)
ROOT
ATOM      1  C1  DEN d   1       1.817   1.626   0.149  0.00  0.00     0.130 A 
ATOM      2  C2  DEN d   1       1.351   2.435   1.271  0.00  0.00    -0.031 A 
ATOM      3  C3  DEN d   1       0.045   1.902   1.708  0.00  0.00     0.027 A 
ATOM      4  C4  DEN d   1      -1.291  -0.092   0.762  0.00  0.00     0.027 A 
ATOM      5  C5  DEN d   1      -1.306  -1.078  -0.198  0.00  0.00    -0.003 A 
ATOM      6  C6  DEN d   1      -0.306  -1.211  -1.125  0.00  0.00     0.001 A 
ATOM      7  C7  DEN d   1       0.775  -0.370  -1.082  0.00  0.00     0.017 A 
ATOM      8  C8  DEN d   1       0.793   0.632  -0.121  0.00  0.00    -0.094 A 
ATOM      9  C9  DEN d   1      -0.222   0.742   0.815  0.00  0.00    -0.072 A 
ENDROOT
TORSDOF 0
ENDMDL
