MODEL 1
REMARK minimizedAffinity -4.96465778
REMARK minimizedRMSD -1
REMARK  0 active torsions:
REMARK  status: ('A' for Active; 'I' for Inactive)
ROOT
ATOM      1  C1  DEN d   1       1.420   2.584   0.123  0.00  0.00     0.130 A 
ATOM      2  C2  DEN d   1       1.375   2.912   1.545  0.00  0.00    -0.031 A 
ATOM      3  C3  DEN d   1       0.613   1.852   2.234  0.00  0.00     0.027 A 
ATOM      4  C4  DEN d   1      -0.493  -0.257   1.243  0.00  0.00     0.027 A 
ATOM      5  C5  DEN d   1      -0.733  -0.959   0.083  0.00  0.00    -0.003 A 
ATOM      6  C6  DEN d   1      -0.305  -0.515  -1.141  0.00  0.00     0.001 A 
ATOM      7  C7  DEN d   1       0.425   0.641  -1.226  0.00  0.00     0.017 A 
ATOM      8  C8  DEN d   1       0.665   1.358  -0.061  0.00  0.00    -0.094 A 
ATOM      9  C9  DEN d   1       0.234   0.886   1.168  0.00  0.00    -0.072 A 
ENDROOT
TORSDOF 0
ENDMDL
