MODEL 1
REMARK minimizedAffinity -4.02740383
REMARK minimizedRMSD -1
REMARK  0 active torsions:
REMARK  status: ('A' for Active; 'I' for Inactive)
ROOT
ATOM      1  C1  DEN d   1      -0.849  -0.391   1.224  0.00  0.00     0.130 A 
ATOM      2  C2  DEN d   1      -0.812  -1.129  -0.035  0.00  0.00    -0.031 A 
ATOM      3  C3  DEN d   1       0.202  -0.498  -0.904  0.00  0.00     0.027 A 
ATOM      4  C4  DEN d   1       1.714   1.535  -0.421  0.00  0.00     0.027 A 
ATOM      5  C5  DEN d   1       2.035   2.499   0.508  0.00  0.00    -0.003 A 
ATOM      6  C6  DEN d   1       1.399   2.588   1.718  0.00  0.00     0.001 A 
ATOM      7  C7  DEN d   1       0.439   1.668   2.049  0.00  0.00     0.017 A 
ATOM      8  C8  DEN d   1       0.105   0.698   1.114  0.00  0.00    -0.094 A 
ATOM      9  C9  DEN d   1       0.768   0.617  -0.098  0.00  0.00    -0.072 A 
ENDROOT
TORSDOF 0
ENDMDL
