MODEL 1
REMARK minimizedAffinity -4.20070267
REMARK minimizedRMSD -1
REMARK  0 active torsions:
REMARK  status: ('A' for Active; 'I' for Inactive)
ROOT
ATOM      1  C1  DEN d   1      -1.232   0.164  -0.036  0.00  0.00     0.130 A 
ATOM      2  C2  DEN d   1      -0.853  -1.119  -0.623  0.00  0.00    -0.031 A 
ATOM      3  C3  DEN d   1       0.603  -1.097  -0.866  0.00  0.00     0.027 A 
ATOM      4  C4  DEN d   1       2.300   0.787  -0.390  0.00  0.00     0.027 A 
ATOM      5  C5  DEN d   1       2.448   2.068   0.094  0.00  0.00    -0.003 A 
ATOM      6  C6  DEN d   1       1.384   2.811   0.532  0.00  0.00     0.001 A 
ATOM      7  C7  DEN d   1       0.129   2.261   0.539  0.00  0.00     0.017 A 
ATOM      8  C8  DEN d   1      -0.029   0.972   0.046  0.00  0.00    -0.094 A 
ATOM      9  C9  DEN d   1       1.061   0.233  -0.381  0.00  0.00    -0.072 A 
ENDROOT
TORSDOF 0
ENDMDL
