MODEL 1
REMARK minimizedAffinity -5.41593075
REMARK minimizedRMSD -1
REMARK  0 active torsions:
REMARK  status: ('A' for Active; 'I' for Inactive)
ROOT
ATOM      1  C1  DEN d   1       1.501   2.337  -0.027  0.00  0.00     0.130 A 
ATOM      2  C2  DEN d   1       1.137   3.059   1.189  0.00  0.00    -0.031 A 
ATOM      3  C3  DEN d   1       0.064   2.303   1.866  0.00  0.00     0.027 A 
ATOM      4  C4  DEN d   1      -1.059   0.092   1.156  0.00  0.00     0.027 A 
ATOM      5  C5  DEN d   1      -1.093  -0.890   0.191  0.00  0.00    -0.003 A 
ATOM      6  C6  DEN d   1      -0.296  -0.848  -0.922  0.00  0.00     0.001 A 
ATOM      7  C7  DEN d   1       0.603   0.174  -1.076  0.00  0.00     0.017 A 
ATOM      8  C8  DEN d   1       0.638   1.172  -0.111  0.00  0.00    -0.094 A 
ATOM      9  C9  DEN d   1      -0.168   1.106   1.014  0.00  0.00    -0.072 A 
ENDROOT
TORSDOF 0
ENDMDL
