MODEL 1
REMARK minimizedAffinity -2.28177094
REMARK minimizedRMSD -1
REMARK  0 active torsions:
REMARK  status: ('A' for Active; 'I' for Inactive)
ROOT
ATOM      1  C1  DEN d   1      -1.272   1.656  -0.077  0.00  0.00     0.130 A 
ATOM      2  C2  DEN d   1      -0.580   1.497   1.199  0.00  0.00    -0.031 A 
ATOM      3  C3  DEN d   1      -0.059   0.116   1.266  0.00  0.00     0.027 A 
ATOM      4  C4  DEN d   1      -0.254  -1.778  -0.474  0.00  0.00     0.027 A 
ATOM      5  C5  DEN d   1      -0.761  -2.121  -1.708  0.00  0.00    -0.003 A 
ATOM      6  C6  DEN d   1      -1.497  -1.247  -2.463  0.00  0.00     0.001 A 
ATOM      7  C7  DEN d   1      -1.709   0.029  -2.012  0.00  0.00     0.017 A 
ATOM      8  C8  DEN d   1      -1.207   0.380  -0.766  0.00  0.00    -0.094 A 
ATOM      9  C9  DEN d   1      -0.455  -0.514  -0.023  0.00  0.00    -0.072 A 
ENDROOT
TORSDOF 0
ENDMDL
