MODEL 1
REMARK minimizedAffinity -1.50684857
REMARK minimizedRMSD -1
REMARK  0 active torsions:
REMARK  status: ('A' for Active; 'I' for Inactive)
ROOT
ATOM      1  C1  DEN d   1       0.515  -1.124  -0.727  0.00  0.00     0.130 A 
ATOM      2  C2  DEN d   1       1.885  -0.772  -1.089  0.00  0.00    -0.031 A 
ATOM      3  C3  DEN d   1       2.265   0.431  -0.322  0.00  0.00     0.027 A 
ATOM      4  C4  DEN d   1       0.874   1.772   1.387  0.00  0.00     0.027 A 
ATOM      5  C5  DEN d   1      -0.349   1.864   2.014  0.00  0.00    -0.003 A 
ATOM      6  C6  DEN d   1      -1.373   0.993   1.749  0.00  0.00     0.001 A 
ATOM      7  C7  DEN d   1      -1.177  -0.035   0.865  0.00  0.00     0.017 A 
ATOM      8  C8  DEN d   1       0.051  -0.130   0.223  0.00  0.00    -0.094 A 
ATOM      9  C9  DEN d   1       1.077   0.753   0.514  0.00  0.00    -0.072 A 
ENDROOT
TORSDOF 0
ENDMDL
