MODEL 1
REMARK minimizedAffinity -5.27344179
REMARK minimizedRMSD -1
REMARK  0 active torsions:
REMARK  status: ('A' for Active; 'I' for Inactive)
ROOT
ATOM      1  C1  DEN d   1       1.290   1.945   0.417  0.00  0.00     0.130 A 
ATOM      2  C2  DEN d   1       0.860   2.555   1.672  0.00  0.00    -0.031 A 
ATOM      3  C3  DEN d   1      -0.167   1.683   2.276  0.00  0.00     0.027 A 
ATOM      4  C4  DEN d   1      -1.127  -0.544   1.395  0.00  0.00     0.027 A 
ATOM      5  C5  DEN d   1      -1.080  -1.456   0.365  0.00  0.00    -0.003 A 
ATOM      6  C6  DEN d   1      -0.272  -1.284  -0.728  0.00  0.00     0.001 A 
ATOM      7  C7  DEN d   1       0.557  -0.195  -0.794  0.00  0.00     0.017 A 
ATOM      8  C8  DEN d   1       0.510   0.733   0.237  0.00  0.00    -0.094 A 
ATOM      9  C9  DEN d   1      -0.305   0.535   1.339  0.00  0.00    -0.072 A 
ENDROOT
TORSDOF 0
ENDMDL
