MODEL 1
REMARK minimizedAffinity 7.73268509
REMARK minimizedRMSD -1
REMARK  0 active torsions:
REMARK  status: ('A' for Active; 'I' for Inactive)
ROOT
ATOM      1  C   UNL d   1       2.254   3.461   0.812  0.00  0.00     0.020 A 
ATOM      2  C1  UNL d   1       2.284   4.683   0.141  0.00  0.00     0.020 A 
ATOM      3  C2  UNL d   1       3.451   5.451   0.141  0.00  0.00     0.034 A 
ATOM      4  C3  UNL d   1       4.592   4.998   0.813  0.00  0.00     0.017 A 
ATOM      5  C4  UNL d   1       4.561   3.771   1.486  0.00  0.00     0.017 A 
ATOM      6  C5  UNL d   1       3.390   3.006   1.482  0.00  0.00     0.034 A 
ATOM      7 Cl   UNL d   1       5.929   3.146   2.337  0.00  0.00    -0.070 Cl
ATOM      8 Cl1  UNL d   1       6.000   5.999   0.771  0.00  0.00    -0.070 Cl
ENDROOT
TORSDOF 0
ENDMDL
