MODEL 1
REMARK minimizedAffinity 0.330692559
REMARK minimizedRMSD -1
REMARK  0 active torsions:
REMARK  status: ('A' for Active; 'I' for Inactive)
ROOT
ATOM      1  C   UNL d   1       1.233  -3.373   0.288  0.00  0.00     0.020 A 
ATOM      2  C1  UNL d   1      -0.114  -3.017   0.249  0.00  0.00     0.020 A 
ATOM      3  C2  UNL d   1      -0.503  -1.820  -0.356  0.00  0.00     0.034 A 
ATOM      4  C3  UNL d   1       0.457  -0.974  -0.924  0.00  0.00     0.017 A 
ATOM      5  C4  UNL d   1       1.809  -1.332  -0.885  0.00  0.00     0.017 A 
ATOM      6  C5  UNL d   1       2.193  -2.532  -0.278  0.00  0.00     0.034 A 
ATOM      7 Cl   UNL d   1       3.051  -0.341  -1.565  0.00  0.00    -0.070 Cl
ATOM      8 Cl1  UNL d   1      -0.096   0.490  -1.656  0.00  0.00    -0.070 Cl
ENDROOT
TORSDOF 0
ENDMDL
