MODEL 1
REMARK minimizedAffinity -2.21008754
REMARK minimizedRMSD -1
REMARK  0 active torsions:
REMARK  status: ('A' for Active; 'I' for Inactive)
ROOT
ATOM      1  C   UNL d   1       1.062  -0.107  -1.471  0.00  0.00     0.020 A 
ATOM      2  C1  UNL d   1       2.184  -0.923  -1.612  0.00  0.00     0.020 A 
ATOM      3  C2  UNL d   1       2.278  -2.112  -0.886  0.00  0.00     0.034 A 
ATOM      4  C3  UNL d   1       1.248  -2.490  -0.017  0.00  0.00     0.017 A 
ATOM      5  C4  UNL d   1       0.122  -1.670   0.124  0.00  0.00     0.017 A 
ATOM      6  C5  UNL d   1       0.033  -0.480  -0.605  0.00  0.00     0.034 A 
ATOM      7 Cl   UNL d   1      -1.189  -2.069   1.177  0.00  0.00    -0.070 Cl
ATOM      8 Cl1  UNL d   1       1.431  -3.974   0.849  0.00  0.00    -0.070 Cl
ENDROOT
TORSDOF 0
ENDMDL
