MODEL 1
REMARK minimizedAffinity -2.53782392
REMARK minimizedRMSD -1
REMARK  0 active torsions:
REMARK  status: ('A' for Active; 'I' for Inactive)
ROOT
ATOM      1  C   UNL d   1       1.113  -0.139  -0.872  0.00  0.00     0.020 A 
ATOM      2  C1  UNL d   1      -0.251  -0.020  -0.611  0.00  0.00     0.020 A 
ATOM      3  C2  UNL d   1      -1.003  -1.153  -0.294  0.00  0.00     0.034 A 
ATOM      4  C3  UNL d   1      -0.391  -2.410  -0.238  0.00  0.00     0.017 A 
ATOM      5  C4  UNL d   1       0.979  -2.529  -0.501  0.00  0.00     0.017 A 
ATOM      6  C5  UNL d   1       1.727  -1.391  -0.817  0.00  0.00     0.034 A 
ATOM      7 Cl   UNL d   1       1.804  -4.047  -0.450  0.00  0.00    -0.070 Cl
ATOM      8 Cl1  UNL d   1      -1.382  -3.769   0.160  0.00  0.00    -0.070 Cl
ENDROOT
TORSDOF 0
ENDMDL
