MODEL 1
REMARK minimizedAffinity 2.8920908
REMARK minimizedRMSD -1
REMARK  0 active torsions:
REMARK  status: ('A' for Active; 'I' for Inactive)
ROOT
ATOM      1  C   UNL d   1       0.042  -4.647   1.044  0.00  0.00     0.020 A 
ATOM      2  C1  UNL d   1      -1.033  -3.823   0.715  0.00  0.00     0.020 A 
ATOM      3  C2  UNL d   1      -0.802  -2.562   0.160  0.00  0.00     0.034 A 
ATOM      4  C3  UNL d   1       0.507  -2.123  -0.067  0.00  0.00     0.017 A 
ATOM      5  C4  UNL d   1       1.586  -2.951   0.264  0.00  0.00     0.017 A 
ATOM      6  C5  UNL d   1       1.348  -4.212   0.819  0.00  0.00     0.034 A 
ATOM      7 Cl   UNL d   1       3.229  -2.478   0.013  0.00  0.00    -0.070 Cl
ATOM      8 Cl1  UNL d   1       0.720  -0.553  -0.757  0.00  0.00    -0.070 Cl
ENDROOT
TORSDOF 0
ENDMDL
