MODEL 1
REMARK minimizedAffinity -5.11793041
REMARK minimizedRMSD -1
REMARK  0 active torsions:
REMARK  status: ('A' for Active; 'I' for Inactive)
ROOT
ATOM      1  C   UNL d   1       0.608  -1.334  -0.549  0.00  0.00     0.020 A 
ATOM      2  C1  UNL d   1       1.858  -1.950  -0.509  0.00  0.00     0.020 A 
ATOM      3  C2  UNL d   1       1.971  -3.273  -0.078  0.00  0.00     0.034 A 
ATOM      4  C3  UNL d   1       0.832  -3.985   0.316  0.00  0.00     0.017 A 
ATOM      5  C4  UNL d   1      -0.423  -3.365   0.276  0.00  0.00     0.017 A 
ATOM      6  C5  UNL d   1      -0.530  -2.040  -0.157  0.00  0.00     0.034 A 
ATOM      7 Cl   UNL d   1      -1.874  -4.179   0.746  0.00  0.00    -0.070 Cl
ATOM      8 Cl1  UNL d   1       1.045  -5.618   0.838  0.00  0.00    -0.070 Cl
ENDROOT
TORSDOF 0
ENDMDL
