MODEL 1
REMARK minimizedAffinity 3.97338557
REMARK minimizedRMSD -1
REMARK  0 active torsions:
REMARK  status: ('A' for Active; 'I' for Inactive)
ROOT
ATOM      1  C   UNL d   1       0.388  -0.588  -1.130  0.00  0.00     0.020 A 
ATOM      2  C1  UNL d   1      -0.732  -1.239  -0.613  0.00  0.00     0.020 A 
ATOM      3  C2  UNL d   1      -0.584  -2.446   0.073  0.00  0.00     0.034 A 
ATOM      4  C3  UNL d   1       0.687  -3.007   0.244  0.00  0.00     0.017 A 
ATOM      5  C4  UNL d   1       1.811  -2.354  -0.275  0.00  0.00     0.017 A 
ATOM      6  C5  UNL d   1       1.657  -1.145  -0.961  0.00  0.00     0.034 A 
ATOM      7 Cl   UNL d   1       3.411  -2.984  -0.103  0.00  0.00    -0.070 Cl
ATOM      8 Cl1  UNL d   1       0.796  -4.502   1.103  0.00  0.00    -0.070 Cl
ENDROOT
TORSDOF 0
ENDMDL
