MODEL 1
REMARK minimizedAffinity -1.50810504
REMARK minimizedRMSD -1
REMARK  0 active torsions:
REMARK  status: ('A' for Active; 'I' for Inactive)
ROOT
ATOM      1  C   UNL d   1       0.794   0.199  -1.325  0.00  0.00     0.020 A 
ATOM      2  C1  UNL d   1      -0.231  -0.744  -1.273  0.00  0.00     0.020 A 
ATOM      3  C2  UNL d   1      -0.010  -1.982  -0.666  0.00  0.00     0.034 A 
ATOM      4  C3  UNL d   1       1.239  -2.280  -0.109  0.00  0.00     0.017 A 
ATOM      5  C4  UNL d   1       2.267  -1.332  -0.161  0.00  0.00     0.017 A 
ATOM      6  C5  UNL d   1       2.041  -0.094  -0.770  0.00  0.00     0.034 A 
ATOM      7 Cl   UNL d   1       3.835  -1.627   0.505  0.00  0.00    -0.070 Cl
ATOM      8 Cl1  UNL d   1       1.442  -3.831   0.626  0.00  0.00    -0.070 Cl
ENDROOT
TORSDOF 0
ENDMDL
