MODEL 1
REMARK minimizedAffinity -5.37289286
REMARK minimizedRMSD -1
REMARK  0 active torsions:
REMARK  status: ('A' for Active; 'I' for Inactive)
ROOT
ATOM      1  C   UNL d   1       0.363  -0.465  -0.528  0.00  0.00     0.020 A 
ATOM      2  C1  UNL d   1      -0.600  -1.443  -0.769  0.00  0.00     0.020 A 
ATOM      3  C2  UNL d   1      -0.318  -2.783  -0.492  0.00  0.00     0.034 A 
ATOM      4  C3  UNL d   1       0.930  -3.147   0.026  0.00  0.00     0.017 A 
ATOM      5  C4  UNL d   1       1.896  -2.164   0.267  0.00  0.00     0.017 A 
ATOM      6  C5  UNL d   1       1.609  -0.824  -0.012  0.00  0.00     0.034 A 
ATOM      7 Cl   UNL d   1       3.458  -2.537   0.905  0.00  0.00    -0.070 Cl
ATOM      8 Cl1  UNL d   1       1.209  -4.822   0.345  0.00  0.00    -0.070 Cl
ENDROOT
TORSDOF 0
ENDMDL
