MODEL 1
REMARK minimizedAffinity -1.32534111
REMARK minimizedRMSD -1
REMARK  0 active torsions:
REMARK  status: ('A' for Active; 'I' for Inactive)
ROOT
ATOM      1  C   UNL d   1       2.260  -3.033  -0.057  0.00  0.00     0.020 A 
ATOM      2  C1  UNL d   1       1.215  -3.787   0.475  0.00  0.00     0.020 A 
ATOM      3  C2  UNL d   1      -0.088  -3.285   0.458  0.00  0.00     0.034 A 
ATOM      4  C3  UNL d   1      -0.349  -2.025  -0.092  0.00  0.00     0.017 A 
ATOM      5  C4  UNL d   1       0.701  -1.268  -0.625  0.00  0.00     0.017 A 
ATOM      6  C5  UNL d   1       2.004  -1.776  -0.606  0.00  0.00     0.034 A 
ATOM      7 Cl   UNL d   1       0.456   0.295  -1.321  0.00  0.00    -0.070 Cl
ATOM      8 Cl1  UNL d   1      -1.984  -1.466  -0.080  0.00  0.00    -0.070 Cl
ENDROOT
TORSDOF 0
ENDMDL
