MODEL 1
REMARK minimizedAffinity -3.21037316
REMARK minimizedRMSD -1
REMARK  0 active torsions:
REMARK  status: ('A' for Active; 'I' for Inactive)
ROOT
ATOM      1  C   UNL d   1       2.836  -1.588  -0.448  0.00  0.00     0.020 A 
ATOM      2  C1  UNL d   1       1.685  -0.921  -0.868  0.00  0.00     0.020 A 
ATOM      3  C2  UNL d   1       0.432  -1.507  -0.682  0.00  0.00     0.034 A 
ATOM      4  C3  UNL d   1       0.325  -2.764  -0.075  0.00  0.00     0.017 A 
ATOM      5  C4  UNL d   1       1.481  -3.433   0.345  0.00  0.00     0.017 A 
ATOM      6  C5  UNL d   1       2.733  -2.841   0.157  0.00  0.00     0.034 A 
ATOM      7 Cl   UNL d   1       1.429  -4.986   1.101  0.00  0.00    -0.070 Cl
ATOM      8 Cl1  UNL d   1      -1.257  -3.430   0.123  0.00  0.00    -0.070 Cl
ENDROOT
TORSDOF 0
ENDMDL
