MODEL 1
REMARK minimizedAffinity -4.60627699
REMARK minimizedRMSD -1
REMARK  0 active torsions:
REMARK  status: ('A' for Active; 'I' for Inactive)
ROOT
ATOM      1  C   UNL d   1       0.164  -4.130   0.799  0.00  0.00     0.020 A 
ATOM      2  C1  UNL d   1      -0.982  -3.336   0.802  0.00  0.00     0.020 A 
ATOM      3  C2  UNL d   1      -0.923  -2.024   0.327  0.00  0.00     0.034 A 
ATOM      4  C3  UNL d   1       0.284  -1.502  -0.152  0.00  0.00     0.017 A 
ATOM      5  C4  UNL d   1       1.434  -2.300  -0.155  0.00  0.00     0.017 A 
ATOM      6  C5  UNL d   1       1.369  -3.613   0.322  0.00  0.00     0.034 A 
ATOM      7 Cl   UNL d   1       2.959  -1.727  -0.731  0.00  0.00    -0.070 Cl
ATOM      8 Cl1  UNL d   1       0.284   0.128  -0.725  0.00  0.00    -0.070 Cl
ENDROOT
TORSDOF 0
ENDMDL
