MODEL 1
REMARK minimizedAffinity -0.955931544
REMARK minimizedRMSD -1
REMARK  0 active torsions:
REMARK  status: ('A' for Active; 'I' for Inactive)
ROOT
ATOM      1  C   UNL d   1      -0.781  -0.971  -1.486  0.00  0.00     0.020 A 
ATOM      2  C1  UNL d   1       0.523  -0.508  -1.658  0.00  0.00     0.020 A 
ATOM      3  C2  UNL d   1       1.575  -1.112  -0.966  0.00  0.00     0.034 A 
ATOM      4  C3  UNL d   1       1.324  -2.182  -0.099  0.00  0.00     0.017 A 
ATOM      5  C4  UNL d   1       0.015  -2.646   0.073  0.00  0.00     0.017 A 
ATOM      6  C5  UNL d   1      -1.035  -2.037  -0.623  0.00  0.00     0.034 A 
ATOM      7 Cl   UNL d   1      -0.373  -3.961   1.125  0.00  0.00    -0.070 Cl
ATOM      8 Cl1  UNL d   1       2.673  -2.882   0.724  0.00  0.00    -0.070 Cl
ENDROOT
TORSDOF 0
ENDMDL
