MODEL 1
REMARK minimizedAffinity -1.95580399
REMARK minimizedRMSD -1
REMARK  0 active torsions:
REMARK  status: ('A' for Active; 'I' for Inactive)
ROOT
ATOM      1  C   UNL d   1       0.743  -0.500  -0.968  0.00  0.00     0.020 A 
ATOM      2  C1  UNL d   1       2.055  -0.954  -0.847  0.00  0.00     0.020 A 
ATOM      3  C2  UNL d   1       2.305  -2.257  -0.410  0.00  0.00     0.034 A 
ATOM      4  C3  UNL d   1       1.241  -3.109  -0.092  0.00  0.00     0.017 A 
ATOM      5  C4  UNL d   1      -0.076  -2.652  -0.214  0.00  0.00     0.017 A 
ATOM      6  C5  UNL d   1      -0.320  -1.347  -0.653  0.00  0.00     0.034 A 
ATOM      7 Cl   UNL d   1      -1.440  -3.645   0.158  0.00  0.00    -0.070 Cl
ATOM      8 Cl1  UNL d   1       1.624  -4.707   0.442  0.00  0.00    -0.070 Cl
ENDROOT
TORSDOF 0
ENDMDL
