MODEL 1
REMARK minimizedAffinity -5.27499342
REMARK minimizedRMSD -1
REMARK  0 active torsions:
REMARK  status: ('A' for Active; 'I' for Inactive)
ROOT
ATOM      1  C   UNL d   1       0.534  -0.364  -0.803  0.00  0.00     0.020 A 
ATOM      2  C1  UNL d   1       1.864  -0.774  -0.732  0.00  0.00     0.020 A 
ATOM      3  C2  UNL d   1       2.179  -2.035  -0.221  0.00  0.00     0.034 A 
ATOM      4  C3  UNL d   1       1.163  -2.890   0.221  0.00  0.00     0.017 A 
ATOM      5  C4  UNL d   1      -0.173  -2.477   0.149  0.00  0.00     0.017 A 
ATOM      6  C5  UNL d   1      -0.482  -1.213  -0.364  0.00  0.00     0.034 A 
ATOM      7 Cl   UNL d   1      -1.481  -3.475   0.675  0.00  0.00    -0.070 Cl
ATOM      8 Cl1  UNL d   1       1.625  -4.435   0.841  0.00  0.00    -0.070 Cl
ENDROOT
TORSDOF 0
ENDMDL
