MODEL 1
REMARK minimizedAffinity -2.88328099
REMARK minimizedRMSD -1
REMARK  0 active torsions:
REMARK  status: ('A' for Active; 'I' for Inactive)
ROOT
ATOM      1  C   UNL d   1       2.480  -1.398  -0.664  0.00  0.00     0.020 A 
ATOM      2  C1  UNL d   1       1.576  -0.355  -0.858  0.00  0.00     0.020 A 
ATOM      3  C2  UNL d   1       0.223  -0.538  -0.562  0.00  0.00     0.034 A 
ATOM      4  C3  UNL d   1      -0.229  -1.767  -0.070  0.00  0.00     0.017 A 
ATOM      5  C4  UNL d   1       0.679  -2.814   0.125  0.00  0.00     0.017 A 
ATOM      6  C5  UNL d   1       2.032  -2.625  -0.173  0.00  0.00     0.034 A 
ATOM      7 Cl   UNL d   1       0.196  -4.360   0.730  0.00  0.00    -0.070 Cl
ATOM      8 Cl1  UNL d   1      -1.915  -1.923   0.276  0.00  0.00    -0.070 Cl
ENDROOT
TORSDOF 0
ENDMDL
