MODEL 1
REMARK minimizedAffinity -1.89549839
REMARK minimizedRMSD -1
REMARK  0 active torsions:
REMARK  status: ('A' for Active; 'I' for Inactive)
ROOT
ATOM      1  C   UNL d   1       1.301  -1.388  -0.397  0.00  0.00     0.020 A 
ATOM      2  C1  UNL d   1      -0.071  -1.196  -0.235  0.00  0.00     0.020 A 
ATOM      3  C2  UNL d   1      -0.856  -2.206   0.324  0.00  0.00     0.034 A 
ATOM      4  C3  UNL d   1      -0.270  -3.413   0.725  0.00  0.00     0.017 A 
ATOM      5  C4  UNL d   1       1.107  -3.604   0.563  0.00  0.00     0.017 A 
ATOM      6  C5  UNL d   1       1.888  -2.589   0.002  0.00  0.00     0.034 A 
ATOM      7 Cl   UNL d   1       1.901  -5.065   1.033  0.00  0.00    -0.070 Cl
ATOM      8 Cl1  UNL d   1      -1.301  -4.618   1.410  0.00  0.00    -0.070 Cl
ENDROOT
TORSDOF 0
ENDMDL
