MODEL 1
REMARK minimizedAffinity 9.05693722
REMARK minimizedRMSD -1
REMARK  0 active torsions:
REMARK  status: ('A' for Active; 'I' for Inactive)
ROOT
ATOM      1  C   UNL d   1      -3.443   2.494   1.716  0.00  0.00     0.023 A 
ATOM      2  C1  UNL d   1      -4.724   2.872   2.120  0.00  0.00     0.003 A 
ATOM      3  C2  UNL d   1      -5.406   3.877   1.432  0.00  0.00     0.048 A 
ATOM      4  C3  UNL d   1      -4.803   4.499   0.339  0.00  0.00     0.023 A 
ATOM      5  C4  UNL d   1      -3.522   4.123  -0.070  0.00  0.00     0.048 A 
ATOM      6  C5  UNL d   1      -2.843   3.119   0.622  0.00  0.00     0.003 A 
ATOM      7  I   UNL d   1      -5.817   5.995  -0.687  0.00  0.00    -0.146 I 
ENDROOT
TORSDOF 0
ENDMDL
