MODEL 1
REMARK minimizedAffinity 9.43602943
REMARK minimizedRMSD -1
REMARK  0 active torsions:
REMARK  status: ('A' for Active; 'I' for Inactive)
ROOT
ATOM      1  C   UNL d   1      -1.591  -1.573  -1.033  0.00  0.00     0.023 A 
ATOM      2  C1  UNL d   1      -2.316  -0.876  -1.999  0.00  0.00     0.003 A 
ATOM      3  C2  UNL d   1      -2.630   0.470  -1.802  0.00  0.00     0.048 A 
ATOM      4  C3  UNL d   1      -2.215   1.113  -0.636  0.00  0.00     0.023 A 
ATOM      5  C4  UNL d   1      -1.488   0.420   0.333  0.00  0.00     0.048 A 
ATOM      6  C5  UNL d   1      -1.177  -0.926   0.131  0.00  0.00     0.003 A 
ATOM      7  I   UNL d   1      -2.681   3.117  -0.340  0.00  0.00    -0.146 I 
ENDROOT
TORSDOF 0
ENDMDL
