MODEL 1
REMARK minimizedAffinity 14.7125683
REMARK minimizedRMSD -1
REMARK  0 active torsions:
REMARK  status: ('A' for Active; 'I' for Inactive)
ROOT
ATOM      1  C   UNL d   1       3.465  -0.848  -2.796  0.00  0.00     0.023 A 
ATOM      2  C1  UNL d   1       4.858  -0.812  -2.844  0.00  0.00     0.003 A 
ATOM      3  C2  UNL d   1       5.506   0.021  -3.758  0.00  0.00     0.048 A 
ATOM      4  C3  UNL d   1       4.753   0.817  -4.622  0.00  0.00     0.023 A 
ATOM      5  C4  UNL d   1       3.359   0.785  -4.577  0.00  0.00     0.048 A 
ATOM      6  C5  UNL d   1       2.716  -0.051  -3.662  0.00  0.00     0.003 A 
ATOM      7  I   UNL d   1       5.715   2.058  -5.983  0.00  0.00    -0.146 I 
ENDROOT
TORSDOF 0
ENDMDL
