MODEL 1
REMARK minimizedAffinity 15.7691402
REMARK minimizedRMSD -1
REMARK  0 active torsions:
REMARK  status: ('A' for Active; 'I' for Inactive)
ROOT
ATOM      1  C   UNL d   1      -1.324   0.514  -3.785  0.00  0.00     0.023 A 
ATOM      2  C1  UNL d   1      -0.814   1.520  -2.964  0.00  0.00     0.003 A 
ATOM      3  C2  UNL d   1      -0.121   1.187  -1.798  0.00  0.00     0.048 A 
ATOM      4  C3  UNL d   1       0.059  -0.153  -1.460  0.00  0.00     0.023 A 
ATOM      5  C4  UNL d   1      -0.449  -1.163  -2.279  0.00  0.00     0.048 A 
ATOM      6  C5  UNL d   1      -1.141  -0.826  -3.443  0.00  0.00     0.003 A 
ATOM      7  I   UNL d   1       1.090  -0.651   0.275  0.00  0.00    -0.146 I 
ENDROOT
TORSDOF 0
ENDMDL
