MODEL 1
REMARK minimizedAffinity 11.1893511
REMARK minimizedRMSD -1
REMARK  0 active torsions:
REMARK  status: ('A' for Active; 'I' for Inactive)
ROOT
ATOM      1  C   UNL d   1       2.093  -0.119   3.758  0.00  0.00     0.023 A 
ATOM      2  C1  UNL d   1       1.662  -0.751   4.924  0.00  0.00     0.003 A 
ATOM      3  C2  UNL d   1       1.564  -2.143   4.971  0.00  0.00     0.048 A 
ATOM      4  C3  UNL d   1       1.901  -2.897   3.848  0.00  0.00     0.023 A 
ATOM      5  C4  UNL d   1       2.333  -2.270   2.678  0.00  0.00     0.048 A 
ATOM      6  C5  UNL d   1       2.428  -0.878   2.636  0.00  0.00     0.003 A 
ATOM      7  I   UNL d   1       1.757  -4.970   3.915  0.00  0.00    -0.146 I 
ENDROOT
TORSDOF 0
ENDMDL
