MODEL 1
REMARK minimizedAffinity 1.74634981
REMARK minimizedRMSD -1
REMARK  0 active torsions:
REMARK  status: ('A' for Active; 'I' for Inactive)
ROOT
ATOM      1  C   UNL d   1       5.413  -3.008   5.926  0.00  0.00     0.023 A 
ATOM      2  C1  UNL d   1       4.024  -3.118   5.995  0.00  0.00     0.003 A 
ATOM      3  C2  UNL d   1       3.219  -2.379   5.126  0.00  0.00     0.048 A 
ATOM      4  C3  UNL d   1       3.810  -1.533   4.188  0.00  0.00     0.023 A 
ATOM      5  C4  UNL d   1       5.199  -1.420   4.114  0.00  0.00     0.048 A 
ATOM      6  C5  UNL d   1       6.000  -2.160   4.986  0.00  0.00     0.003 A 
ATOM      7  I   UNL d   1       2.615  -0.432   2.892  0.00  0.00    -0.146 I 
ENDROOT
TORSDOF 0
ENDMDL
