MODEL 1
REMARK minimizedAffinity 2.4452908
REMARK minimizedRMSD -1
REMARK  0 active torsions:
REMARK  status: ('A' for Active; 'I' for Inactive)
ROOT
ATOM      1  C   UNL d   1       1.905  -1.500   3.703  0.00  0.00     0.023 A 
ATOM      2  C1  UNL d   1       1.864  -1.870   5.047  0.00  0.00     0.003 A 
ATOM      3  C2  UNL d   1       3.039  -2.237   5.708  0.00  0.00     0.048 A 
ATOM      4  C3  UNL d   1       4.251  -2.230   5.019  0.00  0.00     0.023 A 
ATOM      5  C4  UNL d   1       4.297  -1.859   3.674  0.00  0.00     0.048 A 
ATOM      6  C5  UNL d   1       3.120  -1.494   3.017  0.00  0.00     0.003 A 
ATOM      7  I   UNL d   1       6.000  -2.776   6.000  0.00  0.00    -0.146 I 
ENDROOT
TORSDOF 0
ENDMDL
