MODEL 1
REMARK minimizedAffinity 9.12720299
REMARK minimizedRMSD -1
REMARK  0 active torsions:
REMARK  status: ('A' for Active; 'I' for Inactive)
ROOT
ATOM      1  C   UNL d   1      -0.677  -1.563  -0.863  0.00  0.00     0.023 A 
ATOM      2  C1  UNL d   1      -1.223  -0.821   0.185  0.00  0.00     0.003 A 
ATOM      3  C2  UNL d   1      -0.417  -0.418   1.251  0.00  0.00     0.048 A 
ATOM      4  C3  UNL d   1       0.935  -0.760   1.263  0.00  0.00     0.023 A 
ATOM      5  C4  UNL d   1       1.486  -1.502   0.217  0.00  0.00     0.048 A 
ATOM      6  C5  UNL d   1       0.675  -1.903  -0.846  0.00  0.00     0.003 A 
ATOM      7  I   UNL d   1       2.137  -0.161   2.850  0.00  0.00    -0.146 I 
ENDROOT
TORSDOF 0
ENDMDL
