MODEL 1
REMARK minimizedAffinity 3.86235404
REMARK minimizedRMSD -1
REMARK  0 active torsions:
REMARK  status: ('A' for Active; 'I' for Inactive)
ROOT
ATOM      1  C   UNL d   1       1.447  -0.609   2.757  0.00  0.00     0.023 A 
ATOM      2  C1  UNL d   1       1.473  -1.868   3.358  0.00  0.00     0.003 A 
ATOM      3  C2  UNL d   1       2.672  -2.378   3.861  0.00  0.00     0.048 A 
ATOM      4  C3  UNL d   1       3.840  -1.624   3.761  0.00  0.00     0.023 A 
ATOM      5  C4  UNL d   1       3.819  -0.364   3.161  0.00  0.00     0.048 A 
ATOM      6  C5  UNL d   1       2.619   0.142   2.659  0.00  0.00     0.003 A 
ATOM      7  I   UNL d   1       5.625  -2.381   4.510  0.00  0.00    -0.146 I 
ENDROOT
TORSDOF 0
ENDMDL
