MODEL 1
REMARK minimizedAffinity 1.97100937
REMARK minimizedRMSD -1
REMARK  2 active torsions:
REMARK  status: ('A' for Active; 'I' for Inactive)
REMARK    1  A    between atoms: C1_2  and  C2_3 
REMARK    2  A    between atoms: C2_3  and  C3_4 
ROOT
ATOM      1  C3  UNL d   1      -1.450  -1.591  -0.408  0.00  0.00    -0.075 A 
ATOM      2  C4  UNL d   1      -2.122  -2.781  -0.092  0.00  0.00     0.002 A 
ATOM      3  C5  UNL d   1      -2.766  -2.925   1.136  0.00  0.00     0.002 A 
ATOM      4  C6  UNL d   1      -2.739  -1.889   2.067  0.00  0.00    -0.004 A 
ATOM      5  C7  UNL d   1      -2.061  -0.709   1.770  0.00  0.00     0.002 A 
ATOM      6  C8  UNL d   1      -1.419  -0.559   0.540  0.00  0.00     0.002 A 
ENDROOT
BRANCH   1   7
ATOM      7  C2  UNL d   1      -0.775  -1.417  -1.748  0.00  0.00     0.056 C 
BRANCH   7   8
ATOM      8  C1  UNL d   1      -0.105  -0.052  -1.936  0.00  0.00     0.007 C 
ATOM      9  C   UNL d   1       1.415  -0.133  -2.001  0.00  0.00     0.009 C 
ENDBRANCH   7   8
ENDBRANCH   1   7
TORSDOF 2
ENDMDL
