MODEL 1
REMARK minimizedAffinity -3.70627427
REMARK minimizedRMSD -1
REMARK  2 active torsions:
REMARK  status: ('A' for Active; 'I' for Inactive)
REMARK    1  A    between atoms: C1_2  and  C2_3 
REMARK    2  A    between atoms: C2_3  and  C3_4 
ROOT
ATOM      1  C3  UNL d   1      -0.071  -0.417  -1.343  0.00  0.00    -0.075 A 
ATOM      2  C4  UNL d   1      -0.586  -1.697  -1.088  0.00  0.00     0.002 A 
ATOM      3  C5  UNL d   1      -1.059  -2.030   0.181  0.00  0.00     0.002 A 
ATOM      4  C6  UNL d   1      -1.013  -1.095   1.212  0.00  0.00    -0.004 A 
ATOM      5  C7  UNL d   1      -0.488   0.174   0.975  0.00  0.00     0.002 A 
ATOM      6  C8  UNL d   1      -0.019   0.512  -0.296  0.00  0.00     0.002 A 
ENDROOT
BRANCH   1   7
ATOM      7  C2  UNL d   1       0.414  -0.041  -2.723  0.00  0.00     0.056 C 
BRANCH   7   8
ATOM      8  C1  UNL d   1       0.478  -1.216  -3.704  0.00  0.00     0.007 C 
ATOM      9  C   UNL d   1       1.900  -1.656  -4.023  0.00  0.00     0.009 C 
ENDBRANCH   7   8
ENDBRANCH   1   7
TORSDOF 2
ENDMDL
