MODEL 1
REMARK minimizedAffinity -4.81452847
REMARK minimizedRMSD -1
REMARK  2 active torsions:
REMARK  status: ('A' for Active; 'I' for Inactive)
REMARK    1  A    between atoms: C1_2  and  C2_3 
REMARK    2  A    between atoms: C2_3  and  C3_4 
ROOT
ATOM      1  C3  UNL d   1      -0.624  -0.490   0.553  0.00  0.00    -0.075 A 
ATOM      2  C4  UNL d   1      -1.655  -1.298   1.053  0.00  0.00     0.002 A 
ATOM      3  C5  UNL d   1      -1.628  -2.680   0.863  0.00  0.00     0.002 A 
ATOM      4  C6  UNL d   1      -0.578  -3.269   0.163  0.00  0.00    -0.004 A 
ATOM      5  C7  UNL d   1       0.443  -2.474  -0.353  0.00  0.00     0.002 A 
ATOM      6  C8  UNL d   1       0.421  -1.092  -0.161  0.00  0.00     0.002 A 
ENDROOT
BRANCH   1   7
ATOM      7  C2  UNL d   1      -0.633   1.003   0.780  0.00  0.00     0.056 C 
BRANCH   7   8
ATOM      8  C1  UNL d   1       0.218   1.792  -0.221  0.00  0.00     0.007 C 
ATOM      9  C   UNL d   1       0.707   3.126   0.327  0.00  0.00     0.009 C 
ENDBRANCH   7   8
ENDBRANCH   1   7
TORSDOF 2
ENDMDL
