MODEL 1
REMARK minimizedAffinity -5.48781919
REMARK minimizedRMSD -1
REMARK  2 active torsions:
REMARK  status: ('A' for Active; 'I' for Inactive)
REMARK    1  A    between atoms: C1_2  and  C2_3 
REMARK    2  A    between atoms: C2_3  and  C3_4 
ROOT
ATOM      1  C3  UNL d   1      -0.108  -0.077   0.475  0.00  0.00    -0.075 A 
ATOM      2  C4  UNL d   1       0.959  -0.860   0.011  0.00  0.00     0.002 A 
ATOM      3  C5  UNL d   1       0.838  -2.248  -0.065  0.00  0.00     0.002 A 
ATOM      4  C6  UNL d   1      -0.344  -2.870   0.329  0.00  0.00    -0.004 A 
ATOM      5  C7  UNL d   1      -1.405  -2.103   0.807  0.00  0.00     0.002 A 
ATOM      6  C8  UNL d   1      -1.289  -0.714   0.881  0.00  0.00     0.002 A 
ENDROOT
BRANCH   1   7
ATOM      7  C2  UNL d   1       0.005   1.428   0.533  0.00  0.00     0.056 C 
BRANCH   7   8
ATOM      8  C1  UNL d   1       1.439   1.951   0.393  0.00  0.00     0.007 C 
ATOM      9  C   UNL d   1       1.620   3.361   0.939  0.00  0.00     0.009 C 
ENDBRANCH   7   8
ENDBRANCH   1   7
TORSDOF 2
ENDMDL
