MODEL 1
REMARK minimizedAffinity -4.71339655
REMARK minimizedRMSD -1
REMARK  2 active torsions:
REMARK  status: ('A' for Active; 'I' for Inactive)
REMARK    1  A    between atoms: C1_2  and  C2_3 
REMARK    2  A    between atoms: C2_3  and  C3_4 
ROOT
ATOM      1  C3  UNL d   1       0.021  -0.304  -0.242  0.00  0.00    -0.075 A 
ATOM      2  C4  UNL d   1       0.571  -1.376  -0.961  0.00  0.00     0.002 A 
ATOM      3  C5  UNL d   1       0.409  -2.687  -0.513  0.00  0.00     0.002 A 
ATOM      4  C6  UNL d   1      -0.293  -2.943   0.663  0.00  0.00    -0.004 A 
ATOM      5  C7  UNL d   1      -0.830  -1.885   1.394  0.00  0.00     0.002 A 
ATOM      6  C8  UNL d   1      -0.673  -0.572   0.945  0.00  0.00     0.002 A 
ENDROOT
BRANCH   1   7
ATOM      7  C2  UNL d   1       0.168   1.114  -0.738  0.00  0.00     0.056 C 
BRANCH   7   8
ATOM      8  C1  UNL d   1       0.458   2.135   0.367  0.00  0.00     0.007 C 
ATOM      9  C   UNL d   1       1.911   2.590   0.398  0.00  0.00     0.009 C 
ENDBRANCH   7   8
ENDBRANCH   1   7
TORSDOF 2
ENDMDL
