MODEL 1
REMARK minimizedAffinity -2.34729743
REMARK minimizedRMSD -1
REMARK  2 active torsions:
REMARK  status: ('A' for Active; 'I' for Inactive)
REMARK    1  A    between atoms: C1_2  and  C2_3 
REMARK    2  A    between atoms: C2_3  and  C3_4 
ROOT
ATOM      1  C3  UNL d   1       0.642  -1.164  -0.084  0.00  0.00    -0.075 A 
ATOM      2  C4  UNL d   1      -0.125  -0.176   0.552  0.00  0.00     0.002 A 
ATOM      3  C5  UNL d   1      -0.520   0.969  -0.141  0.00  0.00     0.002 A 
ATOM      4  C6  UNL d   1      -0.146   1.145  -1.471  0.00  0.00    -0.004 A 
ATOM      5  C7  UNL d   1       0.629   0.179  -2.107  0.00  0.00     0.002 A 
ATOM      6  C8  UNL d   1       1.022  -0.970  -1.418  0.00  0.00     0.002 A 
ENDROOT
BRANCH   1   7
ATOM      7  C2  UNL d   1       1.048  -2.419   0.651  0.00  0.00     0.056 C 
BRANCH   7   8
ATOM      8  C1  UNL d   1      -0.072  -3.456   0.780  0.00  0.00     0.007 C 
ATOM      9  C   UNL d   1      -1.456  -2.833   0.901  0.00  0.00     0.009 C 
ENDBRANCH   7   8
ENDBRANCH   1   7
TORSDOF 2
ENDMDL
