MODEL 1
REMARK minimizedAffinity -4.57161665
REMARK minimizedRMSD -1
REMARK  2 active torsions:
REMARK  status: ('A' for Active; 'I' for Inactive)
REMARK    1  A    between atoms: C1_2  and  C2_3 
REMARK    2  A    between atoms: C2_3  and  C3_4 
ROOT
ATOM      1  C3  UNL d   1      -0.270  -0.037   0.484  0.00  0.00    -0.075 A 
ATOM      2  C4  UNL d   1       0.762  -0.963   0.270  0.00  0.00     0.002 A 
ATOM      3  C5  UNL d   1       0.547  -2.325   0.485  0.00  0.00     0.002 A 
ATOM      4  C6  UNL d   1      -0.695  -2.776   0.926  0.00  0.00    -0.004 A 
ATOM      5  C7  UNL d   1      -1.721  -1.863   1.158  0.00  0.00     0.002 A 
ATOM      6  C8  UNL d   1      -1.511  -0.501   0.940  0.00  0.00     0.002 A 
ENDROOT
BRANCH   1   7
ATOM      7  C2  UNL d   1      -0.053   1.435   0.225  0.00  0.00     0.056 C 
BRANCH   7   8
ATOM      8  C1  UNL d   1       1.397   1.894   0.414  0.00  0.00     0.007 C 
ATOM      9  C   UNL d   1       1.514   3.225   1.144  0.00  0.00     0.009 C 
ENDBRANCH   7   8
ENDBRANCH   1   7
TORSDOF 2
ENDMDL
