MODEL 1
REMARK minimizedAffinity -4.88507748
REMARK minimizedRMSD -1
REMARK  2 active torsions:
REMARK  status: ('A' for Active; 'I' for Inactive)
REMARK    1  A    between atoms: C1_2  and  C2_3 
REMARK    2  A    between atoms: C2_3  and  C3_4 
ROOT
ATOM      1  C3  UNL d   1       0.136  -0.172   0.225  0.00  0.00    -0.075 A 
ATOM      2  C4  UNL d   1       1.301  -0.952   0.183  0.00  0.00     0.002 A 
ATOM      3  C5  UNL d   1       1.243  -2.325   0.423  0.00  0.00     0.002 A 
ATOM      4  C6  UNL d   1       0.024  -2.933   0.717  0.00  0.00    -0.004 A 
ATOM      5  C7  UNL d   1      -1.137  -2.166   0.777  0.00  0.00     0.002 A 
ATOM      6  C8  UNL d   1      -1.082  -0.792   0.533  0.00  0.00     0.002 A 
ENDROOT
BRANCH   1   7
ATOM      7  C2  UNL d   1       0.188   1.309  -0.063  0.00  0.00     0.056 C 
BRANCH   7   8
ATOM      8  C1  UNL d   1       1.604   1.894  -0.073  0.00  0.00     0.007 C 
ATOM      9  C   UNL d   1       1.720   3.201   0.701  0.00  0.00     0.009 C 
ENDBRANCH   7   8
ENDBRANCH   1   7
TORSDOF 2
ENDMDL
