MODEL 1
REMARK minimizedAffinity -5.50584698
REMARK minimizedRMSD -1
REMARK  2 active torsions:
REMARK  status: ('A' for Active; 'I' for Inactive)
REMARK    1  A    between atoms: C1_2  and  C2_3 
REMARK    2  A    between atoms: C2_3  and  C3_4 
ROOT
ATOM      1  C3  UNL d   1      -0.206  -0.861  -0.140  0.00  0.00    -0.075 A 
ATOM      2  C4  UNL d   1      -0.246  -1.799  -1.182  0.00  0.00     0.002 A 
ATOM      3  C5  UNL d   1      -0.821  -3.054  -0.982  0.00  0.00     0.002 A 
ATOM      4  C6  UNL d   1      -1.352  -3.391   0.261  0.00  0.00    -0.004 A 
ATOM      5  C7  UNL d   1      -1.303  -2.473   1.307  0.00  0.00     0.002 A 
ATOM      6  C8  UNL d   1      -0.732  -1.214   1.110  0.00  0.00     0.002 A 
ENDROOT
BRANCH   1   7
ATOM      7  C2  UNL d   1       0.388   0.511  -0.358  0.00  0.00     0.056 C 
BRANCH   7   8
ATOM      8  C1  UNL d   1      -0.412   1.647   0.289  0.00  0.00     0.007 C 
ATOM      9  C   UNL d   1       0.464   2.784   0.796  0.00  0.00     0.009 C 
ENDBRANCH   7   8
ENDBRANCH   1   7
TORSDOF 2
ENDMDL
