MODEL 1
REMARK minimizedAffinity -4.56095982
REMARK minimizedRMSD -1
REMARK  2 active torsions:
REMARK  status: ('A' for Active; 'I' for Inactive)
REMARK    1  A    between atoms: C1_2  and  C2_3 
REMARK    2  A    between atoms: C2_3  and  C3_4 
ROOT
ATOM      1  C3  UNL d   1      -0.282  -0.138  -0.038  0.00  0.00    -0.075 A 
ATOM      2  C4  UNL d   1      -1.341  -0.352   0.856  0.00  0.00     0.002 A 
ATOM      3  C5  UNL d   1      -1.501  -1.589   1.482  0.00  0.00     0.002 A 
ATOM      4  C6  UNL d   1      -0.613  -2.628   1.213  0.00  0.00    -0.004 A 
ATOM      5  C7  UNL d   1       0.432  -2.432   0.314  0.00  0.00     0.002 A 
ATOM      6  C8  UNL d   1       0.598  -1.194  -0.310  0.00  0.00     0.002 A 
ENDROOT
BRANCH   1   7
ATOM      7  C2  UNL d   1      -0.086   1.207  -0.696  0.00  0.00     0.056 C 
BRANCH   7   8
ATOM      8  C1  UNL d   1       0.998   2.070  -0.040  0.00  0.00     0.007 C 
ATOM      9  C   UNL d   1       0.433   3.220   0.784  0.00  0.00     0.009 C 
ENDBRANCH   7   8
ENDBRANCH   1   7
TORSDOF 2
ENDMDL
