MODEL 1
REMARK minimizedAffinity -6.05148745
REMARK minimizedRMSD -1
REMARK  2 active torsions:
REMARK  status: ('A' for Active; 'I' for Inactive)
REMARK    1  A    between atoms: C1_2  and  C2_3 
REMARK    2  A    between atoms: C2_3  and  C3_4 
ROOT
ATOM      1  C3  UNL d   1      -0.191  -0.116  -0.030  0.00  0.00    -0.075 A 
ATOM      2  C4  UNL d   1      -0.859  -0.764   1.019  0.00  0.00     0.002 A 
ATOM      3  C5  UNL d   1      -0.933  -2.157   1.059  0.00  0.00     0.002 A 
ATOM      4  C6  UNL d   1      -0.351  -2.917   0.047  0.00  0.00    -0.004 A 
ATOM      5  C7  UNL d   1       0.301  -2.284  -1.008  0.00  0.00     0.002 A 
ATOM      6  C8  UNL d   1       0.381  -0.891  -1.048  0.00  0.00     0.002 A 
ENDROOT
BRANCH   1   7
ATOM      7  C2  UNL d   1      -0.081   1.390  -0.063  0.00  0.00     0.056 C 
BRANCH   7   8
ATOM      8  C1  UNL d   1       1.357   1.912   0.009  0.00  0.00     0.007 C 
ATOM      9  C   UNL d   1       1.510   3.127   0.914  0.00  0.00     0.009 C 
ENDBRANCH   7   8
ENDBRANCH   1   7
TORSDOF 2
ENDMDL
