MODEL 1
REMARK minimizedAffinity -5.74247265
REMARK minimizedRMSD -1
REMARK  2 active torsions:
REMARK  status: ('A' for Active; 'I' for Inactive)
REMARK    1  A    between atoms: C1_2  and  C2_3 
REMARK    2  A    between atoms: C2_3  and  C3_4 
ROOT
ATOM      1  C3  UNL d   1      -0.041  -2.321  -0.640  0.00  0.00    -0.075 A 
ATOM      2  C4  UNL d   1      -0.711  -3.016   0.377  0.00  0.00     0.002 A 
ATOM      3  C5  UNL d   1      -1.264  -2.331   1.459  0.00  0.00     0.002 A 
ATOM      4  C6  UNL d   1      -1.145  -0.945   1.544  0.00  0.00    -0.004 A 
ATOM      5  C7  UNL d   1      -0.467  -0.245   0.548  0.00  0.00     0.002 A 
ATOM      6  C8  UNL d   1       0.083  -0.929  -0.538  0.00  0.00     0.002 A 
ENDROOT
BRANCH   1   7
ATOM      7  C2  UNL d   1       0.533  -3.054  -1.828  0.00  0.00     0.056 C 
BRANCH   7   8
ATOM      8  C1  UNL d   1       0.537  -2.235  -3.124  0.00  0.00     0.007 C 
ATOM      9  C   UNL d   1       1.859  -2.306  -3.875  0.00  0.00     0.009 C 
ENDBRANCH   7   8
ENDBRANCH   1   7
TORSDOF 2
ENDMDL
