MODEL 1
REMARK minimizedAffinity -4.59312725
REMARK minimizedRMSD -1
REMARK  2 active torsions:
REMARK  status: ('A' for Active; 'I' for Inactive)
REMARK    1  A    between atoms: C1_2  and  C2_3 
REMARK    2  A    between atoms: C2_3  and  C3_4 
ROOT
ATOM      1  C3  UNL d   1      -0.045  -0.841  -0.680  0.00  0.00    -0.075 A 
ATOM      2  C4  UNL d   1      -0.241  -1.109   0.683  0.00  0.00     0.002 A 
ATOM      3  C5  UNL d   1      -0.289  -2.424   1.146  0.00  0.00     0.002 A 
ATOM      4  C6  UNL d   1      -0.154  -3.485   0.255  0.00  0.00    -0.004 A 
ATOM      5  C7  UNL d   1       0.024  -3.231  -1.103  0.00  0.00     0.002 A 
ATOM      6  C8  UNL d   1       0.078  -1.917  -1.570  0.00  0.00     0.002 A 
ENDROOT
BRANCH   1   7
ATOM      7  C2  UNL d   1       0.038   0.580  -1.184  0.00  0.00     0.056 C 
BRANCH   7   8
ATOM      8  C1  UNL d   1       0.030   1.637  -0.075  0.00  0.00     0.007 C 
ATOM      9  C   UNL d   1       1.425   2.104   0.319  0.00  0.00     0.009 C 
ENDBRANCH   7   8
ENDBRANCH   1   7
TORSDOF 2
ENDMDL
