MODEL 1
REMARK minimizedAffinity -5.20955563
REMARK minimizedRMSD -1
REMARK  2 active torsions:
REMARK  status: ('A' for Active; 'I' for Inactive)
REMARK    1  A    between atoms: C1_2  and  C2_3 
REMARK    2  A    between atoms: C2_3  and  C3_4 
ROOT
ATOM      1  C3  UNL d   1       0.520   1.595   0.376  0.00  0.00    -0.075 A 
ATOM      2  C4  UNL d   1       1.773   1.872  -0.190  0.00  0.00     0.002 A 
ATOM      3  C5  UNL d   1       2.572   2.894   0.323  0.00  0.00     0.002 A 
ATOM      4  C6  UNL d   1       2.125   3.657   1.400  0.00  0.00    -0.004 A 
ATOM      5  C7  UNL d   1       0.875   3.402   1.959  0.00  0.00     0.002 A 
ATOM      6  C8  UNL d   1       0.076   2.377   1.451  0.00  0.00     0.002 A 
ENDROOT
BRANCH   1   7
ATOM      7  C2  UNL d   1      -0.337   0.471  -0.155  0.00  0.00     0.056 C 
BRANCH   7   8
ATOM      8  C1  UNL d   1       0.297  -0.917  -0.014  0.00  0.00     0.007 C 
ATOM      9  C   UNL d   1      -0.495  -1.850   0.892  0.00  0.00     0.009 C 
ENDBRANCH   7   8
ENDBRANCH   1   7
TORSDOF 2
ENDMDL
