MODEL 1
REMARK minimizedAffinity 1.23333061
REMARK minimizedRMSD -1
REMARK  0 active torsions:
REMARK  status: ('A' for Active; 'I' for Inactive)
ROOT
ATOM      1  C   UNL d   1      -0.660   0.505   2.270  0.00  0.00     0.124 A 
ATOM      2  C1  UNL d   1       0.577   0.708   1.672  0.00  0.00     0.062 A 
ATOM      3  C2  UNL d   1       0.745   0.462   0.312  0.00  0.00     0.162 A 
ATOM      4  C3  UNL d   1      -0.326   0.013  -0.460  0.00  0.00    -0.034 A 
ATOM      5  C4  UNL d   1      -1.566  -0.189   0.149  0.00  0.00     0.162 A 
ATOM      6  C5  UNL d   1      -1.729   0.057   1.508  0.00  0.00     0.062 A 
ATOM      7  F   UNL d   1      -2.924  -0.139   2.084  0.00  0.00    -0.097 F 
ATOM      8  F1  UNL d   1      -2.617  -0.621  -0.564  0.00  0.00    -0.096 F 
ATOM      9  I   UNL d   1      -0.078  -0.355  -2.493  0.00  0.00    -0.060 I 
ATOM     10  F2  UNL d   1       1.951   0.667  -0.239  0.00  0.00    -0.096 F 
ATOM     11  F3  UNL d   1       1.612   1.139   2.406  0.00  0.00    -0.097 F 
ATOM     12  F4  UNL d   1      -0.819   0.741   3.578  0.00  0.00    -0.092 F 
ENDROOT
TORSDOF 0
ENDMDL
