MODEL 1
REMARK minimizedAffinity -1.10791814
REMARK minimizedRMSD -1
REMARK  0 active torsions:
REMARK  status: ('A' for Active; 'I' for Inactive)
ROOT
ATOM      1  C   UNL d   1       0.094   0.082   2.742  0.00  0.00     0.124 A 
ATOM      2  C1  UNL d   1       1.227  -0.574   2.281  0.00  0.00     0.062 A 
ATOM      3  C2  UNL d   1       1.410  -0.782   0.917  0.00  0.00     0.162 A 
ATOM      4  C3  UNL d   1       0.456  -0.334   0.003  0.00  0.00    -0.034 A 
ATOM      5  C4  UNL d   1      -0.681   0.324   0.474  0.00  0.00     0.162 A 
ATOM      6  C5  UNL d   1      -0.859   0.530   1.838  0.00  0.00     0.062 A 
ATOM      7  F   UNL d   1      -1.955   1.164   2.281  0.00  0.00    -0.097 F 
ATOM      8  F1  UNL d   1      -1.618   0.768  -0.378  0.00  0.00    -0.096 F 
ATOM      9  I   UNL d   1       0.725  -0.644  -2.037  0.00  0.00    -0.060 I 
ATOM     10  F2  UNL d   1       2.514  -1.419   0.501  0.00  0.00    -0.096 F 
ATOM     11  F3  UNL d   1       2.149  -1.008   3.153  0.00  0.00    -0.097 F 
ATOM     12  F4  UNL d   1      -0.079   0.281   4.055  0.00  0.00    -0.092 F 
ENDROOT
TORSDOF 0
ENDMDL
