MODEL 1
REMARK minimizedAffinity -2.6504159
REMARK minimizedRMSD -1
REMARK  0 active torsions:
REMARK  status: ('A' for Active; 'I' for Inactive)
ROOT
ATOM      1  C   UNL d   1       0.387  -0.716  -1.957  0.00  0.00     0.124 A 
ATOM      2  C1  UNL d   1      -0.206   0.538  -1.981  0.00  0.00     0.062 A 
ATOM      3  C2  UNL d   1      -0.553   1.171  -0.791  0.00  0.00     0.162 A 
ATOM      4  C3  UNL d   1      -0.306   0.552   0.434  0.00  0.00    -0.034 A 
ATOM      5  C4  UNL d   1       0.291  -0.710   0.450  0.00  0.00     0.162 A 
ATOM      6  C5  UNL d   1       0.635  -1.339  -0.742  0.00  0.00     0.062 A 
ATOM      7  F   UNL d   1       1.208  -2.551  -0.716  0.00  0.00    -0.097 F 
ATOM      8  F1  UNL d   1       0.542  -1.335   1.611  0.00  0.00    -0.096 F 
ATOM      9  I   UNL d   1      -0.822   1.495   2.216  0.00  0.00    -0.060 I 
ATOM     10  F2  UNL d   1      -1.125   2.383  -0.844  0.00  0.00    -0.096 F 
ATOM     11  F3  UNL d   1      -0.448   1.142  -3.153  0.00  0.00    -0.097 F 
ATOM     12  F4  UNL d   1       0.719  -1.324  -3.103  0.00  0.00    -0.092 F 
ENDROOT
TORSDOF 0
ENDMDL
