MODEL 1
REMARK minimizedAffinity 3.93253279
REMARK minimizedRMSD -1
REMARK  0 active torsions:
REMARK  status: ('A' for Active; 'I' for Inactive)
ROOT
ATOM      1  C   UNL d   1      -0.301   0.092   1.938  0.00  0.00     0.124 A 
ATOM      2  C1  UNL d   1       0.840  -0.070   1.164  0.00  0.00     0.062 A 
ATOM      3  C2  UNL d   1       0.733  -0.244  -0.212  0.00  0.00     0.162 A 
ATOM      4  C3  UNL d   1      -0.520  -0.256  -0.825  0.00  0.00    -0.034 A 
ATOM      5  C4  UNL d   1      -1.663  -0.094  -0.040  0.00  0.00     0.162 A 
ATOM      6  C5  UNL d   1      -1.551   0.080   1.336  0.00  0.00     0.062 A 
ATOM      7  F   UNL d   1      -2.654   0.236   2.082  0.00  0.00    -0.097 F 
ATOM      8  F1  UNL d   1      -2.883  -0.100  -0.596  0.00  0.00    -0.096 F 
ATOM      9  I   UNL d   1      -0.685  -0.516  -2.883  0.00  0.00    -0.060 I 
ATOM     10  F2  UNL d   1       1.852  -0.398  -0.936  0.00  0.00    -0.096 F 
ATOM     11  F3  UNL d   1       2.049  -0.059   1.744  0.00  0.00    -0.097 F 
ATOM     12  F4  UNL d   1      -0.195   0.259   3.263  0.00  0.00    -0.092 F 
ENDROOT
TORSDOF 0
ENDMDL
