MODEL 1
REMARK minimizedAffinity 7.91125727
REMARK minimizedRMSD -1
REMARK  0 active torsions:
REMARK  status: ('A' for Active; 'I' for Inactive)
ROOT
ATOM      1  C   UNL d   1       0.597   0.513   1.617  0.00  0.00     0.124 A 
ATOM      2  C1  UNL d   1       0.666   0.093   2.939  0.00  0.00     0.062 A 
ATOM      3  C2  UNL d   1      -0.399  -0.599   3.509  0.00  0.00     0.162 A 
ATOM      4  C3  UNL d   1      -1.541  -0.877   2.759  0.00  0.00    -0.034 A 
ATOM      5  C4  UNL d   1      -1.603  -0.450   1.431  0.00  0.00     0.162 A 
ATOM      6  C5  UNL d   1      -0.536   0.241   0.865  0.00  0.00     0.062 A 
ATOM      7  F   UNL d   1      -0.604   0.645  -0.412  0.00  0.00    -0.097 F 
ATOM      8  F1  UNL d   1      -2.686  -0.701   0.680  0.00  0.00    -0.096 F 
ATOM      9  I   UNL d   1      -3.135  -1.911   3.608  0.00  0.00    -0.060 I 
ATOM     10  F2  UNL d   1      -0.305  -0.992   4.788  0.00  0.00    -0.096 F 
ATOM     11  F3  UNL d   1       1.760   0.356   3.668  0.00  0.00    -0.097 F 
ATOM     12  F4  UNL d   1       1.623   1.179   1.071  0.00  0.00    -0.092 F 
ENDROOT
TORSDOF 0
ENDMDL
