MODEL 1
REMARK minimizedAffinity -2.5076139
REMARK minimizedRMSD -1
REMARK  0 active torsions:
REMARK  status: ('A' for Active; 'I' for Inactive)
ROOT
ATOM      1  C   UNL d   1       0.689  -1.694   0.074  0.00  0.00     0.124 A 
ATOM      2  C1  UNL d   1       1.627  -1.136   0.931  0.00  0.00     0.062 A 
ATOM      3  C2  UNL d   1       1.268  -0.091   1.778  0.00  0.00     0.162 A 
ATOM      4  C3  UNL d   1      -0.036   0.403   1.772  0.00  0.00    -0.034 A 
ATOM      5  C4  UNL d   1      -0.974  -0.162   0.906  0.00  0.00     0.162 A 
ATOM      6  C5  UNL d   1      -0.611  -1.206   0.063  0.00  0.00     0.062 A 
ATOM      7  F   UNL d   1      -1.519  -1.744  -0.765  0.00  0.00    -0.097 F 
ATOM      8  F1  UNL d   1      -2.237   0.289   0.875  0.00  0.00    -0.096 F 
ATOM      9  I   UNL d   1      -0.576   1.966   3.036  0.00  0.00    -0.060 I 
ATOM     10  F2  UNL d   1       2.196   0.429   2.595  0.00  0.00    -0.096 F 
ATOM     11  F3  UNL d   1       2.883  -1.605   0.944  0.00  0.00    -0.097 F 
ATOM     12  F4  UNL d   1       1.037  -2.699  -0.739  0.00  0.00    -0.092 F 
ENDROOT
TORSDOF 0
ENDMDL
