MODEL 1
REMARK minimizedAffinity 0.600948095
REMARK minimizedRMSD -1
REMARK  0 active torsions:
REMARK  status: ('A' for Active; 'I' for Inactive)
ROOT
ATOM      1  C   UNL d   1      -1.649   0.551   1.643  0.00  0.00     0.124 A 
ATOM      2  C1  UNL d   1      -0.634   1.138   2.386  0.00  0.00     0.062 A 
ATOM      3  C2  UNL d   1       0.686   0.732   2.212  0.00  0.00     0.162 A 
ATOM      4  C3  UNL d   1       0.999  -0.266   1.289  0.00  0.00    -0.034 A 
ATOM      5  C4  UNL d   1      -0.027  -0.852   0.546  0.00  0.00     0.162 A 
ATOM      6  C5  UNL d   1      -1.344  -0.443   0.724  0.00  0.00     0.062 A 
ATOM      7  F   UNL d   1      -2.323  -1.011   0.004  0.00  0.00    -0.097 F 
ATOM      8  F1  UNL d   1       0.239  -1.814  -0.350  0.00  0.00    -0.096 F 
ATOM      9  I   UNL d   1       2.972  -0.875   1.025  0.00  0.00    -0.060 I 
ATOM     10  F2  UNL d   1       1.646   1.317   2.944  0.00  0.00    -0.096 F 
ATOM     11  F3  UNL d   1      -0.926   2.098   3.276  0.00  0.00    -0.097 F 
ATOM     12  F4  UNL d   1      -2.918   0.942   1.813  0.00  0.00    -0.092 F 
ENDROOT
TORSDOF 0
ENDMDL
