MODEL 1
REMARK minimizedAffinity -5.70658875
REMARK minimizedRMSD -1
REMARK  1 active torsions:
REMARK  status: ('A' for Active; 'I' for Inactive)
REMARK    1  A    between atoms: C1_2  and  C2_3 
ROOT
ATOM      1  C2  UNL d   1       1.022   0.188  -1.053  0.00  0.00    -0.081 A 
ATOM      2  C3  UNL d   1      -0.371   0.095  -1.166  0.00  0.00     0.006 A 
ATOM      3  C4  UNL d   1      -1.187   0.298  -0.051  0.00  0.00     0.002 A 
ATOM      4  C5  UNL d   1      -0.626   0.605   1.193  0.00  0.00    -0.080 A 
ATOM      5  C6  UNL d   1      -1.493   0.855   2.391  0.00  0.00     0.076 C 
ATOM      6  C7  UNL d   1       0.766   0.680   1.310  0.00  0.00     0.002 A 
ATOM      7  C8  UNL d   1       1.583   0.477   0.196  0.00  0.00     0.006 A 
ENDROOT
BRANCH   1   8
ATOM      8  C1  UNL d   1       1.902   0.033  -2.267  0.00  0.00     0.054 C 
ATOM      9  C   UNL d   1       1.095   0.146  -3.553  0.00  0.00     0.018 C 
ENDBRANCH   1   8
TORSDOF 1
ENDMDL
