MODEL 1
REMARK minimizedAffinity -5.13675976
REMARK minimizedRMSD -1
REMARK  1 active torsions:
REMARK  status: ('A' for Active; 'I' for Inactive)
REMARK    1  A    between atoms: C1_2  and  C2_3 
ROOT
ATOM      1  C2  UNL d   1      -0.092   0.091  -0.144  0.00  0.00    -0.081 A 
ATOM      2  C3  UNL d   1      -1.362   0.421   0.344  0.00  0.00     0.006 A 
ATOM      3  C4  UNL d   1      -1.531   0.807   1.676  0.00  0.00     0.002 A 
ATOM      4  C5  UNL d   1      -0.432   0.878   2.539  0.00  0.00    -0.080 A 
ATOM      5  C6  UNL d   1      -0.595   1.320   3.963  0.00  0.00     0.076 C 
ATOM      6  C7  UNL d   1       0.835   0.531   2.056  0.00  0.00     0.002 A 
ATOM      7  C8  UNL d   1       1.004   0.145   0.724  0.00  0.00     0.006 A 
ENDROOT
BRANCH   1   8
ATOM      8  C1  UNL d   1       0.103  -0.263  -1.597  0.00  0.00     0.054 C 
ATOM      9  C   UNL d   1       0.918   0.799  -2.321  0.00  0.00     0.018 C 
ENDBRANCH   1   8
TORSDOF 1
ENDMDL
