MODEL 1
REMARK minimizedAffinity -5.33495855
REMARK minimizedRMSD -1
REMARK  1 active torsions:
REMARK  status: ('A' for Active; 'I' for Inactive)
REMARK    1  A    between atoms: C1_2  and  C2_3 
ROOT
ATOM      1  C2  UNL d   1       0.725   0.703  -1.984  0.00  0.00    -0.081 A 
ATOM      2  C3  UNL d   1      -0.227   1.670  -1.636  0.00  0.00     0.006 A 
ATOM      3  C4  UNL d   1      -1.088   1.460  -0.557  0.00  0.00     0.002 A 
ATOM      4  C5  UNL d   1      -1.008   0.284   0.197  0.00  0.00    -0.080 A 
ATOM      5  C6  UNL d   1      -1.907   0.059   1.376  0.00  0.00     0.076 C 
ATOM      6  C7  UNL d   1      -0.069  -0.689  -0.161  0.00  0.00     0.002 A 
ATOM      7  C8  UNL d   1       0.793  -0.480  -1.240  0.00  0.00     0.006 A 
ENDROOT
BRANCH   1   8
ATOM      8  C1  UNL d   1       1.699   0.955  -3.106  0.00  0.00     0.054 C 
ATOM      9  C   UNL d   1       0.978   1.349  -4.387  0.00  0.00     0.018 C 
ENDBRANCH   1   8
TORSDOF 1
ENDMDL
