MODEL 1
REMARK minimizedAffinity -2.48021817
REMARK minimizedRMSD -1
REMARK  1 active torsions:
REMARK  status: ('A' for Active; 'I' for Inactive)
REMARK    1  A    between atoms: C1_2  and  C2_3 
ROOT
ATOM      1  C2  UNL d   1       0.608   0.447  -1.917  0.00  0.00    -0.081 A 
ATOM      2  C3  UNL d   1       0.566  -0.719  -1.142  0.00  0.00     0.006 A 
ATOM      3  C4  UNL d   1      -0.147  -0.747   0.058  0.00  0.00     0.002 A 
ATOM      4  C5  UNL d   1      -0.837   0.387   0.500  0.00  0.00    -0.080 A 
ATOM      5  C6  UNL d   1      -1.631   0.362   1.772  0.00  0.00     0.076 C 
ATOM      6  C7  UNL d   1      -0.781   1.558  -0.265  0.00  0.00     0.002 A 
ATOM      7  C8  UNL d   1      -0.068   1.586  -1.465  0.00  0.00     0.006 A 
ENDROOT
BRANCH   1   8
ATOM      8  C1  UNL d   1       1.322   0.460  -3.244  0.00  0.00     0.054 C 
ATOM      9  C   UNL d   1       0.512   1.196  -4.301  0.00  0.00     0.018 C 
ENDBRANCH   1   8
TORSDOF 1
ENDMDL
