MODEL 1
REMARK minimizedAffinity -4.41126013
REMARK minimizedRMSD -1
REMARK  1 active torsions:
REMARK  status: ('A' for Active; 'I' for Inactive)
REMARK    1  A    between atoms: C1_2  and  C2_3 
ROOT
ATOM      1  C2  UNL d   1      -0.229   0.035   0.522  0.00  0.00    -0.081 A 
ATOM      2  C3  UNL d   1      -1.507   0.192   1.074  0.00  0.00     0.006 A 
ATOM      3  C4  UNL d   1      -1.675   0.853   2.293  0.00  0.00     0.002 A 
ATOM      4  C5  UNL d   1      -0.572   1.375   2.976  0.00  0.00    -0.080 A 
ATOM      5  C6  UNL d   1      -0.742   2.113   4.270  0.00  0.00     0.076 C 
ATOM      6  C7  UNL d   1       0.706   1.203   2.433  0.00  0.00     0.002 A 
ATOM      7  C8  UNL d   1       0.876   0.541   1.215  0.00  0.00     0.006 A 
ENDROOT
BRANCH   1   8
ATOM      8  C1  UNL d   1      -0.051  -0.620  -0.824  0.00  0.00     0.054 C 
ATOM      9  C   UNL d   1       0.945   0.145  -1.684  0.00  0.00     0.018 C 
ENDBRANCH   1   8
TORSDOF 1
ENDMDL
