MODEL 1
REMARK minimizedAffinity -1.63189054
REMARK minimizedRMSD -1
REMARK  1 active torsions:
REMARK  status: ('A' for Active; 'I' for Inactive)
REMARK    1  A    between atoms: C1_2  and  C2_3 
ROOT
ATOM      1  C2  UNL d   1       0.143   0.184  -0.136  0.00  0.00    -0.081 A 
ATOM      2  C3  UNL d   1       0.288  -0.987  -0.889  0.00  0.00     0.006 A 
ATOM      3  C4  UNL d   1       0.725  -0.926  -2.215  0.00  0.00     0.002 A 
ATOM      4  C5  UNL d   1       1.032   0.304  -2.806  0.00  0.00    -0.080 A 
ATOM      5  C6  UNL d   1       1.531   0.381  -4.218  0.00  0.00     0.076 C 
ATOM      6  C7  UNL d   1       0.870   1.476  -2.058  0.00  0.00     0.002 A 
ATOM      7  C8  UNL d   1       0.432   1.416  -0.733  0.00  0.00     0.006 A 
ENDROOT
BRANCH   1   8
ATOM      8  C1  UNL d   1      -0.266   0.117   1.314  0.00  0.00     0.054 C 
ATOM      9  C   UNL d   1       0.936  -0.118   2.217  0.00  0.00     0.018 C 
ENDBRANCH   1   8
TORSDOF 1
ENDMDL
