MODEL 1
REMARK minimizedAffinity -1.3188343
REMARK minimizedRMSD -1
REMARK  0 active torsions:
REMARK  status: ('A' for Active; 'I' for Inactive)
ROOT
ATOM      1  C2' OXE d   1      -1.176   1.732  -1.300  0.00  0.00     0.078 C 
ATOM      2  C1' OXE d   1      -0.259  -0.290   0.417  0.00  0.00     0.078 C 
ATOM      3  C1  OXE d   1      -1.698   0.143   0.546  0.00  0.00    -0.078 A 
ATOM      4  C2  OXE d   1      -2.125   1.166  -0.267  0.00  0.00    -0.078 A 
ATOM      5  C3  OXE d   1      -3.458   1.567  -0.227  0.00  0.00     0.003 A 
ATOM      6  C4  OXE d   1      -4.327   1.045   0.739  0.00  0.00    -0.002 A 
ATOM      7  C5  OXE d   1      -3.901   0.030   1.603  0.00  0.00    -0.002 A 
ATOM      8  C6  OXE d   1      -2.605  -0.460   1.491  0.00  0.00     0.003 A 
ENDROOT
TORSDOF 0
ENDMDL
