MODEL 1
REMARK minimizedAffinity -6.02691841
REMARK minimizedRMSD -1
REMARK  0 active torsions:
REMARK  status: ('A' for Active; 'I' for Inactive)
ROOT
ATOM      1  C2' OXE d   1      -0.283  -2.151  -0.703  0.00  0.00     0.078 C 
ATOM      2  C1' OXE d   1      -1.001   0.563  -0.678  0.00  0.00     0.078 C 
ATOM      3  C1  OXE d   1       0.327   0.181  -0.073  0.00  0.00    -0.078 A 
ATOM      4  C2  OXE d   1       0.650  -1.155  -0.048  0.00  0.00    -0.078 A 
ATOM      5  C3  OXE d   1       1.887  -1.556   0.449  0.00  0.00     0.003 A 
ATOM      6  C4  OXE d   1       2.739  -0.629   1.061  0.00  0.00    -0.002 A 
ATOM      7  C5  OXE d   1       2.411   0.731   1.082  0.00  0.00    -0.002 A 
ATOM      8  C6  OXE d   1       1.231   1.157   0.482  0.00  0.00     0.003 A 
ENDROOT
TORSDOF 0
ENDMDL
