MODEL 1
REMARK minimizedAffinity -5.11045265
REMARK minimizedRMSD -1
REMARK  0 active torsions:
REMARK  status: ('A' for Active; 'I' for Inactive)
ROOT
ATOM      1  C2' OXE d   1       3.577  -0.990   0.575  0.00  0.00     0.078 C 
ATOM      2  C1' OXE d   1       2.585   1.628   0.373  0.00  0.00     0.078 C 
ATOM      3  C1  OXE d   1       1.639   0.492   0.075  0.00  0.00    -0.078 A 
ATOM      4  C2  OXE d   1       2.145  -0.784   0.131  0.00  0.00    -0.078 A 
ATOM      5  C3  OXE d   1       1.301  -1.870  -0.082  0.00  0.00     0.003 A 
ATOM      6  C4  OXE d   1      -0.019  -1.671  -0.502  0.00  0.00    -0.002 A 
ATOM      7  C5  OXE d   1      -0.544  -0.378  -0.603  0.00  0.00    -0.002 A 
ATOM      8  C6  OXE d   1       0.258   0.711  -0.278  0.00  0.00     0.003 A 
ENDROOT
TORSDOF 0
ENDMDL
