MODEL 1
REMARK minimizedAffinity -5.44685411
REMARK minimizedRMSD -1
REMARK  0 active torsions:
REMARK  status: ('A' for Active; 'I' for Inactive)
ROOT
ATOM      1  C2' OXE d   1      -0.367  -1.815  -0.551  0.00  0.00     0.078 C 
ATOM      2  C1' OXE d   1       1.942  -1.216   0.930  0.00  0.00     0.078 C 
ATOM      3  C1  OXE d   1       1.283  -0.093   0.168  0.00  0.00    -0.078 A 
ATOM      4  C2  OXE d   1       0.181  -0.405  -0.591  0.00  0.00    -0.078 A 
ATOM      5  C3  OXE d   1      -0.496   0.604  -1.269  0.00  0.00     0.003 A 
ATOM      6  C4  OXE d   1       0.023   1.904  -1.309  0.00  0.00    -0.002 A 
ATOM      7  C5  OXE d   1       1.167   2.234  -0.575  0.00  0.00    -0.002 A 
ATOM      8  C6  OXE d   1       1.783   1.259   0.202  0.00  0.00     0.003 A 
ENDROOT
TORSDOF 0
ENDMDL
