MODEL 1
REMARK minimizedAffinity 0.669307411
REMARK minimizedRMSD -1
REMARK  0 active torsions:
REMARK  status: ('A' for Active; 'I' for Inactive)
ROOT
ATOM      1  C2' OXE d   1       3.005  -1.155  -0.293  0.00  0.00     0.078 C 
ATOM      2  C1' OXE d   1       3.200   1.612   0.141  0.00  0.00     0.078 C 
ATOM      3  C1  OXE d   1       1.822   1.022  -0.032  0.00  0.00    -0.078 A 
ATOM      4  C2  OXE d   1       1.739  -0.325  -0.290  0.00  0.00    -0.078 A 
ATOM      5  C3  OXE d   1       0.490  -0.929  -0.402  0.00  0.00     0.003 A 
ATOM      6  C4  OXE d   1      -0.675  -0.153  -0.408  0.00  0.00    -0.002 A 
ATOM      7  C5  OXE d   1      -0.610   1.227  -0.187  0.00  0.00    -0.002 A 
ATOM      8  C6  OXE d   1       0.625   1.822   0.045  0.00  0.00     0.003 A 
ENDROOT
TORSDOF 0
ENDMDL
