MODEL 1
REMARK minimizedAffinity -5.75015163
REMARK minimizedRMSD -1
REMARK  0 active torsions:
REMARK  status: ('A' for Active; 'I' for Inactive)
ROOT
ATOM      1  C2' OXE d   1      -0.810  -1.470  -1.796  0.00  0.00     0.078 C 
ATOM      2  C1' OXE d   1      -1.087   1.050  -0.590  0.00  0.00     0.078 C 
ATOM      3  C1  OXE d   1       0.128   0.230  -0.235  0.00  0.00    -0.078 A 
ATOM      4  C2  OXE d   1       0.232  -1.021  -0.794  0.00  0.00    -0.078 A 
ATOM      5  C3  OXE d   1       1.361  -1.797  -0.543  0.00  0.00     0.003 A 
ATOM      6  C4  OXE d   1       2.314  -1.379   0.392  0.00  0.00    -0.002 A 
ATOM      7  C5  OXE d   1       2.207  -0.125   1.003  0.00  0.00    -0.002 A 
ATOM      8  C6  OXE d   1       1.145   0.708   0.669  0.00  0.00     0.003 A 
ENDROOT
TORSDOF 0
ENDMDL
