MODEL 1
REMARK minimizedAffinity -4.9666419
REMARK minimizedRMSD -1
REMARK  0 active torsions:
REMARK  status: ('A' for Active; 'I' for Inactive)
ROOT
ATOM      1  C2' OXE d   1       2.438  -1.952  -0.139  0.00  0.00     0.078 C 
ATOM      2  C1' OXE d   1      -0.208  -2.375  -0.974  0.00  0.00     0.078 C 
ATOM      3  C1  OXE d   1       0.099  -1.101  -0.228  0.00  0.00    -0.078 A 
ATOM      4  C2  OXE d   1       1.386  -0.924   0.218  0.00  0.00    -0.078 A 
ATOM      5  C3  OXE d   1       1.736   0.259   0.864  0.00  0.00     0.003 A 
ATOM      6  C4  OXE d   1       0.755   1.200   1.198  0.00  0.00    -0.002 A 
ATOM      7  C5  OXE d   1      -0.571   1.020   0.789  0.00  0.00    -0.002 A 
ATOM      8  C6  OXE d   1      -0.906  -0.102   0.040  0.00  0.00     0.003 A 
ENDROOT
TORSDOF 0
ENDMDL
