MODEL 1
REMARK minimizedAffinity 12.0859594
REMARK minimizedRMSD -1
REMARK  0 active torsions:
REMARK  status: ('A' for Active; 'I' for Inactive)
ROOT
ATOM      1  C1  BNZ d   1       1.838   0.937  -2.322  0.00  0.00     0.000 A 
ATOM      2  C2  BNZ d   1       1.384   0.632  -1.067  0.00  0.00     0.000 A 
ATOM      3  C3  BNZ d   1       1.332   1.586  -0.090  0.00  0.00     0.000 A 
ATOM      4  C4  BNZ d   1       1.772   2.833  -0.357  0.00  0.00     0.000 A 
ATOM      5  C5  BNZ d   1       2.242   3.154  -1.615  0.00  0.00     0.000 A 
ATOM      6  C6  BNZ d   1       2.256   2.200  -2.607  0.00  0.00     0.000 A 
ENDROOT
TORSDOF 0
ENDMDL
