MODEL 1
REMARK minimizedAffinity 2.30253506
REMARK minimizedRMSD -1
REMARK  0 active torsions:
REMARK  status: ('A' for Active; 'I' for Inactive)
ROOT
ATOM      1  C1  BNZ d   1       4.312   3.315  -5.954  0.00  0.00     0.000 A 
ATOM      2  C2  BNZ d   1       2.982   3.643  -5.959  0.00  0.00     0.000 A 
ATOM      3  C3  BNZ d   1       2.585   4.950  -5.995  0.00  0.00     0.000 A 
ATOM      4  C4  BNZ d   1       3.515   5.927  -5.985  0.00  0.00     0.000 A 
ATOM      5  C5  BNZ d   1       4.859   5.612  -5.971  0.00  0.00     0.000 A 
ATOM      6  C6  BNZ d   1       5.256   4.294  -5.974  0.00  0.00     0.000 A 
ENDROOT
TORSDOF 0
ENDMDL
