MODEL 1
REMARK minimizedAffinity 0.583917022
REMARK minimizedRMSD -1
REMARK  0 active torsions:
REMARK  status: ('A' for Active; 'I' for Inactive)
ROOT
ATOM      1  C1  BNZ d   1       0.142   1.842  -2.635  0.00  0.00     0.000 A 
ATOM      2  C2  BNZ d   1       0.866   0.986  -3.423  0.00  0.00     0.000 A 
ATOM      3  C3  BNZ d   1       2.165   0.688  -3.122  0.00  0.00     0.000 A 
ATOM      4  C4  BNZ d   1       2.751   1.275  -2.059  0.00  0.00     0.000 A 
ATOM      5  C5  BNZ d   1       2.038   2.147  -1.260  0.00  0.00     0.000 A 
ATOM      6  C6  BNZ d   1       0.719   2.415  -1.544  0.00  0.00     0.000 A 
ENDROOT
TORSDOF 0
ENDMDL
