MODEL 1
REMARK minimizedAffinity -1.85593128
REMARK minimizedRMSD -1
REMARK  0 active torsions:
REMARK  status: ('A' for Active; 'I' for Inactive)
ROOT
ATOM      1  C1  BNZ d   1      -1.173   3.668  -5.996  0.00  0.00     0.000 A 
ATOM      2  C2  BNZ d   1      -1.133   5.037  -6.000  0.00  0.00     0.000 A 
ATOM      3  C3  BNZ d   1      -2.285   5.771  -5.979  0.00  0.00     0.000 A 
ATOM      4  C4  BNZ d   1      -3.476   5.137  -5.995  0.00  0.00     0.000 A 
ATOM      5  C5  BNZ d   1      -3.533   3.758  -6.000  0.00  0.00     0.000 A 
ATOM      6  C6  BNZ d   1      -2.371   3.022  -5.981  0.00  0.00     0.000 A 
ENDROOT
TORSDOF 0
ENDMDL
