MODEL 1
REMARK minimizedAffinity 8.19993114
REMARK minimizedRMSD -1
REMARK  0 active torsions:
REMARK  status: ('A' for Active; 'I' for Inactive)
ROOT
ATOM      1  C1  BNZ d   1      -2.791   2.628  -0.647  0.00  0.00     0.000 A 
ATOM      2  C2  BNZ d   1      -4.139   2.734  -0.862  0.00  0.00     0.000 A 
ATOM      3  C3  BNZ d   1      -5.030   2.093  -0.048  0.00  0.00     0.000 A 
ATOM      4  C4  BNZ d   1      -4.572   1.316   0.954  0.00  0.00     0.000 A 
ATOM      5  C5  BNZ d   1      -3.216   1.191   1.178  0.00  0.00     0.000 A 
ATOM      6  C6  BNZ d   1      -2.322   1.869   0.381  0.00  0.00     0.000 A 
ENDROOT
TORSDOF 0
ENDMDL
