MODEL 1
REMARK minimizedAffinity -1.61539352
REMARK minimizedRMSD -1
REMARK  0 active torsions:
REMARK  status: ('A' for Active; 'I' for Inactive)
ROOT
ATOM      1  C1  BNZ d   1       1.817   2.747  -2.530  0.00  0.00     0.000 A 
ATOM      2  C2  BNZ d   1       2.923   3.060  -1.787  0.00  0.00     0.000 A 
ATOM      3  C3  BNZ d   1       3.829   3.981  -2.233  0.00  0.00     0.000 A 
ATOM      4  C4  BNZ d   1       3.649   4.558  -3.438  0.00  0.00     0.000 A 
ATOM      5  C5  BNZ d   1       2.543   4.247  -4.204  0.00  0.00     0.000 A 
ATOM      6  C6  BNZ d   1       1.613   3.348  -3.734  0.00  0.00     0.000 A 
ENDROOT
TORSDOF 0
ENDMDL
