MODEL 1
REMARK minimizedAffinity 2.86676669
REMARK minimizedRMSD -1
REMARK  0 active torsions:
REMARK  status: ('A' for Active; 'I' for Inactive)
ROOT
ATOM      1  C1  BNZ d   1       0.018   4.073  -5.985  0.00  0.00     0.000 A 
ATOM      2  C2  BNZ d   1      -0.988   3.143  -5.980  0.00  0.00     0.000 A 
ATOM      3  C3  BNZ d   1      -2.299   3.530  -5.999  0.00  0.00     0.000 A 
ATOM      4  C4  BNZ d   1      -2.603   4.844  -5.983  0.00  0.00     0.000 A 
ATOM      5  C5  BNZ d   1      -1.601   5.793  -5.979  0.00  0.00     0.000 A 
ATOM      6  C6  BNZ d   1      -0.282   5.401  -5.999  0.00  0.00     0.000 A 
ENDROOT
TORSDOF 0
ENDMDL
