MODEL 1
REMARK minimizedAffinity 0.0838011429
REMARK minimizedRMSD -1
REMARK  0 active torsions:
REMARK  status: ('A' for Active; 'I' for Inactive)
ROOT
ATOM      1  C1  BNZ d   1      -3.012  -3.457  -0.415  0.00  0.00     0.000 A 
ATOM      2  C2  BNZ d   1      -2.321  -4.576  -0.794  0.00  0.00     0.000 A 
ATOM      3  C3  BNZ d   1      -2.922  -5.804  -0.793  0.00  0.00     0.000 A 
ATOM      4  C4  BNZ d   1      -4.199  -5.916  -0.376  0.00  0.00     0.000 A 
ATOM      5  C5  BNZ d   1      -4.907  -4.798   0.018  0.00  0.00     0.000 A 
ATOM      6  C6  BNZ d   1      -4.311  -3.559  -0.021  0.00  0.00     0.000 A 
ENDROOT
TORSDOF 0
ENDMDL
