MODEL 1
REMARK minimizedAffinity -0.128381103
REMARK minimizedRMSD -1
REMARK  0 active torsions:
REMARK  status: ('A' for Active; 'I' for Inactive)
ROOT
ATOM      1  C1  BNZ d   1      -2.090   3.629  -5.714  0.00  0.00     0.000 A 
ATOM      2  C2  BNZ d   1      -2.713   4.814  -6.000  0.00  0.00     0.000 A 
ATOM      3  C3  BNZ d   1      -2.035   5.998  -5.924  0.00  0.00     0.000 A 
ATOM      4  C4  BNZ d   1      -0.746   5.999  -5.525  0.00  0.00     0.000 A 
ATOM      5  C5  BNZ d   1      -0.106   4.813  -5.225  0.00  0.00     0.000 A 
ATOM      6  C6  BNZ d   1      -0.782   3.620  -5.340  0.00  0.00     0.000 A 
ENDROOT
TORSDOF 0
ENDMDL
