MODEL 1
REMARK minimizedAffinity 1.05616391
REMARK minimizedRMSD -1
REMARK  0 active torsions:
REMARK  status: ('A' for Active; 'I' for Inactive)
ROOT
ATOM      1  C1  BNZ d   1      -4.734   5.837  -5.965  0.00  0.00     0.000 A 
ATOM      2  C2  BNZ d   1      -5.273   4.578  -5.975  0.00  0.00     0.000 A 
ATOM      3  C3  BNZ d   1      -4.469   3.472  -5.973  0.00  0.00     0.000 A 
ATOM      4  C4  BNZ d   1      -3.129   3.627  -6.000  0.00  0.00     0.000 A 
ATOM      5  C5  BNZ d   1      -2.571   4.890  -5.999  0.00  0.00     0.000 A 
ATOM      6  C6  BNZ d   1      -3.383   6.000  -5.962  0.00  0.00     0.000 A 
ENDROOT
TORSDOF 0
ENDMDL
