MODEL 1
REMARK minimizedAffinity 0.94355309
REMARK minimizedRMSD -1
REMARK  0 active torsions:
REMARK  status: ('A' for Active; 'I' for Inactive)
ROOT
ATOM      1  C1  BNZ d   1      -2.081   4.755  -5.821  0.00  0.00     0.000 A 
ATOM      2  C2  BNZ d   1      -1.343   3.619  -5.626  0.00  0.00     0.000 A 
ATOM      3  C3  BNZ d   1       0.023   3.669  -5.591  0.00  0.00     0.000 A 
ATOM      4  C4  BNZ d   1       0.648   4.847  -5.792  0.00  0.00     0.000 A 
ATOM      5  C5  BNZ d   1      -0.082   6.000  -5.999  0.00  0.00     0.000 A 
ATOM      6  C6  BNZ d   1      -1.457   5.952  -5.995  0.00  0.00     0.000 A 
ENDROOT
TORSDOF 0
ENDMDL
