MODEL 1
REMARK minimizedAffinity 2.7921319
REMARK minimizedRMSD -1
REMARK  0 active torsions:
REMARK  status: ('A' for Active; 'I' for Inactive)
ROOT
ATOM      1  C1  BNZ d   1      -1.486   2.717  -5.437  0.00  0.00     0.000 A 
ATOM      2  C2  BNZ d   1      -1.488   3.966  -5.999  0.00  0.00     0.000 A 
ATOM      3  C3  BNZ d   1      -0.362   4.741  -5.985  0.00  0.00     0.000 A 
ATOM      4  C4  BNZ d   1       0.750   4.284  -5.375  0.00  0.00     0.000 A 
ATOM      5  C5  BNZ d   1       0.765   3.031  -4.796  0.00  0.00     0.000 A 
ATOM      6  C6  BNZ d   1      -0.358   2.238  -4.846  0.00  0.00     0.000 A 
ENDROOT
TORSDOF 0
ENDMDL
