MODEL 1
REMARK minimizedAffinity 4.03463078
REMARK minimizedRMSD -1
REMARK  0 active torsions:
REMARK  status: ('A' for Active; 'I' for Inactive)
ROOT
ATOM      1  C1  BNZ d   1      -2.442   5.025  -5.998  0.00  0.00     0.000 A 
ATOM      2  C2  BNZ d   1      -2.085   3.703  -5.971  0.00  0.00     0.000 A 
ATOM      3  C3  BNZ d   1      -0.769   3.335  -5.932  0.00  0.00     0.000 A 
ATOM      4  C4  BNZ d   1       0.187   4.286  -5.960  0.00  0.00     0.000 A 
ATOM      5  C5  BNZ d   1      -0.157   5.622  -5.997  0.00  0.00     0.000 A 
ATOM      6  C6  BNZ d   1      -1.483   5.990  -5.997  0.00  0.00     0.000 A 
ENDROOT
TORSDOF 0
ENDMDL
