MODEL 1
REMARK minimizedAffinity 12.1631088
REMARK minimizedRMSD -1
REMARK  0 active torsions:
REMARK  status: ('A' for Active; 'I' for Inactive)
ROOT
ATOM      1  N1  IND d   1       2.700   1.715   3.586  0.00  0.00    -0.196 N 
ATOM      2  C2  IND d   1       2.148   2.964   3.639  0.00  0.00     0.054 A 
ATOM      3  C3  IND d   1       1.680   3.324   2.423  0.00  0.00    -0.031 A 
ATOM      4  C4  IND d   1       1.625   1.979   0.229  0.00  0.00     0.051 A 
ATOM      5  C5  IND d   1       2.044   0.802  -0.324  0.00  0.00    -0.031 A 
ATOM      6  C6  IND d   1       2.715  -0.152   0.414  0.00  0.00     0.015 A 
ATOM      7  C7  IND d   1       2.982   0.032   1.741  0.00  0.00    -0.016 A 
ATOM      8  C8  IND d   1       2.564   1.230   2.304  0.00  0.00    -0.047 A 
ATOM      9  C9  IND d   1       1.920   2.220   1.550  0.00  0.00    -0.096 A 
ATOM     10  HN1 IND d   1       3.070   1.301   4.243  0.00  0.00     0.298 HD
ENDROOT
TORSDOF 0
ENDMDL
