MODEL 1
REMARK minimizedAffinity 12.2350378
REMARK minimizedRMSD -1
REMARK  0 active torsions:
REMARK  status: ('A' for Active; 'I' for Inactive)
ROOT
ATOM      1  N1  IND d   1      -0.895   1.313  -2.171  0.00  0.00    -0.196 N 
ATOM      2  C2  IND d   1      -2.225   1.004  -2.219  0.00  0.00     0.054 A 
ATOM      3  C3  IND d   1      -2.721   0.865  -0.968  0.00  0.00    -0.031 A 
ATOM      4  C4  IND d   1      -1.552   1.201   1.301  0.00  0.00     0.051 A 
ATOM      5  C5  IND d   1      -0.329   1.453   1.855  0.00  0.00    -0.031 A 
ATOM      6  C6  IND d   1       0.791   1.679   1.080  0.00  0.00     0.015 A 
ATOM      7  C7  IND d   1       0.725   1.672  -0.284  0.00  0.00    -0.016 A 
ATOM      8  C8  IND d   1      -0.514   1.409  -0.851  0.00  0.00    -0.047 A 
ATOM      9  C9  IND d   1      -1.644   1.138  -0.070  0.00  0.00    -0.096 A 
ATOM     10  HN1 IND d   1      -0.382   1.429  -2.852  0.00  0.00     0.298 HD
ENDROOT
TORSDOF 0
ENDMDL
