MODEL 1
REMARK minimizedAffinity 6.14980936
REMARK minimizedRMSD -1
REMARK  0 active torsions:
REMARK  status: ('A' for Active; 'I' for Inactive)
ROOT
ATOM      1  N1  IND d   1      -2.388   1.239   1.634  0.00  0.00    -0.196 N 
ATOM      2  C2  IND d   1      -3.679   0.804   1.520  0.00  0.00     0.054 A 
ATOM      3  C3  IND d   1      -3.973   0.539   0.227  0.00  0.00    -0.031 A 
ATOM      4  C4  IND d   1      -2.458   0.650  -1.851  0.00  0.00     0.051 A 
ATOM      5  C5  IND d   1      -1.208   1.027  -2.254  0.00  0.00    -0.031 A 
ATOM      6  C6  IND d   1      -0.267   1.501  -1.362  0.00  0.00     0.015 A 
ATOM      7  C7  IND d   1      -0.539   1.605  -0.028  0.00  0.00    -0.016 A 
ATOM      8  C8  IND d   1      -1.810   1.230   0.384  0.00  0.00    -0.047 A 
ATOM      9  C9  IND d   1      -2.783   0.789  -0.522  0.00  0.00    -0.096 A 
ATOM     10  HN1 IND d   1      -2.002   1.478   2.364  0.00  0.00     0.298 HD
ENDROOT
TORSDOF 0
ENDMDL
