MODEL 1
REMARK minimizedAffinity 13.3627234
REMARK minimizedRMSD -1
REMARK  0 active torsions:
REMARK  status: ('A' for Active; 'I' for Inactive)
ROOT
ATOM      1  N1  IND d   1       3.724   4.334   2.405  0.00  0.00    -0.196 N 
ATOM      2  C2  IND d   1       4.348   5.264   1.621  0.00  0.00     0.054 A 
ATOM      3  C3  IND d   1       5.216   5.994   2.357  0.00  0.00    -0.031 A 
ATOM      4  C4  IND d   1       5.845   5.768   4.843  0.00  0.00     0.051 A 
ATOM      5  C5  IND d   1       5.514   5.086   5.980  0.00  0.00    -0.031 A 
ATOM      6  C6  IND d   1       4.552   4.097   5.983  0.00  0.00     0.015 A 
ATOM      7  C7  IND d   1       3.890   3.744   4.841  0.00  0.00    -0.016 A 
ATOM      8  C8  IND d   1       4.218   4.439   3.686  0.00  0.00    -0.047 A 
ATOM      9  C9  IND d   1       5.164   5.472   3.686  0.00  0.00    -0.096 A 
ATOM     10  HN1 IND d   1       3.123   3.778   2.142  0.00  0.00     0.298 HD
ENDROOT
TORSDOF 0
ENDMDL
