MODEL 1
REMARK minimizedAffinity 1.18094409
REMARK minimizedRMSD -1
REMARK  0 active torsions:
REMARK  status: ('A' for Active; 'I' for Inactive)
ROOT
ATOM      1  N1  IND d   1       2.400   2.739   0.188  0.00  0.00    -0.196 N 
ATOM      2  C2  IND d   1       3.752   2.932   0.258  0.00  0.00     0.054 A 
ATOM      3  C3  IND d   1       4.399   1.745   0.235  0.00  0.00    -0.031 A 
ATOM      4  C4  IND d   1       3.445  -0.633  -0.014  0.00  0.00     0.051 A 
ATOM      5  C5  IND d   1       2.264  -1.319  -0.075  0.00  0.00    -0.031 A 
ATOM      6  C6  IND d   1       1.044  -0.674  -0.054  0.00  0.00     0.015 A 
ATOM      7  C7  IND d   1       0.959   0.687   0.018  0.00  0.00    -0.016 A 
ATOM      8  C8  IND d   1       2.156   1.387   0.087  0.00  0.00    -0.047 A 
ATOM      9  C9  IND d   1       3.396   0.736   0.109  0.00  0.00    -0.096 A 
ATOM     10  HN1 IND d   1       1.804   3.358   0.205  0.00  0.00     0.298 HD
ENDROOT
TORSDOF 0
ENDMDL
