MODEL 1
REMARK minimizedAffinity -5.58115149
REMARK minimizedRMSD -1
REMARK  0 active torsions:
REMARK  status: ('A' for Active; 'I' for Inactive)
ROOT
ATOM      1  N1  IND d   1       2.318  -1.970  -0.489  0.00  0.00    -0.196 N 
ATOM      2  C2  IND d   1       3.092  -1.663   0.596  0.00  0.00     0.054 A 
ATOM      3  C3  IND d   1       2.485  -0.724   1.356  0.00  0.00    -0.031 A 
ATOM      4  C4  IND d   1       0.176   0.374   1.065  0.00  0.00     0.051 A 
ATOM      5  C5  IND d   1      -0.884   0.442   0.204  0.00  0.00    -0.031 A 
ATOM      6  C6  IND d   1      -0.933  -0.307  -0.953  0.00  0.00     0.015 A 
ATOM      7  C7  IND d   1       0.076  -1.165  -1.289  0.00  0.00    -0.016 A 
ATOM      8  C8  IND d   1       1.157  -1.232  -0.421  0.00  0.00    -0.047 A 
ATOM      9  C9  IND d   1       1.231  -0.442   0.733  0.00  0.00    -0.096 A 
ATOM     10  HN1 IND d   1       2.522  -2.529  -1.109  0.00  0.00     0.298 HD
ENDROOT
TORSDOF 0
ENDMDL
