MODEL 1
REMARK minimizedAffinity 9.78091145
REMARK minimizedRMSD -1
REMARK  0 active torsions:
REMARK  status: ('A' for Active; 'I' for Inactive)
ROOT
ATOM      1  C1  DEN d   1       2.768  -5.492  -0.501  0.00  0.00     0.130 A 
ATOM      2  C2  DEN d   1       3.372  -6.000  -1.730  0.00  0.00    -0.031 A 
ATOM      3  C3  DEN d   1       4.270  -4.956  -2.263  0.00  0.00     0.027 A 
ATOM      4  C4  DEN d   1       4.784  -2.616  -1.308  0.00  0.00     0.027 A 
ATOM      5  C5  DEN d   1       4.502  -1.732  -0.290  0.00  0.00    -0.003 A 
ATOM      6  C6  DEN d   1       3.604  -2.023   0.702  0.00  0.00     0.001 A 
ATOM      7  C7  DEN d   1       2.989  -3.247   0.723  0.00  0.00     0.017 A 
ATOM      8  C8  DEN d   1       3.263  -4.141  -0.304  0.00  0.00    -0.094 A 
ATOM      9  C9  DEN d   1       4.183  -3.832  -1.292  0.00  0.00    -0.072 A 
ENDROOT
TORSDOF 0
ENDMDL
