MODEL 1
REMARK minimizedAffinity 0.00229563774
REMARK minimizedRMSD -1
REMARK  0 active torsions:
REMARK  status: ('A' for Active; 'I' for Inactive)
ROOT
ATOM      1  C1  DEN d   1      -4.837   0.526   1.306  0.00  0.00     0.130 A 
ATOM      2  C2  DEN d   1      -5.710   1.689   1.174  0.00  0.00    -0.031 A 
ATOM      3  C3  DEN d   1      -4.913   2.796   0.607  0.00  0.00     0.027 A 
ATOM      4  C4  DEN d   1      -2.427   2.820  -0.080  0.00  0.00     0.027 A 
ATOM      5  C5  DEN d   1      -1.273   2.071  -0.143  0.00  0.00    -0.003 A 
ATOM      6  C6  DEN d   1      -1.218   0.776   0.299  0.00  0.00     0.001 A 
ATOM      7  C7  DEN d   1      -2.349   0.175   0.785  0.00  0.00     0.017 A 
ATOM      8  C8  DEN d   1      -3.515   0.926   0.859  0.00  0.00    -0.094 A 
ATOM      9  C9  DEN d   1      -3.554   2.230   0.394  0.00  0.00    -0.072 A 
ENDROOT
TORSDOF 0
ENDMDL
