MODEL 1
REMARK minimizedAffinity 2.07716203
REMARK minimizedRMSD -1
REMARK  0 active torsions:
REMARK  status: ('A' for Active; 'I' for Inactive)
ROOT
ATOM      1  C1  DEN d   1      -3.843   0.894   1.440  0.00  0.00     0.130 A 
ATOM      2  C2  DEN d   1      -4.686   1.465   0.393  0.00  0.00    -0.031 A 
ATOM      3  C3  DEN d   1      -3.827   2.273  -0.495  0.00  0.00     0.027 A 
ATOM      4  C4  DEN d   1      -1.285   2.690  -0.354  0.00  0.00     0.027 A 
ATOM      5  C5  DEN d   1      -0.142   2.425   0.368  0.00  0.00    -0.003 A 
ATOM      6  C6  DEN d   1      -0.158   1.666   1.508  0.00  0.00     0.001 A 
ATOM      7  C7  DEN d   1      -1.334   1.106   1.934  0.00  0.00     0.017 A 
ATOM      8  C8  DEN d   1      -2.492   1.375   1.216  0.00  0.00    -0.094 A 
ATOM      9  C9  DEN d   1      -2.453   2.135   0.059  0.00  0.00    -0.072 A 
ENDROOT
TORSDOF 0
ENDMDL
