MODEL 1
REMARK minimizedAffinity -4.19411659
REMARK minimizedRMSD -1
REMARK  0 active torsions:
REMARK  status: ('A' for Active; 'I' for Inactive)
ROOT
ATOM      1  C1  DEN d   1      -1.204  -0.786   1.268  0.00  0.00     0.130 A 
ATOM      2  C2  DEN d   1       0.112  -0.221   0.978  0.00  0.00    -0.031 A 
ATOM      3  C3  DEN d   1      -0.084   1.147   0.457  0.00  0.00     0.027 A 
ATOM      4  C4  DEN d   1      -2.283   2.440   0.077  0.00  0.00     0.027 A 
ATOM      5  C5  DEN d   1      -3.656   2.370   0.166  0.00  0.00    -0.003 A 
ATOM      6  C6  DEN d   1      -4.304   1.241   0.592  0.00  0.00     0.001 A 
ATOM      7  C7  DEN d   1      -3.576   0.150   0.989  0.00  0.00     0.017 A 
ATOM      8  C8  DEN d   1      -2.192   0.210   0.896  0.00  0.00    -0.094 A 
ATOM      9  C9  DEN d   1      -1.555   1.365   0.474  0.00  0.00    -0.072 A 
ENDROOT
TORSDOF 0
ENDMDL
