MODEL 1
REMARK minimizedAffinity 6.52802467
REMARK minimizedRMSD -1
REMARK  0 active torsions:
REMARK  status: ('A' for Active; 'I' for Inactive)
ROOT
ATOM      1  C1  DEN d   1      -2.454   0.408   2.298  0.00  0.00     0.130 A 
ATOM      2  C2  DEN d   1      -1.471  -0.628   2.602  0.00  0.00    -0.031 A 
ATOM      3  C3  DEN d   1      -0.248  -0.339   1.827  0.00  0.00     0.027 A 
ATOM      4  C4  DEN d   1       0.218   1.604   0.196  0.00  0.00     0.027 A 
ATOM      5  C5  DEN d   1      -0.318   2.728  -0.393  0.00  0.00    -0.003 A 
ATOM      6  C6  DEN d   1      -1.604   3.135  -0.155  0.00  0.00     0.001 A 
ATOM      7  C7  DEN d   1      -2.383   2.438   0.729  0.00  0.00     0.017 A 
ATOM      8  C8  DEN d   1      -1.853   1.299   1.322  0.00  0.00    -0.094 A 
ATOM      9  C9  DEN d   1      -0.546   0.911   1.078  0.00  0.00    -0.072 A 
ENDROOT
TORSDOF 0
ENDMDL
