MODEL 1
REMARK minimizedAffinity 0.35213384
REMARK minimizedRMSD -1
REMARK  0 active torsions:
REMARK  status: ('A' for Active; 'I' for Inactive)
ROOT
ATOM      1  C1  DEN d   1      -3.914   0.523   0.990  0.00  0.00     0.130 A 
ATOM      2  C2  DEN d   1      -4.973   1.515   0.823  0.00  0.00    -0.031 A 
ATOM      3  C3  DEN d   1      -4.345   2.791   0.427  0.00  0.00     0.027 A 
ATOM      4  C4  DEN d   1      -1.849   3.323   0.053  0.00  0.00     0.027 A 
ATOM      5  C5  DEN d   1      -0.573   2.805   0.087  0.00  0.00    -0.003 A 
ATOM      6  C6  DEN d   1      -0.321   1.510   0.454  0.00  0.00     0.001 A 
ATOM      7  C7  DEN d   1      -1.364   0.675   0.758  0.00  0.00     0.017 A 
ATOM      8  C8  DEN d   1      -2.652   1.193   0.734  0.00  0.00    -0.094 A 
ATOM      9  C9  DEN d   1      -2.888   2.501   0.349  0.00  0.00    -0.072 A 
ENDROOT
TORSDOF 0
ENDMDL
