MODEL 1
REMARK minimizedAffinity -3.9267087
REMARK minimizedRMSD -1
REMARK  0 active torsions:
REMARK  status: ('A' for Active; 'I' for Inactive)
ROOT
ATOM      1  C1  DEN d   1      -4.295   1.201   0.684  0.00  0.00     0.130 A 
ATOM      2  C2  DEN d   1      -4.488   2.377  -0.159  0.00  0.00    -0.031 A 
ATOM      3  C3  DEN d   1      -3.157   2.860  -0.580  0.00  0.00     0.027 A 
ATOM      4  C4  DEN d   1      -0.830   1.902  -0.013  0.00  0.00     0.027 A 
ATOM      5  C5  DEN d   1      -0.159   0.919   0.679  0.00  0.00    -0.003 A 
ATOM      6  C6  DEN d   1      -0.813  -0.012   1.443  0.00  0.00     0.001 A 
ATOM      7  C7  DEN d   1      -2.182  -0.006   1.496  0.00  0.00     0.017 A 
ATOM      8  C8  DEN d   1      -2.865   0.988   0.807  0.00  0.00    -0.094 A 
ATOM      9  C9  DEN d   1      -2.186   1.912   0.031  0.00  0.00    -0.072 A 
ENDROOT
TORSDOF 0
ENDMDL
