MODEL 1
REMARK minimizedAffinity -3.68362117
REMARK minimizedRMSD -1
REMARK  0 active torsions:
REMARK  status: ('A' for Active; 'I' for Inactive)
ROOT
ATOM      1  C1  DEN d   1      -0.044   1.819  -0.148  0.00  0.00     0.130 A 
ATOM      2  C2  DEN d   1       0.544   0.975   0.888  0.00  0.00    -0.031 A 
ATOM      3  C3  DEN d   1      -0.556   0.323   1.626  0.00  0.00     0.027 A 
ATOM      4  C4  DEN d   1      -3.101   0.534   1.263  0.00  0.00     0.027 A 
ATOM      5  C5  DEN d   1      -4.081   1.143   0.511  0.00  0.00    -0.003 A 
ATOM      6  C6  DEN d   1      -3.788   2.039  -0.483  0.00  0.00     0.001 A 
ATOM      7  C7  DEN d   1      -2.480   2.317  -0.782  0.00  0.00     0.017 A 
ATOM      8  C8  DEN d   1      -1.487   1.712  -0.023  0.00  0.00    -0.094 A 
ATOM      9  C9  DEN d   1      -1.803   0.800   0.970  0.00  0.00    -0.072 A 
ENDROOT
TORSDOF 0
ENDMDL
