MODEL 1
REMARK minimizedAffinity 0.0377003402
REMARK minimizedRMSD -1
REMARK  0 active torsions:
REMARK  status: ('A' for Active; 'I' for Inactive)
ROOT
ATOM      1  C1  DEN d   1      -0.141   2.391   1.663  0.00  0.00     0.130 A 
ATOM      2  C2  DEN d   1      -0.993   1.938   0.567  0.00  0.00    -0.031 A 
ATOM      3  C3  DEN d   1      -0.305   0.822  -0.115  0.00  0.00     0.027 A 
ATOM      4  C4  DEN d   1       1.981  -0.244   0.421  0.00  0.00     0.027 A 
ATOM      5  C5  DEN d   1       3.077  -0.191   1.253  0.00  0.00    -0.003 A 
ATOM      6  C6  DEN d   1       3.192   0.741   2.251  0.00  0.00     0.001 A 
ATOM      7  C7  DEN d   1       2.173   1.629   2.470  0.00  0.00     0.017 A 
ATOM      8  C8  DEN d   1       1.067   1.587   1.630  0.00  0.00    -0.094 A 
ATOM      9  C9  DEN d   1       0.965   0.629   0.635  0.00  0.00    -0.072 A 
ENDROOT
TORSDOF 0
ENDMDL
