MODEL 1
REMARK minimizedAffinity 3.00587082
REMARK minimizedRMSD -1
REMARK  0 active torsions:
REMARK  status: ('A' for Active; 'I' for Inactive)
ROOT
ATOM      1  C1  BNZ d   1       2.580   5.832   3.588  0.00  0.00     0.000 A 
ATOM      2  C2  BNZ d   1       1.880   5.697   4.757  0.00  0.00     0.000 A 
ATOM      3  C3  BNZ d   1       2.520   5.738   5.965  0.00  0.00     0.000 A 
ATOM      4  C4  BNZ d   1       3.861   5.872   6.000  0.00  0.00     0.000 A 
ATOM      5  C5  BNZ d   1       4.582   6.000   4.829  0.00  0.00     0.000 A 
ATOM      6  C6  BNZ d   1       3.931   5.998   3.617  0.00  0.00     0.000 A 
ENDROOT
TORSDOF 0
ENDMDL
