MODEL 1
REMARK minimizedAffinity 1.95924234
REMARK minimizedRMSD -1
REMARK  0 active torsions:
REMARK  status: ('A' for Active; 'I' for Inactive)
ROOT
ATOM      1  C1  BNZ d   1      -1.862   4.167  -4.437  0.00  0.00     0.000 A 
ATOM      2  C2  BNZ d   1      -3.203   4.170  -4.155  0.00  0.00     0.000 A 
ATOM      3  C3  BNZ d   1      -3.764   3.168  -3.414  0.00  0.00     0.000 A 
ATOM      4  C4  BNZ d   1      -2.993   2.145  -2.991  0.00  0.00     0.000 A 
ATOM      5  C5  BNZ d   1      -1.642   2.123  -3.275  0.00  0.00     0.000 A 
ATOM      6  C6  BNZ d   1      -1.074   3.154  -3.988  0.00  0.00     0.000 A 
ENDROOT
TORSDOF 0
ENDMDL
