MODEL 1
REMARK minimizedAffinity -0.00105361256
REMARK minimizedRMSD -1
REMARK  0 active torsions:
REMARK  status: ('A' for Active; 'I' for Inactive)
ROOT
ATOM      1  C1  BNZ d   1      -2.463   3.716  -4.129  0.00  0.00     0.000 A 
ATOM      2  C2  BNZ d   1      -3.682   3.367  -3.612  0.00  0.00     0.000 A 
ATOM      3  C3  BNZ d   1      -3.919   2.093  -3.177  0.00  0.00     0.000 A 
ATOM      4  C4  BNZ d   1      -2.951   1.161  -3.296  0.00  0.00     0.000 A 
ATOM      5  C5  BNZ d   1      -1.720   1.496  -3.823  0.00  0.00     0.000 A 
ATOM      6  C6  BNZ d   1      -1.472   2.789  -4.224  0.00  0.00     0.000 A 
ENDROOT
TORSDOF 0
ENDMDL
