MODEL 1
REMARK minimizedAffinity 2.21896744
REMARK minimizedRMSD -1
REMARK  0 active torsions:
REMARK  status: ('A' for Active; 'I' for Inactive)
ROOT
ATOM      1  C1  BNZ d   1       0.307   3.406  -5.963  0.00  0.00     0.000 A 
ATOM      2  C2  BNZ d   1      -0.096   4.714  -5.999  0.00  0.00     0.000 A 
ATOM      3  C3  BNZ d   1      -1.121   5.153  -5.210  0.00  0.00     0.000 A 
ATOM      4  C4  BNZ d   1      -1.769   4.277  -4.416  0.00  0.00     0.000 A 
ATOM      5  C5  BNZ d   1      -1.381   2.952  -4.375  0.00  0.00     0.000 A 
ATOM      6  C6  BNZ d   1      -0.323   2.522  -5.142  0.00  0.00     0.000 A 
ENDROOT
TORSDOF 0
ENDMDL
