MODEL 1
REMARK minimizedAffinity 6.67703819
REMARK minimizedRMSD -1
REMARK  0 active torsions:
REMARK  status: ('A' for Active; 'I' for Inactive)
ROOT
ATOM      1  C   UNL d   1       2.554   1.860  -1.733  0.00  0.00     0.020 A 
ATOM      2  C1  UNL d   1       1.442   1.021  -1.807  0.00  0.00     0.020 A 
ATOM      3  C2  UNL d   1       1.446  -0.205  -1.139  0.00  0.00     0.034 A 
ATOM      4  C3  UNL d   1       2.564  -0.596  -0.393  0.00  0.00     0.017 A 
ATOM      5  C4  UNL d   1       3.679   0.246  -0.318  0.00  0.00     0.017 A 
ATOM      6  C5  UNL d   1       3.670   1.473  -0.990  0.00  0.00     0.034 A 
ATOM      7 Cl   UNL d   1       5.095  -0.168   0.582  0.00  0.00    -0.070 Cl
ATOM      8 Cl1  UNL d   1       2.500  -2.125   0.409  0.00  0.00    -0.070 Cl
ENDROOT
TORSDOF 0
ENDMDL
