MODEL 1
REMARK minimizedAffinity -1.10272622
REMARK minimizedRMSD -1
REMARK  0 active torsions:
REMARK  status: ('A' for Active; 'I' for Inactive)
ROOT
ATOM      1  C   UNL d   1       0.489  -0.594   0.891  0.00  0.00     0.020 A 
ATOM      2  C1  UNL d   1      -0.652  -0.387   1.664  0.00  0.00     0.020 A 
ATOM      3  C2  UNL d   1      -1.132  -1.407   2.489  0.00  0.00     0.034 A 
ATOM      4  C3  UNL d   1      -0.470  -2.638   2.543  0.00  0.00     0.017 A 
ATOM      5  C4  UNL d   1       0.676  -2.846   1.766  0.00  0.00     0.017 A 
ATOM      6  C5  UNL d   1       1.152  -1.821   0.942  0.00  0.00     0.034 A 
ATOM      7 Cl   UNL d   1       1.547  -4.339   1.779  0.00  0.00    -0.070 Cl
ATOM      8 Cl1  UNL d   1      -1.118  -3.855   3.585  0.00  0.00    -0.070 Cl
ENDROOT
TORSDOF 0
ENDMDL
