MODEL 1
REMARK minimizedAffinity 3.4365356
REMARK minimizedRMSD -1
REMARK  0 active torsions:
REMARK  status: ('A' for Active; 'I' for Inactive)
ROOT
ATOM      1  C   UNL d   1       1.472  -3.354   1.597  0.00  0.00     0.020 A 
ATOM      2  C1  UNL d   1       0.589  -3.328   2.677  0.00  0.00     0.020 A 
ATOM      3  C2  UNL d   1      -0.405  -2.349   2.742  0.00  0.00     0.034 A 
ATOM      4  C3  UNL d   1      -0.518  -1.393   1.726  0.00  0.00     0.017 A 
ATOM      5  C4  UNL d   1       0.368  -1.420   0.644  0.00  0.00     0.017 A 
ATOM      6  C5  UNL d   1       1.361  -2.403   0.583  0.00  0.00     0.034 A 
ATOM      7 Cl   UNL d   1       0.289  -0.274  -0.648  0.00  0.00    -0.070 Cl
ATOM      8 Cl1  UNL d   1      -1.771  -0.212   1.872  0.00  0.00    -0.070 Cl
ENDROOT
TORSDOF 0
ENDMDL
