MODEL 1
REMARK minimizedAffinity 4.51199818
REMARK minimizedRMSD -1
REMARK  0 active torsions:
REMARK  status: ('A' for Active; 'I' for Inactive)
ROOT
ATOM      1  C   UNL d   1       0.381  -2.905   2.980  0.00  0.00     0.020 A 
ATOM      2  C1  UNL d   1       1.231  -2.785   1.882  0.00  0.00     0.020 A 
ATOM      3  C2  UNL d   1       1.002  -1.791   0.927  0.00  0.00     0.034 A 
ATOM      4  C3  UNL d   1      -0.079  -0.914   1.070  0.00  0.00     0.017 A 
ATOM      5  C4  UNL d   1      -0.932  -1.035   2.173  0.00  0.00     0.017 A 
ATOM      6  C5  UNL d   1      -0.698  -2.032   3.126  0.00  0.00     0.034 A 
ATOM      7 Cl   UNL d   1      -2.286   0.010   2.418  0.00  0.00    -0.070 Cl
ATOM      8 Cl1  UNL d   1      -0.302   0.291  -0.148  0.00  0.00    -0.070 Cl
ENDROOT
TORSDOF 0
ENDMDL
