MODEL 1
REMARK minimizedAffinity 7.2618432
REMARK minimizedRMSD -1
REMARK  0 active torsions:
REMARK  status: ('A' for Active; 'I' for Inactive)
ROOT
ATOM      1  C   UNL d   1      -1.184  -3.037   3.489  0.00  0.00     0.020 A 
ATOM      2  C1  UNL d   1       0.046  -3.501   3.025  0.00  0.00     0.020 A 
ATOM      3  C2  UNL d   1       0.747  -2.775   2.060  0.00  0.00     0.034 A 
ATOM      4  C3  UNL d   1       0.219  -1.581   1.556  0.00  0.00     0.017 A 
ATOM      5  C4  UNL d   1      -1.016  -1.116   2.022  0.00  0.00     0.017 A 
ATOM      6  C5  UNL d   1      -1.714  -1.847   2.988  0.00  0.00     0.034 A 
ATOM      7 Cl   UNL d   1      -1.733   0.349   1.448  0.00  0.00    -0.070 Cl
ATOM      8 Cl1  UNL d   1       1.140  -0.734   0.364  0.00  0.00    -0.070 Cl
ENDROOT
TORSDOF 0
ENDMDL
