MODEL 1
REMARK minimizedAffinity 1.38765216
REMARK minimizedRMSD -1
REMARK  0 active torsions:
REMARK  status: ('A' for Active; 'I' for Inactive)
ROOT
ATOM      1  C   UNL d   1      -1.396   0.041   1.484  0.00  0.00     0.020 A 
ATOM      2  C1  UNL d   1      -0.293  -0.055   0.636  0.00  0.00     0.020 A 
ATOM      3  C2  UNL d   1       0.558  -1.160   0.719  0.00  0.00     0.034 A 
ATOM      4  C3  UNL d   1       0.307  -2.172   1.653  0.00  0.00     0.017 A 
ATOM      5  C4  UNL d   1      -0.800  -2.075   2.504  0.00  0.00     0.017 A 
ATOM      6  C5  UNL d   1      -1.648  -0.967   2.416  0.00  0.00     0.034 A 
ATOM      7 Cl   UNL d   1      -1.174  -3.284   3.681  0.00  0.00    -0.070 Cl
ATOM      8 Cl1  UNL d   1       1.400  -3.509   1.701  0.00  0.00    -0.070 Cl
ENDROOT
TORSDOF 0
ENDMDL
