MODEL 1
REMARK minimizedAffinity -1.58013344
REMARK minimizedRMSD -1
REMARK  0 active torsions:
REMARK  status: ('A' for Active; 'I' for Inactive)
ROOT
ATOM      1  C   UNL d   1       4.536   4.878   1.926  0.00  0.00     0.020 A 
ATOM      2  C1  UNL d   1       5.363   4.887   3.049  0.00  0.00     0.020 A 
ATOM      3  C2  UNL d   1       4.842   5.236   4.297  0.00  0.00     0.034 A 
ATOM      4  C3  UNL d   1       3.491   5.578   4.425  0.00  0.00     0.017 A 
ATOM      5  C4  UNL d   1       2.662   5.569   3.298  0.00  0.00     0.017 A 
ATOM      6  C5  UNL d   1       3.189   5.219   2.051  0.00  0.00     0.034 A 
ATOM      7 Cl   UNL d   1       0.985   5.980   3.377  0.00  0.00    -0.070 Cl
ATOM      8 Cl1  UNL d   1       2.915   5.999   5.999  0.00  0.00    -0.070 Cl
ENDROOT
TORSDOF 0
ENDMDL
