MODEL 1
REMARK minimizedAffinity 6.3240037
REMARK minimizedRMSD -1
REMARK  0 active torsions:
REMARK  status: ('A' for Active; 'I' for Inactive)
ROOT
ATOM      1  C   UNL d   1      -5.517   2.046  -3.602  0.00  0.00     0.020 A 
ATOM      2  C1  UNL d   1      -5.007   3.342  -3.648  0.00  0.00     0.020 A 
ATOM      3  C2  UNL d   1      -3.739   3.612  -3.128  0.00  0.00     0.034 A 
ATOM      4  C3  UNL d   1      -2.978   2.585  -2.559  0.00  0.00     0.017 A 
ATOM      5  C4  UNL d   1      -3.491   1.284  -2.513  0.00  0.00     0.017 A 
ATOM      6  C5  UNL d   1      -4.761   1.019  -3.036  0.00  0.00     0.034 A 
ATOM      7 Cl   UNL d   1      -2.611  -0.036  -1.827  0.00  0.00    -0.070 Cl
ATOM      8 Cl1  UNL d   1      -1.419   2.991  -1.936  0.00  0.00    -0.070 Cl
ENDROOT
TORSDOF 0
ENDMDL
