MODEL 1
REMARK minimizedAffinity 1.56451702
REMARK minimizedRMSD -1
REMARK  0 active torsions:
REMARK  status: ('A' for Active; 'I' for Inactive)
ROOT
ATOM      1  C   UNL d   1      -1.197  -1.732   3.131  0.00  0.00     0.020 A 
ATOM      2  C1  UNL d   1      -1.614  -0.713   2.277  0.00  0.00     0.020 A 
ATOM      3  C2  UNL d   1      -0.954  -0.503   1.064  0.00  0.00     0.034 A 
ATOM      4  C3  UNL d   1       0.128  -1.314   0.703  0.00  0.00     0.017 A 
ATOM      5  C4  UNL d   1       0.547  -2.338   1.561  0.00  0.00     0.017 A 
ATOM      6  C5  UNL d   1      -0.118  -2.543   2.774  0.00  0.00     0.034 A 
ATOM      7 Cl   UNL d   1       1.874  -3.379   1.184  0.00  0.00    -0.070 Cl
ATOM      8 Cl1  UNL d   1       0.898  -0.999  -0.811  0.00  0.00    -0.070 Cl
ENDROOT
TORSDOF 0
ENDMDL
