MODEL 1
REMARK minimizedAffinity 0.0565015115
REMARK minimizedRMSD -1
REMARK  0 active torsions:
REMARK  status: ('A' for Active; 'I' for Inactive)
ROOT
ATOM      1  C   UNL d   1       1.006  -2.487   2.796  0.00  0.00     0.020 A 
ATOM      2  C1  UNL d   1       1.633  -2.722   1.573  0.00  0.00     0.020 A 
ATOM      3  C2  UNL d   1       1.213  -2.038   0.430  0.00  0.00     0.034 A 
ATOM      4  C3  UNL d   1       0.163  -1.115   0.508  0.00  0.00     0.017 A 
ATOM      5  C4  UNL d   1      -0.466  -0.880   1.736  0.00  0.00     0.017 A 
ATOM      6  C5  UNL d   1      -0.041  -1.568   2.877  0.00  0.00     0.034 A 
ATOM      7 Cl   UNL d   1      -1.768   0.243   1.911  0.00  0.00    -0.070 Cl
ATOM      8 Cl1  UNL d   1      -0.304  -0.305  -0.944  0.00  0.00    -0.070 Cl
ENDROOT
TORSDOF 0
ENDMDL
