MODEL 1
REMARK minimizedAffinity 2.86843872
REMARK minimizedRMSD -1
REMARK  0 active torsions:
REMARK  status: ('A' for Active; 'I' for Inactive)
ROOT
ATOM      1  C   UNL d   1      -1.523  -0.988   2.921  0.00  0.00     0.020 A 
ATOM      2  C1  UNL d   1      -1.652   0.094   2.052  0.00  0.00     0.020 A 
ATOM      3  C2  UNL d   1      -0.810   0.204   0.944  0.00  0.00     0.034 A 
ATOM      4  C3  UNL d   1       0.165  -0.770   0.701  0.00  0.00     0.017 A 
ATOM      5  C4  UNL d   1       0.294  -1.857   1.574  0.00  0.00     0.017 A 
ATOM      6  C5  UNL d   1      -0.552  -1.962   2.683  0.00  0.00     0.034 A 
ATOM      7 Cl   UNL d   1       1.473  -3.099   1.340  0.00  0.00    -0.070 Cl
ATOM      8 Cl1  UNL d   1       1.171  -0.571  -0.689  0.00  0.00    -0.070 Cl
ENDROOT
TORSDOF 0
ENDMDL
