MODEL 1
REMARK minimizedAffinity 1.55868018
REMARK minimizedRMSD -1
REMARK  0 active torsions:
REMARK  status: ('A' for Active; 'I' for Inactive)
ROOT
ATOM      1  C1  BNZ d   1       0.945   0.898   1.956  0.00  0.00     0.000 A 
ATOM      2  C2  BNZ d   1       1.206   1.907   2.845  0.00  0.00     0.000 A 
ATOM      3  C3  BNZ d   1       1.291   3.205   2.426  0.00  0.00     0.000 A 
ATOM      4  C4  BNZ d   1       1.154   3.488   1.114  0.00  0.00     0.000 A 
ATOM      5  C5  BNZ d   1       0.900   2.482   0.204  0.00  0.00     0.000 A 
ATOM      6  C6  BNZ d   1       0.777   1.181   0.635  0.00  0.00     0.000 A 
ENDROOT
TORSDOF 0
ENDMDL
