MODEL 1
REMARK minimizedAffinity -0.758067191
REMARK minimizedRMSD -1
REMARK  0 active torsions:
REMARK  status: ('A' for Active; 'I' for Inactive)
ROOT
ATOM      1  C1  BNZ d   1      -4.897   1.500  -5.051  0.00  0.00     0.000 A 
ATOM      2  C2  BNZ d   1      -5.187   2.444  -6.000  0.00  0.00     0.000 A 
ATOM      3  C3  BNZ d   1      -4.552   3.655  -5.999  0.00  0.00     0.000 A 
ATOM      4  C4  BNZ d   1      -3.660   3.935  -5.028  0.00  0.00     0.000 A 
ATOM      5  C5  BNZ d   1      -3.364   2.998  -4.058  0.00  0.00     0.000 A 
ATOM      6  C6  BNZ d   1      -3.976   1.765  -4.085  0.00  0.00     0.000 A 
ENDROOT
TORSDOF 0
ENDMDL
