MODEL 1
REMARK minimizedAffinity -0.199324712
REMARK minimizedRMSD -1
REMARK  0 active torsions:
REMARK  status: ('A' for Active; 'I' for Inactive)
ROOT
ATOM      1  C1  BNZ d   1      -3.935   4.207  -4.330  0.00  0.00     0.000 A 
ATOM      2  C2  BNZ d   1      -3.770   3.004  -3.697  0.00  0.00     0.000 A 
ATOM      3  C3  BNZ d   1      -4.303   1.859  -4.220  0.00  0.00     0.000 A 
ATOM      4  C4  BNZ d   1      -5.034   1.925  -5.351  0.00  0.00     0.000 A 
ATOM      5  C5  BNZ d   1      -5.218   3.132  -5.996  0.00  0.00     0.000 A 
ATOM      6  C6  BNZ d   1      -4.646   4.276  -5.488  0.00  0.00     0.000 A 
ENDROOT
TORSDOF 0
ENDMDL
