MODEL 1
REMARK minimizedAffinity -0.15296115
REMARK minimizedRMSD -1
REMARK  0 active torsions:
REMARK  status: ('A' for Active; 'I' for Inactive)
ROOT
ATOM      1  C1  BNZ d   1       0.643  -0.219   2.179  0.00  0.00     0.000 A 
ATOM      2  C2  BNZ d   1       0.251   1.039   2.551  0.00  0.00     0.000 A 
ATOM      3  C3  BNZ d   1       0.037   2.012   1.614  0.00  0.00     0.000 A 
ATOM      4  C4  BNZ d   1       0.254   1.737   0.312  0.00  0.00     0.000 A 
ATOM      5  C5  BNZ d   1       0.659   0.476  -0.078  0.00  0.00     0.000 A 
ATOM      6  C6  BNZ d   1       0.835  -0.512   0.864  0.00  0.00     0.000 A 
ENDROOT
TORSDOF 0
ENDMDL
