MODEL 1
REMARK minimizedAffinity 1.77246261
REMARK minimizedRMSD -1
REMARK  0 active torsions:
REMARK  status: ('A' for Active; 'I' for Inactive)
ROOT
ATOM      1  C1  BNZ d   1      -4.439   3.784  -4.161  0.00  0.00     0.000 A 
ATOM      2  C2  BNZ d   1      -5.153   4.489  -5.093  0.00  0.00     0.000 A 
ATOM      3  C3  BNZ d   1      -5.948   3.844  -6.000  0.00  0.00     0.000 A 
ATOM      4  C4  BNZ d   1      -5.997   2.497  -5.999  0.00  0.00     0.000 A 
ATOM      5  C5  BNZ d   1      -5.275   1.772  -5.071  0.00  0.00     0.000 A 
ATOM      6  C6  BNZ d   1      -4.507   2.425  -4.135  0.00  0.00     0.000 A 
ENDROOT
TORSDOF 0
ENDMDL
