MODEL 1
REMARK minimizedAffinity -1.1462822
REMARK minimizedRMSD -1
REMARK  0 active torsions:
REMARK  status: ('A' for Active; 'I' for Inactive)
ROOT
ATOM      1  C1  BNZ d   1      -6.000   3.801  -5.184  0.00  0.00     0.000 A 
ATOM      2  C2  BNZ d   1      -5.296   2.967  -4.357  0.00  0.00     0.000 A 
ATOM      3  C3  BNZ d   1      -3.930   3.000  -4.328  0.00  0.00     0.000 A 
ATOM      4  C4  BNZ d   1      -3.269   3.837  -5.154  0.00  0.00     0.000 A 
ATOM      5  C5  BNZ d   1      -3.964   4.678  -6.000  0.00  0.00     0.000 A 
ATOM      6  C6  BNZ d   1      -5.340   4.669  -5.998  0.00  0.00     0.000 A 
ENDROOT
TORSDOF 0
ENDMDL
