MODEL 1
REMARK minimizedAffinity -1.22278988
REMARK minimizedRMSD -1
REMARK  0 active torsions:
REMARK  status: ('A' for Active; 'I' for Inactive)
ROOT
ATOM      1  C1  BNZ d   1      -3.345   4.004  -5.035  0.00  0.00     0.000 A 
ATOM      2  C2  BNZ d   1      -3.835   3.138  -4.095  0.00  0.00     0.000 A 
ATOM      3  C3  BNZ d   1      -5.146   2.751  -4.115  0.00  0.00     0.000 A 
ATOM      4  C4  BNZ d   1      -5.973   3.261  -5.050  0.00  0.00     0.000 A 
ATOM      5  C5  BNZ d   1      -5.496   4.142  -6.000  0.00  0.00     0.000 A 
ATOM      6  C6  BNZ d   1      -4.167   4.499  -6.000  0.00  0.00     0.000 A 
ENDROOT
TORSDOF 0
ENDMDL
