MODEL 1
REMARK minimizedAffinity -0.508025467
REMARK minimizedRMSD -1
REMARK  0 active torsions:
REMARK  status: ('A' for Active; 'I' for Inactive)
ROOT
ATOM      1  C1  BNZ d   1      -5.999   3.704  -5.998  0.00  0.00     0.000 A 
ATOM      2  C2  BNZ d   1      -4.905   4.405  -5.566  0.00  0.00     0.000 A 
ATOM      3  C3  BNZ d   1      -3.795   3.755  -5.103  0.00  0.00     0.000 A 
ATOM      4  C4  BNZ d   1      -3.796   2.408  -5.035  0.00  0.00     0.000 A 
ATOM      5  C5  BNZ d   1      -4.895   1.687  -5.458  0.00  0.00     0.000 A 
ATOM      6  C6  BNZ d   1      -5.995   2.344  -5.960  0.00  0.00     0.000 A 
ENDROOT
TORSDOF 0
ENDMDL
