MODEL 1
REMARK minimizedAffinity -1.87459803
REMARK minimizedRMSD -1
REMARK  0 active torsions:
REMARK  status: ('A' for Active; 'I' for Inactive)
ROOT
ATOM      1  C1  BNZ d   1      -3.829   4.855  -6.000  0.00  0.00     0.000 A 
ATOM      2  C2  BNZ d   1      -5.139   4.455  -5.999  0.00  0.00     0.000 A 
ATOM      3  C3  BNZ d   1      -5.648   3.727  -4.960  0.00  0.00     0.000 A 
ATOM      4  C4  BNZ d   1      -4.839   3.367  -3.943  0.00  0.00     0.000 A 
ATOM      5  C5  BNZ d   1      -3.514   3.755  -3.934  0.00  0.00     0.000 A 
ATOM      6  C6  BNZ d   1      -3.014   4.520  -4.963  0.00  0.00     0.000 A 
ENDROOT
TORSDOF 0
ENDMDL
