MODEL 1
REMARK minimizedAffinity -3.84202337
REMARK minimizedRMSD -1
REMARK  0 active torsions:
REMARK  status: ('A' for Active; 'I' for Inactive)
ROOT
ATOM      1  C1  BNZ d   1      -2.251   4.097  -3.774  0.00  0.00     0.000 A 
ATOM      2  C2  BNZ d   1      -1.769   4.715  -4.897  0.00  0.00     0.000 A 
ATOM      3  C3  BNZ d   1      -2.560   4.877  -6.000  0.00  0.00     0.000 A 
ATOM      4  C4  BNZ d   1      -3.816   4.386  -5.993  0.00  0.00     0.000 A 
ATOM      5  C5  BNZ d   1      -4.313   3.752  -4.872  0.00  0.00     0.000 A 
ATOM      6  C6  BNZ d   1      -3.527   3.625  -3.750  0.00  0.00     0.000 A 
ENDROOT
TORSDOF 0
ENDMDL
