MODEL 1
REMARK minimizedAffinity 0.542617023
REMARK minimizedRMSD -1
REMARK  0 active torsions:
REMARK  status: ('A' for Active; 'I' for Inactive)
ROOT
ATOM      1  C1  BNZ d   1       0.355   1.844   0.100  0.00  0.00     0.000 A 
ATOM      2  C2  BNZ d   1       0.272   2.972   0.872  0.00  0.00     0.000 A 
ATOM      3  C3  BNZ d   1       0.294   2.889   2.236  0.00  0.00     0.000 A 
ATOM      4  C4  BNZ d   1       0.357   1.678   2.826  0.00  0.00     0.000 A 
ATOM      5  C5  BNZ d   1       0.431   0.531   2.061  0.00  0.00     0.000 A 
ATOM      6  C6  BNZ d   1       0.449   0.621   0.688  0.00  0.00     0.000 A 
ENDROOT
TORSDOF 0
ENDMDL
