MODEL 1
REMARK minimizedAffinity -1.66113997
REMARK minimizedRMSD -1
REMARK  0 active torsions:
REMARK  status: ('A' for Active; 'I' for Inactive)
ROOT
ATOM      1  C1  BNZ d   1       0.301   0.293   2.260  0.00  0.00     0.000 A 
ATOM      2  C2  BNZ d   1       0.628   0.101   0.944  0.00  0.00     0.000 A 
ATOM      3  C3  BNZ d   1       0.646   1.150   0.067  0.00  0.00     0.000 A 
ATOM      4  C4  BNZ d   1       0.299   2.380   0.498  0.00  0.00     0.000 A 
ATOM      5  C5  BNZ d   1      -0.042   2.588   1.819  0.00  0.00     0.000 A 
ATOM      6  C6  BNZ d   1      -0.021   1.538   2.708  0.00  0.00     0.000 A 
ENDROOT
TORSDOF 0
ENDMDL
