MODEL 1
REMARK minimizedAffinity -4.34040737
REMARK minimizedRMSD -1
REMARK  0 active torsions:
REMARK  status: ('A' for Active; 'I' for Inactive)
ROOT
ATOM      1  C   UNL d   1      -2.430  -0.525   2.131  0.00  0.00     0.078 C 
ATOM      2  C1  UNL d   1      -1.284   0.290   1.609  0.00  0.00    -0.077 A 
ATOM      3  C2  UNL d   1      -0.827   1.417   2.302  0.00  0.00    -0.001 A 
ATOM      4  C3  UNL d   1       0.235   2.171   1.800  0.00  0.00     0.003 A 
ATOM      5  C4  UNL d   1       0.847   1.808   0.603  0.00  0.00    -0.005 A 
ATOM      6  C5  UNL d   1       0.397   0.689  -0.095  0.00  0.00     0.003 A 
ATOM      7  C6  UNL d   1      -0.664  -0.067   0.405  0.00  0.00    -0.001 A 
ENDROOT
TORSDOF 0
ENDMDL
