MODEL 1
REMARK minimizedAffinity -3.95695639
REMARK minimizedRMSD -1
REMARK  0 active torsions:
REMARK  status: ('A' for Active; 'I' for Inactive)
ROOT
ATOM      1  C   UNL d   1       0.013  -1.489  -1.104  0.00  0.00     0.078 C 
ATOM      2  C1  UNL d   1       0.341  -0.541  -2.218  0.00  0.00    -0.077 A 
ATOM      3  C2  UNL d   1       1.638  -0.038  -2.379  0.00  0.00    -0.001 A 
ATOM      4  C3  UNL d   1       1.927   0.851  -3.415  0.00  0.00     0.003 A 
ATOM      5  C4  UNL d   1       0.924   1.247  -4.298  0.00  0.00    -0.005 A 
ATOM      6  C5  UNL d   1      -0.370   0.754  -4.144  0.00  0.00     0.003 A 
ATOM      7  C6  UNL d   1      -0.661  -0.136  -3.109  0.00  0.00    -0.001 A 
ENDROOT
TORSDOF 0
ENDMDL
