MODEL 1
REMARK minimizedAffinity -0.829399943
REMARK minimizedRMSD -1
REMARK  0 active torsions:
REMARK  status: ('A' for Active; 'I' for Inactive)
ROOT
ATOM      1  C   UNL d   1      -2.830  -0.938   3.639  0.00  0.00     0.078 C 
ATOM      2  C1  UNL d   1      -2.012  -0.016   2.785  0.00  0.00    -0.077 A 
ATOM      3  C2  UNL d   1      -1.818  -0.277   1.423  0.00  0.00    -0.001 A 
ATOM      4  C3  UNL d   1      -1.046   0.585   0.642  0.00  0.00     0.003 A 
ATOM      5  C4  UNL d   1      -0.463   1.714   1.214  0.00  0.00    -0.005 A 
ATOM      6  C5  UNL d   1      -0.649   1.981   2.569  0.00  0.00     0.003 A 
ATOM      7  C6  UNL d   1      -1.420   1.120   3.351  0.00  0.00    -0.001 A 
ENDROOT
TORSDOF 0
ENDMDL
