MODEL 1
REMARK minimizedAffinity -3.87144089
REMARK minimizedRMSD -1
REMARK  0 active torsions:
REMARK  status: ('A' for Active; 'I' for Inactive)
ROOT
ATOM      1  C   UNL d   1       0.000   1.420   4.587  0.00  0.00     0.078 C 
ATOM      2  C1  UNL d   1       0.085   0.924   3.174  0.00  0.00    -0.077 A 
ATOM      3  C2  UNL d   1       1.196   0.196   2.731  0.00  0.00    -0.001 A 
ATOM      4  C3  UNL d   1       1.266  -0.251   1.411  0.00  0.00     0.003 A 
ATOM      5  C4  UNL d   1       0.229   0.027   0.522  0.00  0.00    -0.005 A 
ATOM      6  C5  UNL d   1      -0.879   0.753   0.953  0.00  0.00     0.003 A 
ATOM      7  C6  UNL d   1      -0.951   1.200   2.273  0.00  0.00    -0.001 A 
ENDROOT
TORSDOF 0
ENDMDL
