MODEL 1
REMARK minimizedAffinity -0.562082469
REMARK minimizedRMSD -1
REMARK  0 active torsions:
REMARK  status: ('A' for Active; 'I' for Inactive)
ROOT
ATOM      1  C   UNL d   1      -1.171  -0.547  -5.920  0.00  0.00     0.078 C 
ATOM      2  C1  UNL d   1      -0.273  -0.010  -4.845  0.00  0.00    -0.077 A 
ATOM      3  C2  UNL d   1       1.028   0.416  -5.139  0.00  0.00    -0.001 A 
ATOM      4  C3  UNL d   1       1.856   0.905  -4.128  0.00  0.00     0.003 A 
ATOM      5  C4  UNL d   1       1.392   0.971  -2.815  0.00  0.00    -0.005 A 
ATOM      6  C5  UNL d   1       0.100   0.547  -2.513  0.00  0.00     0.003 A 
ATOM      7  C6  UNL d   1      -0.730   0.058  -3.523  0.00  0.00    -0.001 A 
ENDROOT
TORSDOF 0
ENDMDL
