MODEL 1
REMARK minimizedAffinity -1.7461822
REMARK minimizedRMSD -1
REMARK  0 active torsions:
REMARK  status: ('A' for Active; 'I' for Inactive)
ROOT
ATOM      1  C   UNL d   1       0.269   0.994  -3.171  0.00  0.00     0.078 C 
ATOM      2  C1  UNL d   1       1.723   0.828  -3.498  0.00  0.00    -0.077 A 
ATOM      3  C2  UNL d   1       2.474   1.894  -4.006  0.00  0.00    -0.001 A 
ATOM      4  C3  UNL d   1       3.824   1.722  -4.315  0.00  0.00     0.003 A 
ATOM      5  C4  UNL d   1       4.434   0.485  -4.122  0.00  0.00    -0.005 A 
ATOM      6  C5  UNL d   1       3.694  -0.583  -3.619  0.00  0.00     0.003 A 
ATOM      7  C6  UNL d   1       2.344  -0.413  -3.309  0.00  0.00    -0.001 A 
ENDROOT
TORSDOF 0
ENDMDL
