MODEL 1
REMARK minimizedAffinity -2.75139809
REMARK minimizedRMSD -1
REMARK  0 active torsions:
REMARK  status: ('A' for Active; 'I' for Inactive)
ROOT
ATOM      1  C   UNL d   1      -1.394   1.195   3.206  0.00  0.00     0.078 C 
ATOM      2  C1  UNL d   1      -0.560   0.738   2.046  0.00  0.00    -0.077 A 
ATOM      3  C2  UNL d   1      -1.151   0.151   0.920  0.00  0.00    -0.001 A 
ATOM      4  C3  UNL d   1      -0.362  -0.278  -0.148  0.00  0.00     0.003 A 
ATOM      5  C4  UNL d   1       1.022  -0.126  -0.101  0.00  0.00    -0.005 A 
ATOM      6  C5  UNL d   1       1.619   0.455   1.016  0.00  0.00     0.003 A 
ATOM      7  C6  UNL d   1       0.832   0.885   2.085  0.00  0.00    -0.001 A 
ENDROOT
TORSDOF 0
ENDMDL
