MODEL 1
REMARK minimizedAffinity -3.38594079
REMARK minimizedRMSD -1
REMARK  0 active torsions:
REMARK  status: ('A' for Active; 'I' for Inactive)
ROOT
ATOM      1  C   UNL d   1      -0.614   1.742   2.520  0.00  0.00     0.078 C 
ATOM      2  C1  UNL d   1       0.129   0.846   1.575  0.00  0.00    -0.077 A 
ATOM      3  C2  UNL d   1      -0.382   0.557   0.303  0.00  0.00    -0.001 A 
ATOM      4  C3  UNL d   1       0.316  -0.287  -0.562  0.00  0.00     0.003 A 
ATOM      5  C4  UNL d   1       1.528  -0.849  -0.166  0.00  0.00    -0.005 A 
ATOM      6  C5  UNL d   1       2.043  -0.569   1.098  0.00  0.00     0.003 A 
ATOM      7  C6  UNL d   1       1.347   0.275   1.965  0.00  0.00    -0.001 A 
ENDROOT
TORSDOF 0
ENDMDL
