MODEL 1
REMARK minimizedAffinity -1.42122436
REMARK minimizedRMSD -1
REMARK  1 active torsions:
REMARK  status: ('A' for Active; 'I' for Inactive)
REMARK    1  A    between atoms: C1_2  and  C2_3 
ROOT
ATOM      1  C2  UNL d   1      -0.011   1.618   0.220  0.00  0.00    -0.081 A 
ATOM      2  C3  UNL d   1       0.423   0.791  -0.823  0.00  0.00     0.006 A 
ATOM      3  C4  UNL d   1       0.180  -0.584  -0.785  0.00  0.00     0.002 A 
ATOM      4  C5  UNL d   1      -0.508  -1.154   0.292  0.00  0.00    -0.080 A 
ATOM      5  C6  UNL d   1      -0.801  -2.624   0.331  0.00  0.00     0.076 C 
ATOM      6  C7  UNL d   1      -0.926  -0.330   1.343  0.00  0.00     0.002 A 
ATOM      7  C8  UNL d   1      -0.683   1.045   1.305  0.00  0.00     0.006 A 
ENDROOT
BRANCH   1   8
ATOM      8  C1  UNL d   1       0.192   3.110   0.151  0.00  0.00     0.054 C 
ATOM      9  C   UNL d   1       1.231   3.574   1.161  0.00  0.00     0.018 C 
ENDBRANCH   1   8
TORSDOF 1
ENDMDL
