MODEL 1
REMARK minimizedAffinity -4.1519351
REMARK minimizedRMSD -1
REMARK  1 active torsions:
REMARK  status: ('A' for Active; 'I' for Inactive)
REMARK    1  A    between atoms: C1_2  and  C2_3 
ROOT
ATOM      1  C2  UNL d   1       0.385  -1.144  -0.420  0.00  0.00    -0.081 A 
ATOM      2  C3  UNL d   1      -0.387  -2.080   0.281  0.00  0.00     0.006 A 
ATOM      3  C4  UNL d   1      -1.347  -1.657   1.203  0.00  0.00     0.002 A 
ATOM      4  C5  UNL d   1      -1.558  -0.293   1.434  0.00  0.00    -0.080 A 
ATOM      5  C6  UNL d   1      -2.606   0.174   2.399  0.00  0.00     0.076 C 
ATOM      6  C7  UNL d   1      -0.775   0.641   0.747  0.00  0.00     0.002 A 
ATOM      7  C8  UNL d   1       0.186   0.219  -0.175  0.00  0.00     0.006 A 
ENDROOT
BRANCH   1   8
ATOM      8  C1  UNL d   1       1.376  -1.595  -1.462  0.00  0.00     0.054 C 
ATOM      9  C   UNL d   1       1.027  -1.038  -2.835  0.00  0.00     0.018 C 
ENDBRANCH   1   8
TORSDOF 1
ENDMDL
