MODEL 1
REMARK minimizedAffinity -3.1213212
REMARK minimizedRMSD -1
REMARK  1 active torsions:
REMARK  status: ('A' for Active; 'I' for Inactive)
REMARK    1  A    between atoms: C1_2  and  C2_3 
ROOT
ATOM      1  C2  UNL d   1       0.268   1.309  -0.640  0.00  0.00    -0.081 A 
ATOM      2  C3  UNL d   1      -0.204   0.814   0.582  0.00  0.00     0.006 A 
ATOM      3  C4  UNL d   1      -0.148  -0.554   0.861  0.00  0.00     0.002 A 
ATOM      4  C5  UNL d   1       0.388  -1.447  -0.073  0.00  0.00    -0.080 A 
ATOM      5  C6  UNL d   1       0.482  -2.914   0.227  0.00  0.00     0.076 C 
ATOM      6  C7  UNL d   1       0.844  -0.954  -1.300  0.00  0.00     0.002 A 
ATOM      7  C8  UNL d   1       0.787   0.413  -1.580  0.00  0.00     0.006 A 
ENDROOT
BRANCH   1   8
ATOM      8  C1  UNL d   1       0.268   2.791  -0.917  0.00  0.00     0.054 C 
ATOM      9  C   UNL d   1       0.566   3.590   0.343  0.00  0.00     0.018 C 
ENDBRANCH   1   8
TORSDOF 1
ENDMDL
