MODEL 1
REMARK minimizedAffinity -5.50923061
REMARK minimizedRMSD -1
REMARK  1 active torsions:
REMARK  status: ('A' for Active; 'I' for Inactive)
REMARK    1  A    between atoms: C1_2  and  C2_3 
ROOT
ATOM      1  C2  UNL d   1      -0.143   0.587  -0.563  0.00  0.00    -0.081 A 
ATOM      2  C3  UNL d   1      -0.784   0.070   0.570  0.00  0.00     0.006 A 
ATOM      3  C4  UNL d   1      -0.728  -1.297   0.852  0.00  0.00     0.002 A 
ATOM      4  C5  UNL d   1      -0.026  -2.168   0.012  0.00  0.00    -0.080 A 
ATOM      5  C6  UNL d   1       0.066  -3.633   0.320  0.00  0.00     0.076 C 
ATOM      6  C7  UNL d   1       0.599  -1.654  -1.129  0.00  0.00     0.002 A 
ATOM      7  C8  UNL d   1       0.543  -0.287  -1.412  0.00  0.00     0.006 A 
ENDROOT
BRANCH   1   8
ATOM      8  C1  UNL d   1      -0.147   2.069  -0.835  0.00  0.00     0.054 C 
ATOM      9  C   UNL d   1       0.729   2.817   0.160  0.00  0.00     0.018 C 
ENDBRANCH   1   8
TORSDOF 1
ENDMDL
