MODEL 1
REMARK minimizedAffinity -3.15506363
REMARK minimizedRMSD -1
REMARK  1 active torsions:
REMARK  status: ('A' for Active; 'I' for Inactive)
REMARK    1  A    between atoms: C1_2  and  C2_3 
ROOT
ATOM      1  C2  UNL d   1       0.002   1.148   0.254  0.00  0.00    -0.081 A 
ATOM      2  C3  UNL d   1      -1.100   0.454   0.769  0.00  0.00     0.006 A 
ATOM      3  C4  UNL d   1      -1.068  -0.937   0.890  0.00  0.00     0.002 A 
ATOM      4  C5  UNL d   1       0.068  -1.657   0.505  0.00  0.00    -0.080 A 
ATOM      5  C6  UNL d   1       0.127  -3.147   0.658  0.00  0.00     0.076 C 
ATOM      6  C7  UNL d   1       1.163  -0.966  -0.026  0.00  0.00     0.002 A 
ATOM      7  C8  UNL d   1       1.131   0.425  -0.147  0.00  0.00     0.006 A 
ENDROOT
BRANCH   1   8
ATOM      8  C1  UNL d   1      -0.005   2.654   0.183  0.00  0.00     0.054 C 
ATOM      9  C   UNL d   1       1.382   3.226   0.439  0.00  0.00     0.018 C 
ENDBRANCH   1   8
TORSDOF 1
ENDMDL
