MODEL 1
REMARK minimizedAffinity -5.23505449
REMARK minimizedRMSD -1
REMARK  1 active torsions:
REMARK  status: ('A' for Active; 'I' for Inactive)
REMARK    1  A    between atoms: C1_2  and  C2_3 
ROOT
ATOM      1  C2  UNL d   1       0.029   0.522   0.040  0.00  0.00    -0.081 A 
ATOM      2  C3  UNL d   1      -0.305  -0.374   1.063  0.00  0.00     0.006 A 
ATOM      3  C4  UNL d   1      -0.217  -1.752   0.853  0.00  0.00     0.002 A 
ATOM      4  C5  UNL d   1       0.213  -2.257  -0.378  0.00  0.00    -0.080 A 
ATOM      5  C6  UNL d   1       0.340  -3.734  -0.607  0.00  0.00     0.076 C 
ATOM      6  C7  UNL d   1       0.530  -1.362  -1.406  0.00  0.00     0.002 A 
ATOM      7  C8  UNL d   1       0.442   0.016  -1.197  0.00  0.00     0.006 A 
ENDROOT
BRANCH   1   8
ATOM      8  C1  UNL d   1      -0.003   2.009   0.284  0.00  0.00     0.054 C 
ATOM      9  C   UNL d   1       1.336   2.513   0.804  0.00  0.00     0.018 C 
ENDBRANCH   1   8
TORSDOF 1
ENDMDL
