MODEL 1
REMARK minimizedAffinity -3.12822938
REMARK minimizedRMSD -1
REMARK  1 active torsions:
REMARK  status: ('A' for Active; 'I' for Inactive)
REMARK    1  A    between atoms: C1_2  and  C2_3 
ROOT
ATOM      1  C2  UNL d   1       0.568  -0.808  -1.007  0.00  0.00    -0.081 A 
ATOM      2  C3  UNL d   1       0.227  -1.802  -0.082  0.00  0.00     0.006 A 
ATOM      3  C4  UNL d   1      -0.617  -1.510   0.993  0.00  0.00     0.002 A 
ATOM      4  C5  UNL d   1      -1.140  -0.222   1.155  0.00  0.00    -0.080 A 
ATOM      5  C6  UNL d   1      -2.071   0.097   2.286  0.00  0.00     0.076 C 
ATOM      6  C7  UNL d   1      -0.785   0.775   0.240  0.00  0.00     0.002 A 
ATOM      7  C8  UNL d   1       0.060   0.484  -0.833  0.00  0.00     0.006 A 
ENDROOT
BRANCH   1   8
ATOM      8  C1  UNL d   1       1.426  -1.136  -2.202  0.00  0.00     0.054 C 
ATOM      9  C   UNL d   1       1.030  -0.302  -3.413  0.00  0.00     0.018 C 
ENDBRANCH   1   8
TORSDOF 1
ENDMDL
