MODEL 1
REMARK minimizedAffinity -2.53494644
REMARK minimizedRMSD -1
REMARK  1 active torsions:
REMARK  status: ('A' for Active; 'I' for Inactive)
REMARK    1  A    between atoms: C1_2  and  C2_3 
ROOT
ATOM      1  C2  UNL d   1      -0.126   1.528   0.246  0.00  0.00    -0.081 A 
ATOM      2  C3  UNL d   1      -0.964   0.787   1.088  0.00  0.00     0.006 A 
ATOM      3  C4  UNL d   1      -1.007  -0.606   0.996  0.00  0.00     0.002 A 
ATOM      4  C5  UNL d   1      -0.207  -1.281   0.067  0.00  0.00    -0.080 A 
ATOM      5  C6  UNL d   1      -0.221  -2.779  -0.021  0.00  0.00     0.076 C 
ATOM      6  C7  UNL d   1       0.617  -0.540  -0.786  0.00  0.00     0.002 A 
ATOM      7  C8  UNL d   1       0.660   0.853  -0.695  0.00  0.00     0.006 A 
ENDROOT
BRANCH   1   8
ATOM      8  C1  UNL d   1      -0.029   3.026   0.387  0.00  0.00     0.054 C 
ATOM      9  C   UNL d   1       1.186   3.427   1.212  0.00  0.00     0.018 C 
ENDBRANCH   1   8
TORSDOF 1
ENDMDL
