MODEL 1
REMARK minimizedAffinity -1.72296524
REMARK minimizedRMSD -1
REMARK  1 active torsions:
REMARK  status: ('A' for Active; 'I' for Inactive)
REMARK    1  A    between atoms: C1_2  and  C2_3 
ROOT
ATOM      1  C2  UNL d   1      -0.045   1.219   0.351  0.00  0.00    -0.081 A 
ATOM      2  C3  UNL d   1      -0.816   0.504   1.276  0.00  0.00     0.006 A 
ATOM      3  C4  UNL d   1      -0.797  -0.893   1.284  0.00  0.00     0.002 A 
ATOM      4  C5  UNL d   1      -0.003  -1.597   0.373  0.00  0.00    -0.080 A 
ATOM      5  C6  UNL d   1       0.049  -3.096   0.391  0.00  0.00     0.076 C 
ATOM      6  C7  UNL d   1       0.753  -0.883  -0.563  0.00  0.00     0.002 A 
ATOM      7  C8  UNL d   1       0.735   0.513  -0.572  0.00  0.00     0.006 A 
ENDROOT
BRANCH   1   8
ATOM      8  C1  UNL d   1      -0.013   2.726   0.382  0.00  0.00     0.054 C 
ATOM      9  C   UNL d   1       1.178   3.237   1.179  0.00  0.00     0.018 C 
ENDBRANCH   1   8
TORSDOF 1
ENDMDL
