MODEL 1
REMARK minimizedAffinity -4.75853872
REMARK minimizedRMSD -1
REMARK  1 active torsions:
REMARK  status: ('A' for Active; 'I' for Inactive)
REMARK    1  A    between atoms: C1_2  and  C2_3 
ROOT
ATOM      1  C2  UNL d   1      -0.003   4.412   2.791  0.00  0.00    -0.081 A 
ATOM      2  C3  UNL d   1       1.308   4.891   2.679  0.00  0.00     0.006 A 
ATOM      3  C4  UNL d   1       2.147   4.429   1.662  0.00  0.00     0.002 A 
ATOM      4  C5  UNL d   1       1.687   3.487   0.736  0.00  0.00    -0.080 A 
ATOM      5  C6  UNL d   1       2.567   3.006  -0.379  0.00  0.00     0.076 C 
ATOM      6  C7  UNL d   1       0.383   2.995   0.858  0.00  0.00     0.002 A 
ATOM      7  C8  UNL d   1      -0.456   3.456   1.875  0.00  0.00     0.006 A 
ENDROOT
BRANCH   1   8
ATOM      8  C1  UNL d   1      -0.930   4.956   3.847  0.00  0.00     0.054 C 
ATOM      9  C   UNL d   1      -1.875   6.000   3.269  0.00  0.00     0.018 C 
ENDBRANCH   1   8
TORSDOF 1
ENDMDL
