MODEL 1
REMARK minimizedAffinity -4.57878399
REMARK minimizedRMSD -1
REMARK  1 active torsions:
REMARK  status: ('A' for Active; 'I' for Inactive)
REMARK    1  A    between atoms: C1_2  and  C2_3 
ROOT
ATOM      1  C2  UNL d   1      -0.156   0.844   0.247  0.00  0.00    -0.081 A 
ATOM      2  C3  UNL d   1      -1.118   0.148   0.990  0.00  0.00     0.006 A 
ATOM      3  C4  UNL d   1      -1.122  -1.248   1.013  0.00  0.00     0.002 A 
ATOM      4  C5  UNL d   1      -0.159  -1.972   0.301  0.00  0.00    -0.080 A 
ATOM      5  C6  UNL d   1      -0.133  -3.471   0.342  0.00  0.00     0.076 C 
ATOM      6  C7  UNL d   1       0.792  -1.278  -0.455  0.00  0.00     0.002 A 
ATOM      7  C8  UNL d   1       0.795   0.119  -0.479  0.00  0.00     0.006 A 
ENDROOT
BRANCH   1   8
ATOM      8  C1  UNL d   1      -0.110   2.350   0.272  0.00  0.00     0.054 C 
ATOM      9  C   UNL d   1       1.323   2.861   0.242  0.00  0.00     0.018 C 
ENDBRANCH   1   8
TORSDOF 1
ENDMDL
