MODEL 1
REMARK minimizedAffinity -5.36511326
REMARK minimizedRMSD -1
REMARK  1 active torsions:
REMARK  status: ('A' for Active; 'I' for Inactive)
REMARK    1  A    between atoms: C1_2  and  C2_3 
ROOT
ATOM      1  C2  UNL d   1       0.980   2.190   0.317  0.00  0.00    -0.081 A 
ATOM      2  C3  UNL d   1      -0.196   1.880  -0.377  0.00  0.00     0.006 A 
ATOM      3  C4  UNL d   1      -0.791   0.624  -0.235  0.00  0.00     0.002 A 
ATOM      4  C5  UNL d   1      -0.225  -0.338   0.608  0.00  0.00    -0.080 A 
ATOM      5  C6  UNL d   1      -0.871  -1.680   0.793  0.00  0.00     0.076 C 
ATOM      6  C7  UNL d   1       0.959  -0.035   1.288  0.00  0.00     0.002 A 
ATOM      7  C8  UNL d   1       1.555   1.221   1.146  0.00  0.00     0.006 A 
ENDROOT
BRANCH   1   8
ATOM      8  C1  UNL d   1       1.589   3.566   0.216  0.00  0.00     0.054 C 
ATOM      9  C   UNL d   1       2.076   4.056   1.572  0.00  0.00     0.018 C 
ENDBRANCH   1   8
TORSDOF 1
ENDMDL
