MODEL 1
REMARK minimizedAffinity -4.05077314
REMARK minimizedRMSD -1
REMARK  1 active torsions:
REMARK  status: ('A' for Active; 'I' for Inactive)
REMARK    1  A    between atoms: C1_2  and  C2_3 
ROOT
ATOM      1  C2  UNL d   1      -0.139   0.760  -0.118  0.00  0.00    -0.081 A 
ATOM      2  C3  UNL d   1      -1.036   0.121   0.747  0.00  0.00     0.006 A 
ATOM      3  C4  UNL d   1      -0.940  -1.254   0.977  0.00  0.00     0.002 A 
ATOM      4  C5  UNL d   1       0.057  -2.010   0.352  0.00  0.00    -0.080 A 
ATOM      5  C6  UNL d   1       0.189  -3.481   0.613  0.00  0.00     0.076 C 
ATOM      6  C7  UNL d   1       0.941  -1.375  -0.526  0.00  0.00     0.002 A 
ATOM      7  C8  UNL d   1       0.846  -0.000  -0.757  0.00  0.00     0.006 A 
ENDROOT
BRANCH   1   8
ATOM      8  C1  UNL d   1      -0.199   2.253  -0.317  0.00  0.00     0.054 C 
ATOM      9  C   UNL d   1       1.025   2.939   0.272  0.00  0.00     0.018 C 
ENDBRANCH   1   8
TORSDOF 1
ENDMDL
