MODEL 1
REMARK minimizedAffinity -4.05801344
REMARK minimizedRMSD -1
REMARK  1 active torsions:
REMARK  status: ('A' for Active; 'I' for Inactive)
REMARK    1  A    between atoms: C1_2  and  C2_3 
ROOT
ATOM      1  C2  UNL d   1       0.616   0.568  -0.001  0.00  0.00    -0.076 A 
ATOM      2  C3  UNL d   1       1.975   0.476   0.350  0.00  0.00     0.004 A 
ATOM      3  C4  UNL d   1       2.622   1.529   0.993  0.00  0.00    -0.003 A 
ATOM      4  C5  UNL d   1       1.922   2.692   1.297  0.00  0.00     0.000 A 
ATOM      5  C6  UNL d   1       0.570   2.793   0.972  0.00  0.00     0.000 A 
ATOM      6  C7  UNL d   1      -0.103   1.734   0.338  0.00  0.00    -0.073 A 
ATOM      7  C8  UNL d   1      -1.560   1.900   0.005  0.00  0.00     0.078 C 
ENDROOT
BRANCH   1   8
ATOM      8  C1  UNL d   1      -0.026  -0.596  -0.722  0.00  0.00     0.053 C 
ATOM      9  C   UNL d   1      -0.016  -1.871   0.107  0.00  0.00     0.018 C 
ENDBRANCH   1   8
TORSDOF 1
ENDMDL
