MODEL 1
REMARK minimizedAffinity -2.75325394
REMARK minimizedRMSD -1
REMARK  1 active torsions:
REMARK  status: ('A' for Active; 'I' for Inactive)
REMARK    1  A    between atoms: C1_2  and  C2_3 
ROOT
ATOM      1  C2  UNL d   1       0.104   0.076   0.306  0.00  0.00    -0.076 A 
ATOM      2  C3  UNL d   1      -1.204   0.591   0.305  0.00  0.00     0.004 A 
ATOM      3  C4  UNL d   1      -1.442   1.946   0.530  0.00  0.00    -0.003 A 
ATOM      4  C5  UNL d   1      -0.375   2.808   0.760  0.00  0.00     0.000 A 
ATOM      5  C6  UNL d   1       0.930   2.317   0.748  0.00  0.00     0.000 A 
ATOM      6  C7  UNL d   1       1.189   0.957   0.505  0.00  0.00    -0.073 A 
ATOM      7  C8  UNL d   1       2.615   0.482   0.509  0.00  0.00     0.078 C 
ENDROOT
BRANCH   1   8
ATOM      8  C1  UNL d   1       0.299  -1.407   0.082  0.00  0.00     0.053 C 
ATOM      9  C   UNL d   1      -0.167  -1.854  -1.295  0.00  0.00     0.018 C 
ENDBRANCH   1   8
TORSDOF 1
ENDMDL
