MODEL 1
REMARK minimizedAffinity -3.1307404
REMARK minimizedRMSD -1
REMARK  1 active torsions:
REMARK  status: ('A' for Active; 'I' for Inactive)
REMARK    1  A    between atoms: C1_2  and  C2_3 
ROOT
ATOM      1  C2  UNL d   1      -0.349  -1.304  -0.289  0.00  0.00    -0.076 A 
ATOM      2  C3  UNL d   1      -1.440  -1.369  -1.173  0.00  0.00     0.004 A 
ATOM      3  C4  UNL d   1      -1.739  -2.546  -1.858  0.00  0.00    -0.003 A 
ATOM      4  C5  UNL d   1      -0.953  -3.677  -1.669  0.00  0.00     0.000 A 
ATOM      5  C6  UNL d   1       0.123  -3.636  -0.782  0.00  0.00     0.000 A 
ATOM      6  C7  UNL d   1       0.428  -2.462  -0.072  0.00  0.00    -0.073 A 
ATOM      7  C8  UNL d   1       1.603  -2.473   0.867  0.00  0.00     0.078 C 
ENDROOT
BRANCH   1   8
ATOM      8  C1  UNL d   1      -0.056   0.007   0.405  0.00  0.00     0.053 C 
ATOM      9  C   UNL d   1      -1.284   0.897   0.512  0.00  0.00     0.018 C 
ENDBRANCH   1   8
TORSDOF 1
ENDMDL
