MODEL 1
REMARK minimizedAffinity -4.88055038
REMARK minimizedRMSD -1
REMARK  1 active torsions:
REMARK  status: ('A' for Active; 'I' for Inactive)
REMARK    1  A    between atoms: C1_2  and  C2_3 
ROOT
ATOM      1  C2  UNL d   1      -0.396  -0.460  -0.843  0.00  0.00    -0.076 A 
ATOM      2  C3  UNL d   1      -1.399   0.315  -1.450  0.00  0.00     0.004 A 
ATOM      3  C4  UNL d   1      -1.700   1.593  -0.983  0.00  0.00    -0.003 A 
ATOM      4  C5  UNL d   1      -1.002   2.117   0.100  0.00  0.00     0.000 A 
ATOM      5  C6  UNL d   1       0.008   1.369   0.704  0.00  0.00     0.000 A 
ATOM      6  C7  UNL d   1       0.335   0.086   0.234  0.00  0.00    -0.073 A 
ATOM      7  C8  UNL d   1       1.430  -0.679   0.927  0.00  0.00     0.078 C 
ENDROOT
BRANCH   1   8
ATOM      8  C1  UNL d   1      -0.132  -1.850  -1.376  0.00  0.00     0.053 C 
ATOM      9  C   UNL d   1      -0.417  -1.966  -2.866  0.00  0.00     0.018 C 
ENDBRANCH   1   8
TORSDOF 1
ENDMDL
