MODEL 1
REMARK minimizedAffinity -3.38623405
REMARK minimizedRMSD -1
REMARK  1 active torsions:
REMARK  status: ('A' for Active; 'I' for Inactive)
REMARK    1  A    between atoms: C1_2  and  C2_3 
ROOT
ATOM      1  C2  UNL d   1       0.974   1.159   0.490  0.00  0.00    -0.076 A 
ATOM      2  C3  UNL d   1       0.300   2.376   0.689  0.00  0.00     0.004 A 
ATOM      3  C4  UNL d   1      -1.087   2.455   0.579  0.00  0.00    -0.003 A 
ATOM      4  C5  UNL d   1      -1.823   1.316   0.269  0.00  0.00     0.000 A 
ATOM      5  C6  UNL d   1      -1.172   0.097   0.085  0.00  0.00     0.000 A 
ATOM      6  C7  UNL d   1       0.224  -0.003   0.208  0.00  0.00    -0.073 A 
ATOM      7  C8  UNL d   1       0.874  -1.342  -0.006  0.00  0.00     0.078 C 
ENDROOT
BRANCH   1   8
ATOM      8  C1  UNL d   1       2.482   1.141   0.596  0.00  0.00     0.053 C 
ATOM      9  C   UNL d   1       3.038   2.409   1.225  0.00  0.00     0.018 C 
ENDBRANCH   1   8
TORSDOF 1
ENDMDL
