MODEL 1
REMARK minimizedAffinity -2.12227106
REMARK minimizedRMSD -1
REMARK  1 active torsions:
REMARK  status: ('A' for Active; 'I' for Inactive)
REMARK    1  A    between atoms: C1_2  and  C2_3 
ROOT
ATOM      1  C2  UNL d   1      -1.000  -1.215  -0.889  0.00  0.00    -0.076 A 
ATOM      2  C3  UNL d   1      -2.081  -0.406  -1.280  0.00  0.00     0.004 A 
ATOM      3  C4  UNL d   1      -2.285   0.847  -0.705  0.00  0.00    -0.003 A 
ATOM      4  C5  UNL d   1      -1.411   1.312   0.271  0.00  0.00     0.000 A 
ATOM      5  C6  UNL d   1      -0.323   0.530   0.659  0.00  0.00     0.000 A 
ATOM      6  C7  UNL d   1      -0.094  -0.729   0.077  0.00  0.00    -0.073 A 
ATOM      7  C8  UNL d   1       1.091  -1.532   0.538  0.00  0.00     0.078 C 
ENDROOT
BRANCH   1   8
ATOM      8  C1  UNL d   1      -0.846  -2.577  -1.528  0.00  0.00     0.053 C 
ATOM      9  C   UNL d   1      -1.820  -3.599  -0.965  0.00  0.00     0.018 C 
ENDBRANCH   1   8
TORSDOF 1
ENDMDL
