MODEL 1
REMARK minimizedAffinity -3.96698856
REMARK minimizedRMSD -1
REMARK  1 active torsions:
REMARK  status: ('A' for Active; 'I' for Inactive)
REMARK    1  A    between atoms: C1_2  and  C2_3 
ROOT
ATOM      1  C2  UNL d   1      -0.343  -1.430  -0.458  0.00  0.00    -0.076 A 
ATOM      2  C3  UNL d   1       0.092  -2.755  -0.283  0.00  0.00     0.004 A 
ATOM      3  C4  UNL d   1      -0.098  -3.710  -1.280  0.00  0.00    -0.003 A 
ATOM      4  C5  UNL d   1      -0.727  -3.355  -2.469  0.00  0.00     0.000 A 
ATOM      5  C6  UNL d   1      -1.149  -2.041  -2.666  0.00  0.00     0.000 A 
ATOM      6  C7  UNL d   1      -0.950  -1.062  -1.678  0.00  0.00    -0.073 A 
ATOM      7  C8  UNL d   1      -1.430   0.338  -1.941  0.00  0.00     0.078 C 
ENDROOT
BRANCH   1   8
ATOM      8  C1  UNL d   1      -0.133  -0.444   0.669  0.00  0.00     0.053 C 
ATOM      9  C   UNL d   1      -1.392  -0.227   1.495  0.00  0.00     0.018 C 
ENDBRANCH   1   8
TORSDOF 1
ENDMDL
