MODEL 1
REMARK minimizedAffinity -2.31679368
REMARK minimizedRMSD -1
REMARK  1 active torsions:
REMARK  status: ('A' for Active; 'I' for Inactive)
REMARK    1  A    between atoms: C1_2  and  C2_3 
ROOT
ATOM      1  C2  UNL d   1      -0.619  -1.189  -0.255  0.00  0.00    -0.076 A 
ATOM      2  C3  UNL d   1      -1.642  -0.375  -0.772  0.00  0.00     0.004 A 
ATOM      3  C4  UNL d   1      -1.593   1.012  -0.635  0.00  0.00    -0.003 A 
ATOM      4  C5  UNL d   1      -0.520   1.606   0.020  0.00  0.00     0.000 A 
ATOM      5  C6  UNL d   1       0.512   0.814   0.524  0.00  0.00     0.000 A 
ATOM      6  C7  UNL d   1       0.486  -0.584   0.380  0.00  0.00    -0.073 A 
ATOM      7  C8  UNL d   1       1.623  -1.389   0.947  0.00  0.00     0.078 C 
ENDROOT
BRANCH   1   8
ATOM      8  C1  UNL d   1      -0.740  -2.689  -0.410  0.00  0.00     0.053 C 
ATOM      9  C   UNL d   1      -0.445  -3.154  -1.828  0.00  0.00     0.018 C 
ENDBRANCH   1   8
TORSDOF 1
ENDMDL
