MODEL 1
REMARK minimizedAffinity -2.45685458
REMARK minimizedRMSD -1
REMARK  1 active torsions:
REMARK  status: ('A' for Active; 'I' for Inactive)
REMARK    1  A    between atoms: C1_2  and  C2_3 
ROOT
ATOM      1  C2  UNL d   1      -0.317  -0.310  -0.690  0.00  0.00    -0.076 A 
ATOM      2  C3  UNL d   1      -1.449   0.466  -0.998  0.00  0.00     0.004 A 
ATOM      3  C4  UNL d   1      -1.676   1.686  -0.365  0.00  0.00    -0.003 A 
ATOM      4  C5  UNL d   1      -0.776   2.152   0.587  0.00  0.00     0.000 A 
ATOM      5  C6  UNL d   1       0.361   1.404   0.893  0.00  0.00     0.000 A 
ATOM      6  C7  UNL d   1       0.614   0.179   0.252  0.00  0.00    -0.073 A 
ATOM      7  C8  UNL d   1       1.852  -0.589   0.625  0.00  0.00     0.078 C 
ENDROOT
BRANCH   1   8
ATOM      8  C1  UNL d   1      -0.137  -1.638  -1.389  0.00  0.00     0.053 C 
ATOM      9  C   UNL d   1      -0.835  -2.778  -0.664  0.00  0.00     0.018 C 
ENDBRANCH   1   8
TORSDOF 1
ENDMDL
