MODEL 1
REMARK minimizedAffinity -3.38136458
REMARK minimizedRMSD -1
REMARK  0 active torsions:
REMARK  status: ('A' for Active; 'I' for Inactive)
ROOT
ATOM      1  C   UNL d   1       1.013  -1.662  -1.411  0.00  0.00     0.124 A 
ATOM      2  C1  UNL d   1       1.319  -0.326  -1.188  0.00  0.00     0.062 A 
ATOM      3  C2  UNL d   1       0.444   0.482  -0.468  0.00  0.00     0.162 A 
ATOM      4  C3  UNL d   1      -0.746  -0.043   0.034  0.00  0.00    -0.034 A 
ATOM      5  C4  UNL d   1      -1.048  -1.387  -0.195  0.00  0.00     0.162 A 
ATOM      6  C5  UNL d   1      -0.170  -2.190  -0.915  0.00  0.00     0.062 A 
ATOM      7  F   UNL d   1      -0.468  -3.480  -1.130  0.00  0.00    -0.097 F 
ATOM      8  F1  UNL d   1      -2.184  -1.924   0.274  0.00  0.00    -0.096 F 
ATOM      9  I   UNL d   1      -2.058   1.162   1.111  0.00  0.00    -0.060 I 
ATOM     10  F2  UNL d   1       0.766   1.768  -0.268  0.00  0.00    -0.096 F 
ATOM     11  F3  UNL d   1       2.461   0.187  -1.667  0.00  0.00    -0.097 F 
ATOM     12  F4  UNL d   1       1.856  -2.437  -2.105  0.00  0.00    -0.092 F 
ENDROOT
TORSDOF 0
ENDMDL
