MODEL 1
REMARK minimizedAffinity -3.71360636
REMARK minimizedRMSD -1
REMARK  0 active torsions:
REMARK  status: ('A' for Active; 'I' for Inactive)
ROOT
ATOM      1  C   UNL d   1       1.324  -0.094  -0.954  0.00  0.00     0.124 A 
ATOM      2  C1  UNL d   1       0.685  -0.811   0.049  0.00  0.00     0.062 A 
ATOM      3  C2  UNL d   1      -0.243  -0.183   0.874  0.00  0.00     0.162 A 
ATOM      4  C3  UNL d   1      -0.540   1.168   0.700  0.00  0.00    -0.034 A 
ATOM      5  C4  UNL d   1       0.107   1.882  -0.310  0.00  0.00     0.162 A 
ATOM      6  C5  UNL d   1       1.034   1.251  -1.133  0.00  0.00     0.062 A 
ATOM      7  F   UNL d   1       1.649   1.945  -2.101  0.00  0.00    -0.097 F 
ATOM      8  F1  UNL d   1      -0.155   3.183  -0.505  0.00  0.00    -0.096 F 
ATOM      9  I   UNL d   1      -1.928   2.110   1.933  0.00  0.00    -0.060 I 
ATOM     10  F2  UNL d   1      -0.845  -0.900   1.836  0.00  0.00    -0.096 F 
ATOM     11  F3  UNL d   1       0.964  -2.110   0.224  0.00  0.00    -0.097 F 
ATOM     12  F4  UNL d   1       2.217  -0.700  -1.747  0.00  0.00    -0.092 F 
ENDROOT
TORSDOF 0
ENDMDL
