MODEL 1
REMARK minimizedAffinity -5.46249819
REMARK minimizedRMSD -1
REMARK  0 active torsions:
REMARK  status: ('A' for Active; 'I' for Inactive)
ROOT
ATOM      1  C   UNL d   1      -1.288   2.938   0.413  0.00  0.00     0.124 A 
ATOM      2  C1  UNL d   1      -1.700   1.759   1.018  0.00  0.00     0.062 A 
ATOM      3  C2  UNL d   1      -1.101   0.550   0.678  0.00  0.00     0.162 A 
ATOM      4  C3  UNL d   1      -0.080   0.514  -0.273  0.00  0.00    -0.034 A 
ATOM      5  C4  UNL d   1       0.329   1.703  -0.878  0.00  0.00     0.162 A 
ATOM      6  C5  UNL d   1      -0.274   2.909  -0.534  0.00  0.00     0.062 A 
ATOM      7  F   UNL d   1       0.126   4.047  -1.120  0.00  0.00    -0.097 F 
ATOM      8  F1  UNL d   1       1.307   1.705  -1.796  0.00  0.00    -0.096 F 
ATOM      9  I   UNL d   1       0.819  -1.292  -0.784  0.00  0.00    -0.060 I 
ATOM     10  F2  UNL d   1      -1.519  -0.573   1.279  0.00  0.00    -0.096 F 
ATOM     11  F3  UNL d   1      -2.680   1.784   1.933  0.00  0.00    -0.097 F 
ATOM     12  F4  UNL d   1      -1.868   4.100   0.742  0.00  0.00    -0.092 F 
ENDROOT
TORSDOF 0
ENDMDL
