MODEL 1
REMARK minimizedAffinity -0.657130659
REMARK minimizedRMSD -1
REMARK  0 active torsions:
REMARK  status: ('A' for Active; 'I' for Inactive)
ROOT
ATOM      1  C   UNL d   1       0.741  -0.599   0.243  0.00  0.00     0.124 A 
ATOM      2  C1  UNL d   1       0.022  -0.607   1.430  0.00  0.00     0.062 A 
ATOM      3  C2  UNL d   1      -0.637   0.543   1.857  0.00  0.00     0.162 A 
ATOM      4  C3  UNL d   1      -0.582   1.710   1.095  0.00  0.00    -0.034 A 
ATOM      5  C4  UNL d   1       0.144   1.710  -0.098  0.00  0.00     0.162 A 
ATOM      6  C5  UNL d   1       0.801   0.559  -0.520  0.00  0.00     0.062 A 
ATOM      7  F   UNL d   1       1.495   0.568  -1.667  0.00  0.00    -0.097 F 
ATOM      8  F1  UNL d   1       0.218   2.815  -0.855  0.00  0.00    -0.096 F 
ATOM      9  I   UNL d   1      -1.567   3.430   1.729  0.00  0.00    -0.060 I 
ATOM     10  F2  UNL d   1      -1.325   0.506   3.008  0.00  0.00    -0.096 F 
ATOM     11  F3  UNL d   1      -0.037  -1.724   2.169  0.00  0.00    -0.097 F 
ATOM     12  F4  UNL d   1       1.375  -1.706  -0.165  0.00  0.00    -0.092 F 
ENDROOT
TORSDOF 0
ENDMDL
