MODEL 1
REMARK minimizedAffinity -5.96358061
REMARK minimizedRMSD -1
REMARK  0 active torsions:
REMARK  status: ('A' for Active; 'I' for Inactive)
ROOT
ATOM      1  C   UNL d   1      -0.925   1.374   1.884  0.00  0.00     0.124 A 
ATOM      2  C1  UNL d   1      -1.216   2.457   1.066  0.00  0.00     0.062 A 
ATOM      3  C2  UNL d   1      -0.554   2.616  -0.148  0.00  0.00     0.162 A 
ATOM      4  C3  UNL d   1       0.406   1.688  -0.552  0.00  0.00    -0.034 A 
ATOM      5  C4  UNL d   1       0.695   0.602   0.277  0.00  0.00     0.162 A 
ATOM      6  C5  UNL d   1       0.030   0.448   1.489  0.00  0.00     0.062 A 
ATOM      7  F   UNL d   1       0.313  -0.599   2.278  0.00  0.00    -0.097 F 
ATOM      8  F1  UNL d   1       1.612  -0.308  -0.081  0.00  0.00    -0.096 F 
ATOM      9  I   UNL d   1       1.399   1.922  -2.366  0.00  0.00    -0.060 I 
ATOM     10  F2  UNL d   1      -0.856   3.672  -0.918  0.00  0.00    -0.096 F 
ATOM     11  F3  UNL d   1      -2.138   3.354   1.446  0.00  0.00    -0.097 F 
ATOM     12  F4  UNL d   1      -1.563   1.225   3.052  0.00  0.00    -0.092 F 
ENDROOT
TORSDOF 0
ENDMDL
