MODEL 1
REMARK minimizedAffinity -5.76334047
REMARK minimizedRMSD -1
REMARK  0 active torsions:
REMARK  status: ('A' for Active; 'I' for Inactive)
ROOT
ATOM      1  C   UNL d   1      -1.339   2.741   0.756  0.00  0.00     0.124 A 
ATOM      2  C1  UNL d   1      -1.794   1.506   1.196  0.00  0.00     0.062 A 
ATOM      3  C2  UNL d   1      -1.153   0.339   0.791  0.00  0.00     0.162 A 
ATOM      4  C3  UNL d   1      -0.049   0.401  -0.059  0.00  0.00    -0.034 A 
ATOM      5  C4  UNL d   1       0.402   1.646  -0.498  0.00  0.00     0.162 A 
ATOM      6  C5  UNL d   1      -0.241   2.810  -0.090  0.00  0.00     0.062 A 
ATOM      7  F   UNL d   1       0.200   4.002  -0.517  0.00  0.00    -0.097 F 
ATOM      8  F1  UNL d   1       1.461   1.742  -1.316  0.00  0.00    -0.096 F 
ATOM      9  I   UNL d   1       0.911  -1.343  -0.667  0.00  0.00    -0.060 I 
ATOM     10  F2  UNL d   1      -1.615  -0.841   1.232  0.00  0.00    -0.096 F 
ATOM     11  F3  UNL d   1      -2.855   1.437   2.014  0.00  0.00    -0.097 F 
ATOM     12  F4  UNL d   1      -1.957   3.863   1.147  0.00  0.00    -0.092 F 
ENDROOT
TORSDOF 0
ENDMDL
