MODEL 1
REMARK minimizedAffinity 0.289338261
REMARK minimizedRMSD -1
REMARK  0 active torsions:
REMARK  status: ('A' for Active; 'I' for Inactive)
ROOT
ATOM      1  C   UNL d   1       1.156  -2.322  -2.166  0.00  0.00     0.124 A 
ATOM      2  C1  UNL d   1       2.059  -1.777  -1.265  0.00  0.00     0.062 A 
ATOM      3  C2  UNL d   1       1.630  -0.853  -0.316  0.00  0.00     0.162 A 
ATOM      4  C3  UNL d   1       0.290  -0.470  -0.262  0.00  0.00    -0.034 A 
ATOM      5  C4  UNL d   1      -0.613  -1.022  -1.173  0.00  0.00     0.162 A 
ATOM      6  C5  UNL d   1      -0.179  -1.945  -2.119  0.00  0.00     0.062 A 
ATOM      7  F   UNL d   1      -1.053  -2.471  -2.989  0.00  0.00    -0.097 F 
ATOM      8  F1  UNL d   1      -1.908  -0.676  -1.149  0.00  0.00    -0.096 F 
ATOM      9  I   UNL d   1      -0.355   0.910   1.155  0.00  0.00    -0.060 I 
ATOM     10  F2  UNL d   1       2.525  -0.343   0.543  0.00  0.00    -0.096 F 
ATOM     11  F3  UNL d   1       3.349  -2.139  -1.309  0.00  0.00    -0.097 F 
ATOM     12  F4  UNL d   1       1.571  -3.210  -3.079  0.00  0.00    -0.092 F 
ENDROOT
TORSDOF 0
ENDMDL
