MODEL 1
REMARK minimizedAffinity 3.98012757
REMARK minimizedRMSD -1
REMARK  0 active torsions:
REMARK  status: ('A' for Active; 'I' for Inactive)
ROOT
ATOM      1  C   UNL d   1      -0.693   1.876   0.744  0.00  0.00     0.124 A 
ATOM      2  C1  UNL d   1      -1.123   0.669   1.278  0.00  0.00     0.062 A 
ATOM      3  C2  UNL d   1      -0.645  -0.533   0.766  0.00  0.00     0.162 A 
ATOM      4  C3  UNL d   1       0.271  -0.535  -0.287  0.00  0.00    -0.034 A 
ATOM      5  C4  UNL d   1       0.698   0.682  -0.819  0.00  0.00     0.162 A 
ATOM      6  C5  UNL d   1       0.217   1.881  -0.304  0.00  0.00     0.062 A 
ATOM      7  F   UNL d   1       0.634   3.046  -0.821  0.00  0.00    -0.097 F 
ATOM      8  F1  UNL d   1       1.578   0.717  -1.831  0.00  0.00    -0.096 F 
ATOM      9  I   UNL d   1       0.990  -2.331  -1.055  0.00  0.00    -0.060 I 
ATOM     10  F2  UNL d   1      -1.078  -1.685   1.301  0.00  0.00    -0.096 F 
ATOM     11  F3  UNL d   1      -2.004   0.661   2.289  0.00  0.00    -0.097 F 
ATOM     12  F4  UNL d   1      -1.156   3.031   1.238  0.00  0.00    -0.092 F 
ENDROOT
TORSDOF 0
ENDMDL
