MODEL 1
REMARK minimizedAffinity 1.13405633
REMARK minimizedRMSD -1
REMARK  0 active torsions:
REMARK  status: ('A' for Active; 'I' for Inactive)
ROOT
ATOM      1  C   UNL d   1      -1.909   1.106   1.846  0.00  0.00     0.124 A 
ATOM      2  C1  UNL d   1      -1.230  -0.104   1.887  0.00  0.00     0.062 A 
ATOM      3  C2  UNL d   1      -0.257  -0.393   0.935  0.00  0.00     0.162 A 
ATOM      4  C3  UNL d   1       0.045   0.531  -0.066  0.00  0.00    -0.034 A 
ATOM      5  C4  UNL d   1      -0.643   1.746  -0.101  0.00  0.00     0.162 A 
ATOM      6  C5  UNL d   1      -1.615   2.029   0.853  0.00  0.00     0.062 A 
ATOM      7  F   UNL d   1      -2.269   3.199   0.812  0.00  0.00    -0.097 F 
ATOM      8  F1  UNL d   1      -0.378   2.656  -1.049  0.00  0.00    -0.096 F 
ATOM      9  I   UNL d   1       1.499   0.103  -1.491  0.00  0.00    -0.060 I 
ATOM     10  F2  UNL d   1       0.383  -1.570   0.998  0.00  0.00    -0.096 F 
ATOM     11  F3  UNL d   1      -1.514  -0.998   2.845  0.00  0.00    -0.097 F 
ATOM     12  F4  UNL d   1      -2.846   1.381   2.763  0.00  0.00    -0.092 F 
ENDROOT
TORSDOF 0
ENDMDL
