MODEL 1
REMARK minimizedAffinity -1.57899487
REMARK minimizedRMSD -1
REMARK  0 active torsions:
REMARK  status: ('A' for Active; 'I' for Inactive)
ROOT
ATOM      1  C   UNL d   1      -0.931   1.507   1.130  0.00  0.00     0.124 A 
ATOM      2  C1  UNL d   1      -1.077   0.325   1.844  0.00  0.00     0.062 A 
ATOM      3  C2  UNL d   1      -0.578  -0.868   1.331  0.00  0.00     0.162 A 
ATOM      4  C3  UNL d   1       0.073  -0.887   0.097  0.00  0.00    -0.034 A 
ATOM      5  C4  UNL d   1       0.215   0.306  -0.615  0.00  0.00     0.162 A 
ATOM      6  C5  UNL d   1      -0.285   1.496  -0.098  0.00  0.00     0.062 A 
ATOM      7  F   UNL d   1      -0.143   2.637  -0.789  0.00  0.00    -0.097 F 
ATOM      8  F1  UNL d   1       0.836   0.324  -1.804  0.00  0.00    -0.096 F 
ATOM      9  I   UNL d   1       0.821  -2.669  -0.673  0.00  0.00    -0.060 I 
ATOM     10  F2  UNL d   1      -0.733  -1.995   2.042  0.00  0.00    -0.096 F 
ATOM     11  F3  UNL d   1      -1.701   0.333   3.030  0.00  0.00    -0.097 F 
ATOM     12  F4  UNL d   1      -1.413   2.654   1.626  0.00  0.00    -0.092 F 
ENDROOT
TORSDOF 0
ENDMDL
