MODEL 1
REMARK minimizedAffinity -1.22682393
REMARK minimizedRMSD -1
REMARK  0 active torsions:
REMARK  status: ('A' for Active; 'I' for Inactive)
ROOT
ATOM      1  C   UNL d   1      -0.943   2.270   0.728  0.00  0.00     0.124 A 
ATOM      2  C1  UNL d   1      -1.297   1.035   1.255  0.00  0.00     0.062 A 
ATOM      3  C2  UNL d   1      -0.731  -0.131   0.748  0.00  0.00     0.162 A 
ATOM      4  C3  UNL d   1       0.195  -0.068  -0.293  0.00  0.00    -0.034 A 
ATOM      5  C4  UNL d   1       0.545   1.176  -0.819  0.00  0.00     0.162 A 
ATOM      6  C5  UNL d   1      -0.023   2.339  -0.309  0.00  0.00     0.062 A 
ATOM      7  F   UNL d   1       0.320   3.531  -0.820  0.00  0.00    -0.097 F 
ATOM      8  F1  UNL d   1       1.433   1.273  -1.820  0.00  0.00    -0.096 F 
ATOM      9  I   UNL d   1       1.043  -1.810  -1.055  0.00  0.00    -0.060 I 
ATOM     10  F2  UNL d   1      -1.091  -1.310   1.277  0.00  0.00    -0.096 F 
ATOM     11  F3  UNL d   1      -2.186   0.966   2.256  0.00  0.00    -0.097 F 
ATOM     12  F4  UNL d   1      -1.490   3.390   1.217  0.00  0.00    -0.092 F 
ENDROOT
TORSDOF 0
ENDMDL
