MODEL 1
REMARK minimizedAffinity 0.15976648
REMARK minimizedRMSD -1
REMARK  0 active torsions:
REMARK  status: ('A' for Active; 'I' for Inactive)
ROOT
ATOM      1  C   UNL d   1      -0.502   2.636   1.173  0.00  0.00     0.124 A 
ATOM      2  C1  UNL d   1      -0.790   1.385   1.699  0.00  0.00     0.062 A 
ATOM      3  C2  UNL d   1      -0.312   0.236   1.076  0.00  0.00     0.162 A 
ATOM      4  C3  UNL d   1       0.461   0.333  -0.081  0.00  0.00    -0.034 A 
ATOM      5  C4  UNL d   1       0.746   1.595  -0.606  0.00  0.00     0.162 A 
ATOM      6  C5  UNL d   1       0.265   2.740   0.021  0.00  0.00     0.062 A 
ATOM      7  F   UNL d   1       0.545   3.948  -0.489  0.00  0.00    -0.097 F 
ATOM      8  F1  UNL d   1       1.486   1.724  -1.717  0.00  0.00    -0.096 F 
ATOM      9  I   UNL d   1       1.178  -1.383  -1.017  0.00  0.00    -0.060 I 
ATOM     10  F2  UNL d   1      -0.606  -0.960   1.607  0.00  0.00    -0.096 F 
ATOM     11  F3  UNL d   1      -1.532   1.281   2.811  0.00  0.00    -0.097 F 
ATOM     12  F4  UNL d   1      -0.964   3.740   1.774  0.00  0.00    -0.092 F 
ENDROOT
TORSDOF 0
ENDMDL
