MODEL 1
REMARK minimizedAffinity -3.90634036
REMARK minimizedRMSD -1
REMARK  0 active torsions:
REMARK  status: ('A' for Active; 'I' for Inactive)
ROOT
ATOM      1  C   UNL d   1      -0.681  -0.228   1.702  0.00  0.00     0.124 A 
ATOM      2  C1  UNL d   1      -1.461   0.909   1.858  0.00  0.00     0.062 A 
ATOM      3  C2  UNL d   1      -1.301   1.991   0.999  0.00  0.00     0.162 A 
ATOM      4  C3  UNL d   1      -0.357   1.942  -0.027  0.00  0.00    -0.034 A 
ATOM      5  C4  UNL d   1       0.425   0.795  -0.177  0.00  0.00     0.162 A 
ATOM      6  C5  UNL d   1       0.261  -0.284   0.685  0.00  0.00     0.062 A 
ATOM      7  F   UNL d   1       1.016  -1.382   0.532  0.00  0.00    -0.097 F 
ATOM      8  F1  UNL d   1       1.343   0.714  -1.153  0.00  0.00    -0.096 F 
ATOM      9  I   UNL d   1      -0.114   3.559  -1.315  0.00  0.00    -0.060 I 
ATOM     10  F2  UNL d   1      -2.069   3.077   1.173  0.00  0.00    -0.096 F 
ATOM     11  F3  UNL d   1      -2.372   0.965   2.841  0.00  0.00    -0.097 F 
ATOM     12  F4  UNL d   1      -0.836  -1.268   2.531  0.00  0.00    -0.092 F 
ENDROOT
TORSDOF 0
ENDMDL
