MODEL 1
REMARK minimizedAffinity -5.50329208
REMARK minimizedRMSD -1
REMARK  0 active torsions:
REMARK  status: ('A' for Active; 'I' for Inactive)
ROOT
ATOM      1  C   UNL d   1      -1.121   2.859   0.422  0.00  0.00     0.124 A 
ATOM      2  C1  UNL d   1      -1.490   1.633   0.960  0.00  0.00     0.062 A 
ATOM      3  C2  UNL d   1      -0.833   0.471   0.567  0.00  0.00     0.162 A 
ATOM      4  C3  UNL d   1       0.200   0.527  -0.368  0.00  0.00    -0.034 A 
ATOM      5  C4  UNL d   1       0.565   1.763  -0.905  0.00  0.00     0.162 A 
ATOM      6  C5  UNL d   1      -0.095   2.922  -0.510  0.00  0.00     0.062 A 
ATOM      7  F   UNL d   1       0.262   4.105  -1.031  0.00  0.00    -0.097 F 
ATOM      8  F1  UNL d   1       1.554   1.854  -1.807  0.00  0.00    -0.096 F 
ATOM      9  I   UNL d   1       1.185  -1.209  -0.957  0.00  0.00    -0.060 I 
ATOM     10  F2  UNL d   1      -1.210  -0.700   1.104  0.00  0.00    -0.096 F 
ATOM     11  F3  UNL d   1      -2.482   1.569   1.859  0.00  0.00    -0.097 F 
ATOM     12  F4  UNL d   1      -1.756   3.976   0.800  0.00  0.00    -0.092 F 
ENDROOT
TORSDOF 0
ENDMDL
