MODEL 1
REMARK minimizedAffinity -1.68759644
REMARK minimizedRMSD -1
REMARK  0 active torsions:
REMARK  status: ('A' for Active; 'I' for Inactive)
ROOT
ATOM      1  C   UNL d   1      -0.135  -1.667  -3.512  0.00  0.00     0.172 C 
ATOM      2  N   UNL d   1      -0.525  -2.077  -2.183  0.00  0.00    -0.070 N 
ATOM      3  C1  UNL d   1      -1.767  -1.915  -1.630  0.00  0.00    -0.004 A 
ATOM      4  C2  UNL d   1      -1.732  -2.435  -0.355  0.00  0.00    -0.047 A 
ATOM      5  C3  UNL d   1      -0.423  -2.926  -0.133  0.00  0.00    -0.047 A 
ATOM      6  C4  UNL d   1       0.303  -2.691  -1.281  0.00  0.00    -0.004 A 
ENDROOT
TORSDOF 0
ENDMDL
