MODEL 1
REMARK minimizedAffinity -1.81831348
REMARK minimizedRMSD -1
REMARK  0 active torsions:
REMARK  status: ('A' for Active; 'I' for Inactive)
ROOT
ATOM      1  C   UNL d   1      -0.055  -5.245  -3.041  0.00  0.00     0.172 C 
ATOM      2  N   UNL d   1      -0.264  -3.880  -2.620  0.00  0.00    -0.070 N 
ATOM      3  C1  UNL d   1       0.026  -2.763  -3.357  0.00  0.00    -0.004 A 
ATOM      4  C2  UNL d   1      -0.319  -1.660  -2.607  0.00  0.00    -0.047 A 
ATOM      5  C3  UNL d   1      -0.834  -2.130  -1.375  0.00  0.00    -0.047 A 
ATOM      6  C4  UNL d   1      -0.789  -3.508  -1.410  0.00  0.00    -0.004 A 
ENDROOT
TORSDOF 0
ENDMDL
