MODEL 1
REMARK minimizedAffinity -0.723894
REMARK minimizedRMSD -1
REMARK  0 active torsions:
REMARK  status: ('A' for Active; 'I' for Inactive)
ROOT
ATOM      1  C   UNL d   1      -1.107  -2.425   0.177  0.00  0.00     0.172 C 
ATOM      2  N   UNL d   1      -0.514  -2.346  -1.137  0.00  0.00    -0.070 N 
ATOM      3  C1  UNL d   1      -1.200  -2.217  -2.316  0.00  0.00    -0.004 A 
ATOM      4  C2  UNL d   1      -0.277  -2.178  -3.338  0.00  0.00    -0.047 A 
ATOM      5  C3  UNL d   1       1.007  -2.289  -2.754  0.00  0.00    -0.047 A 
ATOM      6  C4  UNL d   1       0.831  -2.392  -1.391  0.00  0.00    -0.004 A 
ENDROOT
TORSDOF 0
ENDMDL
