MODEL 1
REMARK minimizedAffinity -1.13451362
REMARK minimizedRMSD -1
REMARK  0 active torsions:
REMARK  status: ('A' for Active; 'I' for Inactive)
ROOT
ATOM      1  C   UNL d   1       5.615  -3.390   6.000  0.00  0.00     0.172 C 
ATOM      2  N   UNL d   1       4.491  -2.664   5.458  0.00  0.00    -0.070 N 
ATOM      3  C1  UNL d   1       3.932  -1.537   6.000  0.00  0.00    -0.004 A 
ATOM      4  C2  UNL d   1       2.886  -1.152   5.188  0.00  0.00    -0.047 A 
ATOM      5  C3  UNL d   1       2.814  -2.081   4.123  0.00  0.00    -0.047 A 
ATOM      6  C4  UNL d   1       3.818  -3.006   4.315  0.00  0.00    -0.004 A 
ENDROOT
TORSDOF 0
ENDMDL
