MODEL 1
REMARK minimizedAffinity -0.332491219
REMARK minimizedRMSD -1
REMARK  0 active torsions:
REMARK  status: ('A' for Active; 'I' for Inactive)
ROOT
ATOM      1  C   UNL d   1       5.998   5.961  -0.620  0.00  0.00     0.172 C 
ATOM      2  N   UNL d   1       5.416   5.403  -1.818  0.00  0.00    -0.070 N 
ATOM      3  C1  UNL d   1       5.972   4.419  -2.591  0.00  0.00    -0.004 A 
ATOM      4  C2  UNL d   1       5.111   4.168  -3.638  0.00  0.00    -0.047 A 
ATOM      5  C3  UNL d   1       4.000   5.032  -3.488  0.00  0.00    -0.047 A 
ATOM      6  C4  UNL d   1       4.215   5.785  -2.354  0.00  0.00    -0.004 A 
ENDROOT
TORSDOF 0
ENDMDL
