MODEL 1
REMARK minimizedAffinity -2.33301425
REMARK minimizedRMSD -1
REMARK  0 active torsions:
REMARK  status: ('A' for Active; 'I' for Inactive)
ROOT
ATOM      1  C   UNL d   1       5.982   5.636  -1.687  0.00  0.00     0.172 C 
ATOM      2  N   UNL d   1       5.535   5.300  -3.018  0.00  0.00    -0.070 N 
ATOM      3  C1  UNL d   1       4.590   5.980  -3.738  0.00  0.00    -0.004 A 
ATOM      4  C2  UNL d   1       4.449   5.347  -4.954  0.00  0.00    -0.047 A 
ATOM      5  C3  UNL d   1       5.340   4.247  -4.965  0.00  0.00    -0.047 A 
ATOM      6  C4  UNL d   1       5.999   4.242  -3.754  0.00  0.00    -0.004 A 
ENDROOT
TORSDOF 0
ENDMDL
