MODEL 1
REMARK minimizedAffinity 1.43576741
REMARK minimizedRMSD -1
REMARK  0 active torsions:
REMARK  status: ('A' for Active; 'I' for Inactive)
ROOT
ATOM      1  C   UNL d   1       5.994   5.098  -0.661  0.00  0.00     0.172 C 
ATOM      2  N   UNL d   1       5.995   4.955  -2.098  0.00  0.00    -0.070 N 
ATOM      3  C1  UNL d   1       5.992   3.769  -2.782  0.00  0.00    -0.004 A 
ATOM      4  C2  UNL d   1       5.993   4.059  -4.129  0.00  0.00    -0.047 A 
ATOM      5  C3  UNL d   1       5.999   5.468  -4.259  0.00  0.00    -0.047 A 
ATOM      6  C4  UNL d   1       6.000   5.998  -2.986  0.00  0.00    -0.004 A 
ENDROOT
TORSDOF 0
ENDMDL
