MODEL 1
REMARK minimizedAffinity 0.297404587
REMARK minimizedRMSD -1
REMARK  0 active torsions:
REMARK  status: ('A' for Active; 'I' for Inactive)
ROOT
ATOM      1  C   UNL d   1       2.829   5.990  -3.798  0.00  0.00     0.172 C 
ATOM      2  N   UNL d   1       4.111   5.512  -3.336  0.00  0.00    -0.070 N 
ATOM      3  C1  UNL d   1       4.844   4.509  -3.913  0.00  0.00    -0.004 A 
ATOM      4  C2  UNL d   1       6.000   4.354  -3.179  0.00  0.00    -0.047 A 
ATOM      5  C3  UNL d   1       5.960   5.297  -2.124  0.00  0.00    -0.047 A 
ATOM      6  C4  UNL d   1       4.780   6.000  -2.245  0.00  0.00    -0.004 A 
ENDROOT
TORSDOF 0
ENDMDL
