MODEL 1
REMARK minimizedAffinity 1.69601953
REMARK minimizedRMSD -1
REMARK  0 active torsions:
REMARK  status: ('A' for Active; 'I' for Inactive)
ROOT
ATOM      1  C   UNL d   1       6.000   5.238  -2.408  0.00  0.00     0.172 C 
ATOM      2  N   UNL d   1       5.464   5.112  -3.743  0.00  0.00    -0.070 N 
ATOM      3  C1  UNL d   1       5.998   4.352  -4.749  0.00  0.00    -0.004 A 
ATOM      4  C2  UNL d   1       5.196   4.498  -5.860  0.00  0.00    -0.047 A 
ATOM      5  C3  UNL d   1       4.145   5.378  -5.511  0.00  0.00    -0.047 A 
ATOM      6  C4  UNL d   1       4.335   5.743  -4.194  0.00  0.00    -0.004 A 
ENDROOT
TORSDOF 0
ENDMDL
