MODEL 1
REMARK minimizedAffinity -2.69141889
REMARK minimizedRMSD -1
REMARK  0 active torsions:
REMARK  status: ('A' for Active; 'I' for Inactive)
ROOT
ATOM      1  C   UNL d   1       5.625   4.131  -5.525  0.00  0.00     0.172 C 
ATOM      2  N   UNL d   1       5.776   4.560  -4.154  0.00  0.00    -0.070 N 
ATOM      3  C1  UNL d   1       5.854   3.736  -3.064  0.00  0.00    -0.004 A 
ATOM      4  C2  UNL d   1       5.994   4.528  -1.945  0.00  0.00    -0.047 A 
ATOM      5  C3  UNL d   1       6.000   5.875  -2.378  0.00  0.00    -0.047 A 
ATOM      6  C4  UNL d   1       5.864   5.866  -3.750  0.00  0.00    -0.004 A 
ENDROOT
TORSDOF 0
ENDMDL
