MODEL 1
REMARK minimizedAffinity -2.28053164
REMARK minimizedRMSD -1
REMARK  0 active torsions:
REMARK  status: ('A' for Active; 'I' for Inactive)
ROOT
ATOM      1  C   UNL d   1       4.621   5.860  -5.647  0.00  0.00     0.172 C 
ATOM      2  N   UNL d   1       4.961   5.466  -4.300  0.00  0.00    -0.070 N 
ATOM      3  C1  UNL d   1       4.316   4.512  -3.560  0.00  0.00    -0.004 A 
ATOM      4  C2  UNL d   1       4.942   4.433  -2.335  0.00  0.00    -0.047 A 
ATOM      5  C3  UNL d   1       6.000   5.373  -2.338  0.00  0.00    -0.047 A 
ATOM      6  C4  UNL d   1       5.989   5.999  -3.567  0.00  0.00    -0.004 A 
ENDROOT
TORSDOF 0
ENDMDL
