MODEL 1
REMARK minimizedAffinity -0.305230409
REMARK minimizedRMSD -1
REMARK  0 active torsions:
REMARK  status: ('A' for Active; 'I' for Inactive)
ROOT
ATOM      1  C   UNL d   1      -0.370  -5.412  -3.398  0.00  0.00     0.172 C 
ATOM      2  N   UNL d   1      -0.152  -4.118  -2.794  0.00  0.00    -0.070 N 
ATOM      3  C1  UNL d   1      -0.513  -3.760  -1.522  0.00  0.00    -0.004 A 
ATOM      4  C2  UNL d   1      -0.132  -2.449  -1.329  0.00  0.00    -0.047 A 
ATOM      5  C3  UNL d   1       0.477  -2.005  -2.527  0.00  0.00    -0.047 A 
ATOM      6  C4  UNL d   1       0.451  -3.058  -3.417  0.00  0.00    -0.004 A 
ENDROOT
TORSDOF 0
ENDMDL
