MODEL 1
REMARK minimizedAffinity 1.56326747
REMARK minimizedRMSD -1
REMARK  0 active torsions:
REMARK  status: ('A' for Active; 'I' for Inactive)
ROOT
ATOM      1  C   UNL d   1      -0.387  -1.851  -1.694  0.00  0.00     0.172 C 
ATOM      2  N   UNL d   1      -1.280  -2.273  -0.640  0.00  0.00    -0.070 N 
ATOM      3  C1  UNL d   1      -2.644  -2.352  -0.734  0.00  0.00    -0.004 A 
ATOM      4  C2  UNL d   1      -3.125  -2.796   0.479  0.00  0.00    -0.047 A 
ATOM      5  C3  UNL d   1      -2.011  -2.989   1.331  0.00  0.00    -0.047 A 
ATOM      6  C4  UNL d   1      -0.882  -2.658   0.613  0.00  0.00    -0.004 A 
ENDROOT
TORSDOF 0
ENDMDL
