MODEL 1
REMARK minimizedAffinity -1.92827857
REMARK minimizedRMSD -1
REMARK  0 active torsions:
REMARK  status: ('A' for Active; 'I' for Inactive)
ROOT
ATOM      1  C   UNL d   1       6.000   5.988  -2.169  0.00  0.00     0.172 C 
ATOM      2  N   UNL d   1       5.687   5.309  -3.404  0.00  0.00    -0.070 N 
ATOM      3  C1  UNL d   1       6.000   4.010  -3.702  0.00  0.00    -0.004 A 
ATOM      4  C2  UNL d   1       5.531   3.743  -4.970  0.00  0.00    -0.047 A 
ATOM      5  C3  UNL d   1       4.915   4.923  -5.451  0.00  0.00    -0.047 A 
ATOM      6  C4  UNL d   1       5.026   5.877  -4.462  0.00  0.00    -0.004 A 
ENDROOT
TORSDOF 0
ENDMDL
