MODEL 1
REMARK minimizedAffinity -2.78901029
REMARK minimizedRMSD -1
REMARK  0 active torsions:
REMARK  status: ('A' for Active; 'I' for Inactive)
ROOT
ATOM      1  C   UNL d   1       2.282  -1.114   5.999  0.00  0.00     0.172 C 
ATOM      2  N   UNL d   1       3.349  -1.856   5.367  0.00  0.00    -0.070 N 
ATOM      3  C1  UNL d   1       4.511  -2.254   5.972  0.00  0.00    -0.004 A 
ATOM      4  C2  UNL d   1       5.262  -2.932   5.036  0.00  0.00    -0.047 A 
ATOM      5  C3  UNL d   1       4.526  -2.941   3.828  0.00  0.00    -0.047 A 
ATOM      6  C4  UNL d   1       3.346  -2.267   4.061  0.00  0.00    -0.004 A 
ENDROOT
TORSDOF 0
ENDMDL
