MODEL 1
REMARK minimizedAffinity 0.266884863
REMARK minimizedRMSD -1
REMARK  0 active torsions:
REMARK  status: ('A' for Active; 'I' for Inactive)
ROOT
ATOM      1  C   UNL d   1       6.000   3.350  -5.043  0.00  0.00     0.172 C 
ATOM      2  N   UNL d   1       5.408   4.414  -4.265  0.00  0.00    -0.070 N 
ATOM      3  C1  UNL d   1       5.998   5.053  -3.208  0.00  0.00    -0.004 A 
ATOM      4  C2  UNL d   1       5.112   6.000  -2.740  0.00  0.00    -0.047 A 
ATOM      5  C3  UNL d   1       3.950   5.926  -3.543  0.00  0.00    -0.047 A 
ATOM      6  C4  UNL d   1       4.159   4.935  -4.479  0.00  0.00    -0.004 A 
ENDROOT
TORSDOF 0
ENDMDL
