MODEL 1
REMARK minimizedAffinity 3.33241272
REMARK minimizedRMSD -1
REMARK  0 active torsions:
REMARK  status: ('A' for Active; 'I' for Inactive)
ROOT
ATOM      1  C   UNL d   1       3.093  -2.843   3.916  0.00  0.00     0.172 C 
ATOM      2  N   UNL d   1       4.147  -2.328   4.758  0.00  0.00    -0.070 N 
ATOM      3  C1  UNL d   1       4.260  -1.036   5.196  0.00  0.00    -0.004 A 
ATOM      4  C2  UNL d   1       5.396  -0.950   5.972  0.00  0.00    -0.047 A 
ATOM      5  C3  UNL d   1       5.987  -2.236   6.000  0.00  0.00    -0.047 A 
ATOM      6  C4  UNL d   1       5.193  -3.069   5.240  0.00  0.00    -0.004 A 
ENDROOT
TORSDOF 0
ENDMDL
