MODEL 1
REMARK minimizedAffinity 3.34888077
REMARK minimizedRMSD -1
REMARK  0 active torsions:
REMARK  status: ('A' for Active; 'I' for Inactive)
ROOT
ATOM      1  C   UNL d   1       2.024   2.756   1.247  0.00  0.00     0.124 A 
ATOM      2  C1  UNL d   1       3.125   2.161   0.647  0.00  0.00     0.062 A 
ATOM      3  C2  UNL d   1       2.956   1.313  -0.443  0.00  0.00     0.162 A 
ATOM      4  C3  UNL d   1       1.679   1.054  -0.941  0.00  0.00    -0.034 A 
ATOM      5  C4  UNL d   1       0.576   1.655  -0.332  0.00  0.00     0.162 A 
ATOM      6  C5  UNL d   1       0.751   2.502   0.758  0.00  0.00     0.062 A 
ATOM      7  F   UNL d   1      -0.315   3.075   1.336  0.00  0.00    -0.097 F 
ATOM      8  F1  UNL d   1      -0.666   1.428  -0.786  0.00  0.00    -0.096 F 
ATOM      9  I   UNL d   1       1.421  -0.214  -2.571  0.00  0.00    -0.060 I 
ATOM     10  F2  UNL d   1       4.038   0.752  -1.003  0.00  0.00    -0.096 F 
ATOM     11  F3  UNL d   1       4.357   2.404   1.119  0.00  0.00    -0.097 F 
ATOM     12  F4  UNL d   1       2.190   3.571   2.297  0.00  0.00    -0.092 F 
ENDROOT
TORSDOF 0
ENDMDL
