MODEL 1
REMARK minimizedAffinity 11.1923676
REMARK minimizedRMSD -1
REMARK  0 active torsions:
REMARK  status: ('A' for Active; 'I' for Inactive)
ROOT
ATOM      1  C   UNL d   1       2.539   3.461   1.660  0.00  0.00     0.124 A 
ATOM      2  C1  UNL d   1       1.200   3.664   1.963  0.00  0.00     0.062 A 
ATOM      3  C2  UNL d   1       0.233   2.783   1.488  0.00  0.00     0.162 A 
ATOM      4  C3  UNL d   1       0.601   1.689   0.704  0.00  0.00    -0.034 A 
ATOM      5  C4  UNL d   1       1.950   1.492   0.403  0.00  0.00     0.162 A 
ATOM      6  C5  UNL d   1       2.913   2.375   0.880  0.00  0.00     0.062 A 
ATOM      7  F   UNL d   1       4.206   2.177   0.586  0.00  0.00    -0.097 F 
ATOM      8  F1  UNL d   1       2.339   0.450  -0.348  0.00  0.00    -0.096 F 
ATOM      9  I   UNL d   1      -0.842   0.370  -0.008  0.00  0.00    -0.060 I 
ATOM     10  F2  UNL d   1      -1.054   3.004   1.796  0.00  0.00    -0.096 F 
ATOM     11  F3  UNL d   1       0.836   4.713   2.715  0.00  0.00    -0.097 F 
ATOM     12  F4  UNL d   1       3.467   4.311   2.117  0.00  0.00    -0.092 F 
ENDROOT
TORSDOF 0
ENDMDL
