MODEL 1
REMARK minimizedAffinity -0.0995478258
REMARK minimizedRMSD -1
REMARK  0 active torsions:
REMARK  status: ('A' for Active; 'I' for Inactive)
ROOT
ATOM      1  C   UNL d   1      -0.984  -1.805   0.878  0.00  0.00     0.124 A 
ATOM      2  C1  UNL d   1      -0.500  -2.463  -0.244  0.00  0.00     0.062 A 
ATOM      3  C2  UNL d   1       0.221  -1.765  -1.208  0.00  0.00     0.162 A 
ATOM      4  C3  UNL d   1       0.464  -0.400  -1.054  0.00  0.00    -0.034 A 
ATOM      5  C4  UNL d   1      -0.026   0.255   0.077  0.00  0.00     0.162 A 
ATOM      6  C5  UNL d   1      -0.747  -0.447   1.038  0.00  0.00     0.062 A 
ATOM      7  F   UNL d   1      -1.213   0.190   2.122  0.00  0.00    -0.097 F 
ATOM      8  F1  UNL d   1       0.189   1.567   0.257  0.00  0.00    -0.096 F 
ATOM      9  I   UNL d   1       1.542   0.648  -2.493  0.00  0.00    -0.060 I 
ATOM     10  F2  UNL d   1       0.676  -2.426  -2.282  0.00  0.00    -0.096 F 
ATOM     11  F3  UNL d   1      -0.729  -3.775  -0.401  0.00  0.00    -0.097 F 
ATOM     12  F4  UNL d   1      -1.679  -2.479   1.804  0.00  0.00    -0.092 F 
ENDROOT
TORSDOF 0
ENDMDL
