MODEL 1
REMARK minimizedAffinity -3.67202663
REMARK minimizedRMSD -1
REMARK  0 active torsions:
REMARK  status: ('A' for Active; 'I' for Inactive)
ROOT
ATOM      1  C   UNL d   1       0.427  -1.700  -1.224  0.00  0.00     0.124 A 
ATOM      2  C1  UNL d   1      -0.179  -2.460  -0.233  0.00  0.00     0.062 A 
ATOM      3  C2  UNL d   1      -0.823  -1.836   0.832  0.00  0.00     0.162 A 
ATOM      4  C3  UNL d   1      -0.866  -0.444   0.911  0.00  0.00    -0.034 A 
ATOM      5  C4  UNL d   1      -0.253   0.313  -0.089  0.00  0.00     0.162 A 
ATOM      6  C5  UNL d   1       0.389  -0.315  -1.151  0.00  0.00     0.062 A 
ATOM      7  F   UNL d   1       0.974   0.421  -2.108  0.00  0.00    -0.097 F 
ATOM      8  F1  UNL d   1      -0.275   1.653  -0.044  0.00  0.00    -0.096 F 
ATOM      9  I   UNL d   1      -1.828   0.492   2.501  0.00  0.00    -0.060 I 
ATOM     10  F2  UNL d   1      -1.400  -2.596   1.775  0.00  0.00    -0.096 F 
ATOM     11  F3  UNL d   1      -0.143  -3.799  -0.300  0.00  0.00    -0.097 F 
ATOM     12  F4  UNL d   1       1.047  -2.303  -2.247  0.00  0.00    -0.092 F 
ENDROOT
TORSDOF 0
ENDMDL
