MODEL 1
REMARK minimizedAffinity 3.82699394
REMARK minimizedRMSD -1
REMARK  0 active torsions:
REMARK  status: ('A' for Active; 'I' for Inactive)
ROOT
ATOM      1  C   UNL d   1       0.601   2.840   1.086  0.00  0.00     0.124 A 
ATOM      2  C1  UNL d   1       0.762   1.928   0.052  0.00  0.00     0.062 A 
ATOM      3  C2  UNL d   1       2.038   1.591  -0.391  0.00  0.00     0.162 A 
ATOM      4  C3  UNL d   1       3.163   2.166   0.200  0.00  0.00    -0.034 A 
ATOM      5  C4  UNL d   1       2.993   3.083   1.238  0.00  0.00     0.162 A 
ATOM      6  C5  UNL d   1       1.716   3.417   1.677  0.00  0.00     0.062 A 
ATOM      7  F   UNL d   1       1.562   4.299   2.676  0.00  0.00    -0.097 F 
ATOM      8  F1  UNL d   1       4.053   3.655   1.828  0.00  0.00    -0.096 F 
ATOM      9  I   UNL d   1       5.072   1.664  -0.460  0.00  0.00    -0.060 I 
ATOM     10  F2  UNL d   1       2.164   0.706  -1.391  0.00  0.00    -0.096 F 
ATOM     11  F3  UNL d   1      -0.313   1.370  -0.522  0.00  0.00    -0.097 F 
ATOM     12  F4  UNL d   1      -0.628   3.164   1.510  0.00  0.00    -0.092 F 
ENDROOT
TORSDOF 0
ENDMDL
