MODEL 1
REMARK minimizedAffinity 7.35580349
REMARK minimizedRMSD -1
REMARK  0 active torsions:
REMARK  status: ('A' for Active; 'I' for Inactive)
ROOT
ATOM      1  C   UNL d   1      -1.149  -1.782   0.448  0.00  0.00     0.124 A 
ATOM      2  C1  UNL d   1      -1.245  -1.318   1.753  0.00  0.00     0.062 A 
ATOM      3  C2  UNL d   1      -0.923   0.003   2.051  0.00  0.00     0.162 A 
ATOM      4  C3  UNL d   1      -0.502   0.869   1.042  0.00  0.00    -0.034 A 
ATOM      5  C4  UNL d   1      -0.407   0.395  -0.267  0.00  0.00     0.162 A 
ATOM      6  C5  UNL d   1      -0.731  -0.926  -0.560  0.00  0.00     0.062 A 
ATOM      7  F   UNL d   1      -0.637  -1.373  -1.821  0.00  0.00    -0.097 F 
ATOM      8  F1  UNL d   1      -0.006   1.202  -1.261  0.00  0.00    -0.096 F 
ATOM      9  I   UNL d   1      -0.019   2.845   1.485  0.00  0.00    -0.060 I 
ATOM     10  F2  UNL d   1      -1.024   0.424   3.320  0.00  0.00    -0.096 F 
ATOM     11  F3  UNL d   1      -1.648  -2.144   2.729  0.00  0.00    -0.097 F 
ATOM     12  F4  UNL d   1      -1.459  -3.054   0.164  0.00  0.00    -0.092 F 
ENDROOT
TORSDOF 0
ENDMDL
