MODEL 1
REMARK minimizedAffinity -3.35620999
REMARK minimizedRMSD -1
REMARK  0 active torsions:
REMARK  status: ('A' for Active; 'I' for Inactive)
ROOT
ATOM      1  C   UNL d   1       0.321  -1.621  -0.656  0.00  0.00     0.124 A 
ATOM      2  C1  UNL d   1      -0.182  -1.285   0.594  0.00  0.00     0.062 A 
ATOM      3  C2  UNL d   1      -0.171   0.040   1.019  0.00  0.00     0.162 A 
ATOM      4  C3  UNL d   1       0.344   1.040   0.194  0.00  0.00    -0.034 A 
ATOM      5  C4  UNL d   1       0.849   0.694  -1.060  0.00  0.00     0.162 A 
ATOM      6  C5  UNL d   1       0.836  -0.632  -1.481  0.00  0.00     0.062 A 
ATOM      7  F   UNL d   1       1.322  -0.954  -2.688  0.00  0.00    -0.097 F 
ATOM      8  F1  UNL d   1       1.351   1.631  -1.879  0.00  0.00    -0.096 F 
ATOM      9  I   UNL d   1       0.361   3.023   0.827  0.00  0.00    -0.060 I 
ATOM     10  F2  UNL d   1      -0.664   0.336   2.231  0.00  0.00    -0.096 F 
ATOM     11  F3  UNL d   1      -0.679  -2.240   1.393  0.00  0.00    -0.097 F 
ATOM     12  F4  UNL d   1       0.310  -2.897  -1.062  0.00  0.00    -0.092 F 
ENDROOT
TORSDOF 0
ENDMDL
