MODEL 1
REMARK minimizedAffinity -3.65674162
REMARK minimizedRMSD -1
REMARK  0 active torsions:
REMARK  status: ('A' for Active; 'I' for Inactive)
ROOT
ATOM      1  C   UNL d   1      -0.903  -1.933   1.219  0.00  0.00     0.124 A 
ATOM      2  C1  UNL d   1      -0.167  -2.618   0.261  0.00  0.00     0.062 A 
ATOM      3  C2  UNL d   1       0.618  -1.918  -0.650  0.00  0.00     0.162 A 
ATOM      4  C3  UNL d   1       0.672  -0.525  -0.609  0.00  0.00    -0.034 A 
ATOM      5  C4  UNL d   1      -0.071   0.156   0.356  0.00  0.00     0.162 A 
ATOM      6  C5  UNL d   1      -0.855  -0.547   1.265  0.00  0.00     0.062 A 
ATOM      7  F   UNL d   1      -1.565   0.116   2.189  0.00  0.00    -0.097 F 
ATOM      8  F1  UNL d   1      -0.042   1.496   0.424  0.00  0.00    -0.096 F 
ATOM      9  I   UNL d   1       1.846   0.524  -1.970  0.00  0.00    -0.060 I 
ATOM     10  F2  UNL d   1       1.319  -2.606  -1.564  0.00  0.00    -0.096 F 
ATOM     11  F3  UNL d   1      -0.213  -3.957   0.214  0.00  0.00    -0.097 F 
ATOM     12  F4  UNL d   1      -1.659  -2.609   2.094  0.00  0.00    -0.092 F 
ENDROOT
TORSDOF 0
ENDMDL
