MODEL 1
REMARK minimizedAffinity 15.8535395
REMARK minimizedRMSD -1
REMARK  0 active torsions:
REMARK  status: ('A' for Active; 'I' for Inactive)
ROOT
ATOM      1  C   UNL d   1       2.176   3.685   1.092  0.00  0.00     0.124 A 
ATOM      2  C1  UNL d   1       0.902   3.879   1.606  0.00  0.00     0.062 A 
ATOM      3  C2  UNL d   1      -0.072   2.896   1.453  0.00  0.00     0.162 A 
ATOM      4  C3  UNL d   1       0.226   1.708   0.784  0.00  0.00    -0.034 A 
ATOM      5  C4  UNL d   1       1.511   1.521   0.269  0.00  0.00     0.162 A 
ATOM      6  C5  UNL d   1       2.480   2.507   0.425  0.00  0.00     0.062 A 
ATOM      7  F   UNL d   1       3.711   2.318  -0.072  0.00  0.00    -0.097 F 
ATOM      8  F1  UNL d   1       1.831   0.391  -0.379  0.00  0.00    -0.096 F 
ATOM      9  I   UNL d   1      -1.226   0.236   0.553  0.00  0.00    -0.060 I 
ATOM     10  F2  UNL d   1      -1.295   3.110   1.959  0.00  0.00    -0.096 F 
ATOM     11  F3  UNL d   1       0.606   5.017   2.250  0.00  0.00    -0.097 F 
ATOM     12  F4  UNL d   1       3.111   4.633   1.240  0.00  0.00    -0.092 F 
ENDROOT
TORSDOF 0
ENDMDL
