MODEL 1
REMARK minimizedAffinity -3.51312757
REMARK minimizedRMSD -1
REMARK  0 active torsions:
REMARK  status: ('A' for Active; 'I' for Inactive)
ROOT
ATOM      1  C   UNL d   1       1.940   1.607  -2.100  0.00  0.00     0.124 A 
ATOM      2  C1  UNL d   1       1.842   2.044  -0.786  0.00  0.00     0.062 A 
ATOM      3  C2  UNL d   1       1.155   1.283   0.155  0.00  0.00     0.162 A 
ATOM      4  C3  UNL d   1       0.560   0.076  -0.214  0.00  0.00    -0.034 A 
ATOM      5  C4  UNL d   1       0.662  -0.356  -1.538  0.00  0.00     0.162 A 
ATOM      6  C5  UNL d   1       1.350   0.408  -2.475  0.00  0.00     0.062 A 
ATOM      7  F   UNL d   1       1.443  -0.015  -3.744  0.00  0.00    -0.097 F 
ATOM      8  F1  UNL d   1       0.102  -1.511  -1.926  0.00  0.00    -0.096 F 
ATOM      9  I   UNL d   1      -0.468  -1.065   1.190  0.00  0.00    -0.060 I 
ATOM     10  F2  UNL d   1       1.077   1.729   1.417  0.00  0.00    -0.096 F 
ATOM     11  F3  UNL d   1       2.411   3.202  -0.422  0.00  0.00    -0.097 F 
ATOM     12  F4  UNL d   1       2.601   2.342  -3.004  0.00  0.00    -0.092 F 
ENDROOT
TORSDOF 0
ENDMDL
