MODEL 1
REMARK minimizedAffinity -4.55110788
REMARK minimizedRMSD -1
REMARK  0 active torsions:
REMARK  status: ('A' for Active; 'I' for Inactive)
ROOT
ATOM      1  C   UNL d   1       1.696   1.987  -0.336  0.00  0.00     0.124 A 
ATOM      2  C1  UNL d   1       1.525   1.054  -1.349  0.00  0.00     0.062 A 
ATOM      3  C2  UNL d   1       0.859  -0.141  -1.095  0.00  0.00     0.162 A 
ATOM      4  C3  UNL d   1       0.359  -0.411   0.179  0.00  0.00    -0.034 A 
ATOM      5  C4  UNL d   1       0.537   0.531   1.194  0.00  0.00     0.162 A 
ATOM      6  C5  UNL d   1       1.202   1.725   0.934  0.00  0.00     0.062 A 
ATOM      7  F   UNL d   1       1.367   2.625   1.915  0.00  0.00    -0.097 F 
ATOM      8  F1  UNL d   1       0.068   0.304   2.430  0.00  0.00    -0.096 F 
ATOM      9  I   UNL d   1      -0.636  -2.198   0.564  0.00  0.00    -0.060 I 
ATOM     10  F2  UNL d   1       0.708  -1.024  -2.093  0.00  0.00    -0.096 F 
ATOM     11  F3  UNL d   1       2.002   1.305  -2.577  0.00  0.00    -0.097 F 
ATOM     12  F4  UNL d   1       2.338   3.136  -0.583  0.00  0.00    -0.092 F 
ENDROOT
TORSDOF 0
ENDMDL
