MODEL 1
REMARK minimizedAffinity -2.56361699
REMARK minimizedRMSD -1
REMARK  0 active torsions:
REMARK  status: ('A' for Active; 'I' for Inactive)
ROOT
ATOM      1  C   UNL d   1       1.216   0.964  -1.489  0.00  0.00     0.124 A 
ATOM      2  C1  UNL d   1       1.364  -0.357  -1.890  0.00  0.00     0.062 A 
ATOM      3  C2  UNL d   1       0.744  -1.378  -1.177  0.00  0.00     0.162 A 
ATOM      4  C3  UNL d   1      -0.031  -1.084  -0.055  0.00  0.00    -0.034 A 
ATOM      5  C4  UNL d   1      -0.174   0.247   0.343  0.00  0.00     0.162 A 
ATOM      6  C5  UNL d   1       0.448   1.264  -0.373  0.00  0.00     0.062 A 
ATOM      7  F   UNL d   1       0.305   2.539   0.016  0.00  0.00    -0.097 F 
ATOM      8  F1  UNL d   1      -0.911   0.566   1.417  0.00  0.00    -0.096 F 
ATOM      9  I   UNL d   1      -0.960  -2.608   1.015  0.00  0.00    -0.060 I 
ATOM     10  F2  UNL d   1       0.903  -2.645  -1.587  0.00  0.00    -0.096 F 
ATOM     11  F3  UNL d   1       2.106  -0.650  -2.967  0.00  0.00    -0.097 F 
ATOM     12  F4  UNL d   1       1.815   1.945  -2.176  0.00  0.00    -0.092 F 
ENDROOT
TORSDOF 0
ENDMDL
