MODEL 1
REMARK minimizedAffinity 11.5418434
REMARK minimizedRMSD -1
REMARK  0 active torsions:
REMARK  status: ('A' for Active; 'I' for Inactive)
ROOT
ATOM      1  C   UNL d   1      -0.244  -0.736   2.327  0.00  0.00     0.124 A 
ATOM      2  C1  UNL d   1      -1.372  -0.093   1.837  0.00  0.00     0.062 A 
ATOM      3  C2  UNL d   1      -2.282  -0.783   1.041  0.00  0.00     0.162 A 
ATOM      4  C3  UNL d   1      -2.067  -2.125   0.729  0.00  0.00    -0.034 A 
ATOM      5  C4  UNL d   1      -0.930  -2.766   1.225  0.00  0.00     0.162 A 
ATOM      6  C5  UNL d   1      -0.024  -2.072   2.020  0.00  0.00     0.062 A 
ATOM      7  F   UNL d   1       1.065  -2.695   2.492  0.00  0.00    -0.097 F 
ATOM      8  F1  UNL d   1      -0.693  -4.056   0.945  0.00  0.00    -0.096 F 
ATOM      9  I   UNL d   1      -3.424  -3.161  -0.462  0.00  0.00    -0.060 I 
ATOM     10  F2  UNL d   1      -3.363  -0.136   0.581  0.00  0.00    -0.096 F 
ATOM     11  F3  UNL d   1      -1.587   1.198   2.131  0.00  0.00    -0.097 F 
ATOM     12  F4  UNL d   1       0.629  -0.070   3.092  0.00  0.00    -0.092 F 
ENDROOT
TORSDOF 0
ENDMDL
