MODEL 1
REMARK minimizedAffinity 6.13124752
REMARK minimizedRMSD -1
REMARK  0 active torsions:
REMARK  status: ('A' for Active; 'I' for Inactive)
ROOT
ATOM      1  C   UNL d   1       2.396   1.315  -1.421  0.00  0.00     0.124 A 
ATOM      2  C1  UNL d   1       2.145   1.892  -0.184  0.00  0.00     0.062 A 
ATOM      3  C2  UNL d   1       0.982   1.574   0.513  0.00  0.00     0.162 A 
ATOM      4  C3  UNL d   1       0.062   0.675  -0.026  0.00  0.00    -0.034 A 
ATOM      5  C4  UNL d   1       0.322   0.100  -1.271  0.00  0.00     0.162 A 
ATOM      6  C5  UNL d   1       1.485   0.420  -1.964  0.00  0.00     0.062 A 
ATOM      7  F   UNL d   1       1.726  -0.137  -3.159  0.00  0.00    -0.097 F 
ATOM      8  F1  UNL d   1      -0.541  -0.769  -1.819  0.00  0.00    -0.096 F 
ATOM      9  I   UNL d   1      -1.677   0.197   1.013  0.00  0.00    -0.060 I 
ATOM     10  F2  UNL d   1       0.765   2.146   1.706  0.00  0.00    -0.096 F 
ATOM     11  F3  UNL d   1       3.023   2.757   0.342  0.00  0.00    -0.097 F 
ATOM     12  F4  UNL d   1       3.515   1.623  -2.090  0.00  0.00    -0.092 F 
ENDROOT
TORSDOF 0
ENDMDL
