MODEL 1
REMARK minimizedAffinity -2.4931488
REMARK minimizedRMSD -1
REMARK  0 active torsions:
REMARK  status: ('A' for Active; 'I' for Inactive)
ROOT
ATOM      1  C   UNL d   1       0.731  -0.689  -1.768  0.00  0.00     0.124 A 
ATOM      2  C1  UNL d   1       1.553   0.323  -2.243  0.00  0.00     0.062 A 
ATOM      3  C2  UNL d   1       1.857   1.415  -1.435  0.00  0.00     0.162 A 
ATOM      4  C3  UNL d   1       1.340   1.499  -0.142  0.00  0.00    -0.034 A 
ATOM      5  C4  UNL d   1       0.513   0.478   0.328  0.00  0.00     0.162 A 
ATOM      6  C5  UNL d   1       0.212  -0.611  -0.483  0.00  0.00     0.062 A 
ATOM      7  F   UNL d   1      -0.583  -1.588  -0.023  0.00  0.00    -0.097 F 
ATOM      8  F1  UNL d   1      -0.001   0.527   1.566  0.00  0.00    -0.096 F 
ATOM      9  I   UNL d   1       1.793   3.130   1.070  0.00  0.00    -0.060 I 
ATOM     10  F2  UNL d   1       2.655   2.378  -1.920  0.00  0.00    -0.096 F 
ATOM     11  F3  UNL d   1       2.055   0.250  -3.484  0.00  0.00    -0.097 F 
ATOM     12  F4  UNL d   1       0.438  -1.738  -2.548  0.00  0.00    -0.092 F 
ENDROOT
TORSDOF 0
ENDMDL
