MODEL 1
REMARK minimizedAffinity 2.59054613
REMARK minimizedRMSD -1
REMARK  0 active torsions:
REMARK  status: ('A' for Active; 'I' for Inactive)
ROOT
ATOM      1  C   UNL d   1      -0.042   0.274  -0.539  0.00  0.00     0.124 A 
ATOM      2  C1  UNL d   1       1.309   0.562  -0.677  0.00  0.00     0.062 A 
ATOM      3  C2  UNL d   1       1.844   1.707  -0.093  0.00  0.00     0.162 A 
ATOM      4  C3  UNL d   1       1.028   2.573   0.634  0.00  0.00    -0.034 A 
ATOM      5  C4  UNL d   1      -0.330   2.278   0.768  0.00  0.00     0.162 A 
ATOM      6  C5  UNL d   1      -0.860   1.132   0.183  0.00  0.00     0.062 A 
ATOM      7  F   UNL d   1      -2.165   0.857   0.317  0.00  0.00    -0.097 F 
ATOM      8  F1  UNL d   1      -1.143   3.089   1.461  0.00  0.00    -0.096 F 
ATOM      9  I   UNL d   1       1.825   4.286   1.508  0.00  0.00    -0.060 I 
ATOM     10  F2  UNL d   1       3.153   1.959  -0.243  0.00  0.00    -0.096 F 
ATOM     11  F3  UNL d   1       2.101  -0.265  -1.374  0.00  0.00    -0.097 F 
ATOM     12  F4  UNL d   1      -0.555  -0.827  -1.102  0.00  0.00    -0.092 F 
ENDROOT
TORSDOF 0
ENDMDL
