MODEL 1
REMARK minimizedAffinity -2.08169699
REMARK minimizedRMSD -1
REMARK  0 active torsions:
REMARK  status: ('A' for Active; 'I' for Inactive)
ROOT
ATOM      1  O1  BZF d   1       0.615  -1.016  -1.200  0.00  0.00    -0.204 OA
ATOM      2  C2  BZF d   1       0.816  -2.178  -0.480  0.00  0.00     0.174 A 
ATOM      3  C3  BZF d   1       0.098  -2.163   0.661  0.00  0.00    -0.012 A 
ATOM      4  C3A BZF d   1      -0.666  -0.955   0.610  0.00  0.00    -0.107 A 
ATOM      5  C4  BZF d   1      -1.582  -0.386   1.448  0.00  0.00     0.055 A 
ATOM      6  C5  BZF d   1      -2.090   0.836   1.141  0.00  0.00    -0.016 A 
ATOM      7  C6  BZF d   1      -1.701   1.520   0.008  0.00  0.00     0.022 A 
ATOM      8  C7  BZF d   1      -0.800   0.994  -0.857  0.00  0.00     0.029 A 
ATOM      9  C7A BZF d   1      -0.309  -0.256  -0.567  0.00  0.00     0.058 A 
ENDROOT
TORSDOF 0
ENDMDL
