MODEL 1
REMARK minimizedAffinity -2.40791583
REMARK minimizedRMSD -1
REMARK  0 active torsions:
REMARK  status: ('A' for Active; 'I' for Inactive)
ROOT
ATOM      1  O1  BZF d   1      -3.761  -0.405   5.006  0.00  0.00    -0.204 OA
ATOM      2  C2  BZF d   1      -4.306  -1.519   4.398  0.00  0.00     0.174 A 
ATOM      3  C3  BZF d   1      -3.948  -1.579   3.099  0.00  0.00    -0.012 A 
ATOM      4  C3A BZF d   1      -3.053  -0.479   2.905  0.00  0.00    -0.107 A 
ATOM      5  C4  BZF d   1      -2.350  -0.020   1.828  0.00  0.00     0.055 A 
ATOM      6  C5  BZF d   1      -1.624   1.122   1.951  0.00  0.00    -0.016 A 
ATOM      7  C6  BZF d   1      -1.582   1.832   3.134  0.00  0.00     0.022 A 
ATOM      8  C7  BZF d   1      -2.258   1.412   4.231  0.00  0.00     0.029 A 
ATOM      9  C7A BZF d   1      -2.967   0.241   4.119  0.00  0.00     0.058 A 
ENDROOT
TORSDOF 0
ENDMDL
