MODEL 1
REMARK minimizedAffinity -0.0651067123
REMARK minimizedRMSD -1
REMARK  0 active torsions:
REMARK  status: ('A' for Active; 'I' for Inactive)
ROOT
ATOM      1  O1  BZF d   1       0.626   2.083  -1.603  0.00  0.00    -0.204 OA
ATOM      2  C2  BZF d   1       1.428   2.395  -2.684  0.00  0.00     0.174 A 
ATOM      3  C3  BZF d   1       2.256   1.372  -2.978  0.00  0.00    -0.012 A 
ATOM      4  C3A BZF d   1       1.888   0.321  -2.079  0.00  0.00    -0.107 A 
ATOM      5  C4  BZF d   1       2.337  -0.955  -1.892  0.00  0.00     0.055 A 
ATOM      6  C5  BZF d   1       1.817  -1.697  -0.880  0.00  0.00    -0.016 A 
ATOM      7  C6  BZF d   1       0.850  -1.194  -0.033  0.00  0.00     0.022 A 
ATOM      8  C7  BZF d   1       0.370   0.064  -0.182  0.00  0.00     0.029 A 
ATOM      9  C7A BZF d   1       0.871   0.805  -1.224  0.00  0.00     0.058 A 
ENDROOT
TORSDOF 0
ENDMDL
