MODEL 1
REMARK minimizedAffinity -2.02955222
REMARK minimizedRMSD -1
REMARK  0 active torsions:
REMARK  status: ('A' for Active; 'I' for Inactive)
ROOT
ATOM      1  O1  BZF d   1      -3.449  -1.383   4.985  0.00  0.00    -0.204 OA
ATOM      2  C2  BZF d   1      -4.473  -1.956   4.255  0.00  0.00     0.174 A 
ATOM      3  C3  BZF d   1      -4.553  -1.404   3.027  0.00  0.00    -0.012 A 
ATOM      4  C3A BZF d   1      -3.455  -0.490   2.954  0.00  0.00    -0.107 A 
ATOM      5  C4  BZF d   1      -2.993   0.347   1.978  0.00  0.00     0.055 A 
ATOM      6  C5  BZF d   1      -1.940   1.161   2.250  0.00  0.00    -0.016 A 
ATOM      7  C6  BZF d   1      -1.328   1.169   3.486  0.00  0.00     0.022 A 
ATOM      8  C7  BZF d   1      -1.747   0.353   4.484  0.00  0.00     0.029 A 
ATOM      9  C7A BZF d   1      -2.790  -0.495   4.202  0.00  0.00     0.058 A 
ENDROOT
TORSDOF 0
ENDMDL
