MODEL 1
REMARK minimizedAffinity -3.00272346
REMARK minimizedRMSD -1
REMARK  0 active torsions:
REMARK  status: ('A' for Active; 'I' for Inactive)
ROOT
ATOM      1  O1  BZF d   1      -0.280   0.313   1.821  0.00  0.00    -0.204 OA
ATOM      2  C2  BZF d   1      -1.565   0.562   1.380  0.00  0.00     0.174 A 
ATOM      3  C3  BZF d   1      -1.684   0.281   0.066  0.00  0.00    -0.012 A 
ATOM      4  C3A BZF d   1      -0.416  -0.259  -0.318  0.00  0.00    -0.107 A 
ATOM      5  C4  BZF d   1       0.082  -0.740  -1.496  0.00  0.00     0.055 A 
ATOM      6  C5  BZF d   1       1.383  -1.125  -1.555  0.00  0.00    -0.016 A 
ATOM      7  C6  BZF d   1       2.216  -1.039  -0.458  0.00  0.00     0.022 A 
ATOM      8  C7  BZF d   1       1.767  -0.574   0.733  0.00  0.00     0.029 A 
ATOM      9  C7A BZF d   1       0.443  -0.215   0.804  0.00  0.00     0.058 A 
ENDROOT
TORSDOF 0
ENDMDL
