MODEL 1
REMARK minimizedAffinity -4.77732468
REMARK minimizedRMSD -1
REMARK  0 active torsions:
REMARK  status: ('A' for Active; 'I' for Inactive)
ROOT
ATOM      1  O1  BZF d   1      -0.078   1.289  -0.593  0.00  0.00    -0.204 OA
ATOM      2  C2  BZF d   1      -1.327   1.098  -0.035  0.00  0.00     0.174 A 
ATOM      3  C3  BZF d   1      -1.479  -0.178   0.373  0.00  0.00    -0.012 A 
ATOM      4  C3A BZF d   1      -0.214  -0.803   0.135  0.00  0.00    -0.107 A 
ATOM      5  C4  BZF d   1       0.265  -2.063   0.348  0.00  0.00     0.055 A 
ATOM      6  C5  BZF d   1       1.523  -2.370  -0.064  0.00  0.00    -0.016 A 
ATOM      7  C6  BZF d   1       2.326  -1.444  -0.697  0.00  0.00     0.022 A 
ATOM      8  C7  BZF d   1       1.896  -0.179  -0.926  0.00  0.00     0.029 A 
ATOM      9  C7A BZF d   1       0.637   0.143  -0.481  0.00  0.00     0.058 A 
ENDROOT
TORSDOF 0
ENDMDL
