MODEL 1
REMARK minimizedAffinity -4.52331734
REMARK minimizedRMSD -1
REMARK  0 active torsions:
REMARK  status: ('A' for Active; 'I' for Inactive)
ROOT
ATOM      1  O1  BZF d   1       1.941  -1.576  -0.924  0.00  0.00    -0.204 OA
ATOM      2  C2  BZF d   1       2.792  -0.561  -1.318  0.00  0.00     0.174 A 
ATOM      3  C3  BZF d   1       2.161   0.631  -1.287  0.00  0.00    -0.012 A 
ATOM      4  C3A BZF d   1       0.860   0.354  -0.757  0.00  0.00    -0.107 A 
ATOM      5  C4  BZF d   1      -0.223   1.135  -0.472  0.00  0.00     0.055 A 
ATOM      6  C5  BZF d   1      -1.365   0.545  -0.033  0.00  0.00    -0.016 A 
ATOM      7  C6  BZF d   1      -1.462  -0.822   0.126  0.00  0.00     0.022 A 
ATOM      8  C7  BZF d   1      -0.412  -1.637  -0.139  0.00  0.00     0.029 A 
ATOM      9  C7A BZF d   1       0.754  -1.041  -0.551  0.00  0.00     0.058 A 
ENDROOT
TORSDOF 0
ENDMDL
