MODEL 1
REMARK minimizedAffinity -5.38253164
REMARK minimizedRMSD -1
REMARK  0 active torsions:
REMARK  status: ('A' for Active; 'I' for Inactive)
ROOT
ATOM      1  O1  BZF d   1      -1.311  -0.829   0.874  0.00  0.00    -0.204 OA
ATOM      2  C2  BZF d   1      -1.632   0.444   1.303  0.00  0.00     0.174 A 
ATOM      3  C3  BZF d   1      -0.745   1.345   0.833  0.00  0.00    -0.012 A 
ATOM      4  C3A BZF d   1       0.134   0.600  -0.015  0.00  0.00    -0.107 A 
ATOM      5  C4  BZF d   1       1.212   0.941  -0.782  0.00  0.00     0.055 A 
ATOM      6  C5  BZF d   1       1.896  -0.037  -1.432  0.00  0.00    -0.016 A 
ATOM      7  C6  BZF d   1       1.534  -1.364  -1.333  0.00  0.00     0.022 A 
ATOM      8  C7  BZF d   1       0.469  -1.751  -0.589  0.00  0.00     0.029 A 
ATOM      9  C7A BZF d   1      -0.244  -0.762   0.042  0.00  0.00     0.058 A 
ENDROOT
TORSDOF 0
ENDMDL
