MODEL 1
REMARK minimizedAffinity -4.27788973
REMARK minimizedRMSD -1
REMARK  0 active torsions:
REMARK  status: ('A' for Active; 'I' for Inactive)
ROOT
ATOM      1  O1  BZF d   1      -3.906  -0.180   4.767  0.00  0.00    -0.204 OA
ATOM      2  C2  BZF d   1      -4.361  -1.360   4.211  0.00  0.00     0.174 A 
ATOM      3  C3  BZF d   1      -4.006  -1.444   2.912  0.00  0.00    -0.012 A 
ATOM      4  C3A BZF d   1      -3.206  -0.284   2.665  0.00  0.00    -0.107 A 
ATOM      5  C4  BZF d   1      -2.549   0.186   1.564  0.00  0.00     0.055 A 
ATOM      6  C5  BZF d   1      -1.919   1.388   1.634  0.00  0.00    -0.016 A 
ATOM      7  C6  BZF d   1      -1.929   2.147   2.786  0.00  0.00     0.022 A 
ATOM      8  C7  BZF d   1      -2.563   1.720   3.905  0.00  0.00     0.029 A 
ATOM      9  C7A BZF d   1      -3.173   0.491   3.847  0.00  0.00     0.058 A 
ENDROOT
TORSDOF 0
ENDMDL
