MODEL 1
REMARK minimizedAffinity -4.21016359
REMARK minimizedRMSD -1
REMARK  0 active torsions:
REMARK  status: ('A' for Active; 'I' for Inactive)
ROOT
ATOM      1  O1  BZF d   1       0.134   1.450   0.845  0.00  0.00    -0.204 OA
ATOM      2  C2  BZF d   1       0.357   0.333   0.063  0.00  0.00     0.174 A 
ATOM      3  C3  BZF d   1      -0.530  -0.640   0.354  0.00  0.00    -0.012 A 
ATOM      4  C3A BZF d   1      -1.418  -0.064   1.318  0.00  0.00    -0.107 A 
ATOM      5  C4  BZF d   1      -2.517  -0.532   1.979  0.00  0.00     0.055 A 
ATOM      6  C5  BZF d   1      -3.114   0.259   2.909  0.00  0.00    -0.016 A 
ATOM      7  C6  BZF d   1      -2.636   1.518   3.207  0.00  0.00     0.022 A 
ATOM      8  C7  BZF d   1      -1.551   2.027   2.574  0.00  0.00     0.029 A 
ATOM      9  C7A BZF d   1      -0.965   1.244   1.609  0.00  0.00     0.058 A 
ENDROOT
TORSDOF 0
ENDMDL
