MODEL 1
REMARK minimizedAffinity -1.38990664
REMARK minimizedRMSD -1
REMARK  0 active torsions:
REMARK  status: ('A' for Active; 'I' for Inactive)
ROOT
ATOM      1  O1  BZF d   1       0.127   1.249   0.333  0.00  0.00    -0.204 OA
ATOM      2  C2  BZF d   1      -0.983   0.849   1.050  0.00  0.00     0.174 A 
ATOM      3  C3  BZF d   1      -1.204  -0.472   0.892  0.00  0.00    -0.012 A 
ATOM      4  C3A BZF d   1      -0.113  -0.944   0.096  0.00  0.00    -0.107 A 
ATOM      5  C4  BZF d   1       0.237  -2.174  -0.384  0.00  0.00     0.055 A 
ATOM      6  C5  BZF d   1       1.324  -2.283  -1.191  0.00  0.00    -0.016 A 
ATOM      7  C6  BZF d   1       2.080  -1.184  -1.543  0.00  0.00     0.022 A 
ATOM      8  C7  BZF d   1       1.776   0.056  -1.088  0.00  0.00     0.029 A 
ATOM      9  C7A BZF d   1       0.697   0.164  -0.245  0.00  0.00     0.058 A 
ENDROOT
TORSDOF 0
ENDMDL
