MODEL 1
REMARK minimizedAffinity -4.69184351
REMARK minimizedRMSD -1
REMARK  0 active torsions:
REMARK  status: ('A' for Active; 'I' for Inactive)
ROOT
ATOM      1  O1  BZF d   1       2.211   0.578  -1.422  0.00  0.00    -0.204 OA
ATOM      2  C2  BZF d   1       2.968  -0.576  -1.494  0.00  0.00     0.174 A 
ATOM      3  C3  BZF d   1       2.360  -1.588  -0.841  0.00  0.00    -0.012 A 
ATOM      4  C3A BZF d   1       1.105  -1.056  -0.408  0.00  0.00    -0.107 A 
ATOM      5  C4  BZF d   1       0.049  -1.583   0.280  0.00  0.00     0.055 A 
ATOM      6  C5  BZF d   1      -0.995  -0.776   0.606  0.00  0.00    -0.016 A 
ATOM      7  C6  BZF d   1      -1.014   0.560   0.266  0.00  0.00     0.022 A 
ATOM      8  C7  BZF d   1       0.008   1.127  -0.421  0.00  0.00     0.029 A 
ATOM      9  C7A BZF d   1       1.049   0.307  -0.781  0.00  0.00     0.058 A 
ENDROOT
TORSDOF 0
ENDMDL
