MODEL 1
REMARK minimizedAffinity -2.53974795
REMARK minimizedRMSD -1
REMARK  0 active torsions:
REMARK  status: ('A' for Active; 'I' for Inactive)
ROOT
ATOM      1  O1  BZF d   1      -0.068   0.883   1.098  0.00  0.00    -0.204 OA
ATOM      2  C2  BZF d   1      -0.474   0.079   0.051  0.00  0.00     0.174 A 
ATOM      3  C3  BZF d   1      -1.685  -0.458   0.301  0.00  0.00    -0.012 A 
ATOM      4  C3A BZF d   1      -2.100   0.114   1.545  0.00  0.00    -0.107 A 
ATOM      5  C4  BZF d   1      -3.224  -0.017   2.310  0.00  0.00     0.055 A 
ATOM      6  C5  BZF d   1      -3.286   0.623   3.508  0.00  0.00    -0.016 A 
ATOM      7  C6  BZF d   1      -2.243   1.396   3.972  0.00  0.00     0.022 A 
ATOM      8  C7  BZF d   1      -1.110   1.561   3.247  0.00  0.00     0.029 A 
ATOM      9  C7A BZF d   1      -1.058   0.942   2.021  0.00  0.00     0.058 A 
ENDROOT
TORSDOF 0
ENDMDL
