MODEL 1
REMARK minimizedAffinity 11.8873091
REMARK minimizedRMSD -1
REMARK  0 active torsions:
REMARK  status: ('A' for Active; 'I' for Inactive)
ROOT
ATOM      1  O1  BZF d   1       1.440   1.703  -0.087  0.00  0.00    -0.204 OA
ATOM      2  C2  BZF d   1       1.789   1.017  -1.234  0.00  0.00     0.174 A 
ATOM      3  C3  BZF d   1       0.802   0.178  -1.608  0.00  0.00    -0.012 A 
ATOM      4  C3A BZF d   1      -0.265   0.417  -0.686  0.00  0.00    -0.107 A 
ATOM      5  C4  BZF d   1      -1.522  -0.100  -0.549  0.00  0.00     0.055 A 
ATOM      6  C5  BZF d   1      -2.288   0.294   0.502  0.00  0.00    -0.016 A 
ATOM      7  C6  BZF d   1      -1.828   1.200   1.436  0.00  0.00     0.022 A 
ATOM      8  C7  BZF d   1      -0.591   1.744   1.339  0.00  0.00     0.029 A 
ATOM      9  C7A BZF d   1       0.174   1.372   0.260  0.00  0.00     0.058 A 
ENDROOT
TORSDOF 0
ENDMDL
