MODEL 1
REMARK minimizedAffinity -3.90493989
REMARK minimizedRMSD -1
REMARK  0 active torsions:
REMARK  status: ('A' for Active; 'I' for Inactive)
ROOT
ATOM      1  O1  BZF d   1       1.773   0.489  -1.274  0.00  0.00    -0.204 OA
ATOM      2  C2  BZF d   1       1.900  -0.763  -0.703  0.00  0.00     0.174 A 
ATOM      3  C3  BZF d   1       0.765  -1.116  -0.066  0.00  0.00    -0.012 A 
ATOM      4  C3A BZF d   1      -0.159  -0.056  -0.329  0.00  0.00    -0.107 A 
ATOM      5  C4  BZF d   1      -1.461   0.164   0.022  0.00  0.00     0.055 A 
ATOM      6  C5  BZF d   1      -2.052   1.334  -0.335  0.00  0.00    -0.016 A 
ATOM      7  C6  BZF d   1      -1.372   2.308  -1.037  0.00  0.00     0.022 A 
ATOM      8  C7  BZF d   1      -0.081   2.133  -1.411  0.00  0.00     0.029 A 
ATOM      9  C7A BZF d   1       0.510   0.938  -1.081  0.00  0.00     0.058 A 
ENDROOT
TORSDOF 0
ENDMDL
