MODEL 1
REMARK minimizedAffinity -3.86545897
REMARK minimizedRMSD -1
REMARK  0 active torsions:
REMARK  status: ('A' for Active; 'I' for Inactive)
ROOT
ATOM      1  O1  BZF d   1       2.334  -2.056  -1.181  0.00  0.00    -0.204 OA
ATOM      2  C2  BZF d   1       3.222  -1.131  -1.697  0.00  0.00     0.174 A 
ATOM      3  C3  BZF d   1       2.765   0.124  -1.513  0.00  0.00    -0.012 A 
ATOM      4  C3A BZF d   1       1.558  -0.021  -0.759  0.00  0.00    -0.107 A 
ATOM      5  C4  BZF d   1       0.654   0.869  -0.253  0.00  0.00     0.055 A 
ATOM      6  C5  BZF d   1      -0.457   0.399   0.373  0.00  0.00    -0.016 A 
ATOM      7  C6  BZF d   1      -0.697  -0.952   0.507  0.00  0.00     0.022 A 
ATOM      8  C7  BZF d   1       0.173  -1.874   0.027  0.00  0.00     0.029 A 
ATOM      9  C7A BZF d   1       1.313  -1.401  -0.577  0.00  0.00     0.058 A 
ENDROOT
TORSDOF 0
ENDMDL
