MODEL 1
REMARK minimizedAffinity -2.47896791
REMARK minimizedRMSD -1
REMARK  0 active torsions:
REMARK  status: ('A' for Active; 'I' for Inactive)
ROOT
ATOM      1  O1  BZF d   1       1.075   2.347  -2.043  0.00  0.00    -0.204 OA
ATOM      2  C2  BZF d   1       1.970   2.240  -3.090  0.00  0.00     0.174 A 
ATOM      3  C3  BZF d   1       2.642   1.072  -3.027  0.00  0.00    -0.012 A 
ATOM      4  C3A BZF d   1       2.069   0.367  -1.921  0.00  0.00    -0.107 A 
ATOM      5  C4  BZF d   1       2.304  -0.858  -1.365  0.00  0.00     0.055 A 
ATOM      6  C5  BZF d   1       1.622  -1.217  -0.246  0.00  0.00    -0.016 A 
ATOM      7  C6  BZF d   1       0.703  -0.375   0.346  0.00  0.00     0.022 A 
ATOM      8  C7  BZF d   1       0.433   0.848  -0.172  0.00  0.00     0.029 A 
ATOM      9  C7A BZF d   1       1.097   1.200  -1.321  0.00  0.00     0.058 A 
ENDROOT
TORSDOF 0
ENDMDL
