MODEL 1
REMARK minimizedAffinity -3.13936496
REMARK minimizedRMSD -1
REMARK  0 active torsions:
REMARK  status: ('A' for Active; 'I' for Inactive)
ROOT
ATOM      1  O1  BZF d   1       1.505  -1.891  -1.370  0.00  0.00    -0.204 OA
ATOM      2  C2  BZF d   1       2.503  -0.960  -1.582  0.00  0.00     0.174 A 
ATOM      3  C3  BZF d   1       2.177   0.226  -1.029  0.00  0.00    -0.012 A 
ATOM      4  C3A BZF d   1       0.936  -0.002  -0.355  0.00  0.00    -0.107 A 
ATOM      5  C4  BZF d   1       0.115   0.792   0.394  0.00  0.00     0.055 A 
ATOM      6  C5  BZF d   1      -1.061   0.283   0.848  0.00  0.00    -0.016 A 
ATOM      7  C6  BZF d   1      -1.448  -1.011   0.569  0.00  0.00     0.022 A 
ATOM      8  C7  BZF d   1      -0.665  -1.838  -0.166  0.00  0.00     0.029 A 
ATOM      9  C7A BZF d   1       0.539  -1.337  -0.599  0.00  0.00     0.058 A 
ENDROOT
TORSDOF 0
ENDMDL
