MODEL 1
REMARK minimizedAffinity -3.30547619
REMARK minimizedRMSD -1
REMARK  0 active torsions:
REMARK  status: ('A' for Active; 'I' for Inactive)
ROOT
ATOM      1  N1  IND d   1       0.152  -0.187   0.899  0.00  0.00    -0.196 N 
ATOM      2  C2  IND d   1       0.406   1.115   1.229  0.00  0.00     0.054 A 
ATOM      3  C3  IND d   1       1.154   1.707   0.270  0.00  0.00    -0.031 A 
ATOM      4  C4  IND d   1       1.986   0.756  -1.973  0.00  0.00     0.051 A 
ATOM      5  C5  IND d   1       2.035  -0.399  -2.702  0.00  0.00    -0.031 A 
ATOM      6  C6  IND d   1       1.444  -1.565  -2.260  0.00  0.00     0.015 A 
ATOM      7  C7  IND d   1       0.770  -1.617  -1.073  0.00  0.00    -0.016 A 
ATOM      8  C8  IND d   1       0.724  -0.448  -0.327  0.00  0.00    -0.047 A 
ATOM      9  C9  IND d   1       1.358   0.728  -0.750  0.00  0.00    -0.096 A 
ATOM     10  HN1 IND d   1      -0.292  -0.748   1.376  0.00  0.00     0.298 HD
ENDROOT
TORSDOF 0
ENDMDL
