MODEL 1
REMARK minimizedAffinity -1.59138095
REMARK minimizedRMSD -1
REMARK  0 active torsions:
REMARK  status: ('A' for Active; 'I' for Inactive)
ROOT
ATOM      1  N1  IND d   1       0.295  -0.017   1.013  0.00  0.00    -0.196 N 
ATOM      2  C2  IND d   1       0.263   0.367  -0.299  0.00  0.00     0.054 A 
ATOM      3  C3  IND d   1       0.913   1.541  -0.462  0.00  0.00    -0.031 A 
ATOM      4  C4  IND d   1       2.192   2.955   1.268  0.00  0.00     0.051 A 
ATOM      5  C5  IND d   1       2.470   3.031   2.604  0.00  0.00    -0.031 A 
ATOM      6  C6  IND d   1       2.031   2.073   3.495  0.00  0.00     0.015 A 
ATOM      7  C7  IND d   1       1.303   0.994   3.080  0.00  0.00    -0.016 A 
ATOM      8  C8  IND d   1       1.013   0.918   1.725  0.00  0.00    -0.047 A 
ATOM      9  C9  IND d   1       1.420   1.908   0.822  0.00  0.00    -0.096 A 
ATOM     10  HN1 IND d   1      -0.071  -0.724   1.338  0.00  0.00     0.298 HD
ENDROOT
TORSDOF 0
ENDMDL
