MODEL 1
REMARK minimizedAffinity -0.0598334074
REMARK minimizedRMSD -1
REMARK  0 active torsions:
REMARK  status: ('A' for Active; 'I' for Inactive)
ROOT
ATOM      1  N1  IND d   1      -0.192   0.392   1.105  0.00  0.00    -0.196 N 
ATOM      2  C2  IND d   1      -0.971  -0.731   1.082  0.00  0.00     0.054 A 
ATOM      3  C3  IND d   1      -0.838  -1.372  -0.101  0.00  0.00    -0.031 A 
ATOM      4  C4  IND d   1       0.682  -0.811  -2.102  0.00  0.00     0.051 A 
ATOM      5  C5  IND d   1       1.550   0.139  -2.563  0.00  0.00    -0.031 A 
ATOM      6  C6  IND d   1       1.890   1.243  -1.808  0.00  0.00     0.015 A 
ATOM      7  C7  IND d   1       1.382   1.433  -0.554  0.00  0.00    -0.016 A 
ATOM      8  C8  IND d   1       0.495   0.473  -0.086  0.00  0.00    -0.047 A 
ATOM      9  C9  IND d   1       0.113  -0.627  -0.864  0.00  0.00    -0.096 A 
ATOM     10  HN1 IND d   1      -0.140   0.952   1.755  0.00  0.00     0.298 HD
ENDROOT
TORSDOF 0
ENDMDL
