MODEL 1
REMARK minimizedAffinity -1.36888075
REMARK minimizedRMSD -1
REMARK  0 active torsions:
REMARK  status: ('A' for Active; 'I' for Inactive)
ROOT
ATOM      1  N1  IND d   1      -1.093   0.318   1.275  0.00  0.00    -0.196 N 
ATOM      2  C2  IND d   1      -0.508   0.600   0.072  0.00  0.00     0.054 A 
ATOM      3  C3  IND d   1       0.549   1.425   0.244  0.00  0.00    -0.031 A 
ATOM      4  C4  IND d   1       1.559   2.355   2.422  0.00  0.00     0.051 A 
ATOM      5  C5  IND d   1       1.349   2.405   3.772  0.00  0.00    -0.031 A 
ATOM      6  C6  IND d   1       0.294   1.746   4.370  0.00  0.00     0.015 A 
ATOM      7  C7  IND d   1      -0.587   1.001   3.639  0.00  0.00    -0.016 A 
ATOM      8  C8  IND d   1      -0.381   0.954   2.268  0.00  0.00    -0.047 A 
ATOM      9  C9  IND d   1       0.663   1.654   1.650  0.00  0.00    -0.096 A 
ATOM     10  HN1 IND d   1      -1.789  -0.173   1.391  0.00  0.00     0.298 HD
ENDROOT
TORSDOF 0
ENDMDL
