MODEL 1
REMARK minimizedAffinity 3.37349558
REMARK minimizedRMSD -1
REMARK  0 active torsions:
REMARK  status: ('A' for Active; 'I' for Inactive)
ROOT
ATOM      1  N1  IND d   1      -1.754  -1.014  -0.145  0.00  0.00    -0.196 N 
ATOM      2  C2  IND d   1      -0.527  -0.454   0.080  0.00  0.00     0.054 A 
ATOM      3  C3  IND d   1      -0.636   0.591   0.930  0.00  0.00    -0.031 A 
ATOM      4  C4  IND d   1      -2.713   1.495   2.154  0.00  0.00     0.051 A 
ATOM      5  C5  IND d   1      -4.067   1.333   2.240  0.00  0.00    -0.031 A 
ATOM      6  C6  IND d   1      -4.733   0.360   1.523  0.00  0.00     0.015 A 
ATOM      7  C7  IND d   1      -4.064  -0.500   0.699  0.00  0.00    -0.016 A 
ATOM      8  C8  IND d   1      -2.690  -0.334   0.603  0.00  0.00    -0.047 A 
ATOM      9  C9  IND d   1      -2.014   0.679   1.295  0.00  0.00    -0.096 A 
ATOM     10  HN1 IND d   1      -1.914  -1.679  -0.666  0.00  0.00     0.298 HD
ENDROOT
TORSDOF 0
ENDMDL
