MODEL 1
REMARK minimizedAffinity -3.55765104
REMARK minimizedRMSD -1
REMARK  0 active torsions:
REMARK  status: ('A' for Active; 'I' for Inactive)
ROOT
ATOM      1  N1  IND d   1       3.290   1.875   0.437  0.00  0.00    -0.196 N 
ATOM      2  C2  IND d   1       2.553   2.257   1.523  0.00  0.00     0.054 A 
ATOM      3  C3  IND d   1       1.245   1.981   1.324  0.00  0.00    -0.031 A 
ATOM      4  C4  IND d   1       0.104   0.813  -0.666  0.00  0.00     0.051 A 
ATOM      5  C5  IND d   1       0.359   0.314  -1.913  0.00  0.00    -0.031 A 
ATOM      6  C6  IND d   1       1.630   0.308  -2.450  0.00  0.00     0.015 A 
ATOM      7  C7  IND d   1       2.700   0.792  -1.752  0.00  0.00    -0.016 A 
ATOM      8  C8  IND d   1       2.444   1.305  -0.488  0.00  0.00    -0.047 A 
ATOM      9  C9  IND d   1       1.150   1.353   0.045  0.00  0.00    -0.096 A 
ATOM     10  HN1 IND d   1       4.140   1.974   0.347  0.00  0.00     0.298 HD
ENDROOT
TORSDOF 0
ENDMDL
