MODEL 1
REMARK minimizedAffinity -2.17871642
REMARK minimizedRMSD -1
REMARK  0 active torsions:
REMARK  status: ('A' for Active; 'I' for Inactive)
ROOT
ATOM      1  N1  IND d   1       0.628   0.421   2.753  0.00  0.00    -0.196 N 
ATOM      2  C2  IND d   1       0.729   1.277   3.815  0.00  0.00     0.054 A 
ATOM      3  C3  IND d   1      -0.493   1.737   4.166  0.00  0.00    -0.031 A 
ATOM      4  C4  IND d   1      -2.804   1.141   3.201  0.00  0.00     0.051 A 
ATOM      5  C5  IND d   1      -3.402   0.432   2.197  0.00  0.00    -0.031 A 
ATOM      6  C6  IND d   1      -2.673  -0.334   1.311  0.00  0.00     0.015 A 
ATOM      7  C7  IND d   1      -1.313  -0.430   1.403  0.00  0.00    -0.016 A 
ATOM      8  C8  IND d   1      -0.702   0.294   2.417  0.00  0.00    -0.047 A 
ATOM      9  C9  IND d   1      -1.433   1.107   3.293  0.00  0.00    -0.096 A 
ATOM     10  HN1 IND d   1       1.285   0.029   2.361  0.00  0.00     0.298 HD
ENDROOT
TORSDOF 0
ENDMDL
