MODEL 1
REMARK minimizedAffinity -3.66062164
REMARK minimizedRMSD -1
REMARK  0 active torsions:
REMARK  status: ('A' for Active; 'I' for Inactive)
ROOT
ATOM      1  N1  IND d   1       2.298   0.047  -1.717  0.00  0.00    -0.196 N 
ATOM      2  C2  IND d   1       1.954   0.343  -3.007  0.00  0.00     0.054 A 
ATOM      3  C3  IND d   1       0.623   0.561  -3.100  0.00  0.00    -0.031 A 
ATOM      4  C4  IND d   1      -1.164   0.586  -1.247  0.00  0.00     0.051 A 
ATOM      5  C5  IND d   1      -1.338   0.337   0.085  0.00  0.00    -0.031 A 
ATOM      6  C6  IND d   1      -0.287  -0.025   0.902  0.00  0.00     0.015 A 
ATOM      7  C7  IND d   1       0.985  -0.142   0.417  0.00  0.00    -0.016 A 
ATOM      8  C8  IND d   1       1.164   0.102  -0.937  0.00  0.00    -0.047 A 
ATOM      9  C9  IND d   1       0.094   0.429  -1.780  0.00  0.00    -0.096 A 
ATOM     10  HN1 IND d   1       3.090  -0.142  -1.440  0.00  0.00     0.298 HD
ENDROOT
TORSDOF 0
ENDMDL
