MODEL 1
REMARK minimizedAffinity 0.491628647
REMARK minimizedRMSD -1
REMARK  0 active torsions:
REMARK  status: ('A' for Active; 'I' for Inactive)
ROOT
ATOM      1  N1  IND d   1       0.104  -0.164   2.063  0.00  0.00    -0.196 N 
ATOM      2  C2  IND d   1       0.557   1.126   2.106  0.00  0.00     0.054 A 
ATOM      3  C3  IND d   1       0.905   1.544   0.868  0.00  0.00    -0.031 A 
ATOM      4  C4  IND d   1       0.717   0.314  -1.386  0.00  0.00     0.051 A 
ATOM      5  C5  IND d   1       0.396  -0.898  -1.928  0.00  0.00    -0.031 A 
ATOM      6  C6  IND d   1      -0.051  -1.948  -1.152  0.00  0.00     0.015 A 
ATOM      7  C7  IND d   1      -0.205  -1.821   0.199  0.00  0.00    -0.016 A 
ATOM      8  C8  IND d   1       0.128  -0.593   0.754  0.00  0.00    -0.047 A 
ATOM      9  C9  IND d   1       0.622   0.463  -0.022  0.00  0.00    -0.096 A 
ATOM     10  HN1 IND d   1      -0.152  -0.628   2.740  0.00  0.00     0.298 HD
ENDROOT
TORSDOF 0
ENDMDL
