MODEL 1
REMARK minimizedAffinity 1.44159889
REMARK minimizedRMSD -1
REMARK  0 active torsions:
REMARK  status: ('A' for Active; 'I' for Inactive)
ROOT
ATOM      1  N1  IND d   1      -0.035  -2.762   0.464  0.00  0.00    -0.196 N 
ATOM      2  C2  IND d   1       0.180  -3.476  -0.682  0.00  0.00     0.054 A 
ATOM      3  C3  IND d   1       0.406  -2.640  -1.721  0.00  0.00    -0.031 A 
ATOM      4  C4  IND d   1       0.570  -0.071  -1.747  0.00  0.00     0.051 A 
ATOM      5  C5  IND d   1       0.411   1.027  -0.949  0.00  0.00    -0.031 A 
ATOM      6  C6  IND d   1       0.091   0.915   0.388  0.00  0.00     0.015 A 
ATOM      7  C7  IND d   1      -0.071  -0.304   0.983  0.00  0.00    -0.016 A 
ATOM      8  C8  IND d   1       0.083  -1.421   0.174  0.00  0.00    -0.047 A 
ATOM      9  C9  IND d   1       0.366  -1.313  -1.194  0.00  0.00    -0.096 A 
ATOM     10  HN1 IND d   1      -0.214  -3.095   1.236  0.00  0.00     0.298 HD
ENDROOT
TORSDOF 0
ENDMDL
