MODEL 1
REMARK minimizedAffinity -4.15367842
REMARK minimizedRMSD -1
REMARK  0 active torsions:
REMARK  status: ('A' for Active; 'I' for Inactive)
ROOT
ATOM      1  N1  IND d   1      -0.277   0.261   0.484  0.00  0.00    -0.196 N 
ATOM      2  C2  IND d   1       0.502   1.079   1.254  0.00  0.00     0.054 A 
ATOM      3  C3  IND d   1       1.660   1.362   0.618  0.00  0.00    -0.031 A 
ATOM      4  C4  IND d   1       2.443   0.674  -1.736  0.00  0.00     0.051 A 
ATOM      5  C5  IND d   1       2.090  -0.101  -2.805  0.00  0.00    -0.031 A 
ATOM      6  C6  IND d   1       0.905  -0.807  -2.834  0.00  0.00     0.015 A 
ATOM      7  C7  IND d   1       0.019  -0.755  -1.796  0.00  0.00    -0.016 A 
ATOM      8  C8  IND d   1       0.378   0.026  -0.705  0.00  0.00    -0.047 A 
ATOM      9  C9  IND d   1       1.599   0.710  -0.652  0.00  0.00    -0.096 A 
ATOM     10  HN1 IND d   1      -1.046  -0.053   0.704  0.00  0.00     0.298 HD
ENDROOT
TORSDOF 0
ENDMDL
