MODEL 1
REMARK minimizedAffinity -4.58214045
REMARK minimizedRMSD -1
REMARK  0 active torsions:
REMARK  status: ('A' for Active; 'I' for Inactive)
ROOT
ATOM      1  N1  IND d   1       1.213   0.784   0.518  0.00  0.00    -0.196 N 
ATOM      2  C2  IND d   1       0.118   0.279   1.161  0.00  0.00     0.054 A 
ATOM      3  C3  IND d   1      -0.634  -0.451   0.307  0.00  0.00    -0.031 A 
ATOM      4  C4  IND d   1      -0.203  -1.035  -2.163  0.00  0.00     0.051 A 
ATOM      5  C5  IND d   1       0.650  -0.774  -3.198  0.00  0.00    -0.031 A 
ATOM      6  C6  IND d   1       1.758   0.034  -3.044  0.00  0.00     0.015 A 
ATOM      7  C7  IND d   1       2.062   0.604  -1.840  0.00  0.00    -0.016 A 
ATOM      8  C8  IND d   1       1.195   0.347  -0.788  0.00  0.00    -0.047 A 
ATOM      9  C9  IND d   1       0.045  -0.438  -0.949  0.00  0.00    -0.096 A 
ATOM     10  HN1 IND d   1       1.813   1.289   0.870  0.00  0.00     0.298 HD
ENDROOT
TORSDOF 0
ENDMDL
