MODEL 1
REMARK minimizedAffinity -0.793940425
REMARK minimizedRMSD -1
REMARK  0 active torsions:
REMARK  status: ('A' for Active; 'I' for Inactive)
ROOT
ATOM      1  N1  IND d   1       1.525   1.519   3.196  0.00  0.00    -0.196 N 
ATOM      2  C2  IND d   1       2.284   2.574   3.618  0.00  0.00     0.054 A 
ATOM      3  C3  IND d   1       2.618   3.362   2.572  0.00  0.00    -0.031 A 
ATOM      4  C4  IND d   1       1.942   3.164   0.095  0.00  0.00     0.051 A 
ATOM      5  C5  IND d   1       1.285   2.345  -0.780  0.00  0.00    -0.031 A 
ATOM      6  C6  IND d   1       0.660   1.187  -0.366  0.00  0.00     0.015 A 
ATOM      7  C7  IND d   1       0.658   0.809   0.947  0.00  0.00    -0.016 A 
ATOM      8  C8  IND d   1       1.330   1.634   1.838  0.00  0.00    -0.047 A 
ATOM      9  C9  IND d   1       2.002   2.789   1.417  0.00  0.00    -0.096 A 
ATOM     10  HN1 IND d   1       1.220   0.888   3.696  0.00  0.00     0.298 HD
ENDROOT
TORSDOF 0
ENDMDL
