MODEL 1
REMARK minimizedAffinity 3.29180074
REMARK minimizedRMSD -1
REMARK  0 active torsions:
REMARK  status: ('A' for Active; 'I' for Inactive)
ROOT
ATOM      1  N1  IND d   1      -1.957   3.785  -5.371  0.00  0.00    -0.196 N 
ATOM      2  C2  IND d   1      -2.038   5.122  -5.644  0.00  0.00     0.054 A 
ATOM      3  C3  IND d   1      -3.308   5.461  -5.962  0.00  0.00    -0.031 A 
ATOM      4  C4  IND d   1      -5.430   4.004  -5.996  0.00  0.00     0.051 A 
ATOM      5  C5  IND d   1      -5.852   2.712  -5.854  0.00  0.00    -0.031 A 
ATOM      6  C6  IND d   1      -4.980   1.691  -5.535  0.00  0.00     0.015 A 
ATOM      7  C7  IND d   1      -3.650   1.928  -5.333  0.00  0.00    -0.016 A 
ATOM      8  C8  IND d   1      -3.217   3.237  -5.483  0.00  0.00    -0.047 A 
ATOM      9  C9  IND d   1      -4.089   4.270  -5.849  0.00  0.00    -0.096 A 
ATOM     10  HN1 IND d   1      -1.241   3.358  -5.163  0.00  0.00     0.298 HD
ENDROOT
TORSDOF 0
ENDMDL
