MODEL 1
REMARK minimizedAffinity -2.33558416
REMARK minimizedRMSD -1
REMARK  1 active torsions:
REMARK  status: ('A' for Active; 'I' for Inactive)
REMARK    1  A    between atoms: C1_2  and  C2_3 
ROOT
ATOM      1  C2  UNL d   1       5.443  -3.806  -4.544  0.00  0.00    -0.076 A 
ATOM      2  C3  UNL d   1       5.997  -2.584  -4.126  0.00  0.00     0.004 A 
ATOM      3  C4  UNL d   1       5.538  -1.374  -4.643  0.00  0.00    -0.003 A 
ATOM      4  C5  UNL d   1       4.517  -1.366  -5.587  0.00  0.00     0.000 A 
ATOM      5  C6  UNL d   1       3.943  -2.568  -6.000  0.00  0.00     0.000 A 
ATOM      6  C7  UNL d   1       4.383  -3.796  -5.476  0.00  0.00    -0.073 A 
ATOM      7  C8  UNL d   1       3.733  -5.062  -5.962  0.00  0.00     0.078 C 
ENDROOT
BRANCH   1   8
ATOM      8  C1  UNL d   1       6.000  -5.089  -3.969  0.00  0.00     0.053 C 
ATOM      9  C   UNL d   1       4.991  -5.824  -3.100  0.00  0.00     0.018 C 
ENDBRANCH   1   8
TORSDOF 1
ENDMDL
