MODEL 1
REMARK minimizedAffinity -2.22383761
REMARK minimizedRMSD -1
REMARK  1 active torsions:
REMARK  status: ('A' for Active; 'I' for Inactive)
REMARK    1  A    between atoms: C1_2  and  C2_3 
ROOT
ATOM      1  C2  UNL d   1       4.678  -3.985  -4.301  0.00  0.00    -0.076 A 
ATOM      2  C3  UNL d   1       4.273  -2.727  -3.820  0.00  0.00     0.004 A 
ATOM      3  C4  UNL d   1       4.731  -1.552  -4.413  0.00  0.00    -0.003 A 
ATOM      4  C5  UNL d   1       5.601  -1.615  -5.496  0.00  0.00     0.000 A 
ATOM      5  C6  UNL d   1       5.998  -2.854  -5.997  0.00  0.00     0.000 A 
ATOM      6  C7  UNL d   1       5.533  -4.049  -5.422  0.00  0.00    -0.073 A 
ATOM      7  C8  UNL d   1       5.999  -5.357  -5.999  0.00  0.00     0.078 C 
ENDROOT
BRANCH   1   8
ATOM      8  C1  UNL d   1       4.170  -5.225  -3.601  0.00  0.00     0.053 C 
ATOM      9  C   UNL d   1       5.281  -5.999  -2.907  0.00  0.00     0.018 C 
ENDBRANCH   1   8
TORSDOF 1
ENDMDL
