MODEL 1
REMARK minimizedAffinity 22.7735023
REMARK minimizedRMSD -1
REMARK  0 active torsions:
REMARK  status: ('A' for Active; 'I' for Inactive)
ROOT
ATOM      1  C   UNL d   1      -2.342  -4.220   1.141  0.00  0.00     0.124 A 
ATOM      2  C1  UNL d   1      -2.756  -4.944   0.031  0.00  0.00     0.062 A 
ATOM      3  C2  UNL d   1      -2.331  -4.576  -1.242  0.00  0.00     0.162 A 
ATOM      4  C3  UNL d   1      -1.486  -3.479  -1.413  0.00  0.00    -0.034 A 
ATOM      5  C4  UNL d   1      -1.075  -2.755  -0.292  0.00  0.00     0.162 A 
ATOM      6  C5  UNL d   1      -1.502  -3.127   0.979  0.00  0.00     0.062 A 
ATOM      7  F   UNL d   1      -1.102  -2.427   2.050  0.00  0.00    -0.097 F 
ATOM      8  F1  UNL d   1      -0.263  -1.695  -0.420  0.00  0.00    -0.096 F 
ATOM      9  I   UNL d   1      -0.849  -2.925  -3.316  0.00  0.00    -0.060 I 
ATOM     10  F2  UNL d   1      -2.747  -5.293  -2.297  0.00  0.00    -0.096 F 
ATOM     11  F3  UNL d   1      -3.567  -5.999   0.186  0.00  0.00    -0.097 F 
ATOM     12  F4  UNL d   1      -2.753  -4.576   2.365  0.00  0.00    -0.092 F 
ENDROOT
TORSDOF 0
ENDMDL
