MODEL 1
REMARK minimizedAffinity 13.8091536
REMARK minimizedRMSD -1
REMARK  0 active torsions:
REMARK  status: ('A' for Active; 'I' for Inactive)
ROOT
ATOM      1  C   UNL d   1       0.024  -1.628  -0.537  0.00  0.00     0.124 A 
ATOM      2  C1  UNL d   1      -0.913  -2.626  -0.308  0.00  0.00     0.062 A 
ATOM      3  C2  UNL d   1      -0.562  -3.765   0.410  0.00  0.00     0.162 A 
ATOM      4  C3  UNL d   1       0.733  -3.912   0.907  0.00  0.00    -0.034 A 
ATOM      5  C4  UNL d   1       1.671  -2.905   0.672  0.00  0.00     0.162 A 
ATOM      6  C5  UNL d   1       1.315  -1.769  -0.047  0.00  0.00     0.062 A 
ATOM      7  F   UNL d   1       2.222  -0.806  -0.267  0.00  0.00    -0.097 F 
ATOM      8  F1  UNL d   1       2.925  -3.014   1.135  0.00  0.00    -0.096 F 
ATOM      9  I   UNL d   1       1.263  -5.614   1.982  0.00  0.00    -0.060 I 
ATOM     10  F2  UNL d   1      -1.488  -4.713   0.616  0.00  0.00    -0.096 F 
ATOM     11  F3  UNL d   1      -2.161  -2.493  -0.782  0.00  0.00    -0.097 F 
ATOM     12  F4  UNL d   1      -0.316  -0.534  -1.230  0.00  0.00    -0.092 F 
ENDROOT
TORSDOF 0
ENDMDL
