MODEL 1
REMARK minimizedAffinity 15.0517864
REMARK minimizedRMSD -1
REMARK  0 active torsions:
REMARK  status: ('A' for Active; 'I' for Inactive)
ROOT
ATOM      1  C   UNL d   1       1.502  -0.480  -3.835  0.00  0.00     0.124 A 
ATOM      2  C1  UNL d   1       1.078   0.439  -2.884  0.00  0.00     0.062 A 
ATOM      3  C2  UNL d   1       0.685   0.008  -1.621  0.00  0.00     0.162 A 
ATOM      4  C3  UNL d   1       0.715  -1.349  -1.299  0.00  0.00    -0.034 A 
ATOM      5  C4  UNL d   1       1.142  -2.267  -2.260  0.00  0.00     0.162 A 
ATOM      6  C5  UNL d   1       1.534  -1.831  -3.522  0.00  0.00     0.062 A 
ATOM      7  F   UNL d   1       1.943  -2.720  -4.439  0.00  0.00    -0.097 F 
ATOM      8  F1  UNL d   1       1.183  -3.579  -1.985  0.00  0.00    -0.096 F 
ATOM      9  I   UNL d   1       0.127  -1.998   0.589  0.00  0.00    -0.060 I 
ATOM     10  F2  UNL d   1       0.279   0.917  -0.722  0.00  0.00    -0.096 F 
ATOM     11  F3  UNL d   1       1.046   1.745  -3.184  0.00  0.00    -0.097 F 
ATOM     12  F4  UNL d   1       1.879  -0.062  -5.050  0.00  0.00    -0.092 F 
ENDROOT
TORSDOF 0
ENDMDL
