MODEL 1
REMARK minimizedAffinity 12.9725666
REMARK minimizedRMSD -1
REMARK  0 active torsions:
REMARK  status: ('A' for Active; 'I' for Inactive)
ROOT
ATOM      1  C   UNL d   1       1.521  -0.001  -3.679  0.00  0.00     0.124 A 
ATOM      2  C1  UNL d   1       1.466  -1.378  -3.515  0.00  0.00     0.062 A 
ATOM      3  C2  UNL d   1       0.950  -1.924  -2.343  0.00  0.00     0.162 A 
ATOM      4  C3  UNL d   1       0.482  -1.092  -1.326  0.00  0.00    -0.034 A 
ATOM      5  C4  UNL d   1       0.541   0.292  -1.497  0.00  0.00     0.162 A 
ATOM      6  C5  UNL d   1       1.058   0.833  -2.670  0.00  0.00     0.062 A 
ATOM      7  F   UNL d   1       1.110   2.163  -2.826  0.00  0.00    -0.097 F 
ATOM      8  F1  UNL d   1       0.100   1.121  -0.539  0.00  0.00    -0.096 F 
ATOM      9  I   UNL d   1      -0.291  -1.904   0.428  0.00  0.00    -0.060 I 
ATOM     10  F2  UNL d   1       0.909  -3.258  -2.212  0.00  0.00    -0.096 F 
ATOM     11  F3  UNL d   1       1.913  -2.186  -4.487  0.00  0.00    -0.097 F 
ATOM     12  F4  UNL d   1       2.019   0.522  -4.807  0.00  0.00    -0.092 F 
ENDROOT
TORSDOF 0
ENDMDL
