MODEL 1
REMARK minimizedAffinity 9.25191021
REMARK minimizedRMSD -1
REMARK  0 active torsions:
REMARK  status: ('A' for Active; 'I' for Inactive)
ROOT
ATOM      1  C   UNL d   1       0.985   1.879  -2.932  0.00  0.00     0.124 A 
ATOM      2  C1  UNL d   1       1.271   1.223  -4.122  0.00  0.00     0.062 A 
ATOM      3  C2  UNL d   1       1.226  -0.167  -4.183  0.00  0.00     0.162 A 
ATOM      4  C3  UNL d   1       0.894  -0.911  -3.051  0.00  0.00    -0.034 A 
ATOM      5  C4  UNL d   1       0.609  -0.244  -1.858  0.00  0.00     0.162 A 
ATOM      6  C5  UNL d   1       0.655   1.145  -1.802  0.00  0.00     0.062 A 
ATOM      7  F   UNL d   1       0.379   1.778  -0.652  0.00  0.00    -0.097 F 
ATOM      8  F1  UNL d   1       0.286  -0.928  -0.750  0.00  0.00    -0.096 F 
ATOM      9  I   UNL d   1       0.826  -2.989  -3.138  0.00  0.00    -0.060 I 
ATOM     10  F2  UNL d   1       1.506  -0.774  -5.345  0.00  0.00    -0.096 F 
ATOM     11  F3  UNL d   1       1.591   1.930  -5.215  0.00  0.00    -0.097 F 
ATOM     12  F4  UNL d   1       1.030   3.216  -2.876  0.00  0.00    -0.092 F 
ENDROOT
TORSDOF 0
ENDMDL
