MODEL 1
REMARK minimizedAffinity 8.54795074
REMARK minimizedRMSD -1
REMARK  0 active torsions:
REMARK  status: ('A' for Active; 'I' for Inactive)
ROOT
ATOM      1  C   UNL d   1       1.083  -1.364  -2.859  0.00  0.00     0.124 A 
ATOM      2  C1  UNL d   1       0.997  -0.246  -3.677  0.00  0.00     0.062 A 
ATOM      3  C2  UNL d   1       1.004   1.030  -3.121  0.00  0.00     0.162 A 
ATOM      4  C3  UNL d   1       1.099   1.195  -1.740  0.00  0.00    -0.034 A 
ATOM      5  C4  UNL d   1       1.185   0.066  -0.923  0.00  0.00     0.162 A 
ATOM      6  C5  UNL d   1       1.177  -1.207  -1.483  0.00  0.00     0.062 A 
ATOM      7  F   UNL d   1       1.261  -2.286  -0.691  0.00  0.00    -0.097 F 
ATOM      8  F1  UNL d   1       1.278   0.189   0.409  0.00  0.00    -0.096 F 
ATOM      9  I   UNL d   1       1.111   3.102  -0.905  0.00  0.00    -0.060 I 
ATOM     10  F2  UNL d   1       0.919   2.092  -3.936  0.00  0.00    -0.096 F 
ATOM     11  F3  UNL d   1       0.905  -0.396  -5.006  0.00  0.00    -0.097 F 
ATOM     12  F4  UNL d   1       1.075  -2.591  -3.396  0.00  0.00    -0.092 F 
ENDROOT
TORSDOF 0
ENDMDL
