MODEL 1
REMARK minimizedAffinity 6.27279902
REMARK minimizedRMSD -1
REMARK  0 active torsions:
REMARK  status: ('A' for Active; 'I' for Inactive)
ROOT
ATOM      1  C   UNL d   1       0.874  -1.656  -2.970  0.00  0.00     0.124 A 
ATOM      2  C1  UNL d   1       1.041  -1.606  -1.593  0.00  0.00     0.062 A 
ATOM      3  C2  UNL d   1       1.136  -0.378  -0.943  0.00  0.00     0.162 A 
ATOM      4  C3  UNL d   1       1.063   0.810  -1.670  0.00  0.00    -0.034 A 
ATOM      5  C4  UNL d   1       0.896   0.751  -3.055  0.00  0.00     0.162 A 
ATOM      6  C5  UNL d   1       0.802  -0.478  -3.699  0.00  0.00     0.062 A 
ATOM      7  F   UNL d   1       0.641  -0.524  -5.030  0.00  0.00    -0.097 F 
ATOM      8  F1  UNL d   1       0.822   1.875  -3.784  0.00  0.00    -0.096 F 
ATOM      9  I   UNL d   1       1.204   2.647  -0.703  0.00  0.00    -0.060 I 
ATOM     10  F2  UNL d   1       1.296  -0.360   0.388  0.00  0.00    -0.096 F 
ATOM     11  F3  UNL d   1       1.112  -2.743  -0.886  0.00  0.00    -0.097 F 
ATOM     12  F4  UNL d   1       0.784  -2.838  -3.592  0.00  0.00    -0.092 F 
ENDROOT
TORSDOF 0
ENDMDL
