MODEL 1
REMARK minimizedAffinity 4.66564083
REMARK minimizedRMSD -1
REMARK  0 active torsions:
REMARK  status: ('A' for Active; 'I' for Inactive)
ROOT
ATOM      1  C   UNL d   1       1.333   0.793  -2.565  0.00  0.00     0.124 A 
ATOM      2  C1  UNL d   1       0.735   0.930  -1.320  0.00  0.00     0.062 A 
ATOM      3  C2  UNL d   1       0.278  -0.192  -0.635  0.00  0.00     0.162 A 
ATOM      4  C3  UNL d   1       0.417  -1.462  -1.194  0.00  0.00    -0.034 A 
ATOM      5  C4  UNL d   1       1.018  -1.593  -2.447  0.00  0.00     0.162 A 
ATOM      6  C5  UNL d   1       1.473  -0.468  -3.127  0.00  0.00     0.062 A 
ATOM      7  F   UNL d   1       2.050  -0.603  -4.331  0.00  0.00    -0.097 F 
ATOM      8  F1  UNL d   1       1.167  -2.799  -3.013  0.00  0.00    -0.096 F 
ATOM      9  I   UNL d   1      -0.266  -3.143  -0.173  0.00  0.00    -0.060 I 
ATOM     10  F2  UNL d   1      -0.295  -0.029   0.567  0.00  0.00    -0.096 F 
ATOM     11  F3  UNL d   1       0.597   2.148  -0.775  0.00  0.00    -0.097 F 
ATOM     12  F4  UNL d   1       1.771   1.874  -3.222  0.00  0.00    -0.092 F 
ENDROOT
TORSDOF 0
ENDMDL
