MODEL 1
REMARK minimizedAffinity 19.392992
REMARK minimizedRMSD -1
REMARK  0 active torsions:
REMARK  status: ('A' for Active; 'I' for Inactive)
ROOT
ATOM      1  C   UNL d   1       1.465  -0.298  -3.738  0.00  0.00     0.124 A 
ATOM      2  C1  UNL d   1       1.468  -1.654  -3.440  0.00  0.00     0.062 A 
ATOM      3  C2  UNL d   1       0.944  -2.107  -2.233  0.00  0.00     0.162 A 
ATOM      4  C3  UNL d   1       0.412  -1.203  -1.313  0.00  0.00    -0.034 A 
ATOM      5  C4  UNL d   1       0.414   0.159  -1.619  0.00  0.00     0.162 A 
ATOM      6  C5  UNL d   1       0.939   0.607  -2.827  0.00  0.00     0.062 A 
ATOM      7  F   UNL d   1       0.935   1.917  -3.112  0.00  0.00    -0.097 F 
ATOM      8  F1  UNL d   1      -0.089   1.056  -0.757  0.00  0.00    -0.096 F 
ATOM      9  I   UNL d   1      -0.372  -1.876   0.493  0.00  0.00    -0.060 I 
ATOM     10  F2  UNL d   1       0.959  -3.423  -1.972  0.00  0.00    -0.096 F 
ATOM     11  F3  UNL d   1       1.976  -2.531  -4.318  0.00  0.00    -0.097 F 
ATOM     12  F4  UNL d   1       1.970   0.135  -4.900  0.00  0.00    -0.092 F 
ENDROOT
TORSDOF 0
ENDMDL
