MODEL 1
REMARK minimizedAffinity 6.29221725
REMARK minimizedRMSD -1
REMARK  0 active torsions:
REMARK  status: ('A' for Active; 'I' for Inactive)
ROOT
ATOM      1  C   UNL d   1       1.538  -0.531  -3.950  0.00  0.00     0.124 A 
ATOM      2  C1  UNL d   1       1.548  -1.874  -3.602  0.00  0.00     0.062 A 
ATOM      3  C2  UNL d   1       1.098  -2.275  -2.347  0.00  0.00     0.162 A 
ATOM      4  C3  UNL d   1       0.635  -1.331  -1.431  0.00  0.00    -0.034 A 
ATOM      5  C4  UNL d   1       0.629   0.018  -1.788  0.00  0.00     0.162 A 
ATOM      6  C5  UNL d   1       1.079   0.414  -3.044  0.00  0.00     0.062 A 
ATOM      7  F   UNL d   1       1.070   1.713  -3.378  0.00  0.00    -0.097 F 
ATOM      8  F1  UNL d   1       0.190   0.952  -0.932  0.00  0.00    -0.096 F 
ATOM      9  I   UNL d   1      -0.038  -1.926   0.446  0.00  0.00    -0.060 I 
ATOM     10  F2  UNL d   1       1.119  -3.580  -2.037  0.00  0.00    -0.096 F 
ATOM     11  F3  UNL d   1       1.992  -2.789  -4.476  0.00  0.00    -0.097 F 
ATOM     12  F4  UNL d   1       1.972  -0.148  -5.158  0.00  0.00    -0.092 F 
ENDROOT
TORSDOF 0
ENDMDL
