MODEL 1
REMARK minimizedAffinity 5.81602144
REMARK minimizedRMSD -1
REMARK  0 active torsions:
REMARK  status: ('A' for Active; 'I' for Inactive)
ROOT
ATOM      1  C   UNL d   1       1.432  -1.580  -2.890  0.00  0.00     0.124 A 
ATOM      2  C1  UNL d   1       2.124  -1.268  -4.052  0.00  0.00     0.062 A 
ATOM      3  C2  UNL d   1       2.164   0.045  -4.512  0.00  0.00     0.162 A 
ATOM      4  C3  UNL d   1       1.511   1.057  -3.809  0.00  0.00    -0.034 A 
ATOM      5  C4  UNL d   1       0.815   0.736  -2.642  0.00  0.00     0.162 A 
ATOM      6  C5  UNL d   1       0.778  -0.578  -2.187  0.00  0.00     0.062 A 
ATOM      7  F   UNL d   1       0.108  -0.878  -1.064  0.00  0.00    -0.097 F 
ATOM      8  F1  UNL d   1       0.176   1.684  -1.942  0.00  0.00    -0.096 F 
ATOM      9  I   UNL d   1       1.568   3.022  -4.493  0.00  0.00    -0.060 I 
ATOM     10  F2  UNL d   1       2.841   0.318  -5.637  0.00  0.00    -0.096 F 
ATOM     11  F3  UNL d   1       2.756  -2.234  -4.734  0.00  0.00    -0.097 F 
ATOM     12  F4  UNL d   1       1.394  -2.844  -2.451  0.00  0.00    -0.092 F 
ENDROOT
TORSDOF 0
ENDMDL
