MODEL 1
REMARK minimizedAffinity 27.1482601
REMARK minimizedRMSD -1
REMARK  0 active torsions:
REMARK  status: ('A' for Active; 'I' for Inactive)
ROOT
ATOM      1  C   UNL d   1       4.458   3.474  -5.548  0.00  0.00     0.124 A 
ATOM      2  C1  UNL d   1       3.213   3.875  -5.084  0.00  0.00     0.062 A 
ATOM      3  C2  UNL d   1       2.303   2.931  -4.616  0.00  0.00     0.162 A 
ATOM      4  C3  UNL d   1       2.636   1.576  -4.609  0.00  0.00    -0.034 A 
ATOM      5  C4  UNL d   1       3.890   1.181  -5.079  0.00  0.00     0.162 A 
ATOM      6  C5  UNL d   1       4.795   2.128  -5.546  0.00  0.00     0.062 A 
ATOM      7  F   UNL d   1       5.998   1.739  -5.994  0.00  0.00    -0.097 F 
ATOM      8  F1  UNL d   1       4.242  -0.113  -5.086  0.00  0.00    -0.096 F 
ATOM      9  I   UNL d   1       1.279   0.161  -3.910  0.00  0.00    -0.060 I 
ATOM     10  F2  UNL d   1       1.108   3.346  -4.172  0.00  0.00    -0.096 F 
ATOM     11  F3  UNL d   1       2.884   5.175  -5.086  0.00  0.00    -0.097 F 
ATOM     12  F4  UNL d   1       5.330   4.385  -5.999  0.00  0.00    -0.092 F 
ENDROOT
TORSDOF 0
ENDMDL
