MODEL 1
REMARK minimizedAffinity 7.59934855
REMARK minimizedRMSD -1
REMARK  0 active torsions:
REMARK  status: ('A' for Active; 'I' for Inactive)
ROOT
ATOM      1  C   UNL d   1       0.865  -1.556  -2.579  0.00  0.00     0.124 A 
ATOM      2  C1  UNL d   1       0.794  -1.291  -1.219  0.00  0.00     0.062 A 
ATOM      3  C2  UNL d   1       0.951   0.009  -0.749  0.00  0.00     0.162 A 
ATOM      4  C3  UNL d   1       1.181   1.057  -1.641  0.00  0.00    -0.034 A 
ATOM      5  C4  UNL d   1       1.252   0.783  -3.008  0.00  0.00     0.162 A 
ATOM      6  C5  UNL d   1       1.094  -0.519  -3.473  0.00  0.00     0.062 A 
ATOM      7  F   UNL d   1       1.163  -0.772  -4.788  0.00  0.00    -0.097 F 
ATOM      8  F1  UNL d   1       1.472   1.766  -3.894  0.00  0.00    -0.096 F 
ATOM      9  I   UNL d   1       1.418   3.003  -0.943  0.00  0.00    -0.060 I 
ATOM     10  F2  UNL d   1       0.878   0.236   0.571  0.00  0.00    -0.096 F 
ATOM     11  F3  UNL d   1       0.573  -2.292  -0.353  0.00  0.00    -0.097 F 
ATOM     12  F4  UNL d   1       0.714  -2.808  -3.028  0.00  0.00    -0.092 F 
ENDROOT
TORSDOF 0
ENDMDL
