MODEL 1
REMARK minimizedAffinity 14.1684628
REMARK minimizedRMSD -1
REMARK  0 active torsions:
REMARK  status: ('A' for Active; 'I' for Inactive)
ROOT
ATOM      1  C   UNL d   1       1.549  -0.588  -3.577  0.00  0.00     0.124 A 
ATOM      2  C1  UNL d   1       1.223   0.371  -2.629  0.00  0.00     0.062 A 
ATOM      3  C2  UNL d   1       0.606  -0.003  -1.438  0.00  0.00     0.162 A 
ATOM      4  C3  UNL d   1       0.312  -1.344  -1.189  0.00  0.00    -0.034 A 
ATOM      5  C4  UNL d   1       0.643  -2.303  -2.148  0.00  0.00     0.162 A 
ATOM      6  C5  UNL d   1       1.259  -1.924  -3.336  0.00  0.00     0.062 A 
ATOM      7  F   UNL d   1       1.574  -2.852  -4.252  0.00  0.00    -0.097 F 
ATOM      8  F1  UNL d   1       0.375  -3.600  -1.941  0.00  0.00    -0.096 F 
ATOM      9  I   UNL d   1      -0.610  -1.907   0.589  0.00  0.00    -0.060 I 
ATOM     10  F2  UNL d   1       0.301   0.945  -0.540  0.00  0.00    -0.096 F 
ATOM     11  F3  UNL d   1       1.501   1.662  -2.859  0.00  0.00    -0.097 F 
ATOM     12  F4  UNL d   1       2.142  -0.225  -4.722  0.00  0.00    -0.092 F 
ENDROOT
TORSDOF 0
ENDMDL
