MODEL 1
REMARK minimizedAffinity 6.73678064
REMARK minimizedRMSD -1
REMARK  0 active torsions:
REMARK  status: ('A' for Active; 'I' for Inactive)
ROOT
ATOM      1  C   UNL d   1       0.946  -1.668  -1.563  0.00  0.00     0.124 A 
ATOM      2  C1  UNL d   1       1.024  -0.487  -0.840  0.00  0.00     0.062 A 
ATOM      3  C2  UNL d   1       1.170   0.730  -1.500  0.00  0.00     0.162 A 
ATOM      4  C3  UNL d   1       1.238   0.772  -2.892  0.00  0.00    -0.034 A 
ATOM      5  C4  UNL d   1       1.159  -0.421  -3.613  0.00  0.00     0.162 A 
ATOM      6  C5  UNL d   1       1.013  -1.635  -2.949  0.00  0.00     0.062 A 
ATOM      7  F   UNL d   1       0.938  -2.775  -3.650  0.00  0.00    -0.097 F 
ATOM      8  F1  UNL d   1       1.221  -0.417  -4.953  0.00  0.00    -0.096 F 
ATOM      9  I   UNL d   1       1.456   2.589  -3.883  0.00  0.00    -0.060 I 
ATOM     10  F2  UNL d   1       1.244   1.856  -0.775  0.00  0.00    -0.096 F 
ATOM     11  F3  UNL d   1       0.960  -0.517   0.499  0.00  0.00    -0.097 F 
ATOM     12  F4  UNL d   1       0.806  -2.838  -0.926  0.00  0.00    -0.092 F 
ENDROOT
TORSDOF 0
ENDMDL
