MODEL 1
REMARK minimizedAffinity -2.06091523
REMARK minimizedRMSD -1
REMARK  0 active torsions:
REMARK  status: ('A' for Active; 'I' for Inactive)
ROOT
ATOM      1  C   UNL d   1       2.500  -0.505   0.306  0.00  0.00     0.020 A 
ATOM      2  C1  UNL d   1       1.848  -0.352   1.529  0.00  0.00     0.020 A 
ATOM      3  C2  UNL d   1       0.474  -0.106   1.562  0.00  0.00     0.034 A 
ATOM      4  C3  UNL d   1      -0.253  -0.013   0.370  0.00  0.00     0.017 A 
ATOM      5  C4  UNL d   1       0.402  -0.166  -0.857  0.00  0.00     0.017 A 
ATOM      6  C5  UNL d   1       1.778  -0.412  -0.885  0.00  0.00     0.034 A 
ATOM      7 Cl   UNL d   1      -0.428  -0.064  -2.370  0.00  0.00    -0.070 Cl
ATOM      8 Cl1  UNL d   1      -1.950   0.293   0.486  0.00  0.00    -0.070 Cl
ENDROOT
TORSDOF 0
ENDMDL
