MODEL 1
REMARK minimizedAffinity -3.51020765
REMARK minimizedRMSD -1
REMARK  0 active torsions:
REMARK  status: ('A' for Active; 'I' for Inactive)
ROOT
ATOM      1  C   UNL d   1       2.116  -1.003   2.203  0.00  0.00     0.020 A 
ATOM      2  C1  UNL d   1       0.843  -0.560   2.563  0.00  0.00     0.020 A 
ATOM      3  C2  UNL d   1      -0.086  -0.230   1.574  0.00  0.00     0.034 A 
ATOM      4  C3  UNL d   1       0.256  -0.341   0.222  0.00  0.00     0.017 A 
ATOM      5  C4  UNL d   1       1.533  -0.785  -0.138  0.00  0.00     0.017 A 
ATOM      6  C5  UNL d   1       2.460  -1.115   0.855  0.00  0.00     0.034 A 
ATOM      7 Cl   UNL d   1       2.027  -0.948  -1.787  0.00  0.00    -0.070 Cl
ATOM      8 Cl1  UNL d   1      -0.943   0.085  -0.947  0.00  0.00    -0.070 Cl
ENDROOT
TORSDOF 0
ENDMDL
