MODEL 1
REMARK minimizedAffinity 0.38580662
REMARK minimizedRMSD -1
REMARK  0 active torsions:
REMARK  status: ('A' for Active; 'I' for Inactive)
ROOT
ATOM      1  C   UNL d   1      -0.364  -0.771   2.236  0.00  0.00     0.020 A 
ATOM      2  C1  UNL d   1      -1.182   0.350   2.097  0.00  0.00     0.020 A 
ATOM      3  C2  UNL d   1      -1.149   1.096   0.917  0.00  0.00     0.034 A 
ATOM      4  C3  UNL d   1      -0.296   0.723  -0.128  0.00  0.00     0.017 A 
ATOM      5  C4  UNL d   1       0.525  -0.402   0.013  0.00  0.00     0.017 A 
ATOM      6  C5  UNL d   1       0.488  -1.145   1.197  0.00  0.00     0.034 A 
ATOM      7 Cl   UNL d   1       1.604  -0.924  -1.233  0.00  0.00    -0.070 Cl
ATOM      8 Cl1  UNL d   1      -0.307   1.692  -1.559  0.00  0.00    -0.070 Cl
ENDROOT
TORSDOF 0
ENDMDL
