MODEL 1
REMARK minimizedAffinity 2.95377326
REMARK minimizedRMSD -1
REMARK  0 active torsions:
REMARK  status: ('A' for Active; 'I' for Inactive)
ROOT
ATOM      1  C   UNL d   1       0.750   2.245  -4.494  0.00  0.00     0.020 A 
ATOM      2  C1  UNL d   1       1.318   3.385  -5.062  0.00  0.00     0.020 A 
ATOM      3  C2  UNL d   1       1.501   4.533  -4.289  0.00  0.00     0.034 A 
ATOM      4  C3  UNL d   1       1.115   4.545  -2.944  0.00  0.00     0.017 A 
ATOM      5  C4  UNL d   1       0.545   3.400  -2.374  0.00  0.00     0.017 A 
ATOM      6  C5  UNL d   1       0.365   2.253  -3.153  0.00  0.00     0.034 A 
ATOM      7 Cl   UNL d   1       0.045   3.338  -0.721  0.00  0.00    -0.070 Cl
ATOM      8 Cl1  UNL d   1       1.371   5.999  -2.047  0.00  0.00    -0.070 Cl
ENDROOT
TORSDOF 0
ENDMDL
