MODEL 1
REMARK minimizedAffinity -2.58068395
REMARK minimizedRMSD -1
REMARK  0 active torsions:
REMARK  status: ('A' for Active; 'I' for Inactive)
ROOT
ATOM      1  C   UNL d   1      -1.321   0.127  -2.011  0.00  0.00     0.020 A 
ATOM      2  C1  UNL d   1      -2.163   0.177  -0.901  0.00  0.00     0.020 A 
ATOM      3  C2  UNL d   1      -1.712  -0.279   0.339  0.00  0.00     0.034 A 
ATOM      4  C3  UNL d   1      -0.415  -0.789   0.472  0.00  0.00     0.017 A 
ATOM      5  C4  UNL d   1       0.430  -0.839  -0.643  0.00  0.00     0.017 A 
ATOM      6  C5  UNL d   1      -0.027  -0.380  -1.882  0.00  0.00     0.034 A 
ATOM      7 Cl   UNL d   1       2.043  -1.453  -0.556  0.00  0.00    -0.070 Cl
ATOM      8 Cl1  UNL d   1       0.077  -1.336   2.036  0.00  0.00    -0.070 Cl
ENDROOT
TORSDOF 0
ENDMDL
