MODEL 1
REMARK minimizedAffinity -1.94143891
REMARK minimizedRMSD -1
REMARK  0 active torsions:
REMARK  status: ('A' for Active; 'I' for Inactive)
ROOT
ATOM      1  C   UNL d   1       1.067  -1.455   2.113  0.00  0.00     0.020 A 
ATOM      2  C1  UNL d   1       0.026  -0.542   2.277  0.00  0.00     0.020 A 
ATOM      3  C2  UNL d   1      -0.465   0.163   1.176  0.00  0.00     0.034 A 
ATOM      4  C3  UNL d   1       0.085  -0.045  -0.095  0.00  0.00     0.017 A 
ATOM      5  C4  UNL d   1       1.130  -0.961  -0.259  0.00  0.00     0.017 A 
ATOM      6  C5  UNL d   1       1.617  -1.664   0.847  0.00  0.00     0.034 A 
ATOM      7 Cl   UNL d   1       1.858  -1.271  -1.795  0.00  0.00    -0.070 Cl
ATOM      8 Cl1  UNL d   1      -0.572   0.861  -1.412  0.00  0.00    -0.070 Cl
ENDROOT
TORSDOF 0
ENDMDL
