MODEL 1
REMARK minimizedAffinity -0.625672221
REMARK minimizedRMSD -1
REMARK  0 active torsions:
REMARK  status: ('A' for Active; 'I' for Inactive)
ROOT
ATOM      1  C   UNL d   1       1.343  -1.084   0.389  0.00  0.00     0.020 A 
ATOM      2  C1  UNL d   1       1.337  -1.259  -0.995  0.00  0.00     0.020 A 
ATOM      3  C2  UNL d   1       0.696  -0.326  -1.813  0.00  0.00     0.034 A 
ATOM      4  C3  UNL d   1       0.058   0.784  -1.249  0.00  0.00     0.017 A 
ATOM      5  C4  UNL d   1       0.064   0.959   0.140  0.00  0.00     0.017 A 
ATOM      6  C5  UNL d   1       0.708   0.022   0.954  0.00  0.00     0.034 A 
ATOM      7 Cl   UNL d   1      -0.701   2.304   0.909  0.00  0.00    -0.070 Cl
ATOM      8 Cl1  UNL d   1      -0.715   1.898  -2.321  0.00  0.00    -0.070 Cl
ENDROOT
TORSDOF 0
ENDMDL
