MODEL 1
REMARK minimizedAffinity 1.54629314
REMARK minimizedRMSD -1
REMARK  0 active torsions:
REMARK  status: ('A' for Active; 'I' for Inactive)
ROOT
ATOM      1  C2' OXE d   1      -5.621   0.358   2.621  0.00  0.00     0.078 C 
ATOM      2  C1' OXE d   1      -6.000   3.021   1.819  0.00  0.00     0.078 C 
ATOM      3  C1  OXE d   1      -5.845   2.746   3.294  0.00  0.00    -0.078 A 
ATOM      4  C2  OXE d   1      -5.706   1.435   3.681  0.00  0.00    -0.078 A 
ATOM      5  C3  OXE d   1      -5.505   1.130   5.024  0.00  0.00     0.003 A 
ATOM      6  C4  OXE d   1      -5.595   2.131   5.999  0.00  0.00    -0.002 A 
ATOM      7  C5  OXE d   1      -5.775   3.468   5.630  0.00  0.00    -0.002 A 
ATOM      8  C6  OXE d   1      -5.859   3.797   4.281  0.00  0.00     0.003 A 
ENDROOT
TORSDOF 0
ENDMDL
