MODEL 1
REMARK minimizedAffinity 7.16802216
REMARK minimizedRMSD -1
REMARK  0 active torsions:
REMARK  status: ('A' for Active; 'I' for Inactive)
ROOT
ATOM      1  C2' OXE d   1      -5.686   0.897   2.603  0.00  0.00     0.078 C 
ATOM      2  C1' OXE d   1      -6.000   3.572   1.815  0.00  0.00     0.078 C 
ATOM      3  C1  OXE d   1      -5.934   3.278   3.293  0.00  0.00    -0.078 A 
ATOM      4  C2  OXE d   1      -5.827   1.961   3.670  0.00  0.00    -0.078 A 
ATOM      5  C3  OXE d   1      -5.707   1.638   5.019  0.00  0.00     0.003 A 
ATOM      6  C4  OXE d   1      -5.849   2.627   6.000  0.00  0.00    -0.002 A 
ATOM      7  C5  OXE d   1      -5.998   3.970   5.638  0.00  0.00    -0.002 A 
ATOM      8  C6  OXE d   1      -6.000   4.316   4.291  0.00  0.00     0.003 A 
ENDROOT
TORSDOF 0
ENDMDL
