MODEL 1
REMARK minimizedAffinity 5.19522524
REMARK minimizedRMSD -1
REMARK  0 active torsions:
REMARK  status: ('A' for Active; 'I' for Inactive)
ROOT
ATOM      1  C2' OXE d   1       0.584  -1.493   1.048  0.00  0.00     0.078 C 
ATOM      2  C1' OXE d   1       2.643  -1.102   2.916  0.00  0.00     0.078 C 
ATOM      3  C1  OXE d   1       2.523  -0.112   1.784  0.00  0.00    -0.078 A 
ATOM      4  C2  OXE d   1       1.542  -0.338   0.849  0.00  0.00    -0.078 A 
ATOM      5  C3  OXE d   1       1.352   0.575  -0.185  0.00  0.00     0.003 A 
ATOM      6  C4  OXE d   1       2.248   1.635  -0.368  0.00  0.00    -0.002 A 
ATOM      7  C5  OXE d   1       3.279   1.860   0.551  0.00  0.00    -0.002 A 
ATOM      8  C6  OXE d   1       3.404   1.022   1.653  0.00  0.00     0.003 A 
ENDROOT
TORSDOF 0
ENDMDL
