MODEL 1
REMARK minimizedAffinity 2.36462235
REMARK minimizedRMSD -1
REMARK  0 active torsions:
REMARK  status: ('A' for Active; 'I' for Inactive)
ROOT
ATOM      1  C2' OXE d   1       0.316   1.182   3.151  0.00  0.00     0.078 C 
ATOM      2  C1' OXE d   1       0.264  -0.342   0.794  0.00  0.00     0.078 C 
ATOM      3  C1  OXE d   1      -1.001   0.374   1.197  0.00  0.00    -0.078 A 
ATOM      4  C2  OXE d   1      -0.980   1.079   2.376  0.00  0.00    -0.078 A 
ATOM      5  C3  OXE d   1      -2.104   1.802   2.767  0.00  0.00     0.003 A 
ATOM      6  C4  OXE d   1      -3.302   1.692   2.050  0.00  0.00    -0.002 A 
ATOM      7  C5  OXE d   1      -3.356   0.947   0.867  0.00  0.00    -0.002 A 
ATOM      8  C6  OXE d   1      -2.205   0.318   0.405  0.00  0.00     0.003 A 
ENDROOT
TORSDOF 0
ENDMDL
