MODEL 1
REMARK minimizedAffinity 9.00450993
REMARK minimizedRMSD -1
REMARK  0 active torsions:
REMARK  status: ('A' for Active; 'I' for Inactive)
ROOT
ATOM      1  C2' OXE d   1      -2.498   1.834   2.631  0.00  0.00     0.078 C 
ATOM      2  C1' OXE d   1       0.042   2.965   3.018  0.00  0.00     0.078 C 
ATOM      3  C1  OXE d   1      -0.037   1.640   2.302  0.00  0.00    -0.078 A 
ATOM      4  C2  OXE d   1      -1.279   1.071   2.159  0.00  0.00    -0.078 A 
ATOM      5  C3  OXE d   1      -1.414  -0.124   1.459  0.00  0.00     0.003 A 
ATOM      6  C4  OXE d   1      -0.281  -0.828   1.034  0.00  0.00    -0.002 A 
ATOM      7  C5  OXE d   1       0.997  -0.286   1.205  0.00  0.00    -0.002 A 
ATOM      8  C6  OXE d   1       1.133   0.964   1.798  0.00  0.00     0.003 A 
ENDROOT
TORSDOF 0
ENDMDL
