MODEL 1
REMARK minimizedAffinity 5.60506248
REMARK minimizedRMSD -1
REMARK  0 active torsions:
REMARK  status: ('A' for Active; 'I' for Inactive)
ROOT
ATOM      1  C2' OXE d   1      -3.104   1.417   1.685  0.00  0.00     0.078 C 
ATOM      2  C1' OXE d   1      -2.647  -0.944   0.237  0.00  0.00     0.078 C 
ATOM      3  C1  OXE d   1      -1.471  -0.307   0.933  0.00  0.00    -0.078 A 
ATOM      4  C2  OXE d   1      -1.695   0.873   1.601  0.00  0.00    -0.078 A 
ATOM      5  C3  OXE d   1      -0.656   1.474   2.306  0.00  0.00     0.003 A 
ATOM      6  C4  OXE d   1       0.647   0.970   2.215  0.00  0.00    -0.002 A 
ATOM      7  C5  OXE d   1       0.905  -0.209   1.508  0.00  0.00    -0.002 A 
ATOM      8  C6  OXE d   1      -0.149  -0.881   0.898  0.00  0.00     0.003 A 
ENDROOT
TORSDOF 0
ENDMDL
