MODEL 1
REMARK minimizedAffinity 4.12543821
REMARK minimizedRMSD -1
REMARK  0 active torsions:
REMARK  status: ('A' for Active; 'I' for Inactive)
ROOT
ATOM      1  C2' OXE d   1      -4.511  -0.330   6.000  0.00  0.00     0.078 C 
ATOM      2  C1' OXE d   1      -5.724   2.175   5.638  0.00  0.00     0.078 C 
ATOM      3  C1  OXE d   1      -4.827   1.663   4.539  0.00  0.00    -0.078 A 
ATOM      4  C2  OXE d   1      -4.201   0.457   4.745  0.00  0.00    -0.078 A 
ATOM      5  C3  OXE d   1      -3.406  -0.087   3.741  0.00  0.00     0.003 A 
ATOM      6  C4  OXE d   1      -3.116   0.652   2.587  0.00  0.00    -0.002 A 
ATOM      7  C5  OXE d   1      -3.712   1.900   2.375  0.00  0.00    -0.002 A 
ATOM      8  C6  OXE d   1      -4.602   2.399   3.320  0.00  0.00     0.003 A 
ENDROOT
TORSDOF 0
ENDMDL
