MODEL 1
REMARK minimizedAffinity 4.88605213
REMARK minimizedRMSD -1
REMARK  0 active torsions:
REMARK  status: ('A' for Active; 'I' for Inactive)
ROOT
ATOM      1  C2' OXE d   1      -3.903   1.741   1.873  0.00  0.00     0.078 C 
ATOM      2  C1' OXE d   1      -1.118   1.764   2.224  0.00  0.00     0.078 C 
ATOM      3  C1  OXE d   1      -1.708   0.688   1.347  0.00  0.00    -0.078 A 
ATOM      4  C2  OXE d   1      -3.076   0.657   1.218  0.00  0.00    -0.078 A 
ATOM      5  C3  OXE d   1      -3.667  -0.281   0.377  0.00  0.00     0.003 A 
ATOM      6  C4  OXE d   1      -2.895  -1.287  -0.217  0.00  0.00    -0.002 A 
ATOM      7  C5  OXE d   1      -1.505  -1.297  -0.067  0.00  0.00    -0.002 A 
ATOM      8  C6  OXE d   1      -0.892  -0.293   0.676  0.00  0.00     0.003 A 
ENDROOT
TORSDOF 0
ENDMDL
