MODEL 1
REMARK minimizedAffinity 10.3795538
REMARK minimizedRMSD -1
REMARK  0 active torsions:
REMARK  status: ('A' for Active; 'I' for Inactive)
ROOT
ATOM      1  C2' OXE d   1      -3.425   1.829   2.296  0.00  0.00     0.078 C 
ATOM      2  C1' OXE d   1      -0.768   0.976   2.602  0.00  0.00     0.078 C 
ATOM      3  C1  OXE d   1      -1.598   0.321   1.527  0.00  0.00    -0.078 A 
ATOM      4  C2  OXE d   1      -2.911   0.711   1.415  0.00  0.00    -0.078 A 
ATOM      5  C3  OXE d   1      -3.706   0.177   0.405  0.00  0.00     0.003 A 
ATOM      6  C4  OXE d   1      -3.225  -0.864  -0.400  0.00  0.00    -0.002 A 
ATOM      7  C5  OXE d   1      -1.903  -1.304  -0.276  0.00  0.00    -0.002 A 
ATOM      8  C6  OXE d   1      -1.066  -0.694   0.651  0.00  0.00     0.003 A 
ENDROOT
TORSDOF 0
ENDMDL
