MODEL 1
REMARK minimizedAffinity 6.67389727
REMARK minimizedRMSD -1
REMARK  0 active torsions:
REMARK  status: ('A' for Active; 'I' for Inactive)
ROOT
ATOM      1  C2' OXE d   1      -2.435   2.414   3.178  0.00  0.00     0.078 C 
ATOM      2  C1' OXE d   1       0.319   2.207   3.685  0.00  0.00     0.078 C 
ATOM      3  C1  OXE d   1      -0.242   1.432   2.519  0.00  0.00    -0.078 A 
ATOM      4  C2  OXE d   1      -1.598   1.502   2.307  0.00  0.00    -0.078 A 
ATOM      5  C3  OXE d   1      -2.159   0.850   1.212  0.00  0.00     0.003 A 
ATOM      6  C4  OXE d   1      -1.380   0.001   0.417  0.00  0.00    -0.002 A 
ATOM      7  C5  OXE d   1      -0.004  -0.116   0.640  0.00  0.00    -0.002 A 
ATOM      8  C6  OXE d   1       0.587   0.624   1.658  0.00  0.00     0.003 A 
ENDROOT
TORSDOF 0
ENDMDL
