MODEL 1
REMARK minimizedAffinity -1.03933525
REMARK minimizedRMSD -1
REMARK  0 active torsions:
REMARK  status: ('A' for Active; 'I' for Inactive)
ROOT
ATOM      1  C2' OXE d   1       1.127   0.315   1.525  0.00  0.00     0.078 C 
ATOM      2  C1' OXE d   1       0.410   2.258   3.420  0.00  0.00     0.078 C 
ATOM      3  C1  OXE d   1      -0.688   1.658   2.578  0.00  0.00    -0.078 A 
ATOM      4  C2  OXE d   1      -0.322   0.742   1.621  0.00  0.00    -0.078 A 
ATOM      5  C3  OXE d   1      -1.301   0.117   0.854  0.00  0.00     0.003 A 
ATOM      6  C4  OXE d   1      -2.638   0.525   0.942  0.00  0.00    -0.002 A 
ATOM      7  C5  OXE d   1      -3.026   1.485   1.883  0.00  0.00    -0.002 A 
ATOM      8  C6  OXE d   1      -2.072   2.029   2.735  0.00  0.00     0.003 A 
ENDROOT
TORSDOF 0
ENDMDL
