MODEL 1
REMARK minimizedAffinity 5.66462326
REMARK minimizedRMSD -1
REMARK  0 active torsions:
REMARK  status: ('A' for Active; 'I' for Inactive)
ROOT
ATOM      1  C2' OXE d   1      -1.865   2.184   4.028  0.00  0.00     0.078 C 
ATOM      2  C1' OXE d   1       0.887   2.126   3.474  0.00  0.00     0.078 C 
ATOM      3  C1  OXE d   1      -0.051   1.553   2.441  0.00  0.00    -0.078 A 
ATOM      4  C2  OXE d   1      -1.392   1.544   2.741  0.00  0.00    -0.078 A 
ATOM      5  C3  OXE d   1      -2.306   1.077   1.800  0.00  0.00     0.003 A 
ATOM      6  C4  OXE d   1      -1.860   0.478   0.616  0.00  0.00    -0.002 A 
ATOM      7  C5  OXE d   1      -0.496   0.441   0.308  0.00  0.00    -0.002 A 
ATOM      8  C6  OXE d   1       0.417   1.012   1.189  0.00  0.00     0.003 A 
ENDROOT
TORSDOF 0
ENDMDL
