MODEL 1
REMARK minimizedAffinity 3.98425817
REMARK minimizedRMSD -1
REMARK  0 active torsions:
REMARK  status: ('A' for Active; 'I' for Inactive)
ROOT
ATOM      1  C2' OXE d   1       1.253   0.269   0.812  0.00  0.00     0.078 C 
ATOM      2  C1' OXE d   1       0.702   1.757   3.128  0.00  0.00     0.078 C 
ATOM      3  C1  OXE d   1      -0.461   1.361   2.253  0.00  0.00    -0.078 A 
ATOM      4  C2  OXE d   1      -0.177   0.673   1.097  0.00  0.00    -0.078 A 
ATOM      5  C3  OXE d   1      -1.218   0.236   0.282  0.00  0.00     0.003 A 
ATOM      6  C4  OXE d   1      -2.537   0.623   0.547  0.00  0.00    -0.002 A 
ATOM      7  C5  OXE d   1      -2.843   1.358   1.698  0.00  0.00    -0.002 A 
ATOM      8  C6  OXE d   1      -1.824   1.697   2.581  0.00  0.00     0.003 A 
ENDROOT
TORSDOF 0
ENDMDL
