MODEL 1
REMARK minimizedAffinity 1.22126389
REMARK minimizedRMSD -1
REMARK  0 active torsions:
REMARK  status: ('A' for Active; 'I' for Inactive)
ROOT
ATOM      1  C2' OXE d   1       0.532   2.252   3.419  0.00  0.00     0.078 C 
ATOM      2  C1' OXE d   1       1.123   0.740   1.128  0.00  0.00     0.078 C 
ATOM      3  C1  OXE d   1      -0.327   0.902   1.510  0.00  0.00    -0.078 A 
ATOM      4  C2  OXE d   1      -0.604   1.604   2.658  0.00  0.00    -0.078 A 
ATOM      5  C3  OXE d   1      -1.928   1.830   3.026  0.00  0.00     0.003 A 
ATOM      6  C4  OXE d   1      -2.973   1.219   2.322  0.00  0.00    -0.002 A 
ATOM      7  C5  OXE d   1      -2.710   0.467   1.172  0.00  0.00    -0.002 A 
ATOM      8  C6  OXE d   1      -1.399   0.334   0.729  0.00  0.00     0.003 A 
ENDROOT
TORSDOF 0
ENDMDL
