MODEL 1
REMARK minimizedAffinity 2.93936324
REMARK minimizedRMSD -1
REMARK  0 active torsions:
REMARK  status: ('A' for Active; 'I' for Inactive)
ROOT
ATOM      1  C2' OXE d   1       0.767   2.318   3.709  0.00  0.00     0.078 C 
ATOM      2  C1' OXE d   1      -1.925   3.084   3.491  0.00  0.00     0.078 C 
ATOM      3  C1  OXE d   1      -1.427   1.995   2.575  0.00  0.00    -0.078 A 
ATOM      4  C2  OXE d   1      -0.097   1.658   2.656  0.00  0.00    -0.078 A 
ATOM      5  C3  OXE d   1       0.401   0.622   1.871  0.00  0.00     0.003 A 
ATOM      6  C4  OXE d   1      -0.403   0.024   0.893  0.00  0.00    -0.002 A 
ATOM      7  C5  OXE d   1      -1.750   0.380   0.766  0.00  0.00    -0.002 A 
ATOM      8  C6  OXE d   1      -2.287   1.331   1.627  0.00  0.00     0.003 A 
ENDROOT
TORSDOF 0
ENDMDL
