MODEL 1
REMARK minimizedAffinity 11.678401
REMARK minimizedRMSD -1
REMARK  0 active torsions:
REMARK  status: ('A' for Active; 'I' for Inactive)
ROOT
ATOM      1  C2' OXE d   1       1.876  -0.072   2.223  0.00  0.00     0.078 C 
ATOM      2  C1' OXE d   1       1.268   2.621   2.733  0.00  0.00     0.078 C 
ATOM      3  C1  OXE d   1       0.153   1.727   2.248  0.00  0.00    -0.078 A 
ATOM      4  C2  OXE d   1       0.470   0.423   1.956  0.00  0.00    -0.078 A 
ATOM      5  C3  OXE d   1      -0.531  -0.458   1.558  0.00  0.00     0.003 A 
ATOM      6  C4  OXE d   1      -1.826   0.010   1.304  0.00  0.00    -0.002 A 
ATOM      7  C5  OXE d   1      -2.161   1.345   1.557  0.00  0.00    -0.002 A 
ATOM      8  C6  OXE d   1      -1.196   2.204   2.069  0.00  0.00     0.003 A 
ENDROOT
TORSDOF 0
ENDMDL
