MODEL 1
REMARK minimizedAffinity 7.9095335
REMARK minimizedRMSD -1
REMARK  0 active torsions:
REMARK  status: ('A' for Active; 'I' for Inactive)
ROOT
ATOM      1  C2' OXE d   1      -1.934   0.449   0.320  0.00  0.00     0.078 C 
ATOM      2  C1' OXE d   1       0.647  -0.392   1.035  0.00  0.00     0.078 C 
ATOM      3  C1  OXE d   1      -0.036   0.617   1.924  0.00  0.00    -0.078 A 
ATOM      4  C2  OXE d   1      -1.280   1.058   1.541  0.00  0.00    -0.078 A 
ATOM      5  C3  OXE d   1      -1.977   1.947   2.354  0.00  0.00     0.003 A 
ATOM      6  C4  OXE d   1      -1.361   2.513   3.477  0.00  0.00    -0.002 A 
ATOM      7  C5  OXE d   1      -0.079   2.108   3.863  0.00  0.00    -0.002 A 
ATOM      8  C6  OXE d   1       0.579   1.132   3.123  0.00  0.00     0.003 A 
ENDROOT
TORSDOF 0
ENDMDL
