MODEL 1
REMARK minimizedAffinity 17.8678875
REMARK minimizedRMSD -1
REMARK  0 active torsions:
REMARK  status: ('A' for Active; 'I' for Inactive)
ROOT
ATOM      1  C   UNL d   1       0.054  -4.374   5.008  0.00  0.00    -0.002 A 
ATOM      2  C1  UNL d   1       0.890  -3.878   5.998  0.00  0.00     0.010 A 
ATOM      3  C2  UNL d   1       1.351  -2.561   5.943  0.00  0.00     0.041 A 
ATOM      4  C3  UNL d   1       0.953  -1.744   4.867  0.00  0.00    -0.075 A 
ATOM      5  S   UNL d   1       1.394  -0.099   4.592  0.00  0.00     0.015 SA
ATOM      6  C4  UNL d   1       0.482  -0.018   3.154  0.00  0.00     0.022 A 
ATOM      7  C5  UNL d   1      -0.150  -1.207   2.876  0.00  0.00     0.026 A 
ATOM      8  C6  UNL d   1       0.111  -2.221   3.858  0.00  0.00    -0.082 A 
ATOM      9  C7  UNL d   1      -0.339  -3.561   3.942  0.00  0.00     0.045 A 
ENDROOT
TORSDOF 0
ENDMDL
