MODEL 1
REMARK minimizedAffinity 21.0838757
REMARK minimizedRMSD -1
REMARK  0 active torsions:
REMARK  status: ('A' for Active; 'I' for Inactive)
ROOT
ATOM      1  C   UNL d   1      -5.467   1.264   5.527  0.00  0.00    -0.002 A 
ATOM      2  C1  UNL d   1      -4.521   1.252   4.512  0.00  0.00     0.010 A 
ATOM      3  C2  UNL d   1      -4.087   2.445   3.931  0.00  0.00     0.041 A 
ATOM      4  C3  UNL d   1      -4.624   3.663   4.393  0.00  0.00    -0.075 A 
ATOM      5  S   UNL d   1      -4.241   5.247   3.831  0.00  0.00     0.015 SA
ATOM      6  C4  UNL d   1      -5.324   5.978   4.925  0.00  0.00     0.022 A 
ATOM      7  C5  UNL d   1      -5.971   5.050   5.707  0.00  0.00     0.026 A 
ATOM      8  C6  UNL d   1      -5.578   3.701   5.414  0.00  0.00    -0.082 A 
ATOM      9  C7  UNL d   1      -5.998   2.474   5.982  0.00  0.00     0.045 A 
ENDROOT
TORSDOF 0
ENDMDL
