MODEL 1
REMARK minimizedAffinity -2.13774061
REMARK minimizedRMSD -1
REMARK  0 active torsions:
REMARK  status: ('A' for Active; 'I' for Inactive)
ROOT
ATOM      1  C   UNL d   1      -1.069   0.932  -1.872  0.00  0.00    -0.002 A 
ATOM      2  C1  UNL d   1      -0.012   1.319  -1.060  0.00  0.00     0.010 A 
ATOM      3  C2  UNL d   1       0.775   0.363  -0.415  0.00  0.00     0.041 A 
ATOM      4  C3  UNL d   1       0.481  -1.002  -0.604  0.00  0.00    -0.075 A 
ATOM      5  S   UNL d   1       1.310  -2.349   0.083  0.00  0.00     0.015 SA
ATOM      6  C4  UNL d   1       0.281  -3.469  -0.685  0.00  0.00     0.022 A 
ATOM      7  C5  UNL d   1      -0.677  -2.849  -1.451  0.00  0.00     0.026 A 
ATOM      8  C6  UNL d   1      -0.578  -1.416  -1.417  0.00  0.00    -0.082 A 
ATOM      9  C7  UNL d   1      -1.358  -0.423  -2.056  0.00  0.00     0.045 A 
ENDROOT
TORSDOF 0
ENDMDL
