MODEL 1
REMARK minimizedAffinity 13.7483778
REMARK minimizedRMSD -1
REMARK  0 active torsions:
REMARK  status: ('A' for Active; 'I' for Inactive)
ROOT
ATOM      1  C   UNL d   1       4.055   2.755  -1.806  0.00  0.00    -0.002 A 
ATOM      2  C1  UNL d   1       4.510   2.381  -3.062  0.00  0.00     0.010 A 
ATOM      3  C2  UNL d   1       4.400   1.058  -3.493  0.00  0.00     0.041 A 
ATOM      4  C3  UNL d   1       3.816   0.107  -2.632  0.00  0.00    -0.075 A 
ATOM      5  S   UNL d   1       3.575  -1.570  -2.947  0.00  0.00     0.015 SA
ATOM      6  C4  UNL d   1       2.861  -1.831  -1.422  0.00  0.00     0.022 A 
ATOM      7  C5  UNL d   1       2.800  -0.676  -0.678  0.00  0.00     0.026 A 
ATOM      8  C6  UNL d   1       3.349   0.460  -1.363  0.00  0.00    -0.082 A 
ATOM      9  C7  UNL d   1       3.476   1.809  -0.955  0.00  0.00     0.045 A 
ENDROOT
TORSDOF 0
ENDMDL
