MODEL 1
REMARK minimizedAffinity 17.3356781
REMARK minimizedRMSD -1
REMARK  0 active torsions:
REMARK  status: ('A' for Active; 'I' for Inactive)
ROOT
ATOM      1  C   UNL d   1      -1.339   0.016  -1.258  0.00  0.00    -0.002 A 
ATOM      2  C1  UNL d   1      -1.571  -0.005  -2.626  0.00  0.00     0.010 A 
ATOM      3  C2  UNL d   1      -2.853   0.213  -3.133  0.00  0.00     0.041 A 
ATOM      4  C3  UNL d   1      -3.909   0.457  -2.233  0.00  0.00    -0.075 A 
ATOM      5  S   UNL d   1      -5.562   0.751  -2.625  0.00  0.00     0.015 SA
ATOM      6  C4  UNL d   1      -6.000   0.913  -0.985  0.00  0.00     0.022 A 
ATOM      7  C5  UNL d   1      -4.923   0.749  -0.146  0.00  0.00     0.026 A 
ATOM      8  C6  UNL d   1      -3.701   0.484  -0.851  0.00  0.00    -0.082 A 
ATOM      9  C7  UNL d   1      -2.389   0.259  -0.368  0.00  0.00     0.045 A 
ENDROOT
TORSDOF 0
ENDMDL
