MODEL 1
REMARK minimizedAffinity 7.09263468
REMARK minimizedRMSD -1
REMARK  0 active torsions:
REMARK  status: ('A' for Active; 'I' for Inactive)
ROOT
ATOM      1  C   UNL d   1       2.740   0.407   0.035  0.00  0.00    -0.002 A 
ATOM      2  C1  UNL d   1       2.961   0.755   1.360  0.00  0.00     0.010 A 
ATOM      3  C2  UNL d   1       3.721   1.882   1.681  0.00  0.00     0.041 A 
ATOM      4  C3  UNL d   1       4.260   2.661   0.638  0.00  0.00    -0.075 A 
ATOM      5  S   UNL d   1       5.221   4.083   0.793  0.00  0.00     0.015 SA
ATOM      6  C4  UNL d   1       5.361   4.263  -0.896  0.00  0.00     0.022 A 
ATOM      7  C5  UNL d   1       4.697   3.270  -1.577  0.00  0.00     0.026 A 
ATOM      8  C6  UNL d   1       4.051   2.331  -0.704  0.00  0.00    -0.082 A 
ATOM      9  C7  UNL d   1       3.276   1.182  -0.997  0.00  0.00     0.045 A 
ENDROOT
TORSDOF 0
ENDMDL
