MODEL 1
REMARK minimizedAffinity 11.664937
REMARK minimizedRMSD -1
REMARK  0 active torsions:
REMARK  status: ('A' for Active; 'I' for Inactive)
ROOT
ATOM      1  C   UNL d   1       2.691   0.064  -0.989  0.00  0.00    -0.002 A 
ATOM      2  C1  UNL d   1       3.468   0.799  -1.873  0.00  0.00     0.010 A 
ATOM      3  C2  UNL d   1       4.256   1.857  -1.416  0.00  0.00     0.041 A 
ATOM      4  C3  UNL d   1       4.252   2.166  -0.042  0.00  0.00    -0.075 A 
ATOM      5  S   UNL d   1       5.139   3.418   0.745  0.00  0.00     0.015 SA
ATOM      6  C4  UNL d   1       4.509   3.005   2.274  0.00  0.00     0.022 A 
ATOM      7  C5  UNL d   1       3.641   1.941   2.204  0.00  0.00     0.026 A 
ATOM      8  C6  UNL d   1       3.479   1.440   0.869  0.00  0.00    -0.082 A 
ATOM      9  C7  UNL d   1       2.690   0.373   0.374  0.00  0.00     0.045 A 
ENDROOT
TORSDOF 0
ENDMDL
