MODEL 1
REMARK minimizedAffinity 8.26957893
REMARK minimizedRMSD -1
REMARK  0 active torsions:
REMARK  status: ('A' for Active; 'I' for Inactive)
ROOT
ATOM      1  C   UNL d   1       3.358   0.713  -1.290  0.00  0.00    -0.002 A 
ATOM      2  C1  UNL d   1       4.304   1.519  -1.909  0.00  0.00     0.010 A 
ATOM      3  C2  UNL d   1       5.063   2.424  -1.164  0.00  0.00     0.041 A 
ATOM      4  C3  UNL d   1       4.855   2.504   0.227  0.00  0.00    -0.075 A 
ATOM      5  S   UNL d   1       5.669   3.537   1.342  0.00  0.00     0.015 SA
ATOM      6  C4  UNL d   1       4.782   2.932   2.665  0.00  0.00     0.022 A 
ATOM      7  C5  UNL d   1       3.882   1.965   2.284  0.00  0.00     0.026 A 
ATOM      8  C6  UNL d   1       3.910   1.702   0.873  0.00  0.00    -0.082 A 
ATOM      9  C7  UNL d   1       3.155   0.795   0.090  0.00  0.00     0.045 A 
ENDROOT
TORSDOF 0
ENDMDL
