MODEL 1
REMARK minimizedAffinity -0.562768221
REMARK minimizedRMSD -1
REMARK  1 active torsions:
REMARK  status: ('A' for Active; 'I' for Inactive)
REMARK    1  A    between atoms: C1_2  and  C2_3 
ROOT
ATOM      1  C2  UNL d   1       3.058   4.053  -5.270  0.00  0.00    -0.077 A 
ATOM      2  C3  UNL d   1       3.379   2.688  -5.269  0.00  0.00     0.002 A 
ATOM      3  C4  UNL d   1       4.658   2.263  -5.633  0.00  0.00     0.002 A 
ATOM      4  C5  UNL d   1       5.628   3.196  -5.994  0.00  0.00    -0.004 A 
ATOM      5  C6  UNL d   1       5.318   4.556  -5.999  0.00  0.00     0.002 A 
ATOM      6  C7  UNL d   1       4.039   4.982  -5.638  0.00  0.00     0.002 A 
ENDROOT
BRANCH   1   7
ATOM      7  C1  UNL d   1       1.694   4.517  -4.831  0.00  0.00     0.055 C 
ATOM      8  C   UNL d   1       0.700   4.479  -5.983  0.00  0.00     0.019 C 
ENDBRANCH   1   7
TORSDOF 1
ENDMDL
