MODEL 1
REMARK minimizedAffinity -3.09969068
REMARK minimizedRMSD -1
REMARK  1 active torsions:
REMARK  status: ('A' for Active; 'I' for Inactive)
REMARK    1  A    between atoms: C1_2  and  C2_3 
ROOT
ATOM      1  C2  UNL d   1       2.547   3.613  -5.501  0.00  0.00    -0.077 A 
ATOM      2  C3  UNL d   1       3.195   2.475  -5.000  0.00  0.00     0.002 A 
ATOM      3  C4  UNL d   1       4.590   2.405  -4.988  0.00  0.00     0.002 A 
ATOM      4  C5  UNL d   1       5.347   3.470  -5.471  0.00  0.00    -0.004 A 
ATOM      5  C6  UNL d   1       4.712   4.605  -5.973  0.00  0.00     0.002 A 
ATOM      6  C7  UNL d   1       3.319   4.676  -5.987  0.00  0.00     0.002 A 
ENDROOT
BRANCH   1   7
ATOM      7  C1  UNL d   1       1.045   3.711  -5.470  0.00  0.00     0.055 C 
ATOM      8  C   UNL d   1       0.587   5.156  -5.330  0.00  0.00     0.019 C 
ENDBRANCH   1   7
TORSDOF 1
ENDMDL
