MODEL 1
REMARK minimizedAffinity -2.35776186
REMARK minimizedRMSD -1
REMARK  1 active torsions:
REMARK  status: ('A' for Active; 'I' for Inactive)
REMARK    1  A    between atoms: C1_2  and  C2_3 
ROOT
ATOM      1  C2  UNL d   1       2.582   4.264  -5.621  0.00  0.00    -0.077 A 
ATOM      2  C3  UNL d   1       3.509   5.297  -5.816  0.00  0.00     0.002 A 
ATOM      3  C4  UNL d   1       4.862   5.006  -6.000  0.00  0.00     0.002 A 
ATOM      4  C5  UNL d   1       5.299   3.683  -5.993  0.00  0.00    -0.004 A 
ATOM      5  C6  UNL d   1       4.385   2.649  -5.797  0.00  0.00     0.002 A 
ATOM      6  C7  UNL d   1       3.033   2.938  -5.613  0.00  0.00     0.002 A 
ENDROOT
BRANCH   1   7
ATOM      7  C1  UNL d   1       1.115   4.573  -5.472  0.00  0.00     0.055 C 
ATOM      8  C   UNL d   1       0.787   5.964  -5.993  0.00  0.00     0.019 C 
ENDBRANCH   1   7
TORSDOF 1
ENDMDL
