MODEL 1
REMARK minimizedAffinity -2.23084855
REMARK minimizedRMSD -1
REMARK  1 active torsions:
REMARK  status: ('A' for Active; 'I' for Inactive)
REMARK    1  A    between atoms: C1_2  and  C2_3 
ROOT
ATOM      1  C2  UNL d   1       4.928   1.954   1.888  0.00  0.00    -0.077 A 
ATOM      2  C3  UNL d   1       5.240   0.636   2.246  0.00  0.00     0.002 A 
ATOM      3  C4  UNL d   1       4.255  -0.354   2.228  0.00  0.00     0.002 A 
ATOM      4  C5  UNL d   1       2.953  -0.036   1.848  0.00  0.00    -0.004 A 
ATOM      5  C6  UNL d   1       2.632   1.273   1.492  0.00  0.00     0.002 A 
ATOM      6  C7  UNL d   1       3.615   2.264   1.510  0.00  0.00     0.002 A 
ENDROOT
BRANCH   1   7
ATOM      7  C1  UNL d   1       6.000   3.012   1.859  0.00  0.00     0.055 C 
ATOM      8  C   UNL d   1       6.000   3.835   3.139  0.00  0.00     0.019 C 
ENDBRANCH   1   7
TORSDOF 1
ENDMDL
