MODEL 1
REMARK minimizedAffinity -1.66725647
REMARK minimizedRMSD -1
REMARK  1 active torsions:
REMARK  status: ('A' for Active; 'I' for Inactive)
REMARK    1  A    between atoms: C1_2  and  C2_3 
ROOT
ATOM      1  C2  UNL d   1       2.498   4.036  -5.342  0.00  0.00    -0.077 A 
ATOM      2  C3  UNL d   1       3.273   5.134  -5.741  0.00  0.00     0.002 A 
ATOM      3  C4  UNL d   1       4.637   4.980  -5.999  0.00  0.00     0.002 A 
ATOM      4  C5  UNL d   1       5.235   3.729  -5.866  0.00  0.00    -0.004 A 
ATOM      5  C6  UNL d   1       4.474   2.631  -5.469  0.00  0.00     0.002 A 
ATOM      6  C7  UNL d   1       3.111   2.783  -5.208  0.00  0.00     0.002 A 
ENDROOT
BRANCH   1   7
ATOM      7  C1  UNL d   1       1.018   4.190  -5.110  0.00  0.00     0.055 C 
ATOM      8  C   UNL d   1       0.430   5.279  -5.996  0.00  0.00     0.019 C 
ENDBRANCH   1   7
TORSDOF 1
ENDMDL
