MODEL 1
REMARK minimizedAffinity -3.14247656
REMARK minimizedRMSD -1
REMARK  1 active torsions:
REMARK  status: ('A' for Active; 'I' for Inactive)
REMARK    1  A    between atoms: C1_2  and  C2_3 
ROOT
ATOM      1  C2  UNL d   1       3.126   5.009  -5.728  0.00  0.00    -0.077 A 
ATOM      2  C3  UNL d   1       4.279   5.795  -5.869  0.00  0.00     0.002 A 
ATOM      3  C4  UNL d   1       5.532   5.193  -6.000  0.00  0.00     0.002 A 
ATOM      4  C5  UNL d   1       5.644   3.804  -5.994  0.00  0.00    -0.004 A 
ATOM      5  C6  UNL d   1       4.503   3.014  -5.852  0.00  0.00     0.002 A 
ATOM      6  C7  UNL d   1       3.250   3.614  -5.721  0.00  0.00     0.002 A 
ENDROOT
BRANCH   1   7
ATOM      7  C1  UNL d   1       1.768   5.655  -5.637  0.00  0.00     0.055 C 
ATOM      8  C   UNL d   1       0.663   4.675  -6.000  0.00  0.00     0.019 C 
ENDBRANCH   1   7
TORSDOF 1
ENDMDL
