MODEL 1
REMARK minimizedAffinity 0.348498613
REMARK minimizedRMSD -1
REMARK  1 active torsions:
REMARK  status: ('A' for Active; 'I' for Inactive)
REMARK    1  A    between atoms: C1_2  and  C2_3 
ROOT
ATOM      1  C2  UNL d   1       2.924   3.317  -5.862  0.00  0.00    -0.077 A 
ATOM      2  C3  UNL d   1       3.931   4.291  -5.905  0.00  0.00     0.002 A 
ATOM      3  C4  UNL d   1       5.274   3.915  -5.971  0.00  0.00     0.002 A 
ATOM      4  C5  UNL d   1       5.622   2.566  -5.997  0.00  0.00    -0.004 A 
ATOM      5  C6  UNL d   1       4.627   1.590  -5.953  0.00  0.00     0.002 A 
ATOM      6  C7  UNL d   1       3.284   1.964  -5.886  0.00  0.00     0.002 A 
ENDROOT
BRANCH   1   7
ATOM      7  C1  UNL d   1       1.472   3.720  -5.841  0.00  0.00     0.055 C 
ATOM      8  C   UNL d   1       1.208   4.782  -4.784  0.00  0.00     0.019 C 
ENDBRANCH   1   7
TORSDOF 1
ENDMDL
