MODEL 1
REMARK minimizedAffinity -0.691818774
REMARK minimizedRMSD -1
REMARK  1 active torsions:
REMARK  status: ('A' for Active; 'I' for Inactive)
REMARK    1  A    between atoms: C1_2  and  C2_3 
ROOT
ATOM      1  C2  UNL d   1       3.281   4.780  -5.946  0.00  0.00    -0.077 A 
ATOM      2  C3  UNL d   1       3.841   3.496  -6.000  0.00  0.00     0.002 A 
ATOM      3  C4  UNL d   1       3.019   2.367  -6.000  0.00  0.00     0.002 A 
ATOM      4  C5  UNL d   1       1.634   2.512  -5.950  0.00  0.00    -0.004 A 
ATOM      5  C6  UNL d   1       1.068   3.785  -5.894  0.00  0.00     0.002 A 
ATOM      6  C7  UNL d   1       1.888   4.914  -5.893  0.00  0.00     0.002 A 
ENDROOT
BRANCH   1   7
ATOM      7  C1  UNL d   1       4.164   6.000  -5.996  0.00  0.00     0.055 C 
ATOM      8  C   UNL d   1       5.636   5.621  -5.928  0.00  0.00     0.019 C 
ENDBRANCH   1   7
TORSDOF 1
ENDMDL
