MODEL 1
REMARK minimizedAffinity 12.2580318
REMARK minimizedRMSD -1
REMARK  1 active torsions:
REMARK  status: ('A' for Active; 'I' for Inactive)
REMARK    1  A    between atoms: C1_2  and  C2_3 
ROOT
ATOM      1  C2  UNL d   1      -1.878  -2.249  -3.689  0.00  0.00    -0.077 A 
ATOM      2  C3  UNL d   1      -2.269  -1.214  -2.828  0.00  0.00     0.002 A 
ATOM      3  C4  UNL d   1      -1.892  -1.233  -1.484  0.00  0.00     0.002 A 
ATOM      4  C5  UNL d   1      -1.120  -2.283  -0.990  0.00  0.00    -0.004 A 
ATOM      5  C6  UNL d   1      -0.728  -3.318  -1.838  0.00  0.00     0.002 A 
ATOM      6  C7  UNL d   1      -1.105  -3.301  -3.181  0.00  0.00     0.002 A 
ENDROOT
BRANCH   1   7
ATOM      7  C1  UNL d   1      -2.242  -2.205  -5.150  0.00  0.00     0.055 C 
ATOM      8  C   UNL d   1      -1.065  -1.748  -6.000  0.00  0.00     0.019 C 
ENDBRANCH   1   7
TORSDOF 1
ENDMDL
