MODEL 1
REMARK minimizedAffinity 3.73617792
REMARK minimizedRMSD -1
REMARK  1 active torsions:
REMARK  status: ('A' for Active; 'I' for Inactive)
REMARK    1  A    between atoms: C1_2  and  C2_3 
ROOT
ATOM      1  C2  UNL d   1       1.835  -0.378   0.538  0.00  0.00    -0.077 A 
ATOM      2  C3  UNL d   1       1.360   0.802  -0.050  0.00  0.00     0.002 A 
ATOM      3  C4  UNL d   1       2.079   1.992   0.073  0.00  0.00     0.002 A 
ATOM      4  C5  UNL d   1       3.280   2.013   0.780  0.00  0.00    -0.004 A 
ATOM      5  C6  UNL d   1       3.760   0.844   1.370  0.00  0.00     0.002 A 
ATOM      6  C7  UNL d   1       3.041  -0.346   1.249  0.00  0.00     0.002 A 
ENDROOT
BRANCH   1   7
ATOM      7  C1  UNL d   1       1.086  -1.673   0.364  0.00  0.00     0.055 C 
ATOM      8  C   UNL d   1      -0.008  -1.825   1.412  0.00  0.00     0.019 C 
ENDBRANCH   1   7
TORSDOF 1
ENDMDL
