MODEL 1
REMARK minimizedAffinity 2.27432323
REMARK minimizedRMSD -1
REMARK  1 active torsions:
REMARK  status: ('A' for Active; 'I' for Inactive)
REMARK    1  A    between atoms: C1_2  and  C2_3 
ROOT
ATOM      1  C2  UNL d   1       2.346   0.942   1.892  0.00  0.00    -0.077 A 
ATOM      2  C3  UNL d   1       2.263   2.219   1.320  0.00  0.00     0.002 A 
ATOM      3  C4  UNL d   1       1.166   3.042   1.585  0.00  0.00     0.002 A 
ATOM      4  C5  UNL d   1       0.147   2.598   2.425  0.00  0.00    -0.004 A 
ATOM      5  C6  UNL d   1       0.220   1.329   2.997  0.00  0.00     0.002 A 
ATOM      6  C7  UNL d   1       1.315   0.505   2.733  0.00  0.00     0.002 A 
ENDROOT
BRANCH   1   7
ATOM      7  C1  UNL d   1       3.552   0.073   1.647  0.00  0.00     0.055 C 
ATOM      8  C   UNL d   1       4.844   0.824   1.937  0.00  0.00     0.019 C 
ENDBRANCH   1   7
TORSDOF 1
ENDMDL
