MODEL 1
REMARK minimizedAffinity -3.078578
REMARK minimizedRMSD -1
REMARK  1 active torsions:
REMARK  status: ('A' for Active; 'I' for Inactive)
REMARK    1  A    between atoms: C1_2  and  C2_3 
ROOT
ATOM      1  C2  UNL d   1       4.632   3.215  -5.783  0.00  0.00    -0.077 A 
ATOM      2  C3  UNL d   1       3.509   4.026  -6.000  0.00  0.00     0.002 A 
ATOM      3  C4  UNL d   1       3.597   5.411  -5.843  0.00  0.00     0.002 A 
ATOM      4  C5  UNL d   1       4.806   5.997  -5.473  0.00  0.00    -0.004 A 
ATOM      5  C6  UNL d   1       5.928   5.198  -5.253  0.00  0.00     0.002 A 
ATOM      6  C7  UNL d   1       5.841   3.814  -5.408  0.00  0.00     0.002 A 
ENDROOT
BRANCH   1   7
ATOM      7  C1  UNL d   1       4.552   1.727  -5.999  0.00  0.00     0.055 C 
ATOM      8  C   UNL d   1       5.931   1.086  -5.956  0.00  0.00     0.019 C 
ENDBRANCH   1   7
TORSDOF 1
ENDMDL
