MODEL 1
REMARK minimizedAffinity 4.46166563
REMARK minimizedRMSD -1
REMARK  1 active torsions:
REMARK  status: ('A' for Active; 'I' for Inactive)
REMARK    1  A    between atoms: C1_2  and  C2_3 
ROOT
ATOM      1  C2  UNL d   1      -2.126   4.270   0.651  0.00  0.00    -0.077 A 
ATOM      2  C3  UNL d   1      -0.752   3.995   0.614  0.00  0.00     0.002 A 
ATOM      3  C4  UNL d   1      -0.134   3.339   1.680  0.00  0.00     0.002 A 
ATOM      4  C5  UNL d   1      -0.882   2.948   2.788  0.00  0.00    -0.004 A 
ATOM      5  C6  UNL d   1      -2.249   3.219   2.835  0.00  0.00     0.002 A 
ATOM      6  C7  UNL d   1      -2.869   3.876   1.771  0.00  0.00     0.002 A 
ENDROOT
BRANCH   1   7
ATOM      7  C1  UNL d   1      -2.804   4.934  -0.519  0.00  0.00     0.055 C 
ATOM      8  C   UNL d   1      -1.911   5.994  -1.148  0.00  0.00     0.019 C 
ENDBRANCH   1   7
TORSDOF 1
ENDMDL
