MODEL 1
REMARK minimizedAffinity 7.05023289
REMARK minimizedRMSD -1
REMARK  1 active torsions:
REMARK  status: ('A' for Active; 'I' for Inactive)
REMARK    1  A    between atoms: C1_2  and  C2_3 
ROOT
ATOM      1  C2  UNL d   1       0.634   2.467   1.179  0.00  0.00    -0.077 A 
ATOM      2  C3  UNL d   1       0.569   1.495   0.171  0.00  0.00     0.002 A 
ATOM      3  C4  UNL d   1       0.260   1.857  -1.141  0.00  0.00     0.002 A 
ATOM      4  C5  UNL d   1       0.019   3.192  -1.459  0.00  0.00    -0.004 A 
ATOM      5  C6  UNL d   1       0.079   4.166  -0.463  0.00  0.00     0.002 A 
ATOM      6  C7  UNL d   1       0.386   3.806   0.849  0.00  0.00     0.002 A 
ENDROOT
BRANCH   1   7
ATOM      7  C1  UNL d   1       1.015   2.085   2.585  0.00  0.00     0.055 C 
ATOM      8  C   UNL d   1       0.382   0.762   2.990  0.00  0.00     0.019 C 
ENDBRANCH   1   7
TORSDOF 1
ENDMDL
