MODEL 1
REMARK minimizedAffinity 3.20099735
REMARK minimizedRMSD -1
REMARK  1 active torsions:
REMARK  status: ('A' for Active; 'I' for Inactive)
REMARK    1  A    between atoms: C1_2  and  C2_3 
ROOT
ATOM      1  C2  UNL d   1       0.447   2.143   1.994  0.00  0.00    -0.077 A 
ATOM      2  C3  UNL d   1       0.785   1.249   3.019  0.00  0.00     0.002 A 
ATOM      3  C4  UNL d   1       0.818  -0.125   2.776  0.00  0.00     0.002 A 
ATOM      4  C5  UNL d   1       0.518  -0.617   1.507  0.00  0.00    -0.004 A 
ATOM      5  C6  UNL d   1       0.179   0.264   0.481  0.00  0.00     0.002 A 
ATOM      6  C7  UNL d   1       0.144   1.638   0.723  0.00  0.00     0.002 A 
ENDROOT
BRANCH   1   7
ATOM      7  C1  UNL d   1       0.458   3.629   2.241  0.00  0.00     0.055 C 
ATOM      8  C   UNL d   1       1.112   4.377   1.089  0.00  0.00     0.019 C 
ENDBRANCH   1   7
TORSDOF 1
ENDMDL
