MODEL 1
REMARK minimizedAffinity -1.36449909
REMARK minimizedRMSD -1
REMARK  1 active torsions:
REMARK  status: ('A' for Active; 'I' for Inactive)
REMARK    1  A    between atoms: C1_2  and  C2_3 
ROOT
ATOM      1  C2  UNL d   1       0.457   1.684   1.182  0.00  0.00    -0.077 A 
ATOM      2  C3  UNL d   1       0.848   0.858   2.245  0.00  0.00     0.002 A 
ATOM      3  C4  UNL d   1       1.495  -0.354   1.997  0.00  0.00     0.002 A 
ATOM      4  C5  UNL d   1       1.762  -0.747   0.687  0.00  0.00    -0.004 A 
ATOM      5  C6  UNL d   1       1.376   0.067  -0.377  0.00  0.00     0.002 A 
ATOM      6  C7  UNL d   1       0.728   1.277  -0.130  0.00  0.00     0.002 A 
ENDROOT
BRANCH   1   7
ATOM      7  C1  UNL d   1      -0.197   3.014   1.450  0.00  0.00     0.055 C 
ATOM      8  C   UNL d   1       0.587   4.155   0.818  0.00  0.00     0.019 C 
ENDBRANCH   1   7
TORSDOF 1
ENDMDL
