MODEL 1
REMARK minimizedAffinity -3.49209523
REMARK minimizedRMSD -1
REMARK  1 active torsions:
REMARK  status: ('A' for Active; 'I' for Inactive)
REMARK    1  A    between atoms: C1_2  and  C2_3 
ROOT
ATOM      1  C2  UNL d   1       0.763   3.196   1.234  0.00  0.00    -0.077 A 
ATOM      2  C3  UNL d   1       0.553   2.308   0.169  0.00  0.00     0.002 A 
ATOM      3  C4  UNL d   1       0.632   0.929   0.374  0.00  0.00     0.002 A 
ATOM      4  C5  UNL d   1       0.918   0.427   1.641  0.00  0.00    -0.004 A 
ATOM      5  C6  UNL d   1       1.131   1.302   2.706  0.00  0.00     0.002 A 
ATOM      6  C7  UNL d   1       1.053   2.680   2.503  0.00  0.00     0.002 A 
ENDROOT
BRANCH   1   7
ATOM      7  C1  UNL d   1       0.629   4.682   1.026  0.00  0.00     0.055 C 
ATOM      8  C   UNL d   1       0.837   5.058  -0.434  0.00  0.00     0.019 C 
ENDBRANCH   1   7
TORSDOF 1
ENDMDL
