MODEL 1
REMARK minimizedAffinity 12.7765751
REMARK minimizedRMSD -1
REMARK  0 active torsions:
REMARK  status: ('A' for Active; 'I' for Inactive)
ROOT
ATOM      1  C1  DEN d   1      -2.689   0.553   0.971  0.00  0.00     0.130 A 
ATOM      2  C2  DEN d   1      -1.493   1.380   0.843  0.00  0.00    -0.031 A 
ATOM      3  C3  DEN d   1      -0.557   1.001   1.920  0.00  0.00     0.027 A 
ATOM      4  C4  DEN d   1      -0.841  -0.782   3.762  0.00  0.00     0.027 A 
ATOM      5  C5  DEN d   1      -1.692  -1.731   4.285  0.00  0.00    -0.003 A 
ATOM      6  C6  DEN d   1      -2.938  -1.959   3.764  0.00  0.00     0.001 A 
ATOM      7  C7  DEN d   1      -3.352  -1.261   2.661  0.00  0.00     0.017 A 
ATOM      8  C8  DEN d   1      -2.502  -0.298   2.133  0.00  0.00    -0.094 A 
ATOM      9  C9  DEN d   1      -1.241  -0.090   2.666  0.00  0.00    -0.072 A 
ENDROOT
TORSDOF 0
ENDMDL
