MODEL 1
REMARK minimizedAffinity 8.58233643
REMARK minimizedRMSD -1
REMARK  0 active torsions:
REMARK  status: ('A' for Active; 'I' for Inactive)
ROOT
ATOM      1  C1  DEN d   1       0.390   0.453   0.267  0.00  0.00     0.130 A 
ATOM      2  C2  DEN d   1       1.796   0.139   0.505  0.00  0.00    -0.031 A 
ATOM      3  C3  DEN d   1       1.929  -0.329   1.900  0.00  0.00     0.027 A 
ATOM      4  C4  DEN d   1       0.104  -0.602   3.701  0.00  0.00     0.027 A 
ATOM      5  C5  DEN d   1      -1.238  -0.450   3.971  0.00  0.00    -0.003 A 
ATOM      6  C6  DEN d   1      -2.119   0.041   3.044  0.00  0.00     0.001 A 
ATOM      7  C7  DEN d   1      -1.675   0.356   1.787  0.00  0.00     0.017 A 
ATOM      8  C8  DEN d   1      -0.322   0.213   1.509  0.00  0.00    -0.094 A 
ATOM      9  C9  DEN d   1       0.550  -0.297   2.456  0.00  0.00    -0.072 A 
ENDROOT
TORSDOF 0
ENDMDL
