MODEL 1
REMARK minimizedAffinity 9.52136612
REMARK minimizedRMSD -1
REMARK  0 active torsions:
REMARK  status: ('A' for Active; 'I' for Inactive)
ROOT
ATOM      1  C1  DEN d   1      -0.934   0.148   2.960  0.00  0.00     0.130 A 
ATOM      2  C2  DEN d   1      -2.392   0.236   2.967  0.00  0.00    -0.031 A 
ATOM      3  C3  DEN d   1      -2.859   0.183   1.567  0.00  0.00     0.027 A 
ATOM      4  C4  DEN d   1      -1.474  -0.032  -0.599  0.00  0.00     0.027 A 
ATOM      5  C5  DEN d   1      -0.199  -0.128  -1.111  0.00  0.00    -0.003 A 
ATOM      6  C6  DEN d   1       0.913  -0.105  -0.311  0.00  0.00     0.001 A 
ATOM      7  C7  DEN d   1       0.769  -0.028   1.049  0.00  0.00     0.017 A 
ATOM      8  C8  DEN d   1      -0.513   0.076   1.573  0.00  0.00    -0.094 A 
ATOM      9  C9  DEN d   1      -1.625   0.039   0.748  0.00  0.00    -0.072 A 
ENDROOT
TORSDOF 0
ENDMDL
