MODEL 1
REMARK minimizedAffinity 5.97999096
REMARK minimizedRMSD -1
REMARK  0 active torsions:
REMARK  status: ('A' for Active; 'I' for Inactive)
ROOT
ATOM      1  C1  DEN d   1       0.326  -0.140   0.781  0.00  0.00     0.130 A 
ATOM      2  C2  DEN d   1      -0.450   0.402  -0.332  0.00  0.00    -0.031 A 
ATOM      3  C3  DEN d   1      -1.863   0.475   0.091  0.00  0.00     0.027 A 
ATOM      4  C4  DEN d   1      -2.918  -0.189   2.349  0.00  0.00     0.027 A 
ATOM      5  C5  DEN d   1      -2.661  -0.709   3.599  0.00  0.00    -0.003 A 
ATOM      6  C6  DEN d   1      -1.406  -1.103   3.981  0.00  0.00     0.001 A 
ATOM      7  C7  DEN d   1      -0.352  -0.943   3.121  0.00  0.00     0.017 A 
ATOM      8  C8  DEN d   1      -0.605  -0.427   1.857  0.00  0.00    -0.094 A 
ATOM      9  C9  DEN d   1      -1.878  -0.022   1.493  0.00  0.00    -0.072 A 
ENDROOT
TORSDOF 0
ENDMDL
