MODEL 1
REMARK minimizedAffinity 3.35925841
REMARK minimizedRMSD -1
REMARK  0 active torsions:
REMARK  status: ('A' for Active; 'I' for Inactive)
ROOT
ATOM      1  C1  DEN d   1       0.173  -0.376  -0.965  0.00  0.00     0.130 A 
ATOM      2  C2  DEN d   1       1.480  -0.270  -0.324  0.00  0.00    -0.031 A 
ATOM      3  C3  DEN d   1       1.267   0.118   1.085  0.00  0.00     0.027 A 
ATOM      4  C4  DEN d   1      -0.949   0.557   2.330  0.00  0.00     0.027 A 
ATOM      5  C5  DEN d   1      -2.320   0.602   2.200  0.00  0.00    -0.003 A 
ATOM      6  C6  DEN d   1      -2.949   0.359   1.007  0.00  0.00     0.001 A 
ATOM      7  C7  DEN d   1      -2.208   0.016  -0.093  0.00  0.00     0.017 A 
ATOM      8  C8  DEN d   1      -0.825  -0.024   0.028  0.00  0.00    -0.094 A 
ATOM      9  C9  DEN d   1      -0.209   0.212   1.246  0.00  0.00    -0.072 A 
ENDROOT
TORSDOF 0
ENDMDL
