MODEL 1
REMARK minimizedAffinity 9.67487335
REMARK minimizedRMSD -1
REMARK  0 active torsions:
REMARK  status: ('A' for Active; 'I' for Inactive)
ROOT
ATOM      1  C1  DEN d   1       1.068   0.913   0.962  0.00  0.00     0.130 A 
ATOM      2  C2  DEN d   1       1.165   0.101  -0.248  0.00  0.00    -0.031 A 
ATOM      3  C3  DEN d   1       2.356   0.544  -1.000  0.00  0.00     0.027 A 
ATOM      4  C4  DEN d   1       4.052   2.396  -0.410  0.00  0.00     0.027 A 
ATOM      5  C5  DEN d   1       4.379   3.366   0.511  0.00  0.00    -0.003 A 
ATOM      6  C6  DEN d   1       3.613   3.608   1.620  0.00  0.00     0.001 A 
ATOM      7  C7  DEN d   1       2.505   2.839   1.861  0.00  0.00     0.017 A 
ATOM      8  C8  DEN d   1       2.165   1.864   0.933  0.00  0.00    -0.094 A 
ATOM      9  C9  DEN d   1       2.959   1.626  -0.176  0.00  0.00    -0.072 A 
ENDROOT
TORSDOF 0
ENDMDL
