MODEL 1
REMARK minimizedAffinity -0.720093548
REMARK minimizedRMSD -1
REMARK  0 active torsions:
REMARK  status: ('A' for Active; 'I' for Inactive)
ROOT
ATOM      1  C1  DEN d   1       2.006  -1.617   3.672  0.00  0.00     0.130 A 
ATOM      2  C2  DEN d   1       1.658  -1.970   5.046  0.00  0.00    -0.031 A 
ATOM      3  C3  DEN d   1       0.204  -1.770   5.214  0.00  0.00     0.027 A 
ATOM      4  C4  DEN d   1      -1.532  -0.957   3.489  0.00  0.00     0.027 A 
ATOM      5  C5  DEN d   1      -1.710  -0.525   2.193  0.00  0.00    -0.003 A 
ATOM      6  C6  DEN d   1      -0.665  -0.395   1.317  0.00  0.00     0.001 A 
ATOM      7  C7  DEN d   1       0.599  -0.744   1.712  0.00  0.00     0.017 A 
ATOM      8  C8  DEN d   1       0.788  -1.173   3.019  0.00  0.00    -0.094 A 
ATOM      9  C9  DEN d   1      -0.283  -1.309   3.886  0.00  0.00    -0.072 A 
ENDROOT
TORSDOF 0
ENDMDL
