MODEL 1
REMARK minimizedAffinity -2.10624743
REMARK minimizedRMSD -1
REMARK  1 active torsions:
REMARK  status: ('A' for Active; 'I' for Inactive)
REMARK    1  A    between atoms: C1_2  and  C2_3 
ROOT
ATOM      1  C2  UNL d   1      -0.822   0.937   0.478  0.00  0.00    -0.077 A 
ATOM      2  C3  UNL d   1      -0.382  -0.232   1.114  0.00  0.00     0.002 A 
ATOM      3  C4  UNL d   1       0.440  -1.137   0.439  0.00  0.00     0.002 A 
ATOM      4  C5  UNL d   1       0.831  -0.880  -0.873  0.00  0.00    -0.004 A 
ATOM      5  C6  UNL d   1       0.397   0.278  -1.515  0.00  0.00     0.002 A 
ATOM      6  C7  UNL d   1      -0.425   1.184  -0.843  0.00  0.00     0.002 A 
ENDROOT
BRANCH   1   7
ATOM      7  C1  UNL d   1      -1.668   1.939   1.220  0.00  0.00     0.055 C 
ATOM      8  C   UNL d   1      -0.985   2.399   2.500  0.00  0.00     0.019 C 
ENDBRANCH   1   7
TORSDOF 1
ENDMDL
