MODEL 1
REMARK minimizedAffinity -5.40781021
REMARK minimizedRMSD -1
REMARK  1 active torsions:
REMARK  status: ('A' for Active; 'I' for Inactive)
REMARK    1  A    between atoms: C1_2  and  C2_3 
ROOT
ATOM      1  C2  UNL d   1      -0.831   0.895   0.400  0.00  0.00    -0.077 A 
ATOM      2  C3  UNL d   1      -0.310   1.672  -0.644  0.00  0.00     0.002 A 
ATOM      3  C4  UNL d   1      -0.522   3.052  -0.671  0.00  0.00     0.002 A 
ATOM      4  C5  UNL d   1      -1.251   3.667   0.344  0.00  0.00    -0.004 A 
ATOM      5  C6  UNL d   1      -1.775   2.902   1.386  0.00  0.00     0.002 A 
ATOM      6  C7  UNL d   1      -1.565   1.523   1.414  0.00  0.00     0.002 A 
ENDROOT
BRANCH   1   7
ATOM      7  C1  UNL d   1      -0.561  -0.586   0.457  0.00  0.00     0.055 C 
ATOM      8  C   UNL d   1       0.507  -0.993  -0.547  0.00  0.00     0.019 C 
ENDBRANCH   1   7
TORSDOF 1
ENDMDL
