MODEL 1
REMARK minimizedAffinity -4.01703215
REMARK minimizedRMSD -1
REMARK  1 active torsions:
REMARK  status: ('A' for Active; 'I' for Inactive)
REMARK    1  A    between atoms: C1_2  and  C2_3 
ROOT
ATOM      1  C2  UNL d   1      -0.610   1.235   0.118  0.00  0.00    -0.077 A 
ATOM      2  C3  UNL d   1      -0.147  -0.061   0.389  0.00  0.00     0.002 A 
ATOM      3  C4  UNL d   1       0.848  -0.635  -0.405  0.00  0.00     0.002 A 
ATOM      4  C5  UNL d   1       1.391   0.080  -1.470  0.00  0.00    -0.004 A 
ATOM      5  C6  UNL d   1       0.936   1.368  -1.749  0.00  0.00     0.002 A 
ATOM      6  C7  UNL d   1      -0.059   1.943  -0.957  0.00  0.00     0.002 A 
ENDROOT
BRANCH   1   7
ATOM      7  C1  UNL d   1      -1.648   1.875   1.003  0.00  0.00     0.055 C 
ATOM      8  C   UNL d   1      -1.042   2.342   2.318  0.00  0.00     0.019 C 
ENDBRANCH   1   7
TORSDOF 1
ENDMDL
