MODEL 1
REMARK minimizedAffinity -5.08616257
REMARK minimizedRMSD -1
REMARK  1 active torsions:
REMARK  status: ('A' for Active; 'I' for Inactive)
REMARK    1  A    between atoms: C1_2  and  C2_3 
ROOT
ATOM      1  C2  UNL d   1       0.096  -0.053   0.107  0.00  0.00    -0.077 A 
ATOM      2  C3  UNL d   1      -0.191   1.165  -0.524  0.00  0.00     0.002 A 
ATOM      3  C4  UNL d   1      -1.097   2.060   0.047  0.00  0.00     0.002 A 
ATOM      4  C5  UNL d   1      -1.721   1.748   1.253  0.00  0.00    -0.004 A 
ATOM      5  C6  UNL d   1      -1.444   0.538   1.887  0.00  0.00     0.002 A 
ATOM      6  C7  UNL d   1      -0.539  -0.358   1.317  0.00  0.00     0.002 A 
ENDROOT
BRANCH   1   7
ATOM      7  C1  UNL d   1       1.111  -0.998  -0.482  0.00  0.00     0.055 C 
ATOM      8  C   UNL d   1       0.452  -2.011  -1.407  0.00  0.00     0.019 C 
ENDBRANCH   1   7
TORSDOF 1
ENDMDL
