MODEL 1
REMARK minimizedAffinity -5.59864378
REMARK minimizedRMSD -1
REMARK  1 active torsions:
REMARK  status: ('A' for Active; 'I' for Inactive)
REMARK    1  A    between atoms: C1_2  and  C2_3 
ROOT
ATOM      1  C2  UNL d   1      -0.022  -0.057   0.166  0.00  0.00    -0.077 A 
ATOM      2  C3  UNL d   1      -0.900   0.826  -0.480  0.00  0.00     0.002 A 
ATOM      3  C4  UNL d   1      -1.746   1.650   0.264  0.00  0.00     0.002 A 
ATOM      4  C5  UNL d   1      -1.721   1.604   1.656  0.00  0.00    -0.004 A 
ATOM      5  C6  UNL d   1      -0.853   0.728   2.307  0.00  0.00     0.002 A 
ATOM      6  C7  UNL d   1      -0.007  -0.098   1.566  0.00  0.00     0.002 A 
ENDROOT
BRANCH   1   7
ATOM      7  C1  UNL d   1       0.926  -0.912  -0.633  0.00  0.00     0.055 C 
ATOM      8  C   UNL d   1       0.175  -1.919  -1.491  0.00  0.00     0.019 C 
ENDBRANCH   1   7
TORSDOF 1
ENDMDL
