MODEL 1
REMARK minimizedAffinity -3.59004641
REMARK minimizedRMSD -1
REMARK  1 active torsions:
REMARK  status: ('A' for Active; 'I' for Inactive)
REMARK    1  A    between atoms: C1_2  and  C2_3 
ROOT
ATOM      1  C2  UNL d   1      -0.876   1.268   1.172  0.00  0.00    -0.077 A 
ATOM      2  C3  UNL d   1      -0.359   1.732  -0.046  0.00  0.00     0.002 A 
ATOM      3  C4  UNL d   1       0.341   0.868  -0.891  0.00  0.00     0.002 A 
ATOM      4  C5  UNL d   1       0.527  -0.465  -0.529  0.00  0.00    -0.004 A 
ATOM      5  C6  UNL d   1       0.018  -0.935   0.681  0.00  0.00     0.002 A 
ATOM      6  C7  UNL d   1      -0.681  -0.073   1.527  0.00  0.00     0.002 A 
ENDROOT
BRANCH   1   7
ATOM      7  C1  UNL d   1      -1.674   2.185   2.061  0.00  0.00     0.055 C 
ATOM      8  C   UNL d   1      -0.770   2.964   3.007  0.00  0.00     0.019 C 
ENDBRANCH   1   7
TORSDOF 1
ENDMDL
