MODEL 1
REMARK minimizedAffinity -3.7124126
REMARK minimizedRMSD -1
REMARK  1 active torsions:
REMARK  status: ('A' for Active; 'I' for Inactive)
REMARK    1  A    between atoms: C1_2  and  C2_3 
ROOT
ATOM      1  C2  UNL d   1      -0.476   1.188   1.125  0.00  0.00    -0.077 A 
ATOM      2  C3  UNL d   1      -0.043   2.027   0.089  0.00  0.00     0.002 A 
ATOM      3  C4  UNL d   1       0.640   1.500  -1.008  0.00  0.00     0.002 A 
ATOM      4  C5  UNL d   1       0.892   0.131  -1.082  0.00  0.00    -0.004 A 
ATOM      5  C6  UNL d   1       0.468  -0.711  -0.055  0.00  0.00     0.002 A 
ATOM      6  C7  UNL d   1      -0.214  -0.186   1.043  0.00  0.00     0.002 A 
ENDROOT
BRANCH   1   7
ATOM      7  C1  UNL d   1      -1.256   1.748   2.286  0.00  0.00     0.055 C 
ATOM      8  C   UNL d   1      -2.559   2.382   1.823  0.00  0.00     0.019 C 
ENDBRANCH   1   7
TORSDOF 1
ENDMDL
