MODEL 1
REMARK minimizedAffinity -4.73195934
REMARK minimizedRMSD -1
REMARK  1 active torsions:
REMARK  status: ('A' for Active; 'I' for Inactive)
REMARK    1  A    between atoms: C1_2  and  C2_3 
ROOT
ATOM      1  C2  UNL d   1       1.481  -2.237  -2.091  0.00  0.00    -0.077 A 
ATOM      2  C3  UNL d   1       1.825  -1.897  -3.407  0.00  0.00     0.002 A 
ATOM      3  C4  UNL d   1       1.038  -2.330  -4.476  0.00  0.00     0.002 A 
ATOM      4  C5  UNL d   1      -0.099  -3.100  -4.241  0.00  0.00    -0.004 A 
ATOM      5  C6  UNL d   1      -0.447  -3.445  -2.936  0.00  0.00     0.002 A 
ATOM      6  C7  UNL d   1       0.338  -3.015  -1.865  0.00  0.00     0.002 A 
ENDROOT
BRANCH   1   7
ATOM      7  C1  UNL d   1       2.301  -1.731  -0.933  0.00  0.00     0.055 C 
ATOM      8  C   UNL d   1       2.635  -0.255  -1.095  0.00  0.00     0.019 C 
ENDBRANCH   1   7
TORSDOF 1
ENDMDL
