MODEL 1
REMARK minimizedAffinity -5.13649797
REMARK minimizedRMSD -1
REMARK  1 active torsions:
REMARK  status: ('A' for Active; 'I' for Inactive)
REMARK    1  A    between atoms: C1_2  and  C2_3 
ROOT
ATOM      1  C2  UNL d   1      -0.308   0.003   0.590  0.00  0.00    -0.077 A 
ATOM      2  C3  UNL d   1      -0.974   0.956  -0.193  0.00  0.00     0.002 A 
ATOM      3  C4  UNL d   1      -1.928   1.800   0.380  0.00  0.00     0.002 A 
ATOM      4  C5  UNL d   1      -2.221   1.702   1.739  0.00  0.00    -0.004 A 
ATOM      5  C6  UNL d   1      -1.565   0.755   2.526  0.00  0.00     0.002 A 
ATOM      6  C7  UNL d   1      -0.613  -0.090   1.954  0.00  0.00     0.002 A 
ENDROOT
BRANCH   1   7
ATOM      7  C1  UNL d   1       0.756  -0.874  -0.016  0.00  0.00     0.055 C 
ATOM      8  C   UNL d   1       1.139  -0.397  -1.409  0.00  0.00     0.019 C 
ENDBRANCH   1   7
TORSDOF 1
ENDMDL
