MODEL 1
REMARK minimizedAffinity -5.54015493
REMARK minimizedRMSD -1
REMARK  1 active torsions:
REMARK  status: ('A' for Active; 'I' for Inactive)
REMARK    1  A    between atoms: C1_2  and  C2_3 
ROOT
ATOM      1  C2  UNL d   1      -0.329   0.159   0.173  0.00  0.00    -0.077 A 
ATOM      2  C3  UNL d   1      -0.502   0.011   1.556  0.00  0.00     0.002 A 
ATOM      3  C4  UNL d   1      -1.130   1.012   2.300  0.00  0.00     0.002 A 
ATOM      4  C5  UNL d   1      -1.594   2.164   1.670  0.00  0.00    -0.004 A 
ATOM      5  C6  UNL d   1      -1.425   2.322   0.295  0.00  0.00     0.002 A 
ATOM      6  C7  UNL d   1      -0.797   1.323  -0.451  0.00  0.00     0.002 A 
ENDROOT
BRANCH   1   7
ATOM      7  C1  UNL d   1       0.303  -0.941  -0.639  0.00  0.00     0.055 C 
ATOM      8  C   UNL d   1       1.657  -0.514  -1.189  0.00  0.00     0.019 C 
ENDBRANCH   1   7
TORSDOF 1
ENDMDL
