MODEL 1
REMARK minimizedAffinity -4.52039051
REMARK minimizedRMSD -1
REMARK  1 active torsions:
REMARK  status: ('A' for Active; 'I' for Inactive)
REMARK    1  A    between atoms: C1_2  and  C2_3 
ROOT
ATOM      1  C2  UNL d   1       0.579  -0.536  -0.280  0.00  0.00    -0.077 A 
ATOM      2  C3  UNL d   1       0.181   0.542  -1.084  0.00  0.00     0.002 A 
ATOM      3  C4  UNL d   1      -0.632   1.550  -0.561  0.00  0.00     0.002 A 
ATOM      4  C5  UNL d   1      -1.049   1.493   0.767  0.00  0.00    -0.004 A 
ATOM      5  C6  UNL d   1      -0.659   0.425   1.574  0.00  0.00     0.002 A 
ATOM      6  C7  UNL d   1       0.152  -0.585   1.053  0.00  0.00     0.002 A 
ENDROOT
BRANCH   1   7
ATOM      7  C1  UNL d   1       1.496  -1.598  -0.827  0.00  0.00     0.055 C 
ATOM      8  C   UNL d   1       0.943  -2.198  -2.112  0.00  0.00     0.019 C 
ENDBRANCH   1   7
TORSDOF 1
ENDMDL
