MODEL 1
REMARK minimizedAffinity -1.9635371
REMARK minimizedRMSD -1
REMARK  1 active torsions:
REMARK  status: ('A' for Active; 'I' for Inactive)
REMARK    1  A    between atoms: C1_2  and  C2_3 
ROOT
ATOM      1  C2  UNL d   1       0.374  -0.467  -0.087  0.00  0.00    -0.077 A 
ATOM      2  C3  UNL d   1      -0.033   0.749  -0.654  0.00  0.00     0.002 A 
ATOM      3  C4  UNL d   1      -0.850   1.625   0.064  0.00  0.00     0.002 A 
ATOM      4  C5  UNL d   1      -1.261   1.296   1.354  0.00  0.00    -0.004 A 
ATOM      5  C6  UNL d   1      -0.863   0.089   1.926  0.00  0.00     0.002 A 
ATOM      6  C7  UNL d   1      -0.048  -0.788   1.209  0.00  0.00     0.002 A 
ENDROOT
BRANCH   1   7
ATOM      7  C1  UNL d   1       1.295  -1.390  -0.842  0.00  0.00     0.055 C 
ATOM      8  C   UNL d   1       0.518  -2.298  -1.784  0.00  0.00     0.019 C 
ENDBRANCH   1   7
TORSDOF 1
ENDMDL
