MODEL 1
REMARK minimizedAffinity -5.42141199
REMARK minimizedRMSD -1
REMARK  1 active torsions:
REMARK  status: ('A' for Active; 'I' for Inactive)
REMARK    1  A    between atoms: C1_2  and  C2_3 
ROOT
ATOM      1  C2  UNL d   1       0.545  -0.925  -0.007  0.00  0.00    -0.077 A 
ATOM      2  C3  UNL d   1      -0.064  -1.243   1.215  0.00  0.00     0.002 A 
ATOM      3  C4  UNL d   1      -0.812  -0.285   1.902  0.00  0.00     0.002 A 
ATOM      4  C5  UNL d   1      -0.963   0.995   1.373  0.00  0.00    -0.004 A 
ATOM      5  C6  UNL d   1      -0.360   1.322   0.159  0.00  0.00     0.002 A 
ATOM      6  C7  UNL d   1       0.390   0.366  -0.528  0.00  0.00     0.002 A 
ENDROOT
BRANCH   1   7
ATOM      7  C1  UNL d   1       1.311  -1.971  -0.773  0.00  0.00     0.055 C 
ATOM      8  C   UNL d   1       0.525  -2.459  -1.982  0.00  0.00     0.019 C 
ENDBRANCH   1   7
TORSDOF 1
ENDMDL
