MODEL 1
REMARK minimizedAffinity -4.87382555
REMARK minimizedRMSD -1
REMARK  1 active torsions:
REMARK  status: ('A' for Active; 'I' for Inactive)
REMARK    1  A    between atoms: C1_2  and  C2_3 
ROOT
ATOM      1  C2  UNL d   1      -0.865   0.976   0.065  0.00  0.00    -0.077 A 
ATOM      2  C3  UNL d   1      -0.090   0.782  -1.087  0.00  0.00     0.002 A 
ATOM      3  C4  UNL d   1       0.756  -0.325  -1.191  0.00  0.00     0.002 A 
ATOM      4  C5  UNL d   1       0.831  -1.247  -0.149  0.00  0.00    -0.004 A 
ATOM      5  C6  UNL d   1       0.065  -1.062   1.001  0.00  0.00     0.002 A 
ATOM      6  C7  UNL d   1      -0.780   0.044   1.107  0.00  0.00     0.002 A 
ENDROOT
BRANCH   1   7
ATOM      7  C1  UNL d   1      -1.815   2.142   0.158  0.00  0.00     0.055 C 
ATOM      8  C   UNL d   1      -2.107   2.503   1.607  0.00  0.00     0.019 C 
ENDBRANCH   1   7
TORSDOF 1
ENDMDL
