MODEL 1
REMARK minimizedAffinity 11.2710657
REMARK minimizedRMSD -1
REMARK  1 active torsions:
REMARK  status: ('A' for Active; 'I' for Inactive)
REMARK    1  A    between atoms: C1_2  and  C2_3 
ROOT
ATOM      1  C2  UNL d   1      -5.280  -3.311   0.056  0.00  0.00    -0.077 A 
ATOM      2  C3  UNL d   1      -4.707  -3.710  -1.160  0.00  0.00     0.002 A 
ATOM      3  C4  UNL d   1      -4.780  -5.042  -1.572  0.00  0.00     0.002 A 
ATOM      4  C5  UNL d   1      -5.429  -5.985  -0.777  0.00  0.00    -0.004 A 
ATOM      5  C6  UNL d   1      -6.000  -5.598   0.435  0.00  0.00     0.002 A 
ATOM      6  C7  UNL d   1      -5.927  -4.268   0.849  0.00  0.00     0.002 A 
ENDROOT
BRANCH   1   7
ATOM      7  C1  UNL d   1      -5.245  -1.866   0.479  0.00  0.00     0.055 C 
ATOM      8  C   UNL d   1      -3.860  -1.266   0.286  0.00  0.00     0.019 C 
ENDBRANCH   1   7
TORSDOF 1
ENDMDL
