MODEL 1
REMARK minimizedAffinity 8.45927715
REMARK minimizedRMSD -1
REMARK  1 active torsions:
REMARK  status: ('A' for Active; 'I' for Inactive)
REMARK    1  A    between atoms: C1_2  and  C2_3 
ROOT
ATOM      1  C2  UNL d   1      -1.417   1.828   2.013  0.00  0.00    -0.077 A 
ATOM      2  C3  UNL d   1      -0.879   0.541   2.153  0.00  0.00     0.002 A 
ATOM      3  C4  UNL d   1      -1.603  -0.577   1.735  0.00  0.00     0.002 A 
ATOM      4  C5  UNL d   1      -2.867  -0.418   1.171  0.00  0.00    -0.004 A 
ATOM      5  C6  UNL d   1      -3.412   0.857   1.029  0.00  0.00     0.002 A 
ATOM      6  C7  UNL d   1      -2.690   1.976   1.447  0.00  0.00     0.002 A 
ENDROOT
BRANCH   1   7
ATOM      7  C1  UNL d   1      -0.616   3.039   2.418  0.00  0.00     0.055 C 
ATOM      8  C   UNL d   1       0.702   2.639   3.064  0.00  0.00     0.019 C 
ENDBRANCH   1   7
TORSDOF 1
ENDMDL
