MODEL 1
REMARK minimizedAffinity -5.02278948
REMARK minimizedRMSD -1
REMARK  1 active torsions:
REMARK  status: ('A' for Active; 'I' for Inactive)
REMARK    1  A    between atoms: C1_2  and  C2_3 
ROOT
ATOM      1  C2  UNL d   1      -3.562  -1.386  -2.977  0.00  0.00    -0.077 A 
ATOM      2  C3  UNL d   1      -3.631  -0.256  -2.150  0.00  0.00     0.002 A 
ATOM      3  C4  UNL d   1      -2.576   0.054  -1.290  0.00  0.00     0.002 A 
ATOM      4  C5  UNL d   1      -1.444  -0.757  -1.251  0.00  0.00    -0.004 A 
ATOM      5  C6  UNL d   1      -1.367  -1.885  -2.068  0.00  0.00     0.002 A 
ATOM      6  C7  UNL d   1      -2.421  -2.197  -2.928  0.00  0.00     0.002 A 
ENDROOT
BRANCH   1   7
ATOM      7  C1  UNL d   1      -4.677  -1.695  -3.942  0.00  0.00     0.055 C 
ATOM      8  C   UNL d   1      -5.993  -1.084  -3.481  0.00  0.00     0.019 C 
ENDBRANCH   1   7
TORSDOF 1
ENDMDL
