MODEL 1
REMARK minimizedAffinity -3.00604391
REMARK minimizedRMSD -1
REMARK  1 active torsions:
REMARK  status: ('A' for Active; 'I' for Inactive)
REMARK    1  A    between atoms: C1_2  and  C2_3 
ROOT
ATOM      1  C2  UNL d   1      -1.872  -3.445  -1.871  0.00  0.00    -0.077 A 
ATOM      2  C3  UNL d   1      -2.746  -3.627  -0.790  0.00  0.00     0.002 A 
ATOM      3  C4  UNL d   1      -3.236  -4.899  -0.485  0.00  0.00     0.002 A 
ATOM      4  C5  UNL d   1      -2.854  -5.997  -1.253  0.00  0.00    -0.004 A 
ATOM      5  C6  UNL d   1      -1.987  -5.825  -2.331  0.00  0.00     0.002 A 
ATOM      6  C7  UNL d   1      -1.497  -4.555  -2.638  0.00  0.00     0.002 A 
ENDROOT
BRANCH   1   7
ATOM      7  C1  UNL d   1      -1.304  -2.082  -2.171  0.00  0.00     0.055 C 
ATOM      8  C   UNL d   1       0.042  -2.186  -2.875  0.00  0.00     0.019 C 
ENDBRANCH   1   7
TORSDOF 1
ENDMDL
