MODEL 1
REMARK minimizedAffinity -4.93350601
REMARK minimizedRMSD -1
REMARK  1 active torsions:
REMARK  status: ('A' for Active; 'I' for Inactive)
REMARK    1  A    between atoms: C1_2  and  C2_3 
ROOT
ATOM      1  C2  UNL d   1      -0.777  -0.294  -0.906  0.00  0.00    -0.077 A 
ATOM      2  C3  UNL d   1      -1.430  -1.273  -1.667  0.00  0.00     0.002 A 
ATOM      3  C4  UNL d   1      -0.908  -1.676  -2.898  0.00  0.00     0.002 A 
ATOM      4  C5  UNL d   1       0.271  -1.108  -3.376  0.00  0.00    -0.004 A 
ATOM      5  C6  UNL d   1       0.927  -0.132  -2.627  0.00  0.00     0.002 A 
ATOM      6  C7  UNL d   1       0.406   0.273  -1.398  0.00  0.00     0.002 A 
ENDROOT
BRANCH   1   7
ATOM      7  C1  UNL d   1      -1.312   0.107   0.444  0.00  0.00     0.055 C 
ATOM      8  C   UNL d   1      -0.379  -0.334   1.562  0.00  0.00     0.019 C 
ENDBRANCH   1   7
TORSDOF 1
ENDMDL
