MODEL 1
REMARK minimizedAffinity -4.75474215
REMARK minimizedRMSD -1
REMARK  1 active torsions:
REMARK  status: ('A' for Active; 'I' for Inactive)
REMARK    1  A    between atoms: C1_2  and  C2_3 
ROOT
ATOM      1  C2  UNL d   1      -1.432  -3.545  -2.889  0.00  0.00    -0.077 A 
ATOM      2  C3  UNL d   1      -2.212  -2.998  -1.861  0.00  0.00     0.002 A 
ATOM      3  C4  UNL d   1      -2.177  -1.626  -1.602  0.00  0.00     0.002 A 
ATOM      4  C5  UNL d   1      -1.368  -0.791  -2.369  0.00  0.00    -0.004 A 
ATOM      5  C6  UNL d   1      -0.587  -1.326  -3.392  0.00  0.00     0.002 A 
ATOM      6  C7  UNL d   1      -0.619  -2.696  -3.652  0.00  0.00     0.002 A 
ENDROOT
BRANCH   1   7
ATOM      7  C1  UNL d   1      -1.505  -5.017  -3.202  0.00  0.00     0.055 C 
ATOM      8  C   UNL d   1      -2.640  -5.688  -2.443  0.00  0.00     0.019 C 
ENDBRANCH   1   7
TORSDOF 1
ENDMDL
