MODEL 1
REMARK minimizedAffinity -1.33487761
REMARK minimizedRMSD -1
REMARK  1 active torsions:
REMARK  status: ('A' for Active; 'I' for Inactive)
REMARK    1  A    between atoms: C1_2  and  C2_3 
ROOT
ATOM      1  C2  UNL d   1      -0.701   0.108   0.950  0.00  0.00    -0.077 A 
ATOM      2  C3  UNL d   1       0.650   0.336   0.655  0.00  0.00     0.002 A 
ATOM      3  C4  UNL d   1       1.052   0.607  -0.654  0.00  0.00     0.002 A 
ATOM      4  C5  UNL d   1       0.108   0.658  -1.678  0.00  0.00    -0.004 A 
ATOM      5  C6  UNL d   1      -1.238   0.431  -1.395  0.00  0.00     0.002 A 
ATOM      6  C7  UNL d   1      -1.641   0.158  -0.087  0.00  0.00     0.002 A 
ENDROOT
BRANCH   1   7
ATOM      7  C1  UNL d   1      -1.143  -0.136   2.369  0.00  0.00     0.055 C 
ATOM      8  C   UNL d   1      -0.513   0.866   3.325  0.00  0.00     0.019 C 
ENDBRANCH   1   7
TORSDOF 1
ENDMDL
