MODEL 1
REMARK minimizedAffinity -4.1333642
REMARK minimizedRMSD -1
REMARK  1 active torsions:
REMARK  status: ('A' for Active; 'I' for Inactive)
REMARK    1  A    between atoms: C1_2  and  C2_3 
ROOT
ATOM      1  C2  UNL d   1      -0.785  -0.396   0.254  0.00  0.00    -0.077 A 
ATOM      2  C3  UNL d   1      -0.301  -0.182   1.552  0.00  0.00     0.002 A 
ATOM      3  C4  UNL d   1       0.967   0.368   1.751  0.00  0.00     0.002 A 
ATOM      4  C5  UNL d   1       1.758   0.712   0.657  0.00  0.00    -0.004 A 
ATOM      5  C6  UNL d   1       1.286   0.502  -0.638  0.00  0.00     0.002 A 
ATOM      6  C7  UNL d   1       0.020  -0.049  -0.839  0.00  0.00     0.002 A 
ENDROOT
BRANCH   1   7
ATOM      7  C1  UNL d   1      -2.172  -0.944   0.037  0.00  0.00     0.055 C 
ATOM      8  C   UNL d   1      -3.055   0.059  -0.690  0.00  0.00     0.019 C 
ENDBRANCH   1   7
TORSDOF 1
ENDMDL
