MODEL 1
REMARK minimizedAffinity -1.86300242
REMARK minimizedRMSD -1
REMARK  1 active torsions:
REMARK  status: ('A' for Active; 'I' for Inactive)
REMARK    1  A    between atoms: C1_2  and  C2_3 
ROOT
ATOM      1  C2  UNL d   1       0.768  -0.203  -1.356  0.00  0.00    -0.077 A 
ATOM      2  C3  UNL d   1       1.950  -0.283  -2.106  0.00  0.00     0.002 A 
ATOM      3  C4  UNL d   1       2.097  -1.263  -3.089  0.00  0.00     0.002 A 
ATOM      4  C5  UNL d   1       1.066  -2.168  -3.333  0.00  0.00    -0.004 A 
ATOM      5  C6  UNL d   1      -0.113  -2.097  -2.591  0.00  0.00     0.002 A 
ATOM      6  C7  UNL d   1      -0.261  -1.119  -1.607  0.00  0.00     0.002 A 
ENDROOT
BRANCH   1   7
ATOM      7  C1  UNL d   1       0.588   0.885  -0.329  0.00  0.00     0.055 C 
ATOM      8  C   UNL d   1       1.649   0.800   0.759  0.00  0.00     0.019 C 
ENDBRANCH   1   7
TORSDOF 1
ENDMDL
