MODEL 1
REMARK minimizedAffinity -3.08367991
REMARK minimizedRMSD -1
REMARK  1 active torsions:
REMARK  status: ('A' for Active; 'I' for Inactive)
REMARK    1  A    between atoms: C1_2  and  C2_3 
ROOT
ATOM      1  C2  UNL d   1       0.202   0.475   1.712  0.00  0.00    -0.077 A 
ATOM      2  C3  UNL d   1       1.392   0.449   0.973  0.00  0.00     0.002 A 
ATOM      3  C4  UNL d   1       1.357   0.465  -0.423  0.00  0.00     0.002 A 
ATOM      4  C5  UNL d   1       0.135   0.512  -1.090  0.00  0.00    -0.004 A 
ATOM      5  C6  UNL d   1      -1.055   0.536  -0.363  0.00  0.00     0.002 A 
ATOM      6  C7  UNL d   1      -1.022   0.518   1.032  0.00  0.00     0.002 A 
ENDROOT
BRANCH   1   7
ATOM      7  C1  UNL d   1       0.239   0.507   3.218  0.00  0.00     0.055 C 
ATOM      8  C   UNL d   1      -1.000  -0.143   3.817  0.00  0.00     0.019 C 
ENDBRANCH   1   7
TORSDOF 1
ENDMDL
