MODEL 1
REMARK minimizedAffinity 13.7246437
REMARK minimizedRMSD -1
REMARK  0 active torsions:
REMARK  status: ('A' for Active; 'I' for Inactive)
ROOT
ATOM      1  C1  DEN d   1       2.238  -3.550  -1.151  0.00  0.00     0.130 A 
ATOM      2  C2  DEN d   1       3.038  -3.413   0.063  0.00  0.00    -0.031 A 
ATOM      3  C3  DEN d   1       3.338  -1.979   0.253  0.00  0.00     0.027 A 
ATOM      4  C4  DEN d   1       2.639   0.031  -1.204  0.00  0.00     0.027 A 
ATOM      5  C5  DEN d   1       1.963   0.411  -2.343  0.00  0.00    -0.003 A 
ATOM      6  C6  DEN d   1       1.366  -0.498  -3.175  0.00  0.00     0.001 A 
ATOM      7  C7  DEN d   1       1.394  -1.830  -2.857  0.00  0.00     0.017 A 
ATOM      8  C8  DEN d   1       2.079  -2.222  -1.715  0.00  0.00    -0.094 A 
ATOM      9  C9  DEN d   1       2.666  -1.286  -0.880  0.00  0.00    -0.072 A 
ENDROOT
TORSDOF 0
ENDMDL
