MODEL 1
REMARK minimizedAffinity 12.4338608
REMARK minimizedRMSD -1
REMARK  0 active torsions:
REMARK  status: ('A' for Active; 'I' for Inactive)
ROOT
ATOM      1  C1  DEN d   1       3.723  -3.860  -4.625  0.00  0.00     0.130 A 
ATOM      2  C2  DEN d   1       3.586  -3.388  -6.000  0.00  0.00    -0.031 A 
ATOM      3  C3  DEN d   1       2.715  -2.195  -5.989  0.00  0.00     0.027 A 
ATOM      4  C4  DEN d   1       1.574  -1.038  -3.985  0.00  0.00     0.027 A 
ATOM      5  C5  DEN d   1       1.387  -1.082  -2.622  0.00  0.00    -0.003 A 
ATOM      6  C6  DEN d   1       1.932  -2.066  -1.841  0.00  0.00     0.001 A 
ATOM      7  C7  DEN d   1       2.730  -3.022  -2.412  0.00  0.00     0.017 A 
ATOM      8  C8  DEN d   1       2.917  -2.989  -3.788  0.00  0.00    -0.094 A 
ATOM      9  C9  DEN d   1       2.367  -1.978  -4.558  0.00  0.00    -0.072 A 
ENDROOT
TORSDOF 0
ENDMDL
