MODEL 1
REMARK minimizedAffinity 15.4345179
REMARK minimizedRMSD -1
REMARK  0 active torsions:
REMARK  status: ('A' for Active; 'I' for Inactive)
ROOT
ATOM      1  C1  DEN d   1      -0.508  -1.888  -1.922  0.00  0.00     0.130 A 
ATOM      2  C2  DEN d   1      -0.845  -3.301  -2.076  0.00  0.00    -0.031 A 
ATOM      3  C3  DEN d   1       0.345  -4.095  -1.710  0.00  0.00     0.027 A 
ATOM      4  C4  DEN d   1       2.661  -3.280  -0.921  0.00  0.00     0.027 A 
ATOM      5  C5  DEN d   1       3.427  -2.168  -0.647  0.00  0.00    -0.003 A 
ATOM      6  C6  DEN d   1       2.949  -0.894  -0.811  0.00  0.00     0.001 A 
ATOM      7  C7  DEN d   1       1.655  -0.702  -1.217  0.00  0.00     0.017 A 
ATOM      8  C8  DEN d   1       0.879  -1.818  -1.502  0.00  0.00    -0.094 A 
ATOM      9  C9  DEN d   1       1.377  -3.097  -1.319  0.00  0.00    -0.072 A 
ENDROOT
TORSDOF 0
ENDMDL
