MODEL 1
REMARK minimizedAffinity 6.41335487
REMARK minimizedRMSD -1
REMARK  0 active torsions:
REMARK  status: ('A' for Active; 'I' for Inactive)
ROOT
ATOM      1  C1  DEN d   1       2.369   0.605  -1.523  0.00  0.00     0.130 A 
ATOM      2  C2  DEN d   1       3.793   0.899  -1.386  0.00  0.00    -0.031 A 
ATOM      3  C3  DEN d   1       4.503  -0.376  -1.162  0.00  0.00     0.027 A 
ATOM      4  C4  DEN d   1       3.542  -2.765  -1.018  0.00  0.00     0.027 A 
ATOM      5  C5  DEN d   1       2.388  -3.515  -1.061  0.00  0.00    -0.003 A 
ATOM      6  C6  DEN d   1       1.153  -2.946  -1.226  0.00  0.00     0.001 A 
ATOM      7  C7  DEN d   1       1.048  -1.591  -1.399  0.00  0.00     0.017 A 
ATOM      8  C8  DEN d   1       2.206  -0.828  -1.349  0.00  0.00    -0.094 A 
ATOM      9  C9  DEN d   1       3.447  -1.423  -1.194  0.00  0.00    -0.072 A 
ENDROOT
TORSDOF 0
ENDMDL
