MODEL 1
REMARK minimizedAffinity 6.9070363
REMARK minimizedRMSD -1
REMARK  0 active torsions:
REMARK  status: ('A' for Active; 'I' for Inactive)
ROOT
ATOM      1  C1  DEN d   1       3.958  -3.142  -0.016  0.00  0.00     0.130 A 
ATOM      2  C2  DEN d   1       2.868  -4.088  -0.240  0.00  0.00    -0.031 A 
ATOM      3  C3  DEN d   1       1.733  -3.346  -0.824  0.00  0.00     0.027 A 
ATOM      4  C4  DEN d   1       1.558  -0.839  -1.404  0.00  0.00     0.027 A 
ATOM      5  C5  DEN d   1       2.223   0.367  -1.382  0.00  0.00    -0.003 A 
ATOM      6  C6  DEN d   1       3.490   0.493  -0.876  0.00  0.00     0.001 A 
ATOM      7  C7  DEN d   1       4.149  -0.614  -0.412  0.00  0.00     0.017 A 
ATOM      8  C8  DEN d   1       3.482  -1.832  -0.424  0.00  0.00    -0.094 A 
ATOM      9  C9  DEN d   1       2.207  -1.942  -0.951  0.00  0.00    -0.072 A 
ENDROOT
TORSDOF 0
ENDMDL
