MODEL 1
REMARK minimizedAffinity 3.8056848
REMARK minimizedRMSD -1
REMARK  0 active torsions:
REMARK  status: ('A' for Active; 'I' for Inactive)
ROOT
ATOM      1  C1  DEN d   1       0.057  -0.095   2.115  0.00  0.00     0.130 A 
ATOM      2  C2  DEN d   1       0.664   1.055   2.779  0.00  0.00    -0.031 A 
ATOM      3  C3  DEN d   1      -0.420   1.872   3.361  0.00  0.00     0.027 A 
ATOM      4  C4  DEN d   1      -2.966   1.467   3.303  0.00  0.00     0.027 A 
ATOM      5  C5  DEN d   1      -3.960   0.629   2.846  0.00  0.00    -0.003 A 
ATOM      6  C6  DEN d   1      -3.688  -0.482   2.091  0.00  0.00     0.001 A 
ATOM      7  C7  DEN d   1      -2.389  -0.809   1.808  0.00  0.00     0.017 A 
ATOM      8  C8  DEN d   1      -1.382   0.035   2.259  0.00  0.00    -0.094 A 
ATOM      9  C9  DEN d   1      -1.676   1.146   3.031  0.00  0.00    -0.072 A 
ENDROOT
TORSDOF 0
ENDMDL
