MODEL 1
REMARK minimizedAffinity 12.1010733
REMARK minimizedRMSD -1
REMARK  0 active torsions:
REMARK  status: ('A' for Active; 'I' for Inactive)
ROOT
ATOM      1  C1  DEN d   1      -0.124   1.693   3.352  0.00  0.00     0.130 A 
ATOM      2  C2  DEN d   1       0.726   0.650   2.785  0.00  0.00    -0.031 A 
ATOM      3  C3  DEN d   1      -0.150  -0.422   2.270  0.00  0.00     0.027 A 
ATOM      4  C4  DEN d   1      -2.725  -0.564   2.291  0.00  0.00     0.027 A 
ATOM      5  C5  DEN d   1      -3.882   0.078   2.676  0.00  0.00    -0.003 A 
ATOM      6  C6  DEN d   1      -3.866   1.277   3.338  0.00  0.00     0.001 A 
ATOM      7  C7  DEN d   1      -2.670   1.894   3.595  0.00  0.00     0.017 A 
ATOM      8  C8  DEN d   1      -1.500   1.250   3.217  0.00  0.00    -0.094 A 
ATOM      9  C9  DEN d   1      -1.537   0.044   2.538  0.00  0.00    -0.072 A 
ENDROOT
TORSDOF 0
ENDMDL
