MODEL 1
REMARK minimizedAffinity 12.7425451
REMARK minimizedRMSD -1
REMARK  0 active torsions:
REMARK  status: ('A' for Active; 'I' for Inactive)
ROOT
ATOM      1  C1  DEN d   1       2.431  -3.023  -0.822  0.00  0.00     0.130 A 
ATOM      2  C2  DEN d   1       3.663  -2.993  -0.039  0.00  0.00    -0.031 A 
ATOM      3  C3  DEN d   1       4.192  -1.615  -0.072  0.00  0.00     0.027 A 
ATOM      4  C4  DEN d   1       3.224   0.466  -1.249  0.00  0.00     0.027 A 
ATOM      5  C5  DEN d   1       2.200   0.932  -2.044  0.00  0.00    -0.003 A 
ATOM      6  C6  DEN d   1       1.208   0.111  -2.512  0.00  0.00     0.001 A 
ATOM      7  C7  DEN d   1       1.193  -1.210  -2.151  0.00  0.00     0.017 A 
ATOM      8  C8  DEN d   1       2.226  -1.688  -1.355  0.00  0.00    -0.094 A 
ATOM      9  C9  DEN d   1       3.213  -0.840  -0.883  0.00  0.00    -0.072 A 
ENDROOT
TORSDOF 0
ENDMDL
