MODEL 1
REMARK minimizedAffinity 4.7550602
REMARK minimizedRMSD -1
REMARK  0 active torsions:
REMARK  status: ('A' for Active; 'I' for Inactive)
ROOT
ATOM      1  C1  DEN d   1      -2.707  -5.999  -5.226  0.00  0.00     0.130 A 
ATOM      2  C2  DEN d   1      -1.485  -5.619  -4.522  0.00  0.00    -0.031 A 
ATOM      3  C3  DEN d   1      -1.558  -4.174  -4.226  0.00  0.00     0.027 A 
ATOM      4  C4  DEN d   1      -3.436  -2.497  -4.785  0.00  0.00     0.027 A 
ATOM      5  C5  DEN d   1      -4.667  -2.349  -5.386  0.00  0.00    -0.003 A 
ATOM      6  C6  DEN d   1      -5.310  -3.391  -6.000  0.00  0.00     0.001 A 
ATOM      7  C7  DEN d   1      -4.745  -4.639  -5.988  0.00  0.00     0.017 A 
ATOM      8  C8  DEN d   1      -3.501  -4.794  -5.391  0.00  0.00    -0.094 A 
ATOM      9  C9  DEN d   1      -2.872  -3.731  -4.764  0.00  0.00    -0.072 A 
ENDROOT
TORSDOF 0
ENDMDL
