MODEL 1
REMARK minimizedAffinity 7.12620449
REMARK minimizedRMSD -1
REMARK  0 active torsions:
REMARK  status: ('A' for Active; 'I' for Inactive)
ROOT
ATOM      1  C1  DEN d   1       1.992  -5.038  -0.692  0.00  0.00     0.130 A 
ATOM      2  C2  DEN d   1       3.440  -4.985  -0.516  0.00  0.00    -0.031 A 
ATOM      3  C3  DEN d   1       3.872  -3.586  -0.704  0.00  0.00     0.027 A 
ATOM      4  C4  DEN d   1       2.445  -1.506  -1.242  0.00  0.00     0.027 A 
ATOM      5  C5  DEN d   1       1.168  -1.055  -1.494  0.00  0.00    -0.003 A 
ATOM      6  C6  DEN d   1       0.090  -1.899  -1.531  0.00  0.00     0.001 A 
ATOM      7  C7  DEN d   1       0.262  -3.232  -1.266  0.00  0.00     0.017 A 
ATOM      8  C8  DEN d   1       1.547  -3.695  -1.018  0.00  0.00    -0.094 A 
ATOM      9  C9  DEN d   1       2.623  -2.824  -0.973  0.00  0.00    -0.072 A 
ENDROOT
TORSDOF 0
ENDMDL
