MODEL 1
REMARK minimizedAffinity 12.339572
REMARK minimizedRMSD -1
REMARK  0 active torsions:
REMARK  status: ('A' for Active; 'I' for Inactive)
ROOT
ATOM      1  C1  DEN d   1       1.487   1.439  -4.141  0.00  0.00     0.130 A 
ATOM      2  C2  DEN d   1       1.354   0.291  -5.034  0.00  0.00    -0.031 A 
ATOM      3  C3  DEN d   1       1.694  -0.925  -4.269  0.00  0.00     0.027 A 
ATOM      4  C4  DEN d   1       2.403  -1.142  -1.799  0.00  0.00     0.027 A 
ATOM      5  C5  DEN d   1       2.668  -0.444  -0.641  0.00  0.00    -0.003 A 
ATOM      6  C6  DEN d   1       2.591   0.922  -0.579  0.00  0.00     0.001 A 
ATOM      7  C7  DEN d   1       2.197   1.631  -1.683  0.00  0.00     0.017 A 
ATOM      8  C8  DEN d   1       1.936   0.935  -2.856  0.00  0.00    -0.094 A 
ATOM      9  C9  DEN d   1       2.007  -0.448  -2.895  0.00  0.00    -0.072 A 
ENDROOT
TORSDOF 0
ENDMDL
