MODEL 1
REMARK minimizedAffinity 9.2386446
REMARK minimizedRMSD -1
REMARK  0 active torsions:
REMARK  status: ('A' for Active; 'I' for Inactive)
ROOT
ATOM      1  C1  DEN d   1       2.124  -2.187  -1.881  0.00  0.00     0.130 A 
ATOM      2  C2  DEN d   1       1.059  -1.268  -1.489  0.00  0.00    -0.031 A 
ATOM      3  C3  DEN d   1       0.513  -0.653  -2.716  0.00  0.00     0.027 A 
ATOM      4  C4  DEN d   1       1.207  -1.036  -5.170  0.00  0.00     0.027 A 
ATOM      5  C5  DEN d   1       2.072  -1.716  -5.999  0.00  0.00    -0.003 A 
ATOM      6  C6  DEN d   1       3.029  -2.567  -5.515  0.00  0.00     0.001 A 
ATOM      7  C7  DEN d   1       3.116  -2.796  -4.167  0.00  0.00     0.017 A 
ATOM      8  C8  DEN d   1       2.252  -2.109  -3.325  0.00  0.00    -0.094 A 
ATOM      9  C9  DEN d   1       1.282  -1.261  -3.834  0.00  0.00    -0.072 A 
ENDROOT
TORSDOF 0
ENDMDL
