MODEL 1
REMARK minimizedAffinity 9.73154259
REMARK minimizedRMSD -1
REMARK  0 active torsions:
REMARK  status: ('A' for Active; 'I' for Inactive)
ROOT
ATOM      1  C1  DEN d   1       1.860  -0.375  -2.701  0.00  0.00     0.130 A 
ATOM      2  C2  DEN d   1       1.965   1.063  -2.930  0.00  0.00    -0.031 A 
ATOM      3  C3  DEN d   1       2.961   1.605  -1.984  0.00  0.00     0.027 A 
ATOM      4  C4  DEN d   1       4.346   0.363  -0.199  0.00  0.00     0.027 A 
ATOM      5  C5  DEN d   1       4.594  -0.864   0.377  0.00  0.00    -0.003 A 
ATOM      6  C6  DEN d   1       3.928  -1.998  -0.006  0.00  0.00     0.001 A 
ATOM      7  C7  DEN d   1       3.014  -1.937  -1.024  0.00  0.00     0.017 A 
ATOM      8  C8  DEN d   1       2.754  -0.703  -1.605  0.00  0.00    -0.094 A 
ATOM      9  C9  DEN d   1       3.446   0.430  -1.212  0.00  0.00    -0.072 A 
ENDROOT
TORSDOF 0
ENDMDL
