MODEL 1
REMARK minimizedAffinity 9.9081049
REMARK minimizedRMSD -1
REMARK  0 active torsions:
REMARK  status: ('A' for Active; 'I' for Inactive)
ROOT
ATOM      1  C1  DEN d   1      -0.785  -4.601  -2.065  0.00  0.00     0.130 A 
ATOM      2  C2  DEN d   1      -1.754  -3.646  -2.597  0.00  0.00    -0.031 A 
ATOM      3  C3  DEN d   1      -1.205  -2.288  -2.410  0.00  0.00     0.027 A 
ATOM      4  C4  DEN d   1       1.039  -1.574  -1.360  0.00  0.00     0.027 A 
ATOM      5  C5  DEN d   1       2.191  -2.028  -0.756  0.00  0.00    -0.003 A 
ATOM      6  C6  DEN d   1       2.414  -3.359  -0.518  0.00  0.00     0.001 A 
ATOM      7  C7  DEN d   1       1.492  -4.286  -0.926  0.00  0.00     0.017 A 
ATOM      8  C8  DEN d   1       0.325  -3.835  -1.528  0.00  0.00    -0.094 A 
ATOM      9  C9  DEN d   1       0.123  -2.487  -1.772  0.00  0.00    -0.072 A 
ENDROOT
TORSDOF 0
ENDMDL
