MODEL 1
REMARK minimizedAffinity 5.10624075
REMARK minimizedRMSD -1
REMARK  0 active torsions:
REMARK  status: ('A' for Active; 'I' for Inactive)
ROOT
ATOM      1  C1  DEN d   1      -1.003  -3.874  -1.863  0.00  0.00     0.130 A 
ATOM      2  C2  DEN d   1      -1.861  -2.868  -2.483  0.00  0.00    -0.031 A 
ATOM      3  C3  DEN d   1      -1.124  -1.589  -2.504  0.00  0.00     0.027 A 
ATOM      4  C4  DEN d   1       1.252  -1.072  -1.644  0.00  0.00     0.027 A 
ATOM      5  C5  DEN d   1       2.363  -1.603  -1.027  0.00  0.00    -0.003 A 
ATOM      6  C6  DEN d   1       2.417  -2.910  -0.619  0.00  0.00     0.001 A 
ATOM      7  C7  DEN d   1       1.356  -3.741  -0.863  0.00  0.00     0.017 A 
ATOM      8  C8  DEN d   1       0.229  -3.211  -1.477  0.00  0.00    -0.094 A 
ATOM      9  C9  DEN d   1       0.199  -1.891  -1.894  0.00  0.00    -0.072 A 
ENDROOT
TORSDOF 0
ENDMDL
