MODEL 1
REMARK minimizedAffinity 1.23455679
REMARK minimizedRMSD -1
REMARK  0 active torsions:
REMARK  status: ('A' for Active; 'I' for Inactive)
ROOT
ATOM      1  O1  BZF d   1      -0.396  -2.033   0.671  0.00  0.00    -0.204 OA
ATOM      2  C2  BZF d   1      -0.502  -2.207  -0.695  0.00  0.00     0.174 A 
ATOM      3  C3  BZF d   1       0.313  -3.196  -1.116  0.00  0.00    -0.012 A 
ATOM      4  C3A BZF d   1       0.901  -3.731   0.074  0.00  0.00    -0.107 A 
ATOM      5  C4  BZF d   1       1.785  -4.744   0.311  0.00  0.00     0.055 A 
ATOM      6  C5  BZF d   1       2.213  -4.964   1.582  0.00  0.00    -0.016 A 
ATOM      7  C6  BZF d   1       1.781  -4.188   2.637  0.00  0.00     0.022 A 
ATOM      8  C7  BZF d   1       0.900  -3.175   2.453  0.00  0.00     0.029 A 
ATOM      9  C7A BZF d   1       0.441  -2.971   1.174  0.00  0.00     0.058 A 
ENDROOT
TORSDOF 0
ENDMDL
