MODEL 1
REMARK minimizedAffinity 8.01352024
REMARK minimizedRMSD -1
REMARK  0 active torsions:
REMARK  status: ('A' for Active; 'I' for Inactive)
ROOT
ATOM      1  O1  BZF d   1       1.190  -3.724   3.530  0.00  0.00    -0.204 OA
ATOM      2  C2  BZF d   1       2.244  -3.488   4.391  0.00  0.00     0.174 A 
ATOM      3  C3  BZF d   1       2.892  -2.353   4.055  0.00  0.00    -0.012 A 
ATOM      4  C3A BZF d   1       2.143  -1.800   2.969  0.00  0.00    -0.107 A 
ATOM      5  C4  BZF d   1       2.278  -0.670   2.214  0.00  0.00     0.055 A 
ATOM      6  C5  BZF d   1       1.421  -0.458   1.182  0.00  0.00    -0.016 A 
ATOM      7  C6  BZF d   1       0.421  -1.358   0.872  0.00  0.00     0.022 A 
ATOM      8  C7  BZF d   1       0.245  -2.491   1.594  0.00  0.00     0.029 A 
ATOM      9  C7A BZF d   1       1.089  -2.691   2.659  0.00  0.00     0.058 A 
ENDROOT
TORSDOF 0
ENDMDL
