MODEL 1
REMARK minimizedAffinity 2.48353767
REMARK minimizedRMSD -1
REMARK  0 active torsions:
REMARK  status: ('A' for Active; 'I' for Inactive)
ROOT
ATOM      1  O1  BZF d   1       0.698  -2.287   1.973  0.00  0.00    -0.204 OA
ATOM      2  C2  BZF d   1      -0.041  -2.346   0.807  0.00  0.00     0.174 A 
ATOM      3  C3  BZF d   1       0.136  -1.230   0.071  0.00  0.00    -0.012 A 
ATOM      4  C3A BZF d   1       1.113  -0.463   0.781  0.00  0.00    -0.107 A 
ATOM      5  C4  BZF d   1       1.716   0.740   0.544  0.00  0.00     0.055 A 
ATOM      6  C5  BZF d   1       2.573   1.243   1.471  0.00  0.00    -0.016 A 
ATOM      7  C6  BZF d   1       2.846   0.574   2.646  0.00  0.00     0.022 A 
ATOM      8  C7  BZF d   1       2.277  -0.624   2.923  0.00  0.00     0.029 A 
ATOM      9  C7A BZF d   1       1.436  -1.151   1.973  0.00  0.00     0.058 A 
ENDROOT
TORSDOF 0
ENDMDL
