MODEL 1
REMARK minimizedAffinity 0.505685508
REMARK minimizedRMSD -1
REMARK  0 active torsions:
REMARK  status: ('A' for Active; 'I' for Inactive)
ROOT
ATOM      1  O1  BZF d   1       1.353  -1.606   2.684  0.00  0.00    -0.204 OA
ATOM      2  C2  BZF d   1       0.688  -1.966   1.527  0.00  0.00     0.174 A 
ATOM      3  C3  BZF d   1       0.695  -0.952   0.637  0.00  0.00    -0.012 A 
ATOM      4  C3A BZF d   1       1.487   0.075   1.242  0.00  0.00    -0.107 A 
ATOM      5  C4  BZF d   1       1.874   1.321   0.840  0.00  0.00     0.055 A 
ATOM      6  C5  BZF d   1       2.585   2.100   1.697  0.00  0.00    -0.016 A 
ATOM      7  C6  BZF d   1       2.922   1.667   2.962  0.00  0.00     0.022 A 
ATOM      8  C7  BZF d   1       2.565   0.436   3.404  0.00  0.00     0.029 A 
ATOM      9  C7A BZF d   1       1.874  -0.366   2.529  0.00  0.00     0.058 A 
ENDROOT
TORSDOF 0
ENDMDL
