MODEL 1
REMARK minimizedAffinity 3.18750691
REMARK minimizedRMSD -1
REMARK  0 active torsions:
REMARK  status: ('A' for Active; 'I' for Inactive)
ROOT
ATOM      1  O1  BZF d   1       0.748  -1.313   1.889  0.00  0.00    -0.204 OA
ATOM      2  C2  BZF d   1       1.562  -1.474   2.994  0.00  0.00     0.174 A 
ATOM      3  C3  BZF d   1       2.443  -0.457   3.092  0.00  0.00    -0.012 A 
ATOM      4  C3A BZF d   1       2.100   0.440   2.031  0.00  0.00    -0.107 A 
ATOM      5  C4  BZF d   1       2.602   1.641   1.618  0.00  0.00     0.055 A 
ATOM      6  C5  BZF d   1       2.090   2.223   0.502  0.00  0.00    -0.016 A 
ATOM      7  C6  BZF d   1       1.081   1.629  -0.228  0.00  0.00     0.022 A 
ATOM      8  C7  BZF d   1       0.548   0.440   0.145  0.00  0.00     0.029 A 
ATOM      9  C7A BZF d   1       1.041  -0.134   1.291  0.00  0.00     0.058 A 
ENDROOT
TORSDOF 0
ENDMDL
