MODEL 1
REMARK minimizedAffinity 2.08860517
REMARK minimizedRMSD -1
REMARK  0 active torsions:
REMARK  status: ('A' for Active; 'I' for Inactive)
ROOT
ATOM      1  O1  BZF d   1      -0.496  -0.559   0.330  0.00  0.00    -0.204 OA
ATOM      2  C2  BZF d   1      -1.271   0.210  -0.517  0.00  0.00     0.174 A 
ATOM      3  C3  BZF d   1      -1.510  -0.445  -1.672  0.00  0.00    -0.012 A 
ATOM      4  C3A BZF d   1      -0.920  -1.737  -1.502  0.00  0.00    -0.107 A 
ATOM      5  C4  BZF d   1      -0.839  -2.844  -2.297  0.00  0.00     0.055 A 
ATOM      6  C5  BZF d   1      -0.129  -3.919  -1.862  0.00  0.00    -0.016 A 
ATOM      7  C6  BZF d   1       0.515  -3.918  -0.642  0.00  0.00     0.022 A 
ATOM      8  C7  BZF d   1       0.459  -2.845   0.183  0.00  0.00     0.029 A 
ATOM      9  C7A BZF d   1      -0.284  -1.770  -0.239  0.00  0.00     0.058 A 
ENDROOT
TORSDOF 0
ENDMDL
