MODEL 1
REMARK minimizedAffinity 0.154705599
REMARK minimizedRMSD -1
REMARK  0 active torsions:
REMARK  status: ('A' for Active; 'I' for Inactive)
ROOT
ATOM      1  O1  BZF d   1       0.043  -1.738   1.203  0.00  0.00    -0.204 OA
ATOM      2  C2  BZF d   1      -0.321  -1.053   0.060  0.00  0.00     0.174 A 
ATOM      3  C3  BZF d   1       0.305   0.139  -0.004  0.00  0.00    -0.012 A 
ATOM      4  C3A BZF d   1       1.182   0.164   1.127  0.00  0.00    -0.107 A 
ATOM      5  C4  BZF d   1       2.080   1.079   1.599  0.00  0.00     0.055 A 
ATOM      6  C5  BZF d   1       2.723   0.830   2.769  0.00  0.00    -0.016 A 
ATOM      7  C6  BZF d   1       2.489  -0.320   3.496  0.00  0.00     0.022 A 
ATOM      8  C7  BZF d   1       1.611  -1.258   3.066  0.00  0.00     0.029 A 
ATOM      9  C7A BZF d   1       0.984  -1.025   1.866  0.00  0.00     0.058 A 
ENDROOT
TORSDOF 0
ENDMDL
