MODEL 1
REMARK minimizedAffinity -0.887973964
REMARK minimizedRMSD -1
REMARK  0 active torsions:
REMARK  status: ('A' for Active; 'I' for Inactive)
ROOT
ATOM      1  O1  BZF d   1      -1.372  -0.538   0.919  0.00  0.00    -0.204 OA
ATOM      2  C2  BZF d   1      -2.249  -0.376  -0.135  0.00  0.00     0.174 A 
ATOM      3  C3  BZF d   1      -2.072  -1.344  -1.058  0.00  0.00    -0.012 A 
ATOM      4  C3A BZF d   1      -1.081  -2.215  -0.504  0.00  0.00    -0.107 A 
ATOM      5  C4  BZF d   1      -0.493  -3.367  -0.942  0.00  0.00     0.055 A 
ATOM      6  C5  BZF d   1       0.493  -3.930  -0.195  0.00  0.00    -0.016 A 
ATOM      7  C6  BZF d   1       0.919  -3.367   0.990  0.00  0.00     0.022 A 
ATOM      8  C7  BZF d   1       0.362  -2.227   1.467  0.00  0.00     0.029 A 
ATOM      9  C7A BZF d   1      -0.657  -1.673   0.732  0.00  0.00     0.058 A 
ENDROOT
TORSDOF 0
ENDMDL
