MODEL 1
REMARK minimizedAffinity -2.64872766
REMARK minimizedRMSD -1
REMARK  0 active torsions:
REMARK  status: ('A' for Active; 'I' for Inactive)
ROOT
ATOM      1  C1  DEN d   1       0.285  -1.651  -0.783  0.00  0.00     0.130 A 
ATOM      2  C2  DEN d   1       0.666  -1.348  -2.160  0.00  0.00    -0.031 A 
ATOM      3  C3  DEN d   1       0.657   0.120  -2.324  0.00  0.00     0.027 A 
ATOM      4  C4  DEN d   1       0.098   1.943  -0.587  0.00  0.00     0.027 A 
ATOM      5  C5  DEN d   1      -0.292   2.172   0.714  0.00  0.00    -0.003 A 
ATOM      6  C6  DEN d   1      -0.548   1.151   1.590  0.00  0.00     0.001 A 
ATOM      7  C7  DEN d   1      -0.373  -0.147   1.189  0.00  0.00     0.017 A 
ATOM      8  C8  DEN d   1       0.013  -0.386  -0.123  0.00  0.00    -0.094 A 
ATOM      9  C9  DEN d   1       0.279   0.660  -0.990  0.00  0.00    -0.072 A 
ENDROOT
TORSDOF 0
ENDMDL
