MODEL 1
REMARK minimizedAffinity -3.86533856
REMARK minimizedRMSD -1
REMARK  0 active torsions:
REMARK  status: ('A' for Active; 'I' for Inactive)
ROOT
ATOM      1  C1  DEN d   1       0.939  -1.831  -1.055  0.00  0.00     0.130 A 
ATOM      2  C2  DEN d   1       1.067  -3.260  -0.784  0.00  0.00    -0.031 A 
ATOM      3  C3  DEN d   1       0.275  -3.568   0.424  0.00  0.00     0.027 A 
ATOM      4  C4  DEN d   1      -1.134  -1.980   1.889  0.00  0.00     0.027 A 
ATOM      5  C5  DEN d   1      -1.538  -0.675   2.062  0.00  0.00    -0.003 A 
ATOM      6  C6  DEN d   1      -1.121   0.334   1.235  0.00  0.00     0.001 A 
ATOM      7  C7  DEN d   1      -0.310   0.047   0.169  0.00  0.00     0.017 A 
ATOM      8  C8  DEN d   1       0.108  -1.266  -0.008  0.00  0.00    -0.094 A 
ATOM      9  C9  DEN d   1      -0.335  -2.274   0.832  0.00  0.00    -0.072 A 
ENDROOT
TORSDOF 0
ENDMDL
