MODEL 1
REMARK minimizedAffinity -2.54340982
REMARK minimizedRMSD -1
REMARK  0 active torsions:
REMARK  status: ('A' for Active; 'I' for Inactive)
ROOT
ATOM      1  C1  DEN d   1      -1.287   0.371   0.993  0.00  0.00     0.130 A 
ATOM      2  C2  DEN d   1      -0.331   1.408   0.614  0.00  0.00    -0.031 A 
ATOM      3  C3  DEN d   1       0.801   0.755  -0.074  0.00  0.00     0.027 A 
ATOM      4  C4  DEN d   1       1.162  -1.746  -0.589  0.00  0.00     0.027 A 
ATOM      5  C5  DEN d   1       0.629  -3.009  -0.452  0.00  0.00    -0.003 A 
ATOM      6  C6  DEN d   1      -0.554  -3.235   0.201  0.00  0.00     0.001 A 
ATOM      7  C7  DEN d   1      -1.265  -2.178   0.702  0.00  0.00     0.017 A 
ATOM      8  C8  DEN d   1      -0.731  -0.903   0.574  0.00  0.00    -0.094 A 
ATOM      9  C9  DEN d   1       0.460  -0.693  -0.100  0.00  0.00    -0.072 A 
ENDROOT
TORSDOF 0
ENDMDL
