MODEL 1
REMARK minimizedAffinity -3.70637417
REMARK minimizedRMSD -1
REMARK  0 active torsions:
REMARK  status: ('A' for Active; 'I' for Inactive)
ROOT
ATOM      1  C1  DEN d   1      -0.107   0.723  -2.020  0.00  0.00     0.130 A 
ATOM      2  C2  DEN d   1       0.319  -0.164  -3.098  0.00  0.00    -0.031 A 
ATOM      3  C3  DEN d   1       0.626  -1.483  -2.510  0.00  0.00     0.027 A 
ATOM      4  C4  DEN d   1       0.478  -2.235  -0.047  0.00  0.00     0.027 A 
ATOM      5  C5  DEN d   1       0.177  -1.830   1.234  0.00  0.00    -0.003 A 
ATOM      6  C6  DEN d   1      -0.203  -0.546   1.523  0.00  0.00     0.001 A 
ATOM      7  C7  DEN d   1      -0.337   0.367   0.511  0.00  0.00     0.017 A 
ATOM      8  C8  DEN d   1      -0.028  -0.033  -0.783  0.00  0.00    -0.094 A 
ATOM      9  C9  DEN d   1       0.343  -1.338  -1.057  0.00  0.00    -0.072 A 
ENDROOT
TORSDOF 0
ENDMDL
