MODEL 1
REMARK minimizedAffinity -4.89921618
REMARK minimizedRMSD -1
REMARK  0 active torsions:
REMARK  status: ('A' for Active; 'I' for Inactive)
ROOT
ATOM      1  C1  DEN d   1       0.193   0.700  -0.475  0.00  0.00     0.130 A 
ATOM      2  C2  DEN d   1      -1.085   1.326  -0.146  0.00  0.00    -0.031 A 
ATOM      3  C3  DEN d   1      -1.924   0.319   0.535  0.00  0.00     0.027 A 
ATOM      4  C4  DEN d   1      -1.370  -2.133   1.113  0.00  0.00     0.027 A 
ATOM      5  C5  DEN d   1      -0.411  -3.118   1.024  0.00  0.00    -0.003 A 
ATOM      6  C6  DEN d   1       0.792  -2.912   0.403  0.00  0.00     0.001 A 
ATOM      7  C7  DEN d   1       1.087  -1.677  -0.113  0.00  0.00     0.017 A 
ATOM      8  C8  DEN d   1       0.123  -0.681  -0.032  0.00  0.00    -0.094 A 
ATOM      9  C9  DEN d   1      -1.083  -0.906   0.610  0.00  0.00    -0.072 A 
ENDROOT
TORSDOF 0
ENDMDL
