MODEL 1
REMARK minimizedAffinity -5.32596111
REMARK minimizedRMSD -1
REMARK  0 active torsions:
REMARK  status: ('A' for Active; 'I' for Inactive)
ROOT
ATOM      1  C1  DEN d   1      -0.821   0.084   1.444  0.00  0.00     0.130 A 
ATOM      2  C2  DEN d   1      -0.270   1.230   0.728  0.00  0.00    -0.031 A 
ATOM      3  C3  DEN d   1       0.461   0.724  -0.451  0.00  0.00     0.027 A 
ATOM      4  C4  DEN d   1       0.787  -1.712  -1.235  0.00  0.00     0.027 A 
ATOM      5  C5  DEN d   1       0.514  -3.030  -0.945  0.00  0.00    -0.003 A 
ATOM      6  C6  DEN d   1      -0.188  -3.402   0.171  0.00  0.00     0.001 A 
ATOM      7  C7  DEN d   1      -0.681  -2.442   1.014  0.00  0.00     0.017 A 
ATOM      8  C8  DEN d   1      -0.403  -1.111   0.733  0.00  0.00    -0.094 A 
ATOM      9  C9  DEN d   1       0.298  -0.754  -0.407  0.00  0.00    -0.072 A 
ENDROOT
TORSDOF 0
ENDMDL
