MODEL 1
REMARK minimizedAffinity -3.08908772
REMARK minimizedRMSD -1
REMARK  0 active torsions:
REMARK  status: ('A' for Active; 'I' for Inactive)
ROOT
ATOM      1  C1  DEN d   1      -1.284   0.292   1.086  0.00  0.00     0.130 A 
ATOM      2  C2  DEN d   1      -0.578   1.373   0.404  0.00  0.00    -0.031 A 
ATOM      3  C3  DEN d   1       0.451   0.768  -0.466  0.00  0.00     0.027 A 
ATOM      4  C4  DEN d   1       1.014  -1.723  -0.824  0.00  0.00     0.027 A 
ATOM      5  C5  DEN d   1       0.693  -3.011  -0.454  0.00  0.00    -0.003 A 
ATOM      6  C6  DEN d   1      -0.277  -3.284   0.473  0.00  0.00     0.001 A 
ATOM      7  C7  DEN d   1      -0.993  -2.257   1.029  0.00  0.00     0.017 A 
ATOM      8  C8  DEN d   1      -0.671  -0.956   0.666  0.00  0.00    -0.094 A 
ATOM      9  C9  DEN d   1       0.305  -0.701  -0.282  0.00  0.00    -0.072 A 
ENDROOT
TORSDOF 0
ENDMDL
