MODEL 1
REMARK minimizedAffinity -5.20085812
REMARK minimizedRMSD -1
REMARK  0 active torsions:
REMARK  status: ('A' for Active; 'I' for Inactive)
ROOT
ATOM      1  C1  DEN d   1      -0.139   1.963   0.683  0.00  0.00     0.130 A 
ATOM      2  C2  DEN d   1       0.134   2.494  -0.650  0.00  0.00    -0.031 A 
ATOM      3  C3  DEN d   1       0.245   1.354  -1.582  0.00  0.00     0.027 A 
ATOM      4  C4  DEN d   1       0.018  -1.169  -1.094  0.00  0.00     0.027 A 
ATOM      5  C5  DEN d   1      -0.200  -2.106  -0.108  0.00  0.00    -0.003 A 
ATOM      6  C6  DEN d   1      -0.378  -1.758   1.204  0.00  0.00     0.001 A 
ATOM      7  C7  DEN d   1      -0.386  -0.435   1.561  0.00  0.00     0.017 A 
ATOM      8  C8  DEN d   1      -0.159   0.515   0.574  0.00  0.00    -0.094 A 
ATOM      9  C9  DEN d   1       0.007   0.144  -0.749  0.00  0.00    -0.072 A 
ENDROOT
TORSDOF 0
ENDMDL
