MODEL 1
REMARK minimizedAffinity -6.57201385
REMARK minimizedRMSD -1
REMARK  0 active torsions:
REMARK  status: ('A' for Active; 'I' for Inactive)
ROOT
ATOM      1  C1  DEN d   1      -0.855  -2.301   1.395  0.00  0.00     0.130 A 
ATOM      2  C2  DEN d   1      -0.106  -3.463   0.925  0.00  0.00    -0.031 A 
ATOM      3  C3  DEN d   1       0.630  -3.070  -0.293  0.00  0.00     0.027 A 
ATOM      4  C4  DEN d   1       0.687  -0.785  -1.488  0.00  0.00     0.027 A 
ATOM      5  C5  DEN d   1       0.203   0.504  -1.468  0.00  0.00    -0.003 A 
ATOM      6  C6  DEN d   1      -0.687   0.936  -0.521  0.00  0.00     0.001 A 
ATOM      7  C7  DEN d   1      -1.086   0.083   0.474  0.00  0.00     0.017 A 
ATOM      8  C8  DEN d   1      -0.608  -1.221   0.457  0.00  0.00    -0.094 A 
ATOM      9  C9  DEN d   1       0.301  -1.635  -0.503  0.00  0.00    -0.072 A 
ENDROOT
TORSDOF 0
ENDMDL
