MODEL 1
REMARK minimizedAffinity -4.7746315
REMARK minimizedRMSD -1
REMARK  0 active torsions:
REMARK  status: ('A' for Active; 'I' for Inactive)
ROOT
ATOM      1  C1  DEN d   1       0.498  -2.350  -0.207  0.00  0.00     0.130 A 
ATOM      2  C2  DEN d   1      -0.361  -3.115   0.692  0.00  0.00    -0.031 A 
ATOM      3  C3  DEN d   1      -1.317  -2.179   1.318  0.00  0.00     0.027 A 
ATOM      4  C4  DEN d   1      -1.551   0.367   0.979  0.00  0.00     0.027 A 
ATOM      5  C5  DEN d   1      -1.038   1.464   0.323  0.00  0.00    -0.003 A 
ATOM      6  C6  DEN d   1       0.035   1.373  -0.522  0.00  0.00     0.001 A 
ATOM      7  C7  DEN d   1       0.603   0.151  -0.769  0.00  0.00     0.017 A 
ATOM      8  C8  DEN d   1       0.096  -0.958  -0.106  0.00  0.00    -0.094 A 
ATOM      9  C9  DEN d   1      -0.998  -0.848   0.736  0.00  0.00    -0.072 A 
ENDROOT
TORSDOF 0
ENDMDL
