MODEL 1
REMARK minimizedAffinity -7.08139133
REMARK minimizedRMSD -1
REMARK  0 active torsions:
REMARK  status: ('A' for Active; 'I' for Inactive)
ROOT
ATOM      1  C1  DEN d   1      -0.015   0.541  -0.960  0.00  0.00     0.130 A 
ATOM      2  C2  DEN d   1      -0.502   0.894   0.370  0.00  0.00    -0.031 A 
ATOM      3  C3  DEN d   1      -0.747  -0.358   1.114  0.00  0.00     0.027 A 
ATOM      4  C4  DEN d   1      -0.417  -2.796   0.340  0.00  0.00     0.027 A 
ATOM      5  C5  DEN d   1      -0.033  -3.597  -0.713  0.00  0.00    -0.003 A 
ATOM      6  C6  DEN d   1       0.347  -3.081  -1.923  0.00  0.00     0.001 A 
ATOM      7  C7  DEN d   1       0.396  -1.723  -2.096  0.00  0.00     0.017 A 
ATOM      8  C8  DEN d   1       0.004  -0.908  -1.042  0.00  0.00    -0.094 A 
ATOM      9  C9  DEN d   1      -0.366  -1.449   0.178  0.00  0.00    -0.072 A 
ENDROOT
TORSDOF 0
ENDMDL
