MODEL 1
REMARK minimizedAffinity -6.17053461
REMARK minimizedRMSD -1
REMARK  0 active torsions:
REMARK  status: ('A' for Active; 'I' for Inactive)
ROOT
ATOM      1  C1  DEN d   1       0.814  -2.588  -1.254  0.00  0.00     0.130 A 
ATOM      2  C2  DEN d   1       0.464  -3.559  -0.220  0.00  0.00    -0.031 A 
ATOM      3  C3  DEN d   1      -0.229  -2.839   0.867  0.00  0.00     0.027 A 
ATOM      4  C4  DEN d   1      -0.795  -0.329   1.047  0.00  0.00     0.027 A 
ATOM      5  C5  DEN d   1      -0.689   0.894   0.421  0.00  0.00    -0.003 A 
ATOM      6  C6  DEN d   1      -0.050   1.046  -0.781  0.00  0.00     0.001 A 
ATOM      7  C7  DEN d   1       0.469  -0.051  -1.417  0.00  0.00     0.017 A 
ATOM      8  C8  DEN d   1       0.372  -1.286  -0.789  0.00  0.00    -0.094 A 
ATOM      9  C9  DEN d   1      -0.289  -1.421   0.420  0.00  0.00    -0.072 A 
ENDROOT
TORSDOF 0
ENDMDL
