MODEL 1
REMARK minimizedAffinity -2.22731352
REMARK minimizedRMSD -1
REMARK  0 active torsions:
REMARK  status: ('A' for Active; 'I' for Inactive)
ROOT
ATOM      1  C1  DEN d   1      -1.333  -1.816  -0.121  0.00  0.00     0.130 A 
ATOM      2  C2  DEN d   1      -1.394  -1.957   1.331  0.00  0.00    -0.031 A 
ATOM      3  C3  DEN d   1      -0.801  -0.746   1.933  0.00  0.00     0.027 A 
ATOM      4  C4  DEN d   1       0.195   1.326   0.762  0.00  0.00     0.027 A 
ATOM      5  C5  DEN d   1       0.479   1.897  -0.458  0.00  0.00    -0.003 A 
ATOM      6  C6  DEN d   1       0.212   1.262  -1.642  0.00  0.00     0.001 A 
ATOM      7  C7  DEN d   1      -0.398   0.035  -1.631  0.00  0.00     0.017 A 
ATOM      8  C8  DEN d   1      -0.680  -0.551  -0.404  0.00  0.00    -0.094 A 
ATOM      9  C9  DEN d   1      -0.413   0.113   0.781  0.00  0.00    -0.072 A 
ENDROOT
TORSDOF 0
ENDMDL
