MODEL 1
REMARK minimizedAffinity -4.32093573
REMARK minimizedRMSD -1
REMARK  0 active torsions:
REMARK  status: ('A' for Active; 'I' for Inactive)
ROOT
ATOM      1  C1  DEN d   1       1.246   0.271  -1.286  0.00  0.00     0.130 A 
ATOM      2  C2  DEN d   1       0.912   1.584  -0.740  0.00  0.00    -0.031 A 
ATOM      3  C3  DEN d   1      -0.070   1.391   0.345  0.00  0.00     0.027 A 
ATOM      4  C4  DEN d   1      -1.099  -0.802   1.232  0.00  0.00     0.027 A 
ATOM      5  C5  DEN d   1      -1.131  -2.170   1.076  0.00  0.00    -0.003 A 
ATOM      6  C6  DEN d   1      -0.405  -2.812   0.108  0.00  0.00     0.001 A 
ATOM      7  C7  DEN d   1       0.419  -2.089  -0.714  0.00  0.00     0.017 A 
ATOM      8  C8  DEN d   1       0.452  -0.709  -0.567  0.00  0.00    -0.094 A 
ATOM      9  C9  DEN d   1      -0.280  -0.080   0.425  0.00  0.00    -0.072 A 
ENDROOT
TORSDOF 0
ENDMDL
