MODEL 1
REMARK minimizedAffinity -2.82183313
REMARK minimizedRMSD -1
REMARK  0 active torsions:
REMARK  status: ('A' for Active; 'I' for Inactive)
ROOT
ATOM      1  C2' OXE d   1      -0.713   1.306   2.571  0.00  0.00     0.078 C 
ATOM      2  C1' OXE d   1       1.855   0.212   2.271  0.00  0.00     0.078 C 
ATOM      3  C1  OXE d   1       0.856  -0.023   1.165  0.00  0.00    -0.078 A 
ATOM      4  C2  OXE d   1      -0.412   0.476   1.342  0.00  0.00    -0.078 A 
ATOM      5  C3  OXE d   1      -1.356   0.335   0.329  0.00  0.00     0.003 A 
ATOM      6  C4  OXE d   1      -1.072  -0.443  -0.801  0.00  0.00    -0.002 A 
ATOM      7  C5  OXE d   1       0.201  -0.994  -0.982  0.00  0.00    -0.002 A 
ATOM      8  C6  OXE d   1       1.187  -0.758  -0.030  0.00  0.00     0.003 A 
ENDROOT
TORSDOF 0
ENDMDL
