MODEL 1
REMARK minimizedAffinity -0.796920717
REMARK minimizedRMSD -1
REMARK  0 active torsions:
REMARK  status: ('A' for Active; 'I' for Inactive)
ROOT
ATOM      1  C2' OXE d   1       2.121   0.392   2.502  0.00  0.00     0.078 C 
ATOM      2  C1' OXE d   1      -0.462   1.314   3.099  0.00  0.00     0.078 C 
ATOM      3  C1  OXE d   1      -0.277   0.509   1.838  0.00  0.00    -0.078 A 
ATOM      4  C2  OXE d   1       0.999   0.102   1.529  0.00  0.00    -0.078 A 
ATOM      5  C3  OXE d   1       1.217  -0.690   0.405  0.00  0.00     0.003 A 
ATOM      6  C4  OXE d   1       0.175  -0.946  -0.495  0.00  0.00    -0.002 A 
ATOM      7  C5  OXE d   1      -1.124  -0.507  -0.220  0.00  0.00    -0.002 A 
ATOM      8  C6  OXE d   1      -1.375   0.184   0.961  0.00  0.00     0.003 A 
ENDROOT
TORSDOF 0
ENDMDL
