MODEL 1
REMARK minimizedAffinity -4.14708424
REMARK minimizedRMSD -1
REMARK  0 active torsions:
REMARK  status: ('A' for Active; 'I' for Inactive)
ROOT
ATOM      1  C2' OXE d   1       0.027  -0.400  -1.800  0.00  0.00     0.078 C 
ATOM      2  C1' OXE d   1      -2.482  -1.132  -0.777  0.00  0.00     0.078 C 
ATOM      3  C1  OXE d   1      -1.581  -0.298   0.099  0.00  0.00    -0.078 A 
ATOM      4  C2  OXE d   1      -0.337   0.016  -0.391  0.00  0.00    -0.078 A 
ATOM      5  C3  OXE d   1       0.512   0.829   0.354  0.00  0.00     0.003 A 
ATOM      6  C4  OXE d   1       0.172   1.202   1.660  0.00  0.00    -0.002 A 
ATOM      7  C5  OXE d   1      -1.075   0.859   2.194  0.00  0.00    -0.002 A 
ATOM      8  C6  OXE d   1      -1.978   0.147   1.413  0.00  0.00     0.003 A 
ENDROOT
TORSDOF 0
ENDMDL
