MODEL 1
REMARK minimizedAffinity -4.52354717
REMARK minimizedRMSD -1
REMARK  0 active torsions:
REMARK  status: ('A' for Active; 'I' for Inactive)
ROOT
ATOM      1  C2' OXE d   1      -2.348   0.501  -0.385  0.00  0.00     0.078 C 
ATOM      2  C1' OXE d   1      -1.166   1.358   2.012  0.00  0.00     0.078 C 
ATOM      3  C1  OXE d   1      -0.338   0.502   1.086  0.00  0.00    -0.078 A 
ATOM      4  C2  OXE d   1      -0.940   0.049  -0.063  0.00  0.00    -0.078 A 
ATOM      5  C3  OXE d   1      -0.204  -0.698  -0.978  0.00  0.00     0.003 A 
ATOM      6  C4  OXE d   1       1.094  -1.120  -0.668  0.00  0.00    -0.002 A 
ATOM      7  C5  OXE d   1       1.712  -0.702   0.516  0.00  0.00    -0.002 A 
ATOM      8  C6  OXE d   1       1.026   0.142   1.382  0.00  0.00     0.003 A 
ENDROOT
TORSDOF 0
ENDMDL
