MODEL 1
REMARK minimizedAffinity -2.43727493
REMARK minimizedRMSD -1
REMARK  0 active torsions:
REMARK  status: ('A' for Active; 'I' for Inactive)
ROOT
ATOM      1  C2' OXE d   1       0.196   1.593   2.011  0.00  0.00     0.078 C 
ATOM      2  C1' OXE d   1       2.500  -0.002   2.183  0.00  0.00     0.078 C 
ATOM      3  C1  OXE d   1       1.681  -0.084   0.919  0.00  0.00    -0.078 A 
ATOM      4  C2  OXE d   1       0.530   0.665   0.863  0.00  0.00    -0.078 A 
ATOM      5  C3  OXE d   1      -0.233   0.669  -0.301  0.00  0.00     0.003 A 
ATOM      6  C4  OXE d   1       0.076  -0.200  -1.355  0.00  0.00    -0.002 A 
ATOM      7  C5  OXE d   1       1.222  -1.001  -1.301  0.00  0.00    -0.002 A 
ATOM      8  C6  OXE d   1       2.056  -0.923  -0.191  0.00  0.00     0.003 A 
ENDROOT
TORSDOF 0
ENDMDL
