MODEL 1
REMARK minimizedAffinity -3.69793439
REMARK minimizedRMSD -1
REMARK  0 active torsions:
REMARK  status: ('A' for Active; 'I' for Inactive)
ROOT
ATOM      1  C2' OXE d   1       0.361   0.501  -1.525  0.00  0.00     0.078 C 
ATOM      2  C1' OXE d   1      -1.646   2.448  -1.274  0.00  0.00     0.078 C 
ATOM      3  C1  OXE d   1      -1.155   1.778  -0.015  0.00  0.00    -0.078 A 
ATOM      4  C2  OXE d   1      -0.206   0.793  -0.152  0.00  0.00    -0.078 A 
ATOM      5  C3  OXE d   1       0.321   0.182   0.982  0.00  0.00     0.003 A 
ATOM      6  C4  OXE d   1      -0.215   0.451   2.247  0.00  0.00    -0.002 A 
ATOM      7  C5  OXE d   1      -1.210   1.422   2.404  0.00  0.00    -0.002 A 
ATOM      8  C6  OXE d   1      -1.660   2.123   1.291  0.00  0.00     0.003 A 
ENDROOT
TORSDOF 0
ENDMDL
