MODEL 1
REMARK minimizedAffinity -2.44208455
REMARK minimizedRMSD -1
REMARK  0 active torsions:
REMARK  status: ('A' for Active; 'I' for Inactive)
ROOT
ATOM      1  C2' OXE d   1       0.752  -0.261  -1.411  0.00  0.00     0.078 C 
ATOM      2  C1' OXE d   1       1.864  -0.861   1.096  0.00  0.00     0.078 C 
ATOM      3  C1  OXE d   1       0.570  -0.085   1.067  0.00  0.00    -0.078 A 
ATOM      4  C2  OXE d   1       0.058   0.244  -0.165  0.00  0.00    -0.078 A 
ATOM      5  C3  OXE d   1      -1.161   0.911  -0.249  0.00  0.00     0.003 A 
ATOM      6  C4  OXE d   1      -1.791   1.383   0.909  0.00  0.00    -0.002 A 
ATOM      7  C5  OXE d   1      -1.266   1.093   2.172  0.00  0.00    -0.002 A 
ATOM      8  C6  OXE d   1      -0.111   0.325   2.270  0.00  0.00     0.003 A 
ENDROOT
TORSDOF 0
ENDMDL
