MODEL 1
REMARK minimizedAffinity -4.19274426
REMARK minimizedRMSD -1
REMARK  0 active torsions:
REMARK  status: ('A' for Active; 'I' for Inactive)
ROOT
ATOM      1  C4' PXY d   1      -1.983   0.180  -0.764  0.00  0.00     0.077 C 
ATOM      2  C1' PXY d   1       3.423  -1.159   0.785  0.00  0.00     0.077 C 
ATOM      3  C1  PXY d   1       2.006  -0.798   0.387  0.00  0.00    -0.082 A 
ATOM      4  C2  PXY d   1       1.197  -1.736  -0.078  0.00  0.00     0.003 A 
ATOM      5  C3  PXY d   1      -0.077  -1.420  -0.473  0.00  0.00     0.003 A 
ATOM      6  C4  PXY d   1      -0.547  -0.141  -0.341  0.00  0.00    -0.082 A 
ATOM      7  C5  PXY d   1       0.269   0.820   0.143  0.00  0.00     0.003 A 
ATOM      8  C6  PXY d   1       1.572   0.487   0.499  0.00  0.00     0.003 A 
ENDROOT
TORSDOF 0
ENDMDL
