MODEL 1
REMARK minimizedAffinity -1.94941986
REMARK minimizedRMSD -1
REMARK  0 active torsions:
REMARK  status: ('A' for Active; 'I' for Inactive)
ROOT
ATOM      1  C4' PXY d   1      -2.301   0.803   0.568  0.00  0.00     0.077 C 
ATOM      2  C1' PXY d   1       2.769  -1.789  -0.428  0.00  0.00     0.077 C 
ATOM      3  C1  PXY d   1       1.443  -1.107  -0.154  0.00  0.00    -0.082 A 
ATOM      4  C2  PXY d   1       0.389  -1.405  -0.897  0.00  0.00     0.003 A 
ATOM      5  C3  PXY d   1      -0.810  -0.774  -0.684  0.00  0.00     0.003 A 
ATOM      6  C4  PXY d   1      -0.945   0.132   0.334  0.00  0.00    -0.082 A 
ATOM      7  C5  PXY d   1       0.123   0.434   1.102  0.00  0.00     0.003 A 
ATOM      8  C6  PXY d   1       1.341  -0.188   0.844  0.00  0.00     0.003 A 
ENDROOT
TORSDOF 0
ENDMDL
