MODEL 1
REMARK minimizedAffinity -2.15591478
REMARK minimizedRMSD -1
REMARK  0 active torsions:
REMARK  status: ('A' for Active; 'I' for Inactive)
ROOT
ATOM      1  C4' PXY d   1       3.790  -0.472   0.331  0.00  0.00     0.077 C 
ATOM      2  C1' PXY d   1      -1.806   0.593  -0.648  0.00  0.00     0.077 C 
ATOM      3  C1  PXY d   1      -0.336   0.327  -0.393  0.00  0.00    -0.082 A 
ATOM      4  C2  PXY d   1       0.161  -0.877  -0.627  0.00  0.00     0.003 A 
ATOM      5  C3  PXY d   1       1.481  -1.144  -0.371  0.00  0.00     0.003 A 
ATOM      6  C4  PXY d   1       2.314  -0.155   0.079  0.00  0.00    -0.082 A 
ATOM      7  C5  PXY d   1       1.817   1.079   0.309  0.00  0.00     0.003 A 
ATOM      8  C6  PXY d   1       0.465   1.319   0.083  0.00  0.00     0.003 A 
ENDROOT
TORSDOF 0
ENDMDL
