MODEL 1
REMARK minimizedAffinity -4.33478451
REMARK minimizedRMSD -1
REMARK  0 active torsions:
REMARK  status: ('A' for Active; 'I' for Inactive)
ROOT
ATOM      1  C4' PXY d   1      -0.541  -2.642  -1.508  0.00  0.00     0.077 C 
ATOM      2  C1' PXY d   1       2.120   1.801   1.059  0.00  0.00     0.077 C 
ATOM      3  C1  PXY d   1       1.433   0.631   0.383  0.00  0.00    -0.082 A 
ATOM      4  C2  PXY d   1       0.206   0.776  -0.089  0.00  0.00     0.003 A 
ATOM      5  C3  PXY d   1      -0.442  -0.282  -0.675  0.00  0.00     0.003 A 
ATOM      6  C4  PXY d   1       0.194  -1.485  -0.827  0.00  0.00    -0.082 A 
ATOM      7  C5  PXY d   1       1.450  -1.638  -0.358  0.00  0.00     0.003 A 
ATOM      8  C6  PXY d   1       2.075  -0.564   0.270  0.00  0.00     0.003 A 
ENDROOT
TORSDOF 0
ENDMDL
