MODEL 1
REMARK minimizedAffinity -3.7389102
REMARK minimizedRMSD -1
REMARK  0 active torsions:
REMARK  status: ('A' for Active; 'I' for Inactive)
ROOT
ATOM      1  C4' PXY d   1      -1.583   0.394  -0.351  0.00  0.00     0.077 C 
ATOM      2  C1' PXY d   1       3.621  -1.596   1.190  0.00  0.00     0.077 C 
ATOM      3  C1  PXY d   1       2.254  -1.086   0.780  0.00  0.00    -0.082 A 
ATOM      4  C2  PXY d   1       2.057   0.215   0.637  0.00  0.00     0.003 A 
ATOM      5  C3  PXY d   1       0.818   0.696   0.298  0.00  0.00     0.003 A 
ATOM      6  C4  PXY d   1      -0.216  -0.167   0.052  0.00  0.00    -0.082 A 
ATOM      7  C5  PXY d   1      -0.021  -1.496   0.185  0.00  0.00     0.003 A 
ATOM      8  C6  PXY d   1       1.233  -1.961   0.570  0.00  0.00     0.003 A 
ENDROOT
TORSDOF 0
ENDMDL
