MODEL 1
REMARK minimizedAffinity -3.44577813
REMARK minimizedRMSD -1
REMARK  0 active torsions:
REMARK  status: ('A' for Active; 'I' for Inactive)
ROOT
ATOM      1  C4' PXY d   1      -2.140   1.016  -0.319  0.00  0.00     0.077 C 
ATOM      2  C1' PXY d   1       2.852  -1.853   0.201  0.00  0.00     0.077 C 
ATOM      3  C1  PXY d   1       1.548  -1.091   0.073  0.00  0.00    -0.082 A 
ATOM      4  C2  PXY d   1       0.435  -1.744  -0.223  0.00  0.00     0.003 A 
ATOM      5  C3  PXY d   1      -0.747  -1.066  -0.375  0.00  0.00     0.003 A 
ATOM      6  C4  PXY d   1      -0.802   0.286  -0.170  0.00  0.00    -0.082 A 
ATOM      7  C5  PXY d   1       0.327   0.958   0.142  0.00  0.00     0.003 A 
ATOM      8  C6  PXY d   1       1.525   0.257   0.251  0.00  0.00     0.003 A 
ENDROOT
TORSDOF 0
ENDMDL
