MODEL 1
REMARK minimizedAffinity -1.46480834
REMARK minimizedRMSD -1
REMARK  0 active torsions:
REMARK  status: ('A' for Active; 'I' for Inactive)
ROOT
ATOM      1  C4' PXY d   1       3.042  -1.263   1.203  0.00  0.00     0.077 C 
ATOM      2  C1' PXY d   1      -1.683   1.039  -1.202  0.00  0.00     0.077 C 
ATOM      3  C1  PXY d   1      -0.439   0.448  -0.568  0.00  0.00    -0.082 A 
ATOM      4  C2  PXY d   1      -0.031  -0.757  -0.931  0.00  0.00     0.003 A 
ATOM      5  C3  PXY d   1       1.074  -1.321  -0.345  0.00  0.00     0.003 A 
ATOM      6  C4  PXY d   1       1.798  -0.622   0.583  0.00  0.00    -0.082 A 
ATOM      7  C5  PXY d   1       1.393   0.612   0.951  0.00  0.00     0.003 A 
ATOM      8  C6  PXY d   1       0.246   1.150   0.374  0.00  0.00     0.003 A 
ENDROOT
TORSDOF 0
ENDMDL
