MODEL 1
REMARK minimizedAffinity -3.04151726
REMARK minimizedRMSD -1
REMARK  0 active torsions:
REMARK  status: ('A' for Active; 'I' for Inactive)
ROOT
ATOM      1  C4' PXY d   1       3.906   1.771   0.919  0.00  0.00     0.077 C 
ATOM      2  C1' PXY d   1      -0.197  -1.968  -0.693  0.00  0.00     0.077 C 
ATOM      3  C1  PXY d   1       0.886  -0.997  -0.267  0.00  0.00    -0.082 A 
ATOM      4  C2  PXY d   1       0.563   0.245   0.054  0.00  0.00     0.003 A 
ATOM      5  C3  PXY d   1       1.534   1.145   0.411  0.00  0.00     0.003 A 
ATOM      6  C4  PXY d   1       2.844   0.754   0.492  0.00  0.00    -0.082 A 
ATOM      7  C5  PXY d   1       3.181  -0.514   0.177  0.00  0.00     0.003 A 
ATOM      8  C6  PXY d   1       2.185  -1.401  -0.223  0.00  0.00     0.003 A 
ENDROOT
TORSDOF 0
ENDMDL
