MODEL 1
REMARK minimizedAffinity -4.44278479
REMARK minimizedRMSD -1
REMARK  0 active torsions:
REMARK  status: ('A' for Active; 'I' for Inactive)
ROOT
ATOM      1  C4' PXY d   1      -1.443   1.092  -0.330  0.00  0.00     0.077 C 
ATOM      2  C1' PXY d   1       3.644  -1.546   0.434  0.00  0.00     0.077 C 
ATOM      3  C1  PXY d   1       2.313  -0.845   0.242  0.00  0.00    -0.082 A 
ATOM      4  C2  PXY d   1       1.278  -1.523  -0.226  0.00  0.00     0.003 A 
ATOM      5  C3  PXY d   1       0.076  -0.898  -0.436  0.00  0.00     0.003 A 
ATOM      6  C4  PXY d   1      -0.083   0.423  -0.112  0.00  0.00    -0.082 A 
ATOM      7  C5  PXY d   1       0.965   1.119   0.377  0.00  0.00     0.003 A 
ATOM      8  C6  PXY d   1       2.188   0.476   0.543  0.00  0.00     0.003 A 
ENDROOT
TORSDOF 0
ENDMDL
