MODEL 1
REMARK minimizedAffinity -3.13057399
REMARK minimizedRMSD -1
REMARK  0 active torsions:
REMARK  status: ('A' for Active; 'I' for Inactive)
ROOT
ATOM      1  C4' PXY d   1      -0.604   2.417  -1.318  0.00  0.00     0.077 C 
ATOM      2  C1' PXY d   1       3.858  -0.603   0.776  0.00  0.00     0.077 C 
ATOM      3  C1  PXY d   1       2.684   0.179   0.220  0.00  0.00    -0.082 A 
ATOM      4  C2  PXY d   1       2.744   1.499   0.167  0.00  0.00     0.003 A 
ATOM      5  C3  PXY d   1       1.678   2.223  -0.303  0.00  0.00     0.003 A 
ATOM      6  C4  PXY d   1       0.561   1.587  -0.773  0.00  0.00    -0.082 A 
ATOM      7  C5  PXY d   1       0.497   0.239  -0.732  0.00  0.00     0.003 A 
ATOM      8  C6  PXY d   1       1.572  -0.476  -0.213  0.00  0.00     0.003 A 
ENDROOT
TORSDOF 0
ENDMDL
