MODEL 1
REMARK minimizedAffinity -3.95855856
REMARK minimizedRMSD -1
REMARK  0 active torsions:
REMARK  status: ('A' for Active; 'I' for Inactive)
ROOT
ATOM      1  C4' PXY d   1       0.334  -2.914  -0.671  0.00  0.00     0.077 C 
ATOM      2  C1' PXY d   1       1.710   2.449   0.991  0.00  0.00     0.077 C 
ATOM      3  C1  PXY d   1       1.362   1.039   0.555  0.00  0.00    -0.082 A 
ATOM      4  C2  PXY d   1       0.226   0.814  -0.084  0.00  0.00     0.003 A 
ATOM      5  C3  PXY d   1      -0.120  -0.459  -0.457  0.00  0.00     0.003 A 
ATOM      6  C4  PXY d   1       0.731  -1.505  -0.220  0.00  0.00    -0.082 A 
ATOM      7  C5  PXY d   1       1.898  -1.282   0.422  0.00  0.00     0.003 A 
ATOM      8  C6  PXY d   1       2.211   0.012   0.829  0.00  0.00     0.003 A 
ENDROOT
TORSDOF 0
ENDMDL
