MODEL 1
REMARK minimizedAffinity -5.11554384
REMARK minimizedRMSD -1
REMARK  2 active torsions:
REMARK  status: ('A' for Active; 'I' for Inactive)
REMARK    1  A    between atoms: C2'_3  and  C1'_4 
REMARK    2  A    between atoms: C1'_4  and  C1_5 
ROOT
ATOM      1  C1  I4B d   1      -0.260   0.960   0.414  0.00  0.00    -0.075 A 
ATOM      2  C2  I4B d   1      -0.090   1.148   1.763  0.00  0.00     0.003 A 
ATOM      3  C3  I4B d   1       0.842   2.103   2.237  0.00  0.00     0.002 A 
ATOM      4  C4  I4B d   1       1.614   2.806   1.335  0.00  0.00    -0.004 A 
ATOM      5  C5  I4B d   1       1.424   2.630  -0.033  0.00  0.00     0.002 A 
ATOM      6  C6  I4B d   1       0.472   1.711  -0.497  0.00  0.00     0.003 A 
ENDROOT
BRANCH   1   7
ATOM      7  C1' I4B d   1      -1.230  -0.079  -0.052  0.00  0.00     0.060 C 
BRANCH   7   8
ATOM      8  C2' I4B d   1      -0.624  -0.777  -1.253  0.00  0.00    -0.013 C 
ATOM      9  C4' I4B d   1       0.646  -1.497  -0.883  0.00  0.00     0.013 C 
ATOM     10  C3' I4B d   1      -1.646  -1.729  -1.800  0.00  0.00     0.013 C 
ENDBRANCH   7   8
ENDBRANCH   1   7
TORSDOF 2
ENDMDL
