MODEL 1
REMARK minimizedAffinity -3.13493228
REMARK minimizedRMSD -1
REMARK  2 active torsions:
REMARK  status: ('A' for Active; 'I' for Inactive)
REMARK    1  A    between atoms: C2'_3  and  C1'_4 
REMARK    2  A    between atoms: C1'_4  and  C1_5 
ROOT
ATOM      1  C1  I4B d   1      -0.383  -0.756  -0.263  0.00  0.00    -0.075 A 
ATOM      2  C2  I4B d   1       0.950  -0.585  -0.544  0.00  0.00     0.003 A 
ATOM      3  C3  I4B d   1       1.730   0.313   0.223  0.00  0.00     0.002 A 
ATOM      4  C4  I4B d   1       1.131   1.052   1.222  0.00  0.00    -0.004 A 
ATOM      5  C5  I4B d   1      -0.215   0.861   1.520  0.00  0.00     0.002 A 
ATOM      6  C6  I4B d   1      -0.974  -0.058   0.782  0.00  0.00     0.003 A 
ENDROOT
BRANCH   1   7
ATOM      7  C1' I4B d   1      -1.185  -1.689  -1.115  0.00  0.00     0.060 C 
BRANCH   7   8
ATOM      8  C2' I4B d   1      -1.952  -0.857  -2.123  0.00  0.00    -0.013 C 
ATOM      9  C4' I4B d   1      -1.435  -1.080  -3.519  0.00  0.00     0.013 C 
ATOM     10  C3' I4B d   1      -3.403  -1.223  -2.017  0.00  0.00     0.013 C 
ENDBRANCH   7   8
ENDBRANCH   1   7
TORSDOF 2
ENDMDL
