MODEL 1
REMARK minimizedAffinity -5.33084774
REMARK minimizedRMSD -1
REMARK  2 active torsions:
REMARK  status: ('A' for Active; 'I' for Inactive)
REMARK    1  A    between atoms: C2'_3  and  C1'_4 
REMARK    2  A    between atoms: C1'_4  and  C1_5 
ROOT
ATOM      1  C1  I4B d   1       0.200  -0.094  -0.249  0.00  0.00    -0.075 A 
ATOM      2  C2  I4B d   1      -0.293  -0.072   1.032  0.00  0.00     0.003 A 
ATOM      3  C3  I4B d   1      -0.047   1.042   1.872  0.00  0.00     0.002 A 
ATOM      4  C4  I4B d   1       0.734   2.082   1.410  0.00  0.00    -0.004 A 
ATOM      5  C5  I4B d   1       1.214   2.068   0.103  0.00  0.00     0.002 A 
ATOM      6  C6  I4B d   1       0.935   0.979  -0.736  0.00  0.00     0.003 A 
ENDROOT
BRANCH   1   7
ATOM      7  C1' I4B d   1      -0.051  -1.300  -1.097  0.00  0.00     0.060 C 
BRANCH   7   8
ATOM      8  C2' I4B d   1      -1.254  -1.013  -1.973  0.00  0.00    -0.013 C 
ATOM      9  C4' I4B d   1      -0.871  -0.973  -3.429  0.00  0.00     0.013 C 
ATOM     10  C3' I4B d   1      -2.280  -2.074  -1.712  0.00  0.00     0.013 C 
ENDBRANCH   7   8
ENDBRANCH   1   7
TORSDOF 2
ENDMDL
