MODEL 1
REMARK minimizedAffinity -3.05263042
REMARK minimizedRMSD -1
REMARK  2 active torsions:
REMARK  status: ('A' for Active; 'I' for Inactive)
REMARK    1  A    between atoms: C2'_3  and  C1'_4 
REMARK    2  A    between atoms: C1'_4  and  C1_5 
ROOT
ATOM      1  C1  I4B d   1      -0.254   0.205  -0.150  0.00  0.00    -0.075 A 
ATOM      2  C2  I4B d   1       0.591   1.182  -0.615  0.00  0.00     0.003 A 
ATOM      3  C3  I4B d   1       0.871   2.320   0.180  0.00  0.00     0.002 A 
ATOM      4  C4  I4B d   1       0.249   2.464   1.404  0.00  0.00    -0.004 A 
ATOM      5  C5  I4B d   1      -0.589   1.461   1.883  0.00  0.00     0.002 A 
ATOM      6  C6  I4B d   1      -0.833   0.319   1.107  0.00  0.00     0.003 A 
ENDROOT
BRANCH   1   7
ATOM      7  C1' I4B d   1      -0.553  -0.967  -1.030  0.00  0.00     0.060 C 
BRANCH   7   8
ATOM      8  C2' I4B d   1      -1.739  -0.606  -1.901  0.00  0.00    -0.013 C 
ATOM      9  C4' I4B d   1      -1.316  -0.366  -3.326  0.00  0.00     0.013 C 
ATOM     10  C3' I4B d   1      -2.735  -1.724  -1.813  0.00  0.00     0.013 C 
ENDBRANCH   7   8
ENDBRANCH   1   7
TORSDOF 2
ENDMDL
