MODEL 1
REMARK minimizedAffinity -3.6390934
REMARK minimizedRMSD -1
REMARK  2 active torsions:
REMARK  status: ('A' for Active; 'I' for Inactive)
REMARK    1  A    between atoms: C2'_3  and  C1'_4 
REMARK    2  A    between atoms: C1'_4  and  C1_5 
ROOT
ATOM      1  C1  I4B d   1      -0.466  -0.699  -0.287  0.00  0.00    -0.075 A 
ATOM      2  C2  I4B d   1       0.769  -0.170  -0.569  0.00  0.00     0.003 A 
ATOM      3  C3  I4B d   1       1.293   0.879   0.224  0.00  0.00     0.002 A 
ATOM      4  C4  I4B d   1       0.532   1.401   1.251  0.00  0.00    -0.004 A 
ATOM      5  C5  I4B d   1      -0.710   0.848   1.550  0.00  0.00     0.002 A 
ATOM      6  C6  I4B d   1      -1.208  -0.217   0.784  0.00  0.00     0.003 A 
ENDROOT
BRANCH   1   7
ATOM      7  C1' I4B d   1      -1.003  -1.784  -1.165  0.00  0.00     0.060 C 
BRANCH   7   8
ATOM      8  C2' I4B d   1      -1.826  -1.135  -2.259  0.00  0.00    -0.013 C 
ATOM      9  C4' I4B d   1      -1.279  -1.468  -3.623  0.00  0.00     0.013 C 
ATOM     10  C3' I4B d   1      -3.242  -1.605  -2.115  0.00  0.00     0.013 C 
ENDBRANCH   7   8
ENDBRANCH   1   7
TORSDOF 2
ENDMDL
