MODEL 1
REMARK minimizedAffinity -2.28864503
REMARK minimizedRMSD -1
REMARK  2 active torsions:
REMARK  status: ('A' for Active; 'I' for Inactive)
REMARK    1  A    between atoms: C2'_3  and  C1'_4 
REMARK    2  A    between atoms: C1'_4  and  C1_5 
ROOT
ATOM      1  C1  I4B d   1       0.116  -0.210  -0.125  0.00  0.00    -0.075 A 
ATOM      2  C2  I4B d   1      -1.097   0.354   0.183  0.00  0.00     0.003 A 
ATOM      3  C3  I4B d   1      -1.164   1.475   1.045  0.00  0.00     0.002 A 
ATOM      4  C4  I4B d   1      -0.006   1.965   1.614  0.00  0.00    -0.004 A 
ATOM      5  C5  I4B d   1       1.225   1.406   1.283  0.00  0.00     0.002 A 
ATOM      6  C6  I4B d   1       1.288   0.320   0.398  0.00  0.00     0.003 A 
ENDROOT
BRANCH   1   7
ATOM      7  C1' I4B d   1       0.147  -1.413  -1.013  0.00  0.00     0.060 C 
BRANCH   7   8
ATOM      8  C2' I4B d   1      -1.208  -1.536  -1.680  0.00  0.00    -0.013 C 
ATOM      9  C4' I4B d   1      -1.084  -1.486  -3.180  0.00  0.00     0.013 C 
ATOM     10  C3' I4B d   1      -1.830  -2.825  -1.230  0.00  0.00     0.013 C 
ENDBRANCH   7   8
ENDBRANCH   1   7
TORSDOF 2
ENDMDL
