MODEL 1
REMARK minimizedAffinity -2.72558379
REMARK minimizedRMSD -1
REMARK  2 active torsions:
REMARK  status: ('A' for Active; 'I' for Inactive)
REMARK    1  A    between atoms: C2'_3  and  C1'_4 
REMARK    2  A    between atoms: C1'_4  and  C1_5 
ROOT
ATOM      1  C1  I4B d   1      -0.607  -0.680  -0.413  0.00  0.00    -0.075 A 
ATOM      2  C2  I4B d   1      -1.433  -0.074   0.501  0.00  0.00     0.003 A 
ATOM      3  C3  I4B d   1      -0.913   0.882   1.406  0.00  0.00     0.002 A 
ATOM      4  C4  I4B d   1       0.437   1.164   1.396  0.00  0.00    -0.004 A 
ATOM      5  C5  I4B d   1       1.269   0.567   0.453  0.00  0.00     0.002 A 
ATOM      6  C6  I4B d   1       0.741  -0.352  -0.466  0.00  0.00     0.003 A 
ENDROOT
BRANCH   1   7
ATOM      7  C1' I4B d   1      -1.183  -1.710  -1.333  0.00  0.00     0.060 C 
BRANCH   7   8
ATOM      8  C2' I4B d   1      -1.464  -1.043  -2.664  0.00  0.00    -0.013 C 
ATOM      9  C4' I4B d   1      -0.811  -1.790  -3.797  0.00  0.00     0.013 C 
ATOM     10  C3' I4B d   1      -2.952  -0.979  -2.844  0.00  0.00     0.013 C 
ENDBRANCH   7   8
ENDBRANCH   1   7
TORSDOF 2
ENDMDL
