MODEL 1
REMARK minimizedAffinity -5.07377052
REMARK minimizedRMSD -1
REMARK  2 active torsions:
REMARK  status: ('A' for Active; 'I' for Inactive)
REMARK    1  A    between atoms: C2'_3  and  C1'_4 
REMARK    2  A    between atoms: C1'_4  and  C1_5 
ROOT
ATOM      1  C1  I4B d   1       1.053   0.149  -0.051  0.00  0.00    -0.075 A 
ATOM      2  C2  I4B d   1       0.419   1.189   0.581  0.00  0.00     0.003 A 
ATOM      3  C3  I4B d   1       1.127   2.377   0.886  0.00  0.00     0.002 A 
ATOM      4  C4  I4B d   1       2.472   2.462   0.587  0.00  0.00    -0.004 A 
ATOM      5  C5  I4B d   1       3.108   1.415  -0.074  0.00  0.00     0.002 A 
ATOM      6  C6  I4B d   1       2.391   0.256  -0.407  0.00  0.00     0.003 A 
ENDROOT
BRANCH   1   7
ATOM      7  C1' I4B d   1       0.283  -1.103  -0.328  0.00  0.00     0.060 C 
BRANCH   7   8
ATOM      8  C2' I4B d   1      -1.179  -0.731  -0.467  0.00  0.00    -0.013 C 
ATOM      9  C4' I4B d   1      -1.911  -1.715  -1.341  0.00  0.00     0.013 C 
ATOM     10  C3' I4B d   1      -1.777  -0.677   0.907  0.00  0.00     0.013 C 
ENDBRANCH   7   8
ENDBRANCH   1   7
TORSDOF 2
ENDMDL
