MODEL 1
REMARK minimizedAffinity -3.62055874
REMARK minimizedRMSD -1
REMARK  2 active torsions:
REMARK  status: ('A' for Active; 'I' for Inactive)
REMARK    1  A    between atoms: C2'_3  and  C1'_4 
REMARK    2  A    between atoms: C1'_4  and  C1_5 
ROOT
ATOM      1  C1  I4B d   1       0.039   0.661   0.419  0.00  0.00    -0.075 A 
ATOM      2  C2  I4B d   1       0.010   1.045   1.737  0.00  0.00     0.003 A 
ATOM      3  C3  I4B d   1       1.056   1.835   2.273  0.00  0.00     0.002 A 
ATOM      4  C4  I4B d   1       2.130   2.172   1.475  0.00  0.00    -0.004 A 
ATOM      5  C5  I4B d   1       2.147   1.800   0.133  0.00  0.00     0.002 A 
ATOM      6  C6  I4B d   1       1.090   1.051  -0.401  0.00  0.00     0.003 A 
ENDROOT
BRANCH   1   7
ATOM      7  C1' I4B d   1      -1.066  -0.200  -0.105  0.00  0.00     0.060 C 
BRANCH   7   8
ATOM      8  C2' I4B d   1      -0.564  -0.893  -1.355  0.00  0.00    -0.013 C 
ATOM      9  C4' I4B d   1       0.014  -2.246  -1.034  0.00  0.00     0.013 C 
ATOM     10  C3' I4B d   1      -1.712  -1.009  -2.313  0.00  0.00     0.013 C 
ENDBRANCH   7   8
ENDBRANCH   1   7
TORSDOF 2
ENDMDL
