MODEL 1
REMARK minimizedAffinity -2.25518417
REMARK minimizedRMSD -1
REMARK  2 active torsions:
REMARK  status: ('A' for Active; 'I' for Inactive)
REMARK    1  A    between atoms: C2'_3  and  C1'_4 
REMARK    2  A    between atoms: C1'_4  and  C1_5 
ROOT
ATOM      1  C1  I4B d   1      -0.190  -0.408  -0.183  0.00  0.00    -0.075 A 
ATOM      2  C2  I4B d   1      -1.069  -0.403   0.871  0.00  0.00     0.003 A 
ATOM      3  C3  I4B d   1      -1.056   0.662   1.804  0.00  0.00     0.002 A 
ATOM      4  C4  I4B d   1      -0.121   1.668   1.675  0.00  0.00    -0.004 A 
ATOM      5  C5  I4B d   1       0.754   1.673   0.592  0.00  0.00     0.002 A 
ATOM      6  C6  I4B d   1       0.712   0.635  -0.350  0.00  0.00     0.003 A 
ENDROOT
BRANCH   1   7
ATOM      7  C1' I4B d   1      -0.209  -1.565  -1.132  0.00  0.00     0.060 C 
BRANCH   7   8
ATOM      8  C2' I4B d   1      -1.262  -1.288  -2.185  0.00  0.00    -0.013 C 
ATOM      9  C4' I4B d   1      -0.781  -1.685  -3.555  0.00  0.00     0.013 C 
ATOM     10  C3' I4B d   1      -2.503  -2.041  -1.807  0.00  0.00     0.013 C 
ENDBRANCH   7   8
ENDBRANCH   1   7
TORSDOF 2
ENDMDL
