MODEL 1
REMARK minimizedAffinity -4.41529322
REMARK minimizedRMSD -1
REMARK  2 active torsions:
REMARK  status: ('A' for Active; 'I' for Inactive)
REMARK    1  A    between atoms: C2'_3  and  C1'_4 
REMARK    2  A    between atoms: C1'_4  and  C1_5 
ROOT
ATOM      1  C1  I4B d   1       0.912   0.122   0.398  0.00  0.00    -0.075 A 
ATOM      2  C2  I4B d   1       2.192   0.604   0.277  0.00  0.00     0.003 A 
ATOM      3  C3  I4B d   1       2.603   1.732   1.027  0.00  0.00     0.002 A 
ATOM      4  C4  I4B d   1       1.694   2.373   1.843  0.00  0.00    -0.004 A 
ATOM      5  C5  I4B d   1       0.404   1.870   1.983  0.00  0.00     0.002 A 
ATOM      6  C6  I4B d   1       0.014   0.730   1.266  0.00  0.00     0.003 A 
ENDROOT
BRANCH   1   7
ATOM      7  C1' I4B d   1       0.502  -1.051  -0.434  0.00  0.00     0.060 C 
BRANCH   7   8
ATOM      8  C2' I4B d   1      -0.924  -0.823  -0.892  0.00  0.00    -0.013 C 
ATOM      9  C4' I4B d   1      -1.080   0.530  -1.535  0.00  0.00     0.013 C 
ATOM     10  C3' I4B d   1      -1.286  -1.921  -1.846  0.00  0.00     0.013 C 
ENDBRANCH   7   8
ENDBRANCH   1   7
TORSDOF 2
ENDMDL
