MODEL 1
REMARK minimizedAffinity 1.21188104
REMARK minimizedRMSD -1
REMARK  2 active torsions:
REMARK  status: ('A' for Active; 'I' for Inactive)
REMARK    1  A    between atoms: C2'_3  and  C1'_4 
REMARK    2  A    between atoms: C1'_4  and  C1_5 
ROOT
ATOM      1  C1  I4B d   1      -0.363  -0.456   0.326  0.00  0.00    -0.075 A 
ATOM      2  C2  I4B d   1       0.834   0.216   0.327  0.00  0.00     0.003 A 
ATOM      3  C3  I4B d   1       1.038   1.306   1.207  0.00  0.00     0.002 A 
ATOM      4  C4  I4B d   1       0.008   1.719   2.028  0.00  0.00    -0.004 A 
ATOM      5  C5  I4B d   1      -1.196   1.022   2.042  0.00  0.00     0.002 A 
ATOM      6  C6  I4B d   1      -1.379  -0.081   1.195  0.00  0.00     0.003 A 
ENDROOT
BRANCH   1   7
ATOM      7  C1' I4B d   1      -0.556  -1.582  -0.640  0.00  0.00     0.060 C 
BRANCH   7   8
ATOM      8  C2' I4B d   1      -1.994  -1.548  -1.115  0.00  0.00    -0.013 C 
ATOM      9  C4' I4B d   1      -2.074  -1.272  -2.593  0.00  0.00     0.013 C 
ATOM     10  C3' I4B d   1      -2.625  -2.866  -0.776  0.00  0.00     0.013 C 
ENDBRANCH   7   8
ENDBRANCH   1   7
TORSDOF 2
ENDMDL
