MODEL 1
REMARK minimizedAffinity 2.58778596
REMARK minimizedRMSD -1
REMARK  2 active torsions:
REMARK  status: ('A' for Active; 'I' for Inactive)
REMARK    1  A    between atoms: C2'_3  and  C1'_4 
REMARK    2  A    between atoms: C1'_4  and  C1_5 
ROOT
ATOM      1  C1  I4B d   1       1.034   1.838  -0.864  0.00  0.00    -0.075 A 
ATOM      2  C2  I4B d   1       0.673   2.967  -0.172  0.00  0.00     0.003 A 
ATOM      3  C3  I4B d   1       0.138   2.861   1.135  0.00  0.00     0.002 A 
ATOM      4  C4  I4B d   1      -0.063   1.612   1.688  0.00  0.00    -0.004 A 
ATOM      5  C5  I4B d   1       0.326   0.470   0.993  0.00  0.00     0.002 A 
ATOM      6  C6  I4B d   1       0.890   0.584  -0.286  0.00  0.00     0.003 A 
ENDROOT
BRANCH   1   7
ATOM      7  C1' I4B d   1       1.565   1.985  -2.255  0.00  0.00     0.060 C 
BRANCH   7   8
ATOM      8  C2' I4B d   1       2.069   3.405  -2.415  0.00  0.00    -0.013 C 
ATOM      9  C4' I4B d   1       3.558   3.433  -2.636  0.00  0.00     0.013 C 
ATOM     10  C3' I4B d   1       1.339   4.028  -3.568  0.00  0.00     0.013 C 
ENDBRANCH   7   8
ENDBRANCH   1   7
TORSDOF 2
ENDMDL
