MODEL 1
REMARK minimizedAffinity -5.13387108
REMARK minimizedRMSD -1
REMARK  2 active torsions:
REMARK  status: ('A' for Active; 'I' for Inactive)
REMARK    1  A    between atoms: C2'_3  and  C1'_4 
REMARK    2  A    between atoms: C1'_4  and  C1_5 
ROOT
ATOM      1  C1  I4B d   1       2.564   5.241  -4.633  0.00  0.00    -0.075 A 
ATOM      2  C2  I4B d   1       1.861   5.642  -3.524  0.00  0.00     0.003 A 
ATOM      3  C3  I4B d   1       0.495   5.999  -3.637  0.00  0.00     0.002 A 
ATOM      4  C4  I4B d   1      -0.110   5.990  -4.878  0.00  0.00    -0.004 A 
ATOM      5  C5  I4B d   1       0.598   5.561  -5.997  0.00  0.00     0.002 A 
ATOM      6  C6  I4B d   1       1.940   5.172  -5.872  0.00  0.00     0.003 A 
ENDROOT
BRANCH   1   7
ATOM      7  C1' I4B d   1       4.013   4.902  -4.483  0.00  0.00     0.060 C 
BRANCH   7   8
ATOM      8  C2' I4B d   1       4.251   4.493  -3.044  0.00  0.00    -0.013 C 
ATOM      9  C4' I4B d   1       3.461   3.261  -2.689  0.00  0.00     0.013 C 
ATOM     10  C3' I4B d   1       5.722   4.263  -2.864  0.00  0.00     0.013 C 
ENDBRANCH   7   8
ENDBRANCH   1   7
TORSDOF 2
ENDMDL
