MODEL 1
REMARK minimizedAffinity 14.61483
REMARK minimizedRMSD -1
REMARK  1 active torsions:
REMARK  status: ('A' for Active; 'I' for Inactive)
REMARK    1  A    between atoms: C1_2  and  C2_3 
ROOT
ATOM      1  C2  UNL d   1       3.630  -5.650  -4.633  0.00  0.00    -0.081 A 
ATOM      2  C3  UNL d   1       5.004  -5.397  -4.534  0.00  0.00     0.006 A 
ATOM      3  C4  UNL d   1       5.587  -5.133  -3.292  0.00  0.00     0.002 A 
ATOM      4  C5  UNL d   1       4.809  -5.125  -2.130  0.00  0.00    -0.080 A 
ATOM      5  C6  UNL d   1       5.428  -4.873  -0.787  0.00  0.00     0.076 C 
ATOM      6  C7  UNL d   1       3.434  -5.361  -2.231  0.00  0.00     0.002 A 
ATOM      7  C8  UNL d   1       2.850  -5.624  -3.472  0.00  0.00     0.006 A 
ENDROOT
BRANCH   1   8
ATOM      8  C1  UNL d   1       3.009  -5.999  -5.962  0.00  0.00     0.054 C 
ATOM      9  C   UNL d   1       1.535  -5.623  -5.999  0.00  0.00     0.018 C 
ENDBRANCH   1   8
TORSDOF 1
ENDMDL
