MODEL 1
REMARK minimizedAffinity -0.242880613
REMARK minimizedRMSD -1
REMARK  1 active torsions:
REMARK  status: ('A' for Active; 'I' for Inactive)
REMARK    1  A    between atoms: C1_2  and  C2_3 
ROOT
ATOM      1  C2  UNL d   1      -1.835   2.662  -1.219  0.00  0.00    -0.081 A 
ATOM      2  C3  UNL d   1      -0.785   2.958  -2.097  0.00  0.00     0.006 A 
ATOM      3  C4  UNL d   1       0.465   3.341  -1.603  0.00  0.00     0.002 A 
ATOM      4  C5  UNL d   1       0.687   3.425  -0.224  0.00  0.00    -0.080 A 
ATOM      5  C6  UNL d   1       2.033   3.805   0.320  0.00  0.00     0.076 C 
ATOM      6  C7  UNL d   1      -0.366   3.146   0.653  0.00  0.00     0.002 A 
ATOM      7  C8  UNL d   1      -1.616   2.765   0.159  0.00  0.00     0.006 A 
ENDROOT
BRANCH   1   8
ATOM      8  C1  UNL d   1      -3.164   2.188  -1.747  0.00  0.00     0.054 C 
ATOM      9  C   UNL d   1      -3.320   0.682  -1.582  0.00  0.00     0.018 C 
ENDBRANCH   1   8
TORSDOF 1
ENDMDL
