MODEL 1
REMARK minimizedAffinity 7.9983182
REMARK minimizedRMSD -1
REMARK  1 active torsions:
REMARK  status: ('A' for Active; 'I' for Inactive)
REMARK    1  A    between atoms: C1_2  and  C2_3 
ROOT
ATOM      1  C2  UNL d   1       0.084   3.709  -1.255  0.00  0.00    -0.081 A 
ATOM      2  C3  UNL d   1      -1.233   3.270  -1.434  0.00  0.00     0.006 A 
ATOM      3  C4  UNL d   1      -1.882   2.548  -0.430  0.00  0.00     0.002 A 
ATOM      4  C5  UNL d   1      -1.229   2.260   0.773  0.00  0.00    -0.080 A 
ATOM      5  C6  UNL d   1      -1.924   1.512   1.871  0.00  0.00     0.076 C 
ATOM      6  C7  UNL d   1       0.094   2.683   0.946  0.00  0.00     0.002 A 
ATOM      7  C8  UNL d   1       0.743   3.405  -0.058  0.00  0.00     0.006 A 
ENDROOT
BRANCH   1   8
ATOM      8  C1  UNL d   1       0.765   4.544  -2.309  0.00  0.00     0.054 C 
ATOM      9  C   UNL d   1       0.892   5.995  -1.870  0.00  0.00     0.018 C 
ENDBRANCH   1   8
TORSDOF 1
ENDMDL
