MODEL 1
REMARK minimizedAffinity 9.65818977
REMARK minimizedRMSD -1
REMARK  1 active torsions:
REMARK  status: ('A' for Active; 'I' for Inactive)
REMARK    1  A    between atoms: C1_2  and  C2_3 
ROOT
ATOM      1  C2  UNL d   1      -2.322   2.118  -2.004  0.00  0.00    -0.081 A 
ATOM      2  C3  UNL d   1      -0.962   1.790  -2.058  0.00  0.00     0.006 A 
ATOM      3  C4  UNL d   1      -0.535   0.488  -1.786  0.00  0.00     0.002 A 
ATOM      4  C5  UNL d   1      -1.462  -0.509  -1.462  0.00  0.00    -0.080 A 
ATOM      5  C6  UNL d   1      -1.020  -1.918  -1.197  0.00  0.00     0.076 C 
ATOM      6  C7  UNL d   1      -2.819  -0.178  -1.390  0.00  0.00     0.002 A 
ATOM      7  C8  UNL d   1      -3.246   1.124  -1.662  0.00  0.00     0.006 A 
ENDROOT
BRANCH   1   8
ATOM      8  C1  UNL d   1      -2.791   3.505  -2.360  0.00  0.00     0.054 C 
ATOM      9  C   UNL d   1      -4.295   3.645  -2.177  0.00  0.00     0.018 C 
ENDBRANCH   1   8
TORSDOF 1
ENDMDL
