MODEL 1
REMARK minimizedAffinity 0.0172765478
REMARK minimizedRMSD -1
REMARK  1 active torsions:
REMARK  status: ('A' for Active; 'I' for Inactive)
REMARK    1  A    between atoms: C1_2  and  C2_3 
ROOT
ATOM      1  C2  UNL d   1      -0.320   2.494  -0.963  0.00  0.00    -0.081 A 
ATOM      2  C3  UNL d   1      -0.322   3.055  -2.246  0.00  0.00     0.006 A 
ATOM      3  C4  UNL d   1      -0.184   2.243  -3.374  0.00  0.00     0.002 A 
ATOM      4  C5  UNL d   1      -0.049   0.857  -3.238  0.00  0.00    -0.080 A 
ATOM      5  C6  UNL d   1       0.070  -0.029  -4.442  0.00  0.00     0.076 C 
ATOM      6  C7  UNL d   1      -0.029   0.298  -1.956  0.00  0.00     0.002 A 
ATOM      7  C8  UNL d   1      -0.167   1.110  -0.827  0.00  0.00     0.006 A 
ENDROOT
BRANCH   1   8
ATOM      8  C1  UNL d   1      -0.535   3.360   0.253  0.00  0.00     0.054 C 
ATOM      9  C   UNL d   1      -0.217   2.603   1.534  0.00  0.00     0.018 C 
ENDBRANCH   1   8
TORSDOF 1
ENDMDL
