MODEL 1
REMARK minimizedAffinity 8.24717808
REMARK minimizedRMSD -1
REMARK  1 active torsions:
REMARK  status: ('A' for Active; 'I' for Inactive)
REMARK    1  A    between atoms: C1_2  and  C2_3 
ROOT
ATOM      1  C2  UNL d   1      -0.213   2.834   0.769  0.00  0.00    -0.081 A 
ATOM      2  C3  UNL d   1       0.319   4.048   0.318  0.00  0.00     0.006 A 
ATOM      3  C4  UNL d   1       0.228   4.404  -1.030  0.00  0.00     0.002 A 
ATOM      4  C5  UNL d   1      -0.404   3.557  -1.946  0.00  0.00    -0.080 A 
ATOM      5  C6  UNL d   1      -0.536   3.941  -3.390  0.00  0.00     0.076 C 
ATOM      6  C7  UNL d   1      -0.921   2.336  -1.499  0.00  0.00     0.002 A 
ATOM      7  C8  UNL d   1      -0.829   1.979  -0.152  0.00  0.00     0.006 A 
ENDROOT
BRANCH   1   8
ATOM      8  C1  UNL d   1      -0.174   2.477   2.233  0.00  0.00     0.054 C 
ATOM      9  C   UNL d   1      -1.554   2.094   2.747  0.00  0.00     0.018 C 
ENDBRANCH   1   8
TORSDOF 1
ENDMDL
