MODEL 1
REMARK minimizedAffinity -1.61638868
REMARK minimizedRMSD -1
REMARK  1 active torsions:
REMARK  status: ('A' for Active; 'I' for Inactive)
REMARK    1  A    between atoms: C1_2  and  C2_3 
ROOT
ATOM      1  C2  UNL d   1       0.731   4.353  -0.347  0.00  0.00    -0.081 A 
ATOM      2  C3  UNL d   1       0.242   3.312   0.451  0.00  0.00     0.006 A 
ATOM      3  C4  UNL d   1       0.962   2.876   1.566  0.00  0.00     0.002 A 
ATOM      4  C5  UNL d   1       2.177   3.480   1.907  0.00  0.00    -0.080 A 
ATOM      5  C6  UNL d   1       2.945   3.042   3.119  0.00  0.00     0.076 C 
ATOM      6  C7  UNL d   1       2.674   4.509   1.100  0.00  0.00     0.002 A 
ATOM      7  C8  UNL d   1       1.955   4.944  -0.016  0.00  0.00     0.006 A 
ENDROOT
BRANCH   1   8
ATOM      8  C1  UNL d   1      -0.074   4.868  -1.512  0.00  0.00     0.054 C 
ATOM      9  C   UNL d   1       0.698   5.920  -2.296  0.00  0.00     0.018 C 
ENDBRANCH   1   8
TORSDOF 1
ENDMDL
