MODEL 1
REMARK minimizedAffinity 8.74568653
REMARK minimizedRMSD -1
REMARK  1 active torsions:
REMARK  status: ('A' for Active; 'I' for Inactive)
REMARK    1  A    between atoms: C1_2  and  C2_3 
ROOT
ATOM      1  C2  UNL d   1      -1.721   2.046  -1.367  0.00  0.00    -0.081 A 
ATOM      2  C3  UNL d   1      -1.139   1.329  -0.314  0.00  0.00     0.006 A 
ATOM      3  C4  UNL d   1      -0.055   1.859   0.390  0.00  0.00     0.002 A 
ATOM      4  C5  UNL d   1       0.460   3.117   0.058  0.00  0.00    -0.080 A 
ATOM      5  C6  UNL d   1       1.603   3.711   0.825  0.00  0.00     0.076 C 
ATOM      6  C7  UNL d   1      -0.110   3.825  -1.006  0.00  0.00     0.002 A 
ATOM      7  C8  UNL d   1      -1.194   3.295  -1.710  0.00  0.00     0.006 A 
ENDROOT
BRANCH   1   8
ATOM      8  C1  UNL d   1      -2.931   1.505  -2.086  0.00  0.00     0.054 C 
ATOM      9  C   UNL d   1      -3.771   0.625  -1.171  0.00  0.00     0.018 C 
ENDBRANCH   1   8
TORSDOF 1
ENDMDL
