MODEL 1
REMARK minimizedAffinity -0.764362991
REMARK minimizedRMSD -1
REMARK  3 active torsions:
REMARK  status: ('A' for Active; 'I' for Inactive)
REMARK    1  A    between atoms: C3'_2  and  C2'_3 
REMARK    2  A    between atoms: C2'_3  and  C1'_4 
REMARK    3  A    between atoms: C1'_4  and  C1_5 
ROOT
ATOM      1  C1  N4B d   1       5.486  -2.501  -5.153  0.00  0.00    -0.075 A 
ATOM      2  C2  N4B d   1       6.000  -1.417  -5.899  0.00  0.00     0.002 A 
ATOM      3  C3  N4B d   1       5.470  -0.161  -5.738  0.00  0.00     0.002 A 
ATOM      4  C4  N4B d   1       4.418   0.033  -4.855  0.00  0.00    -0.004 A 
ATOM      5  C5  N4B d   1       3.945  -1.014  -4.120  0.00  0.00     0.002 A 
ATOM      6  C6  N4B d   1       4.470  -2.282  -4.268  0.00  0.00     0.002 A 
ENDROOT
BRANCH   1   7
ATOM      7  C1' N4B d   1       5.974  -3.909  -5.358  0.00  0.00     0.057 C 
BRANCH   7   8
ATOM      8  C2' N4B d   1       6.000  -4.630  -4.013  0.00  0.00     0.009 C 
BRANCH   8   9
ATOM      9  C3' N4B d   1       5.201  -5.922  -4.046  0.00  0.00     0.004 C 
ATOM     10  C4' N4B d   1       4.178  -6.000  -2.953  0.00  0.00     0.003 C 
ENDBRANCH   8   9
ENDBRANCH   7   8
ENDBRANCH   1   7
TORSDOF 3
ENDMDL
