MODEL 1
REMARK minimizedAffinity 5.61496496
REMARK minimizedRMSD -1
REMARK  0 active torsions:
REMARK  status: ('A' for Active; 'I' for Inactive)
ROOT
ATOM      1  O1  BZF d   1      -2.588   1.040   2.056  0.00  0.00    -0.204 OA
ATOM      2  C2  BZF d   1      -3.161   0.523   0.910  0.00  0.00     0.174 A 
ATOM      3  C3  BZF d   1      -2.322  -0.340   0.302  0.00  0.00    -0.012 A 
ATOM      4  C3A BZF d   1      -1.187  -0.434   1.169  0.00  0.00    -0.107 A 
ATOM      5  C4  BZF d   1      -0.023  -1.147   1.117  0.00  0.00     0.055 A 
ATOM      6  C5  BZF d   1       0.910  -0.957   2.086  0.00  0.00    -0.016 A 
ATOM      7  C6  BZF d   1       0.716  -0.060   3.116  0.00  0.00     0.022 A 
ATOM      8  C7  BZF d   1      -0.424   0.666   3.212  0.00  0.00     0.029 A 
ATOM      9  C7A BZF d   1      -1.384   0.452   2.253  0.00  0.00     0.058 A 
ENDROOT
TORSDOF 0
ENDMDL
