MODEL 1
REMARK minimizedAffinity 3.5779357
REMARK minimizedRMSD -1
REMARK  0 active torsions:
REMARK  status: ('A' for Active; 'I' for Inactive)
ROOT
ATOM      1  O1  BZF d   1       4.997   5.999   5.997  0.00  0.00    -0.204 OA
ATOM      2  C2  BZF d   1       6.000   5.991   5.046  0.00  0.00     0.174 A 
ATOM      3  C3  BZF d   1       5.562   5.444   3.894  0.00  0.00    -0.012 A 
ATOM      4  C3A BZF d   1       4.174   5.172   4.110  0.00  0.00    -0.107 A 
ATOM      5  C4  BZF d   1       3.189   4.642   3.328  0.00  0.00     0.055 A 
ATOM      6  C5  BZF d   1       1.956   4.443   3.863  0.00  0.00    -0.016 A 
ATOM      7  C6  BZF d   1       1.675   4.757   5.176  0.00  0.00     0.022 A 
ATOM      8  C7  BZF d   1       2.619   5.290   5.990  0.00  0.00     0.029 A 
ATOM      9  C7A BZF d   1       3.857   5.524   5.442  0.00  0.00     0.058 A 
ENDROOT
TORSDOF 0
ENDMDL
