MODEL 1
REMARK minimizedAffinity 3.80595279
REMARK minimizedRMSD -1
REMARK  0 active torsions:
REMARK  status: ('A' for Active; 'I' for Inactive)
ROOT
ATOM      1  O1  BZF d   1       5.158   6.000   5.583  0.00  0.00    -0.204 OA
ATOM      2  C2  BZF d   1       5.985   5.999   4.477  0.00  0.00     0.174 A 
ATOM      3  C3  BZF d   1       5.383   5.400   3.430  0.00  0.00    -0.012 A 
ATOM      4  C3A BZF d   1       4.065   5.083   3.885  0.00  0.00    -0.107 A 
ATOM      5  C4  BZF d   1       2.985   4.491   3.294  0.00  0.00     0.055 A 
ATOM      6  C5  BZF d   1       1.869   4.262   4.036  0.00  0.00    -0.016 A 
ATOM      7  C6  BZF d   1       1.801   4.607   5.370  0.00  0.00     0.022 A 
ATOM      8  C7  BZF d   1       2.845   5.201   5.998  0.00  0.00     0.029 A 
ATOM      9  C7A BZF d   1       3.961   5.463   5.242  0.00  0.00     0.058 A 
ENDROOT
TORSDOF 0
ENDMDL
