MODEL 1
REMARK minimizedAffinity 5.2256074
REMARK minimizedRMSD -1
REMARK  0 active torsions:
REMARK  status: ('A' for Active; 'I' for Inactive)
ROOT
ATOM      1  O1  BZF d   1       5.012   5.019   3.311  0.00  0.00    -0.204 OA
ATOM      2  C2  BZF d   1       5.964   5.504   4.186  0.00  0.00     0.174 A 
ATOM      3  C3  BZF d   1       5.387   5.965   5.314  0.00  0.00    -0.012 A 
ATOM      4  C3A BZF d   1       3.994   5.671   5.171  0.00  0.00    -0.107 A 
ATOM      5  C4  BZF d   1       2.905   5.872   5.970  0.00  0.00     0.055 A 
ATOM      6  C5  BZF d   1       1.673   5.535   5.505  0.00  0.00    -0.016 A 
ATOM      7  C6  BZF d   1       1.494   5.000   4.246  0.00  0.00     0.022 A 
ATOM      8  C7  BZF d   1       2.544   4.778   3.419  0.00  0.00     0.029 A 
ATOM      9  C7A BZF d   1       3.794   5.087   3.899  0.00  0.00     0.058 A 
ENDROOT
TORSDOF 0
ENDMDL
