MODEL 1
REMARK minimizedAffinity 8.85087872
REMARK minimizedRMSD -1
REMARK  0 active torsions:
REMARK  status: ('A' for Active; 'I' for Inactive)
ROOT
ATOM      1  O1  BZF d   1       2.723   4.287   5.587  0.00  0.00    -0.204 OA
ATOM      2  C2  BZF d   1       1.968   4.070   4.450  0.00  0.00     0.174 A 
ATOM      3  C3  BZF d   1       2.598   4.550   3.359  0.00  0.00    -0.012 A 
ATOM      4  C3A BZF d   1       3.865   5.019   3.831  0.00  0.00    -0.107 A 
ATOM      5  C4  BZF d   1       4.942   5.590   3.217  0.00  0.00     0.055 A 
ATOM      6  C5  BZF d   1       5.994   5.999   3.974  0.00  0.00    -0.016 A 
ATOM      7  C6  BZF d   1       5.999   5.857   5.347  0.00  0.00     0.022 A 
ATOM      8  C7  BZF d   1       4.955   5.292   6.000  0.00  0.00     0.029 A 
ATOM      9  C7A BZF d   1       3.905   4.847   5.234  0.00  0.00     0.058 A 
ENDROOT
TORSDOF 0
ENDMDL
