MODEL 1
REMARK minimizedAffinity 10.0870085
REMARK minimizedRMSD -1
REMARK  0 active torsions:
REMARK  status: ('A' for Active; 'I' for Inactive)
ROOT
ATOM      1  O1  BZF d   1      -5.114   3.971  -4.416  0.00  0.00    -0.204 OA
ATOM      2  C2  BZF d   1      -5.232   2.852  -5.218  0.00  0.00     0.174 A 
ATOM      3  C3  BZF d   1      -4.143   2.705  -5.999  0.00  0.00    -0.012 A 
ATOM      4  C3A BZF d   1      -3.250   3.749  -5.599  0.00  0.00    -0.107 A 
ATOM      5  C4  BZF d   1      -1.996   4.117  -5.997  0.00  0.00     0.055 A 
ATOM      6  C5  BZF d   1      -1.431   5.229  -5.458  0.00  0.00    -0.016 A 
ATOM      7  C6  BZF d   1      -2.092   5.998  -4.523  0.00  0.00     0.022 A 
ATOM      8  C7  BZF d   1      -3.335   5.671  -4.093  0.00  0.00     0.029 A 
ATOM      9  C7A BZF d   1      -3.895   4.530  -4.612  0.00  0.00     0.058 A 
ENDROOT
TORSDOF 0
ENDMDL
