MODEL 1
REMARK minimizedAffinity 11.3271627
REMARK minimizedRMSD -1
REMARK  0 active torsions:
REMARK  status: ('A' for Active; 'I' for Inactive)
ROOT
ATOM      1  O1  BZF d   1       0.778   5.069  -5.539  0.00  0.00    -0.204 OA
ATOM      2  C2  BZF d   1       2.074   4.793  -5.928  0.00  0.00     0.174 A 
ATOM      3  C3  BZF d   1       2.354   3.484  -5.764  0.00  0.00    -0.012 A 
ATOM      4  C3A BZF d   1       1.129   2.889  -5.327  0.00  0.00    -0.107 A 
ATOM      5  C4  BZF d   1       0.765   1.611  -5.012  0.00  0.00     0.055 A 
ATOM      6  C5  BZF d   1      -0.490   1.376  -4.548  0.00  0.00    -0.016 A 
ATOM      7  C6  BZF d   1      -1.405   2.395  -4.383  0.00  0.00     0.022 A 
ATOM      8  C7  BZF d   1      -1.093   3.678  -4.687  0.00  0.00     0.029 A 
ATOM      9  C7A BZF d   1       0.165   3.914  -5.187  0.00  0.00     0.058 A 
ENDROOT
TORSDOF 0
ENDMDL
