MODEL 1
REMARK minimizedAffinity -1.17009389
REMARK minimizedRMSD -1
REMARK  0 active torsions:
REMARK  status: ('A' for Active; 'I' for Inactive)
ROOT
ATOM      1  C   UNL d   1       5.926  -4.345   1.629  0.00  0.00     0.020 A 
ATOM      2  C1  UNL d   1       5.958  -2.972   1.866  0.00  0.00     0.020 A 
ATOM      3  C2  UNL d   1       5.839  -2.486   3.170  0.00  0.00     0.034 A 
ATOM      4  C3  UNL d   1       5.687  -3.374   4.241  0.00  0.00     0.017 A 
ATOM      5  C4  UNL d   1       5.655  -4.753   4.002  0.00  0.00     0.017 A 
ATOM      6  C5  UNL d   1       5.775  -5.234   2.694  0.00  0.00     0.034 A 
ATOM      7 Cl   UNL d   1       5.471  -5.910   5.272  0.00  0.00    -0.070 Cl
ATOM      8 Cl1  UNL d   1       5.546  -2.703   5.827  0.00  0.00    -0.070 Cl
ENDROOT
TORSDOF 0
ENDMDL
