MODEL 1
REMARK minimizedAffinity -3.15163469
REMARK minimizedRMSD -1
REMARK  0 active torsions:
REMARK  status: ('A' for Active; 'I' for Inactive)
ROOT
ATOM      1  C   UNL d   1       5.957  -3.994   1.913  0.00  0.00     0.020 A 
ATOM      2  C1  UNL d   1       5.628  -2.648   2.071  0.00  0.00     0.020 A 
ATOM      3  C2  UNL d   1       5.343  -2.143   3.342  0.00  0.00     0.034 A 
ATOM      4  C3  UNL d   1       5.384  -2.985   4.459  0.00  0.00     0.017 A 
ATOM      5  C4  UNL d   1       5.714  -4.336   4.299  0.00  0.00     0.017 A 
ATOM      6  C5  UNL d   1       5.999  -4.836   3.025  0.00  0.00     0.034 A 
ATOM      7 Cl   UNL d   1       5.786  -5.436   5.630  0.00  0.00    -0.070 Cl
ATOM      8 Cl1  UNL d   1       5.020  -2.294   6.000  0.00  0.00    -0.070 Cl
ENDROOT
TORSDOF 0
ENDMDL
