MODEL 1
REMARK minimizedAffinity 0.305526644
REMARK minimizedRMSD -1
REMARK  0 active torsions:
REMARK  status: ('A' for Active; 'I' for Inactive)
ROOT
ATOM      1  C   UNL d   1       5.997  -1.939   2.008  0.00  0.00     0.020 A 
ATOM      2  C1  UNL d   1       5.994  -3.304   1.723  0.00  0.00     0.020 A 
ATOM      3  C2  UNL d   1       5.991  -4.235   2.764  0.00  0.00     0.034 A 
ATOM      4  C3  UNL d   1       5.992  -3.802   4.095  0.00  0.00     0.017 A 
ATOM      5  C4  UNL d   1       5.996  -2.432   4.380  0.00  0.00     0.017 A 
ATOM      6  C5  UNL d   1       5.998  -1.504   3.334  0.00  0.00     0.034 A 
ATOM      7 Cl   UNL d   1       5.997  -1.822   5.997  0.00  0.00    -0.070 Cl
ATOM      8 Cl1  UNL d   1       5.988  -5.008   5.332  0.00  0.00    -0.070 Cl
ENDROOT
TORSDOF 0
ENDMDL
