MODEL 1
REMARK minimizedAffinity -3.02537107
REMARK minimizedRMSD -1
REMARK  0 active torsions:
REMARK  status: ('A' for Active; 'I' for Inactive)
ROOT
ATOM      1  C   UNL d   1       5.807  -3.032   2.049  0.00  0.00     0.020 A 
ATOM      2  C1  UNL d   1       5.994  -4.403   1.874  0.00  0.00     0.020 A 
ATOM      3  C2  UNL d   1       6.000  -5.253   2.982  0.00  0.00     0.034 A 
ATOM      4  C3  UNL d   1       5.818  -4.734   4.269  0.00  0.00     0.017 A 
ATOM      5  C4  UNL d   1       5.631  -3.358   4.443  0.00  0.00     0.017 A 
ATOM      6  C5  UNL d   1       5.626  -2.511   3.331  0.00  0.00     0.034 A 
ATOM      7 Cl   UNL d   1       5.400  -2.643   6.000  0.00  0.00    -0.070 Cl
ATOM      8 Cl1  UNL d   1       5.836  -5.844   5.593  0.00  0.00    -0.070 Cl
ENDROOT
TORSDOF 0
ENDMDL
