MODEL 1
REMARK minimizedAffinity -1.12907827
REMARK minimizedRMSD -1
REMARK  0 active torsions:
REMARK  status: ('A' for Active; 'I' for Inactive)
ROOT
ATOM      1  C   UNL d   1       5.775  -1.769   2.479  0.00  0.00     0.020 A 
ATOM      2  C1  UNL d   1       5.247  -1.667   3.765  0.00  0.00     0.020 A 
ATOM      3  C2  UNL d   1       4.942  -2.822   4.489  0.00  0.00     0.034 A 
ATOM      4  C3  UNL d   1       5.166  -4.084   3.926  0.00  0.00     0.017 A 
ATOM      5  C4  UNL d   1       5.696  -4.186   2.635  0.00  0.00     0.017 A 
ATOM      6  C5  UNL d   1       6.000  -3.026   1.915  0.00  0.00     0.034 A 
ATOM      7 Cl   UNL d   1       6.000  -5.708   1.875  0.00  0.00    -0.070 Cl
ATOM      8 Cl1  UNL d   1       4.766  -5.470   4.878  0.00  0.00    -0.070 Cl
ENDROOT
TORSDOF 0
ENDMDL
