MODEL 1
REMARK minimizedAffinity -3.69485688
REMARK minimizedRMSD -1
REMARK  0 active torsions:
REMARK  status: ('A' for Active; 'I' for Inactive)
ROOT
ATOM      1  C   UNL d   1       5.980  -4.243   1.922  0.00  0.00     0.020 A 
ATOM      2  C1  UNL d   1       5.979  -2.854   2.047  0.00  0.00     0.020 A 
ATOM      3  C2  UNL d   1       5.983  -2.267   3.314  0.00  0.00     0.034 A 
ATOM      4  C3  UNL d   1       5.989  -3.069   4.461  0.00  0.00     0.017 A 
ATOM      5  C4  UNL d   1       5.990  -4.463   4.334  0.00  0.00     0.017 A 
ATOM      6  C5  UNL d   1       5.985  -5.046   3.063  0.00  0.00     0.034 A 
ATOM      7 Cl   UNL d   1       5.996  -5.518   5.703  0.00  0.00    -0.070 Cl
ATOM      8 Cl1  UNL d   1       5.994  -2.276   5.996  0.00  0.00    -0.070 Cl
ENDROOT
TORSDOF 0
ENDMDL
