MODEL 1
REMARK minimizedAffinity 0.196663231
REMARK minimizedRMSD -1
REMARK  0 active torsions:
REMARK  status: ('A' for Active; 'I' for Inactive)
ROOT
ATOM      1  C   UNL d   1       5.963  -3.841   1.978  0.00  0.00     0.020 A 
ATOM      2  C1  UNL d   1       6.000  -2.447   1.973  0.00  0.00     0.020 A 
ATOM      3  C2  UNL d   1       6.000  -1.745   3.180  0.00  0.00     0.034 A 
ATOM      4  C3  UNL d   1       5.963  -2.436   4.397  0.00  0.00     0.017 A 
ATOM      5  C4  UNL d   1       5.926  -3.835   4.400  0.00  0.00     0.017 A 
ATOM      6  C5  UNL d   1       5.926  -4.533   3.189  0.00  0.00     0.034 A 
ATOM      7 Cl   UNL d   1       5.879  -4.757   5.861  0.00  0.00    -0.070 Cl
ATOM      8 Cl1  UNL d   1       5.966  -1.503   5.851  0.00  0.00    -0.070 Cl
ENDROOT
TORSDOF 0
ENDMDL
