MODEL 1
REMARK minimizedAffinity -3.53844738
REMARK minimizedRMSD -1
REMARK  0 active torsions:
REMARK  status: ('A' for Active; 'I' for Inactive)
ROOT
ATOM      1  C   UNL d   1       5.967  -4.054   5.958  0.00  0.00     0.020 A 
ATOM      2  C1  UNL d   1       5.964  -2.671   5.778  0.00  0.00     0.020 A 
ATOM      3  C2  UNL d   1       5.972  -2.135   4.488  0.00  0.00     0.034 A 
ATOM      4  C3  UNL d   1       5.984  -2.982   3.374  0.00  0.00     0.017 A 
ATOM      5  C4  UNL d   1       5.986  -4.370   3.556  0.00  0.00     0.017 A 
ATOM      6  C5  UNL d   1       5.978  -4.901   4.850  0.00  0.00     0.034 A 
ATOM      7 Cl   UNL d   1       6.000  -5.479   2.230  0.00  0.00    -0.070 Cl
ATOM      8 Cl1  UNL d   1       5.993  -2.251   1.809  0.00  0.00    -0.070 Cl
ENDROOT
TORSDOF 0
ENDMDL
