MODEL 1
REMARK minimizedAffinity -2.38600755
REMARK minimizedRMSD -1
REMARK  0 active torsions:
REMARK  status: ('A' for Active; 'I' for Inactive)
ROOT
ATOM      1  C   UNL d   1       5.949  -3.077   2.098  0.00  0.00     0.020 A 
ATOM      2  C1  UNL d   1       5.953  -4.471   2.074  0.00  0.00     0.020 A 
ATOM      3  C2  UNL d   1       5.960  -5.190   3.271  0.00  0.00     0.034 A 
ATOM      4  C3  UNL d   1       5.963  -4.516   4.498  0.00  0.00     0.017 A 
ATOM      5  C4  UNL d   1       5.959  -3.116   4.521  0.00  0.00     0.017 A 
ATOM      6  C5  UNL d   1       5.952  -2.401   3.319  0.00  0.00     0.034 A 
ATOM      7 Cl   UNL d   1       5.963  -2.214   5.995  0.00  0.00    -0.070 Cl
ATOM      8 Cl1  UNL d   1       5.972  -5.469   5.939  0.00  0.00    -0.070 Cl
ENDROOT
TORSDOF 0
ENDMDL
