MODEL 1
REMARK minimizedAffinity -3.7226007
REMARK minimizedRMSD -1
REMARK  0 active torsions:
REMARK  status: ('A' for Active; 'I' for Inactive)
ROOT
ATOM      1  C   UNL d   1       4.395  -3.004   5.804  0.00  0.00     0.020 A 
ATOM      2  C1  UNL d   1       4.399  -4.396   5.880  0.00  0.00     0.020 A 
ATOM      3  C2  UNL d   1       4.899  -5.152   4.817  0.00  0.00     0.034 A 
ATOM      4  C3  UNL d   1       5.397  -4.516   3.674  0.00  0.00     0.017 A 
ATOM      5  C4  UNL d   1       5.393  -3.119   3.599  0.00  0.00     0.017 A 
ATOM      6  C5  UNL d   1       4.891  -2.367   4.666  0.00  0.00     0.034 A 
ATOM      7 Cl   UNL d   1       5.991  -2.263   2.222  0.00  0.00    -0.070 Cl
ATOM      8 Cl1  UNL d   1       6.000  -5.513   2.398  0.00  0.00    -0.070 Cl
ENDROOT
TORSDOF 0
ENDMDL
