MODEL 1
REMARK minimizedAffinity -2.59809566
REMARK minimizedRMSD -1
REMARK  0 active torsions:
REMARK  status: ('A' for Active; 'I' for Inactive)
ROOT
ATOM      1  C   UNL d   1       6.000  -2.474   4.142  0.00  0.00     0.020 A 
ATOM      2  C1  UNL d   1       5.597  -3.111   5.315  0.00  0.00     0.020 A 
ATOM      3  C2  UNL d   1       4.367  -3.771   5.364  0.00  0.00     0.034 A 
ATOM      4  C3  UNL d   1       3.536  -3.795   4.238  0.00  0.00     0.017 A 
ATOM      5  C4  UNL d   1       3.942  -3.155   3.061  0.00  0.00     0.017 A 
ATOM      6  C5  UNL d   1       5.174  -2.496   3.017  0.00  0.00     0.034 A 
ATOM      7 Cl   UNL d   1       2.970  -3.143   1.631  0.00  0.00    -0.070 Cl
ATOM      8 Cl1  UNL d   1       2.029  -4.630   4.370  0.00  0.00    -0.070 Cl
ENDROOT
TORSDOF 0
ENDMDL
