MODEL 1
REMARK minimizedAffinity 3.76532173
REMARK minimizedRMSD -1
REMARK  0 active torsions:
REMARK  status: ('A' for Active; 'I' for Inactive)
ROOT
ATOM      1  C   UNL d   1       5.859  -5.999   2.381  0.00  0.00     0.020 A 
ATOM      2  C1  UNL d   1       5.524  -5.894   3.730  0.00  0.00     0.020 A 
ATOM      3  C2  UNL d   1       5.329  -4.636   4.305  0.00  0.00     0.034 A 
ATOM      4  C3  UNL d   1       5.469  -3.479   3.530  0.00  0.00     0.017 A 
ATOM      5  C4  UNL d   1       5.805  -3.586   2.176  0.00  0.00     0.017 A 
ATOM      6  C5  UNL d   1       5.999  -4.848   1.605  0.00  0.00     0.034 A 
ATOM      7 Cl   UNL d   1       5.995  -2.203   1.156  0.00  0.00    -0.070 Cl
ATOM      8 Cl1  UNL d   1       5.212  -1.956   4.306  0.00  0.00    -0.070 Cl
ENDROOT
TORSDOF 0
ENDMDL
