MODEL 1
REMARK minimizedAffinity -2.25276732
REMARK minimizedRMSD -1
REMARK  0 active torsions:
REMARK  status: ('A' for Active; 'I' for Inactive)
ROOT
ATOM      1  C   UNL d   1       1.789  -0.114   1.097  0.00  0.00     0.124 A 
ATOM      2  C1  UNL d   1       1.641   1.094   0.429  0.00  0.00     0.062 A 
ATOM      3  C2  UNL d   1       0.482   1.353  -0.298  0.00  0.00     0.162 A 
ATOM      4  C3  UNL d   1      -0.538   0.404  -0.359  0.00  0.00    -0.034 A 
ATOM      5  C4  UNL d   1      -0.381  -0.808   0.315  0.00  0.00     0.162 A 
ATOM      6  C5  UNL d   1       0.779  -1.063   1.040  0.00  0.00     0.062 A 
ATOM      7  F   UNL d   1       0.921  -2.230   1.685  0.00  0.00    -0.097 F 
ATOM      8  F1  UNL d   1      -1.342  -1.743   0.277  0.00  0.00    -0.096 F 
ATOM      9  I   UNL d   1      -2.271   0.788  -1.445  0.00  0.00    -0.060 I 
ATOM     10  F2  UNL d   1       0.366   2.528  -0.934  0.00  0.00    -0.096 F 
ATOM     11  F3  UNL d   1       2.616   2.012   0.482  0.00  0.00    -0.097 F 
ATOM     12  F4  UNL d   1       2.905  -0.361   1.795  0.00  0.00    -0.092 F 
ENDROOT
TORSDOF 0
ENDMDL
