MODEL 1
REMARK minimizedAffinity -4.62294197
REMARK minimizedRMSD -1
REMARK  0 active torsions:
REMARK  status: ('A' for Active; 'I' for Inactive)
ROOT
ATOM      1  C   UNL d   1       2.581  -1.023   1.742  0.00  0.00     0.124 A 
ATOM      2  C1  UNL d   1       1.491  -1.859   1.943  0.00  0.00     0.062 A 
ATOM      3  C2  UNL d   1       0.271  -1.577   1.336  0.00  0.00     0.162 A 
ATOM      4  C3  UNL d   1       0.134  -0.454   0.520  0.00  0.00    -0.034 A 
ATOM      5  C4  UNL d   1       1.234   0.383   0.324  0.00  0.00     0.162 A 
ATOM      6  C5  UNL d   1       2.451   0.097   0.933  0.00  0.00     0.062 A 
ATOM      7  F   UNL d   1       3.503   0.906   0.738  0.00  0.00    -0.097 F 
ATOM      8  F1  UNL d   1       1.137   1.471  -0.454  0.00  0.00    -0.096 F 
ATOM      9  I   UNL d   1      -1.689  -0.029  -0.390  0.00  0.00    -0.060 I 
ATOM     10  F2  UNL d   1      -0.765  -2.402   1.548  0.00  0.00    -0.096 F 
ATOM     11  F3  UNL d   1       1.613  -2.941   2.726  0.00  0.00    -0.097 F 
ATOM     12  F4  UNL d   1       3.753  -1.296   2.329  0.00  0.00    -0.092 F 
ENDROOT
TORSDOF 0
ENDMDL
