MODEL 1
REMARK minimizedAffinity -0.804085255
REMARK minimizedRMSD -1
REMARK  0 active torsions:
REMARK  status: ('A' for Active; 'I' for Inactive)
ROOT
ATOM      1  C   UNL d   1       0.755   1.530   0.009  0.00  0.00     0.124 A 
ATOM      2  C1  UNL d   1       1.833   0.784   0.466  0.00  0.00     0.062 A 
ATOM      3  C2  UNL d   1       1.650  -0.536   0.866  0.00  0.00     0.162 A 
ATOM      4  C3  UNL d   1       0.385  -1.121   0.809  0.00  0.00    -0.034 A 
ATOM      5  C4  UNL d   1      -0.694  -0.364   0.349  0.00  0.00     0.162 A 
ATOM      6  C5  UNL d   1      -0.507   0.956  -0.049  0.00  0.00     0.062 A 
ATOM      7  F   UNL d   1      -1.549   1.675  -0.491  0.00  0.00    -0.097 F 
ATOM      8  F1  UNL d   1      -1.924  -0.895   0.282  0.00  0.00    -0.096 F 
ATOM      9  I   UNL d   1       0.108  -3.095   1.406  0.00  0.00    -0.060 I 
ATOM     10  F2  UNL d   1       2.709  -1.234   1.304  0.00  0.00    -0.096 F 
ATOM     11  F3  UNL d   1       3.053   1.337   0.524  0.00  0.00    -0.097 F 
ATOM     12  F4  UNL d   1       0.933   2.801  -0.375  0.00  0.00    -0.092 F 
ENDROOT
TORSDOF 0
ENDMDL
