MODEL 1
REMARK minimizedAffinity 2.10619998
REMARK minimizedRMSD -1
REMARK  0 active torsions:
REMARK  status: ('A' for Active; 'I' for Inactive)
ROOT
ATOM      1  C   UNL d   1      -0.697   1.381  -0.059  0.00  0.00     0.124 A 
ATOM      2  C1  UNL d   1      -0.378   0.216  -0.743  0.00  0.00     0.062 A 
ATOM      3  C2  UNL d   1       0.812  -0.452  -0.469  0.00  0.00     0.162 A 
ATOM      4  C3  UNL d   1       1.691   0.042   0.495  0.00  0.00    -0.034 A 
ATOM      5  C4  UNL d   1       1.363   1.214   1.177  0.00  0.00     0.162 A 
ATOM      6  C5  UNL d   1       0.173   1.879   0.900  0.00  0.00     0.062 A 
ATOM      7  F   UNL d   1      -0.134   3.004   1.561  0.00  0.00    -0.097 F 
ATOM      8  F1  UNL d   1       2.186   1.717   2.110  0.00  0.00    -0.096 F 
ATOM      9  I   UNL d   1       3.471  -0.955   0.907  0.00  0.00    -0.060 I 
ATOM     10  F2  UNL d   1       1.095  -1.576  -1.145  0.00  0.00    -0.096 F 
ATOM     11  F3  UNL d   1      -1.217  -0.266  -1.671  0.00  0.00    -0.097 F 
ATOM     12  F4  UNL d   1      -1.842   2.023  -0.326  0.00  0.00    -0.092 F 
ENDROOT
TORSDOF 0
ENDMDL
