MODEL 1
REMARK minimizedAffinity -5.57931185
REMARK minimizedRMSD -1
REMARK  0 active torsions:
REMARK  status: ('A' for Active; 'I' for Inactive)
ROOT
ATOM      1  C   UNL d   1      -2.025  -0.158  -3.040  0.00  0.00     0.124 A 
ATOM      2  C1  UNL d   1      -0.817  -0.756  -3.374  0.00  0.00     0.062 A 
ATOM      3  C2  UNL d   1       0.226  -0.786  -2.453  0.00  0.00     0.162 A 
ATOM      4  C3  UNL d   1       0.067  -0.217  -1.190  0.00  0.00    -0.034 A 
ATOM      5  C4  UNL d   1      -1.150   0.383  -0.862  0.00  0.00     0.162 A 
ATOM      6  C5  UNL d   1      -2.190   0.411  -1.785  0.00  0.00     0.062 A 
ATOM      7  F   UNL d   1      -3.356   0.989  -1.461  0.00  0.00    -0.097 F 
ATOM      8  F1  UNL d   1      -1.337   0.940   0.344  0.00  0.00    -0.096 F 
ATOM      9  I   UNL d   1       1.625  -0.260   0.189  0.00  0.00    -0.060 I 
ATOM     10  F2  UNL d   1       1.382  -1.370  -2.802  0.00  0.00    -0.096 F 
ATOM     11  F3  UNL d   1      -0.655  -1.305  -4.586  0.00  0.00    -0.097 F 
ATOM     12  F4  UNL d   1      -3.027  -0.130  -3.928  0.00  0.00    -0.092 F 
ENDROOT
TORSDOF 0
ENDMDL
