MODEL 1
REMARK minimizedAffinity -2.57025576
REMARK minimizedRMSD -1
REMARK  0 active torsions:
REMARK  status: ('A' for Active; 'I' for Inactive)
ROOT
ATOM      1  C   UNL d   1       2.111  -0.466   1.385  0.00  0.00     0.124 A 
ATOM      2  C1  UNL d   1       1.864   0.891   1.233  0.00  0.00     0.062 A 
ATOM      3  C2  UNL d   1       0.870   1.329   0.363  0.00  0.00     0.162 A 
ATOM      4  C3  UNL d   1       0.114   0.408  -0.362  0.00  0.00    -0.034 A 
ATOM      5  C4  UNL d   1       0.368  -0.955  -0.205  0.00  0.00     0.162 A 
ATOM      6  C5  UNL d   1       1.363  -1.388   0.666  0.00  0.00     0.062 A 
ATOM      7  F   UNL d   1       1.600  -2.700   0.811  0.00  0.00    -0.097 F 
ATOM      8  F1  UNL d   1      -0.340  -1.868  -0.887  0.00  0.00    -0.096 F 
ATOM      9  I   UNL d   1      -1.373   1.059  -1.665  0.00  0.00    -0.060 I 
ATOM     10  F2  UNL d   1       0.653   2.647   0.236  0.00  0.00    -0.096 F 
ATOM     11  F3  UNL d   1       2.586   1.784   1.926  0.00  0.00    -0.097 F 
ATOM     12  F4  UNL d   1       3.068  -0.884   2.222  0.00  0.00    -0.092 F 
ENDROOT
TORSDOF 0
ENDMDL
