MODEL 1
REMARK minimizedAffinity -2.90754056
REMARK minimizedRMSD -1
REMARK  0 active torsions:
REMARK  status: ('A' for Active; 'I' for Inactive)
ROOT
ATOM      1  C   UNL d   1       2.335  -0.059   1.211  0.00  0.00     0.124 A 
ATOM      2  C1  UNL d   1       1.723   1.168   0.999  0.00  0.00     0.062 A 
ATOM      3  C2  UNL d   1       0.580   1.253   0.209  0.00  0.00     0.162 A 
ATOM      4  C3  UNL d   1       0.041   0.106  -0.374  0.00  0.00    -0.034 A 
ATOM      5  C4  UNL d   1       0.663  -1.125  -0.157  0.00  0.00     0.162 A 
ATOM      6  C5  UNL d   1       1.805  -1.204   0.633  0.00  0.00     0.062 A 
ATOM      7  F   UNL d   1       2.396  -2.390   0.837  0.00  0.00    -0.097 F 
ATOM      8  F1  UNL d   1       0.171  -2.247  -0.702  0.00  0.00    -0.096 F 
ATOM      9  I   UNL d   1      -1.669   0.228  -1.555  0.00  0.00    -0.060 I 
ATOM     10  F2  UNL d   1       0.008   2.452   0.021  0.00  0.00    -0.096 F 
ATOM     11  F3  UNL d   1       2.233   2.276   1.555  0.00  0.00    -0.097 F 
ATOM     12  F4  UNL d   1       3.436  -0.137   1.970  0.00  0.00    -0.092 F 
ENDROOT
TORSDOF 0
ENDMDL
