MODEL 1
REMARK minimizedAffinity 12.6074963
REMARK minimizedRMSD -1
REMARK  2 active torsions:
REMARK  status: ('A' for Active; 'I' for Inactive)
REMARK    1  A    between atoms: C1_2  and  C2_3 
REMARK    2  A    between atoms: C2_3  and  C3_4 
ROOT
ATOM      1  C3  UNL d   1      -4.109   3.779  -4.969  0.00  0.00    -0.075 A 
ATOM      2  C4  UNL d   1      -3.925   4.894  -4.139  0.00  0.00     0.002 A 
ATOM      3  C5  UNL d   1      -4.779   5.994  -4.230  0.00  0.00     0.002 A 
ATOM      4  C6  UNL d   1      -5.818   5.998  -5.158  0.00  0.00    -0.004 A 
ATOM      5  C7  UNL d   1      -6.000   4.902  -5.999  0.00  0.00     0.002 A 
ATOM      6  C8  UNL d   1      -5.150   3.799  -5.907  0.00  0.00     0.002 A 
ENDROOT
BRANCH   1   7
ATOM      7  C2  UNL d   1      -3.207   2.574  -4.855  0.00  0.00     0.056 C 
BRANCH   7   8
ATOM      8  C1  UNL d   1      -1.969   2.802  -3.982  0.00  0.00     0.007 C 
ATOM      9  C   UNL d   1      -0.660   2.653  -4.746  0.00  0.00     0.009 C 
ENDBRANCH   7   8
ENDBRANCH   1   7
TORSDOF 2
ENDMDL
