MODEL 1
REMARK minimizedAffinity 12.8027382
REMARK minimizedRMSD -1
REMARK  2 active torsions:
REMARK  status: ('A' for Active; 'I' for Inactive)
REMARK    1  A    between atoms: C1_2  and  C2_3 
REMARK    2  A    between atoms: C2_3  and  C3_4 
ROOT
ATOM      1  C3  UNL d   1      -2.029   0.898  -3.283  0.00  0.00    -0.075 A 
ATOM      2  C4  UNL d   1      -2.824   1.932  -3.798  0.00  0.00     0.002 A 
ATOM      3  C5  UNL d   1      -2.241   3.002  -4.479  0.00  0.00     0.002 A 
ATOM      4  C6  UNL d   1      -0.859   3.057  -4.643  0.00  0.00    -0.004 A 
ATOM      5  C7  UNL d   1      -0.058   2.043  -4.121  0.00  0.00     0.002 A 
ATOM      6  C8  UNL d   1      -0.639   0.970  -3.444  0.00  0.00     0.002 A 
ENDROOT
BRANCH   1   7
ATOM      7  C2  UNL d   1      -2.656  -0.277  -2.572  0.00  0.00     0.056 C 
BRANCH   7   8
ATOM      8  C1  UNL d   1      -1.682  -1.424  -2.285  0.00  0.00     0.007 C 
ATOM      9  C   UNL d   1      -1.716  -1.893  -0.836  0.00  0.00     0.009 C 
ENDBRANCH   7   8
ENDBRANCH   1   7
TORSDOF 2
ENDMDL
