MODEL 1
REMARK minimizedAffinity 10.1572828
REMARK minimizedRMSD -1
REMARK  2 active torsions:
REMARK  status: ('A' for Active; 'I' for Inactive)
REMARK    1  A    between atoms: C1_2  and  C2_3 
REMARK    2  A    between atoms: C2_3  and  C3_4 
ROOT
ATOM      1  C3  UNL d   1      -1.914  -2.014  -0.141  0.00  0.00    -0.075 A 
ATOM      2  C4  UNL d   1      -3.013  -1.229   0.237  0.00  0.00     0.002 A 
ATOM      3  C5  UNL d   1      -3.514  -0.251  -0.622  0.00  0.00     0.002 A 
ATOM      4  C6  UNL d   1      -2.918  -0.038  -1.863  0.00  0.00    -0.004 A 
ATOM      5  C7  UNL d   1      -1.815  -0.801  -2.243  0.00  0.00     0.002 A 
ATOM      6  C8  UNL d   1      -1.315  -1.784  -1.387  0.00  0.00     0.002 A 
ENDROOT
BRANCH   1   7
ATOM      7  C2  UNL d   1      -1.386  -3.095   0.772  0.00  0.00     0.056 C 
BRANCH   7   8
ATOM      8  C1  UNL d   1      -0.422  -4.071   0.090  0.00  0.00     0.007 C 
ATOM      9  C   UNL d   1      -0.523  -5.491   0.632  0.00  0.00     0.009 C 
ENDBRANCH   7   8
ENDBRANCH   1   7
TORSDOF 2
ENDMDL
