MODEL 1
REMARK minimizedAffinity 8.10337448
REMARK minimizedRMSD -1
REMARK  2 active torsions:
REMARK  status: ('A' for Active; 'I' for Inactive)
REMARK    1  A    between atoms: C1_2  and  C2_3 
REMARK    2  A    between atoms: C2_3  and  C3_4 
ROOT
ATOM      1  C3  UNL d   1      -2.301  -0.971   5.357  0.00  0.00    -0.075 A 
ATOM      2  C4  UNL d   1      -3.030  -1.558   4.313  0.00  0.00     0.002 A 
ATOM      3  C5  UNL d   1      -2.762  -2.867   3.911  0.00  0.00     0.002 A 
ATOM      4  C6  UNL d   1      -1.758  -3.600   4.539  0.00  0.00    -0.004 A 
ATOM      5  C7  UNL d   1      -1.017  -3.021   5.567  0.00  0.00     0.002 A 
ATOM      6  C8  UNL d   1      -1.285  -1.713   5.974  0.00  0.00     0.002 A 
ENDROOT
BRANCH   1   7
ATOM      7  C2  UNL d   1      -2.606   0.435   5.817  0.00  0.00     0.056 C 
BRANCH   7   8
ATOM      8  C1  UNL d   1      -4.101   0.721   6.000  0.00  0.00     0.007 C 
ATOM      9  C   UNL d   1      -4.432   2.207   6.000  0.00  0.00     0.009 C 
ENDBRANCH   7   8
ENDBRANCH   1   7
TORSDOF 2
ENDMDL
