MODEL 1
REMARK minimizedAffinity 18.3561783
REMARK minimizedRMSD -1
REMARK  2 active torsions:
REMARK  status: ('A' for Active; 'I' for Inactive)
REMARK    1  A    between atoms: C1_2  and  C2_3 
REMARK    2  A    between atoms: C2_3  and  C3_4 
ROOT
ATOM      1  C3  UNL d   1      -2.557   0.157   5.988  0.00  0.00    -0.075 A 
ATOM      2  C4  UNL d   1      -1.182  -0.120   5.979  0.00  0.00     0.002 A 
ATOM      3  C5  UNL d   1      -0.725  -1.438   5.948  0.00  0.00     0.002 A 
ATOM      4  C6  UNL d   1      -1.634  -2.494   5.935  0.00  0.00    -0.004 A 
ATOM      5  C7  UNL d   1      -3.002  -2.231   5.960  0.00  0.00     0.002 A 
ATOM      6  C8  UNL d   1      -3.462  -0.913   5.987  0.00  0.00     0.002 A 
ENDROOT
BRANCH   1   7
ATOM      7  C2  UNL d   1      -3.058   1.581   5.992  0.00  0.00     0.056 C 
BRANCH   7   8
ATOM      8  C1  UNL d   1      -4.341   1.793   5.182  0.00  0.00     0.007 C 
ATOM      9  C   UNL d   1      -5.449   2.469   5.979  0.00  0.00     0.009 C 
ENDBRANCH   7   8
ENDBRANCH   1   7
TORSDOF 2
ENDMDL
