MODEL 1
REMARK minimizedAffinity 8.28726864
REMARK minimizedRMSD -1
REMARK  2 active torsions:
REMARK  status: ('A' for Active; 'I' for Inactive)
REMARK    1  A    between atoms: C1_2  and  C2_3 
REMARK    2  A    between atoms: C2_3  and  C3_4 
ROOT
ATOM      1  C3  UNL d   1      -1.254  -3.833   2.102  0.00  0.00    -0.075 A 
ATOM      2  C4  UNL d   1      -1.140  -3.218   0.846  0.00  0.00     0.002 A 
ATOM      3  C5  UNL d   1      -0.546  -3.892  -0.221  0.00  0.00     0.002 A 
ATOM      4  C6  UNL d   1      -0.049  -5.182  -0.045  0.00  0.00    -0.004 A 
ATOM      5  C7  UNL d   1      -0.142  -5.796   1.202  0.00  0.00     0.002 A 
ATOM      6  C8  UNL d   1      -0.740  -5.126   2.271  0.00  0.00     0.002 A 
ENDROOT
BRANCH   1   7
ATOM      7  C2  UNL d   1      -1.923  -3.121   3.253  0.00  0.00     0.056 C 
BRANCH   7   8
ATOM      8  C1  UNL d   1      -1.292  -3.413   4.619  0.00  0.00     0.007 C 
ATOM      9  C   UNL d   1      -0.970  -2.155   5.413  0.00  0.00     0.009 C 
ENDBRANCH   7   8
ENDBRANCH   1   7
TORSDOF 2
ENDMDL
