MODEL 1
REMARK minimizedAffinity 7.63222885
REMARK minimizedRMSD -1
REMARK  2 active torsions:
REMARK  status: ('A' for Active; 'I' for Inactive)
REMARK    1  A    between atoms: C1_2  and  C2_3 
REMARK    2  A    between atoms: C2_3  and  C3_4 
ROOT
ATOM      1  C3  UNL d   1      -4.557   5.324  -3.636  0.00  0.00    -0.075 A 
ATOM      2  C4  UNL d   1      -4.152   4.030  -3.995  0.00  0.00     0.002 A 
ATOM      3  C5  UNL d   1      -4.655   3.424  -5.147  0.00  0.00     0.002 A 
ATOM      4  C6  UNL d   1      -5.576   4.098  -5.946  0.00  0.00    -0.004 A 
ATOM      5  C7  UNL d   1      -5.998   5.377  -5.590  0.00  0.00     0.002 A 
ATOM      6  C8  UNL d   1      -5.492   5.988  -4.441  0.00  0.00     0.002 A 
ENDROOT
BRANCH   1   7
ATOM      7  C2  UNL d   1      -3.993   5.997  -2.408  0.00  0.00     0.056 C 
BRANCH   7   8
ATOM      8  C1  UNL d   1      -4.892   5.892  -1.171  0.00  0.00     0.007 C 
ATOM      9  C   UNL d   1      -4.496   4.758  -0.235  0.00  0.00     0.009 C 
ENDBRANCH   7   8
ENDBRANCH   1   7
TORSDOF 2
ENDMDL
