MODEL 1
REMARK minimizedAffinity 9.32720852
REMARK minimizedRMSD -1
REMARK  2 active torsions:
REMARK  status: ('A' for Active; 'I' for Inactive)
REMARK    1  A    between atoms: C1_2  and  C2_3 
REMARK    2  A    between atoms: C2_3  and  C3_4 
ROOT
ATOM      1  C3  UNL d   1      -3.437   4.498  -4.934  0.00  0.00    -0.075 A 
ATOM      2  C4  UNL d   1      -3.991   5.786  -4.958  0.00  0.00     0.002 A 
ATOM      3  C5  UNL d   1      -5.266   6.000  -5.484  0.00  0.00     0.002 A 
ATOM      4  C6  UNL d   1      -5.998   4.932  -6.000  0.00  0.00    -0.004 A 
ATOM      5  C7  UNL d   1      -5.451   3.651  -5.996  0.00  0.00     0.002 A 
ATOM      6  C8  UNL d   1      -4.177   3.434  -5.467  0.00  0.00     0.002 A 
ENDROOT
BRANCH   1   7
ATOM      7  C2  UNL d   1      -2.070   4.256  -4.340  0.00  0.00     0.056 C 
BRANCH   7   8
ATOM      8  C1  UNL d   1      -1.561   2.821  -4.511  0.00  0.00     0.007 C 
ATOM      9  C   UNL d   1      -0.061   2.741  -4.759  0.00  0.00     0.009 C 
ENDBRANCH   7   8
ENDBRANCH   1   7
TORSDOF 2
ENDMDL
