MODEL 1
REMARK minimizedAffinity 19.6066704
REMARK minimizedRMSD -1
REMARK  2 active torsions:
REMARK  status: ('A' for Active; 'I' for Inactive)
REMARK    1  A    between atoms: C1_2  and  C2_3 
REMARK    2  A    between atoms: C2_3  and  C3_4 
ROOT
ATOM      1  C3  UNL d   1      -4.751   5.728  -3.478  0.00  0.00    -0.075 A 
ATOM      2  C4  UNL d   1      -5.916   5.994  -2.743  0.00  0.00     0.002 A 
ATOM      3  C5  UNL d   1      -5.952   5.769  -1.367  0.00  0.00     0.002 A 
ATOM      4  C6  UNL d   1      -4.831   5.266  -0.710  0.00  0.00    -0.004 A 
ATOM      5  C7  UNL d   1      -3.674   4.982  -1.433  0.00  0.00     0.002 A 
ATOM      6  C8  UNL d   1      -3.633   5.211  -2.809  0.00  0.00     0.002 A 
ENDROOT
BRANCH   1   7
ATOM      7  C2  UNL d   1      -4.695   5.998  -4.962  0.00  0.00     0.056 C 
BRANCH   7   8
ATOM      8  C1  UNL d   1      -5.911   5.480  -5.737  0.00  0.00     0.007 C 
ATOM      9  C   UNL d   1      -5.893   3.971  -5.944  0.00  0.00     0.009 C 
ENDBRANCH   7   8
ENDBRANCH   1   7
TORSDOF 2
ENDMDL
