MODEL 1
REMARK minimizedAffinity 10.8676052
REMARK minimizedRMSD -1
REMARK  2 active torsions:
REMARK  status: ('A' for Active; 'I' for Inactive)
REMARK    1  A    between atoms: C1_2  and  C2_3 
REMARK    2  A    between atoms: C2_3  and  C3_4 
ROOT
ATOM      1  C3  UNL d   1      -0.633   2.594  -4.487  0.00  0.00    -0.075 A 
ATOM      2  C4  UNL d   1      -0.947   3.381  -5.605  0.00  0.00     0.002 A 
ATOM      3  C5  UNL d   1      -2.274   3.553  -6.000  0.00  0.00     0.002 A 
ATOM      4  C6  UNL d   1      -3.301   2.934  -5.291  0.00  0.00    -0.004 A 
ATOM      5  C7  UNL d   1      -2.999   2.136  -4.189  0.00  0.00     0.002 A 
ATOM      6  C8  UNL d   1      -1.672   1.966  -3.789  0.00  0.00     0.002 A 
ENDROOT
BRANCH   1   7
ATOM      7  C2  UNL d   1       0.799   2.428  -4.037  0.00  0.00     0.056 C 
BRANCH   7   8
ATOM      8  C1  UNL d   1       1.041   1.184  -3.175  0.00  0.00     0.007 C 
ATOM      9  C   UNL d   1       2.161   1.367  -2.159  0.00  0.00     0.009 C 
ENDBRANCH   7   8
ENDBRANCH   1   7
TORSDOF 2
ENDMDL
