MODEL 1
REMARK minimizedAffinity 7.26396036
REMARK minimizedRMSD -1
REMARK  2 active torsions:
REMARK  status: ('A' for Active; 'I' for Inactive)
REMARK    1  A    between atoms: C1_2  and  C2_3 
REMARK    2  A    between atoms: C2_3  and  C3_4 
ROOT
ATOM      1  C3  UNL d   1      -1.534  -2.372  -0.179  0.00  0.00    -0.075 A 
ATOM      2  C4  UNL d   1      -0.758  -2.783  -1.272  0.00  0.00     0.002 A 
ATOM      3  C5  UNL d   1      -0.928  -2.191  -2.524  0.00  0.00     0.002 A 
ATOM      4  C6  UNL d   1      -1.881  -1.191  -2.701  0.00  0.00    -0.004 A 
ATOM      5  C7  UNL d   1      -2.670  -0.787  -1.626  0.00  0.00     0.002 A 
ATOM      6  C8  UNL d   1      -2.498  -1.374  -0.371  0.00  0.00     0.002 A 
ENDROOT
BRANCH   1   7
ATOM      7  C2  UNL d   1      -1.334  -2.988   1.186  0.00  0.00     0.056 C 
BRANCH   7   8
ATOM      8  C1  UNL d   1      -2.435  -2.641   2.194  0.00  0.00     0.007 C 
ATOM      9  C   UNL d   1      -2.062  -2.981   3.630  0.00  0.00     0.009 C 
ENDBRANCH   7   8
ENDBRANCH   1   7
TORSDOF 2
ENDMDL
