MODEL 1
REMARK minimizedAffinity 14.5772018
REMARK minimizedRMSD -1
REMARK  2 active torsions:
REMARK  status: ('A' for Active; 'I' for Inactive)
REMARK    1  A    between atoms: C1_2  and  C2_3 
REMARK    2  A    between atoms: C2_3  and  C3_4 
ROOT
ATOM      1  C3  UNL d   1      -2.130   3.412  -5.371  0.00  0.00    -0.075 A 
ATOM      2  C4  UNL d   1      -2.253   2.612  -4.226  0.00  0.00     0.002 A 
ATOM      3  C5  UNL d   1      -1.125   2.041  -3.636  0.00  0.00     0.002 A 
ATOM      4  C6  UNL d   1       0.136   2.253  -4.189  0.00  0.00    -0.004 A 
ATOM      5  C7  UNL d   1       0.268   3.032  -5.336  0.00  0.00     0.002 A 
ATOM      6  C8  UNL d   1      -0.858   3.608  -5.926  0.00  0.00     0.002 A 
ENDROOT
BRANCH   1   7
ATOM      7  C2  UNL d   1      -3.344   4.057  -5.997  0.00  0.00     0.056 C 
BRANCH   7   8
ATOM      8  C1  UNL d   1      -4.595   3.173  -5.986  0.00  0.00     0.007 C 
ATOM      9  C   UNL d   1      -5.893   3.970  -5.992  0.00  0.00     0.009 C 
ENDBRANCH   7   8
ENDBRANCH   1   7
TORSDOF 2
ENDMDL
