MODEL 1
REMARK minimizedAffinity 9.42466545
REMARK minimizedRMSD -1
REMARK  2 active torsions:
REMARK  status: ('A' for Active; 'I' for Inactive)
REMARK    1  A    between atoms: C1_2  and  C2_3 
REMARK    2  A    between atoms: C2_3  and  C3_4 
ROOT
ATOM      1  C3  UNL d   1      -2.810   4.034  -5.254  0.00  0.00    -0.075 A 
ATOM      2  C4  UNL d   1      -3.935   3.627  -5.986  0.00  0.00     0.002 A 
ATOM      3  C5  UNL d   1      -5.092   4.406  -5.999  0.00  0.00     0.002 A 
ATOM      4  C6  UNL d   1      -5.143   5.594  -5.274  0.00  0.00    -0.004 A 
ATOM      5  C7  UNL d   1      -4.038   6.000  -4.529  0.00  0.00     0.002 A 
ATOM      6  C8  UNL d   1      -2.877   5.225  -4.518  0.00  0.00     0.002 A 
ENDROOT
BRANCH   1   7
ATOM      7  C2  UNL d   1      -1.545   3.210  -5.259  0.00  0.00     0.056 C 
BRANCH   7   8
ATOM      8  C1  UNL d   1      -0.317   3.956  -5.791  0.00  0.00     0.007 C 
ATOM      9  C   UNL d   1       0.916   3.787  -4.914  0.00  0.00     0.009 C 
ENDBRANCH   7   8
ENDBRANCH   1   7
TORSDOF 2
ENDMDL
