MODEL 1
REMARK minimizedAffinity 11.3434362
REMARK minimizedRMSD -1
REMARK  2 active torsions:
REMARK  status: ('A' for Active; 'I' for Inactive)
REMARK    1  A    between atoms: C1_2  and  C2_3 
REMARK    2  A    between atoms: C2_3  and  C3_4 
ROOT
ATOM      1  C3  UNL d   1      -2.906  -1.161   5.407  0.00  0.00    -0.075 A 
ATOM      2  C4  UNL d   1      -4.309  -1.146   5.424  0.00  0.00     0.002 A 
ATOM      3  C5  UNL d   1      -5.001   0.030   5.711  0.00  0.00     0.002 A 
ATOM      4  C6  UNL d   1      -4.302   1.202   5.995  0.00  0.00    -0.004 A 
ATOM      5  C7  UNL d   1      -2.909   1.194   5.997  0.00  0.00     0.002 A 
ATOM      6  C8  UNL d   1      -2.214   0.020   5.705  0.00  0.00     0.002 A 
ENDROOT
BRANCH   1   7
ATOM      7  C2  UNL d   1      -2.151  -2.424   5.068  0.00  0.00     0.056 C 
BRANCH   7   8
ATOM      8  C1  UNL d   1      -2.992  -3.477   4.337  0.00  0.00     0.007 C 
ATOM      9  C   UNL d   1      -2.514  -3.748   2.917  0.00  0.00     0.009 C 
ENDBRANCH   7   8
ENDBRANCH   1   7
TORSDOF 2
ENDMDL
