MODEL 1
REMARK minimizedAffinity 10.1650295
REMARK minimizedRMSD -1
REMARK  2 active torsions:
REMARK  status: ('A' for Active; 'I' for Inactive)
REMARK    1  A    between atoms: C1_2  and  C2_3 
REMARK    2  A    between atoms: C2_3  and  C3_4 
ROOT
ATOM      1  C3  UNL d   1      -3.762  -0.021   5.998  0.00  0.00    -0.075 A 
ATOM      2  C4  UNL d   1      -5.160  -0.126   6.000  0.00  0.00     0.002 A 
ATOM      3  C5  UNL d   1      -5.956   1.019   5.980  0.00  0.00     0.002 A 
ATOM      4  C6  UNL d   1      -5.367   2.281   5.970  0.00  0.00    -0.004 A 
ATOM      5  C7  UNL d   1      -3.978   2.397   5.985  0.00  0.00     0.002 A 
ATOM      6  C8  UNL d   1      -3.179   1.253   6.000  0.00  0.00     0.002 A 
ENDROOT
BRANCH   1   7
ATOM      7  C2  UNL d   1      -2.894  -1.257   5.990  0.00  0.00     0.056 C 
BRANCH   7   8
ATOM      8  C1  UNL d   1      -1.835  -1.268   4.883  0.00  0.00     0.007 C 
ATOM      9  C   UNL d   1      -1.570  -2.657   4.318  0.00  0.00     0.009 C 
ENDBRANCH   7   8
ENDBRANCH   1   7
TORSDOF 2
ENDMDL
