MODEL 1
REMARK minimizedAffinity 14.5889082
REMARK minimizedRMSD -1
REMARK  1 active torsions:
REMARK  status: ('A' for Active; 'I' for Inactive)
REMARK    1  A    between atoms: C1_2  and  C2_3 
ROOT
ATOM      1  C2  UNL d   1       1.989   0.649   0.923  0.00  0.00    -0.076 A 
ATOM      2  C3  UNL d   1       2.470   1.969   0.867  0.00  0.00     0.004 A 
ATOM      3  C4  UNL d   1       3.530   2.311   0.029  0.00  0.00    -0.003 A 
ATOM      4  C5  UNL d   1       4.127   1.339  -0.767  0.00  0.00     0.000 A 
ATOM      5  C6  UNL d   1       3.651   0.029  -0.737  0.00  0.00     0.000 A 
ATOM      6  C7  UNL d   1       2.572  -0.330   0.090  0.00  0.00    -0.073 A 
ATOM      7  C8  UNL d   1       2.104  -1.759   0.086  0.00  0.00     0.078 C 
ENDROOT
BRANCH   1   8
ATOM      8  C1  UNL d   1       0.855   0.331   1.870  0.00  0.00     0.053 C 
ATOM      9  C   UNL d   1       1.049   0.957   3.243  0.00  0.00     0.018 C 
ENDBRANCH   1   8
TORSDOF 1
ENDMDL
