MODEL 1
REMARK minimizedAffinity 3.39381599
REMARK minimizedRMSD -1
REMARK  1 active torsions:
REMARK  status: ('A' for Active; 'I' for Inactive)
REMARK    1  A    between atoms: C1_2  and  C2_3 
ROOT
ATOM      1  C2  UNL d   1      -5.118   4.396   2.287  0.00  0.00    -0.076 A 
ATOM      2  C3  UNL d   1      -5.999   4.413   3.382  0.00  0.00     0.004 A 
ATOM      3  C4  UNL d   1      -5.738   5.204   4.500  0.00  0.00    -0.003 A 
ATOM      4  C5  UNL d   1      -4.592   5.991   4.540  0.00  0.00     0.000 A 
ATOM      5  C6  UNL d   1      -3.717   6.000   3.455  0.00  0.00     0.000 A 
ATOM      6  C7  UNL d   1      -3.973   5.221   2.314  0.00  0.00    -0.073 A 
ATOM      7  C8  UNL d   1      -2.992   5.264   1.175  0.00  0.00     0.078 C 
ENDROOT
BRANCH   1   8
ATOM      8  C1  UNL d   1      -5.439   3.498   1.113  0.00  0.00     0.053 C 
ATOM      9  C   UNL d   1      -5.999   2.152   1.546  0.00  0.00     0.018 C 
ENDBRANCH   1   8
TORSDOF 1
ENDMDL
