MODEL 1
REMARK minimizedAffinity 10.649374
REMARK minimizedRMSD -1
REMARK  1 active torsions:
REMARK  status: ('A' for Active; 'I' for Inactive)
REMARK    1  A    between atoms: C1_2  and  C2_3 
ROOT
ATOM      1  C2  UNL d   1       4.803   3.487   2.797  0.00  0.00    -0.076 A 
ATOM      2  C3  UNL d   1       5.691   3.406   1.710  0.00  0.00     0.004 A 
ATOM      3  C4  UNL d   1       5.223   3.176   0.417  0.00  0.00    -0.003 A 
ATOM      4  C5  UNL d   1       3.859   3.023   0.190  0.00  0.00     0.000 A 
ATOM      5  C6  UNL d   1       2.963   3.118   1.254  0.00  0.00     0.000 A 
ATOM      6  C7  UNL d   1       3.417   3.366   2.561  0.00  0.00    -0.073 A 
ATOM      7  C8  UNL d   1       2.406   3.453   3.672  0.00  0.00     0.078 C 
ENDROOT
BRANCH   1   8
ATOM      8  C1  UNL d   1       5.371   3.711   4.180  0.00  0.00     0.053 C 
ATOM      9  C   UNL d   1       5.355   5.177   4.586  0.00  0.00     0.018 C 
ENDBRANCH   1   8
TORSDOF 1
ENDMDL
