MODEL 1
REMARK minimizedAffinity 6.16087341
REMARK minimizedRMSD -1
REMARK  1 active torsions:
REMARK  status: ('A' for Active; 'I' for Inactive)
REMARK    1  A    between atoms: C1_2  and  C2_3 
ROOT
ATOM      1  C2  UNL d   1      -0.126  -2.601   4.823  0.00  0.00    -0.076 A 
ATOM      2  C3  UNL d   1      -0.663  -1.439   4.242  0.00  0.00     0.004 A 
ATOM      3  C4  UNL d   1       0.056  -0.245   4.232  0.00  0.00    -0.003 A 
ATOM      4  C5  UNL d   1       1.324  -0.194   4.801  0.00  0.00     0.000 A 
ATOM      5  C6  UNL d   1       1.879  -1.341   5.366  0.00  0.00     0.000 A 
ATOM      6  C7  UNL d   1       1.174  -2.557   5.370  0.00  0.00    -0.073 A 
ATOM      7  C8  UNL d   1       1.818  -3.763   5.999  0.00  0.00     0.078 C 
ENDROOT
BRANCH   1   8
ATOM      8  C1  UNL d   1      -0.963  -3.860   4.830  0.00  0.00     0.053 C 
ATOM      9  C   UNL d   1      -0.637  -4.783   3.666  0.00  0.00     0.018 C 
ENDBRANCH   1   8
TORSDOF 1
ENDMDL
