MODEL 1
REMARK minimizedAffinity 8.78610039
REMARK minimizedRMSD -1
REMARK  1 active torsions:
REMARK  status: ('A' for Active; 'I' for Inactive)
REMARK    1  A    between atoms: C1_2  and  C2_3 
ROOT
ATOM      1  C2  UNL d   1      -4.623   4.851   2.385  0.00  0.00    -0.076 A 
ATOM      2  C3  UNL d   1      -5.809   4.541   3.073  0.00  0.00     0.004 A 
ATOM      3  C4  UNL d   1      -5.996   4.938   4.396  0.00  0.00    -0.003 A 
ATOM      4  C5  UNL d   1      -5.000   5.654   5.052  0.00  0.00     0.000 A 
ATOM      5  C6  UNL d   1      -3.825   5.986   4.379  0.00  0.00     0.000 A 
ATOM      6  C7  UNL d   1      -3.627   5.607   3.040  0.00  0.00    -0.073 A 
ATOM      7  C8  UNL d   1      -2.338   5.987   2.365  0.00  0.00     0.078 C 
ENDROOT
BRANCH   1   8
ATOM      8  C1  UNL d   1      -4.465   4.370   0.961  0.00  0.00     0.053 C 
ATOM      9  C   UNL d   1      -4.379   5.516  -0.036  0.00  0.00     0.018 C 
ENDBRANCH   1   8
TORSDOF 1
ENDMDL
