MODEL 1
REMARK minimizedAffinity 2.95458746
REMARK minimizedRMSD -1
REMARK  1 active torsions:
REMARK  status: ('A' for Active; 'I' for Inactive)
REMARK    1  A    between atoms: C1_2  and  C2_3 
ROOT
ATOM      1  C2  UNL d   1       0.364  -2.943   4.562  0.00  0.00    -0.076 A 
ATOM      2  C3  UNL d   1      -0.924  -3.336   4.159  0.00  0.00     0.004 A 
ATOM      3  C4  UNL d   1      -1.508  -4.499   4.658  0.00  0.00    -0.003 A 
ATOM      4  C5  UNL d   1      -0.814  -5.288   5.569  0.00  0.00     0.000 A 
ATOM      5  C6  UNL d   1       0.457  -4.903   5.994  0.00  0.00     0.000 A 
ATOM      6  C7  UNL d   1       1.054  -3.725   5.513  0.00  0.00    -0.073 A 
ATOM      7  C8  UNL d   1       2.430  -3.362   6.000  0.00  0.00     0.078 C 
ENDROOT
BRANCH   1   8
ATOM      8  C1  UNL d   1       0.957  -1.686   3.967  0.00  0.00     0.053 C 
ATOM      9  C   UNL d   1       0.749  -0.467   4.852  0.00  0.00     0.018 C 
ENDBRANCH   1   8
TORSDOF 1
ENDMDL
