MODEL 1
REMARK minimizedAffinity -5.5992198
REMARK minimizedRMSD -1
REMARK  0 active torsions:
REMARK  status: ('A' for Active; 'I' for Inactive)
ROOT
ATOM      1  N1  IND d   1       0.146  -1.188  -2.244  0.00  0.00    -0.196 N 
ATOM      2  C2  IND d   1       0.055  -2.551  -2.306  0.00  0.00     0.054 A 
ATOM      3  C3  IND d   1      -0.307  -3.053  -1.103  0.00  0.00    -0.031 A 
ATOM      4  C4  IND d   1      -0.900  -1.815   1.074  0.00  0.00     0.051 A 
ATOM      5  C5  IND d   1      -0.928  -0.567   1.631  0.00  0.00    -0.031 A 
ATOM      6  C6  IND d   1      -0.596   0.561   0.908  0.00  0.00     0.015 A 
ATOM      7  C7  IND d   1      -0.232   0.483  -0.406  0.00  0.00    -0.016 A 
ATOM      8  C8  IND d   1      -0.196  -0.783  -0.972  0.00  0.00    -0.047 A 
ATOM      9  C9  IND d   1      -0.490  -1.935  -0.233  0.00  0.00    -0.096 A 
ATOM     10  HN1 IND d   1       0.377  -0.671  -2.891  0.00  0.00     0.298 HD
ENDROOT
TORSDOF 0
ENDMDL
