MODEL 1
REMARK minimizedAffinity -5.38008833
REMARK minimizedRMSD -1
REMARK  0 active torsions:
REMARK  status: ('A' for Active; 'I' for Inactive)
ROOT
ATOM      1  N1  IND d   1      -0.103   0.561  -0.830  0.00  0.00    -0.196 N 
ATOM      2  C2  IND d   1      -0.427   0.992   0.426  0.00  0.00     0.054 A 
ATOM      3  C3  IND d   1      -0.673  -0.062   1.237  0.00  0.00    -0.031 A 
ATOM      4  C4  IND d   1      -0.503  -2.582   0.738  0.00  0.00     0.051 A 
ATOM      5  C5  IND d   1      -0.279  -3.466  -0.279  0.00  0.00    -0.031 A 
ATOM      6  C6  IND d   1       0.024  -3.044  -1.558  0.00  0.00     0.015 A 
ATOM      7  C7  IND d   1       0.126  -1.717  -1.865  0.00  0.00    -0.016 A 
ATOM      8  C8  IND d   1      -0.108  -0.816  -0.836  0.00  0.00    -0.047 A 
ATOM      9  C9  IND d   1      -0.458  -1.237   0.454  0.00  0.00    -0.096 A 
ATOM     10  HN1 IND d   1       0.073   1.066  -1.503  0.00  0.00     0.298 HD
ENDROOT
TORSDOF 0
ENDMDL
