MODEL 1
REMARK minimizedAffinity -4.01210165
REMARK minimizedRMSD -1
REMARK  0 active torsions:
REMARK  status: ('A' for Active; 'I' for Inactive)
ROOT
ATOM      1  N1  IND d   1      -0.046   0.842  -0.456  0.00  0.00    -0.196 N 
ATOM      2  C2  IND d   1      -0.940   1.356   0.442  0.00  0.00     0.054 A 
ATOM      3  C3  IND d   1      -1.462   0.368   1.203  0.00  0.00    -0.031 A 
ATOM      4  C4  IND d   1      -0.917  -2.147   1.218  0.00  0.00     0.051 A 
ATOM      5  C5  IND d   1      -0.191  -3.096   0.554  0.00  0.00    -0.031 A 
ATOM      6  C6  IND d   1       0.640  -2.774  -0.499  0.00  0.00     0.015 A 
ATOM      7  C7  IND d   1       0.784  -1.483  -0.923  0.00  0.00    -0.016 A 
ATOM      8  C8  IND d   1       0.043  -0.518  -0.256  0.00  0.00    -0.047 A 
ATOM      9  C9  IND d   1      -0.834  -0.845   0.786  0.00  0.00    -0.096 A 
ATOM     10  HN1 IND d   1       0.388   1.293  -1.045  0.00  0.00     0.298 HD
ENDROOT
TORSDOF 0
ENDMDL
