MODEL 1
REMARK minimizedAffinity -4.32637882
REMARK minimizedRMSD -1
REMARK  0 active torsions:
REMARK  status: ('A' for Active; 'I' for Inactive)
ROOT
ATOM      1  N1  IND d   1       0.218  -2.738  -0.897  0.00  0.00    -0.196 N 
ATOM      2  C2  IND d   1      -0.356  -3.414   0.144  0.00  0.00     0.054 A 
ATOM      3  C3  IND d   1      -0.887  -2.545   1.033  0.00  0.00    -0.031 A 
ATOM      4  C4  IND d   1      -1.018   0.024   0.930  0.00  0.00     0.051 A 
ATOM      5  C5  IND d   1      -0.601   1.096   0.191  0.00  0.00    -0.031 A 
ATOM      6  C6  IND d   1       0.123   0.940  -0.973  0.00  0.00     0.015 A 
ATOM      7  C7  IND d   1       0.448  -0.298  -1.450  0.00  0.00    -0.016 A 
ATOM      8  C8  IND d   1       0.032  -1.388  -0.698  0.00  0.00    -0.047 A 
ATOM      9  C9  IND d   1      -0.666  -1.235   0.507  0.00  0.00    -0.096 A 
ATOM     10  HN1 IND d   1       0.627  -3.097  -1.563  0.00  0.00     0.298 HD
ENDROOT
TORSDOF 0
ENDMDL
