MODEL 1
REMARK minimizedAffinity -1.79737508
REMARK minimizedRMSD -1
REMARK  0 active torsions:
REMARK  status: ('A' for Active; 'I' for Inactive)
ROOT
ATOM      1  N1  IND d   1       0.893   5.638   3.105  0.00  0.00    -0.196 N 
ATOM      2  C2  IND d   1      -0.435   5.733   3.413  0.00  0.00     0.054 A 
ATOM      3  C3  IND d   1      -1.167   4.957   2.582  0.00  0.00    -0.031 A 
ATOM      4  C4  IND d   1      -0.384   3.370   0.713  0.00  0.00     0.051 A 
ATOM      5  C5  IND d   1       0.735   2.972   0.035  0.00  0.00    -0.031 A 
ATOM      6  C6  IND d   1       1.989   3.451   0.355  0.00  0.00     0.015 A 
ATOM      7  C7  IND d   1       2.174   4.340   1.375  0.00  0.00    -0.016 A 
ATOM      8  C8  IND d   1       1.039   4.751   2.061  0.00  0.00    -0.047 A 
ATOM      9  C9  IND d   1      -0.241   4.301   1.714  0.00  0.00    -0.096 A 
ATOM     10  HN1 IND d   1       1.531   6.061   3.497  0.00  0.00     0.298 HD
ENDROOT
TORSDOF 0
ENDMDL
