MODEL 1
REMARK minimizedAffinity -3.5735774
REMARK minimizedRMSD -1
REMARK  0 active torsions:
REMARK  status: ('A' for Active; 'I' for Inactive)
ROOT
ATOM      1  N1  IND d   1      -1.177   0.625   0.236  0.00  0.00    -0.196 N 
ATOM      2  C2  IND d   1      -0.088   1.426   0.035  0.00  0.00     0.054 A 
ATOM      3  C3  IND d   1       1.026   0.675  -0.119  0.00  0.00    -0.031 A 
ATOM      4  C4  IND d   1       1.276  -1.887  -0.179  0.00  0.00     0.051 A 
ATOM      5  C5  IND d   1       0.568  -3.042  -0.004  0.00  0.00    -0.031 A 
ATOM      6  C6  IND d   1      -0.786  -3.035   0.262  0.00  0.00     0.015 A 
ATOM      7  C7  IND d   1      -1.488  -1.866   0.353  0.00  0.00    -0.016 A 
ATOM      8  C8  IND d   1      -0.771  -0.690   0.183  0.00  0.00    -0.047 A 
ATOM      9  C9  IND d   1       0.612  -0.690  -0.045  0.00  0.00    -0.096 A 
ATOM     10  HN1 IND d   1      -1.981   0.897   0.373  0.00  0.00     0.298 HD
ENDROOT
TORSDOF 0
ENDMDL
