MODEL 1
REMARK minimizedAffinity -2.97115231
REMARK minimizedRMSD -1
REMARK  0 active torsions:
REMARK  status: ('A' for Active; 'I' for Inactive)
ROOT
ATOM      1  N1  IND d   1       0.267   2.958   0.855  0.00  0.00    -0.196 N 
ATOM      2  C2  IND d   1       1.176   3.333  -0.095  0.00  0.00     0.054 A 
ATOM      3  C3  IND d   1       1.542   2.268  -0.842  0.00  0.00    -0.031 A 
ATOM      4  C4  IND d   1       0.700  -0.163  -0.747  0.00  0.00     0.051 A 
ATOM      5  C5  IND d   1      -0.105  -0.997  -0.023  0.00  0.00    -0.031 A 
ATOM      6  C6  IND d   1      -0.844  -0.545   1.052  0.00  0.00     0.015 A 
ATOM      7  C7  IND d   1      -0.814   0.766   1.436  0.00  0.00    -0.016 A 
ATOM      8  C8  IND d   1       0.008   1.614   0.707  0.00  0.00    -0.047 A 
ATOM      9  C9  IND d   1       0.792   1.152  -0.358  0.00  0.00    -0.096 A 
ATOM     10  HN1 IND d   1      -0.083   3.476   1.446  0.00  0.00     0.298 HD
ENDROOT
TORSDOF 0
ENDMDL
