MODEL 1
REMARK minimizedAffinity -2.96486664
REMARK minimizedRMSD -1
REMARK  0 active torsions:
REMARK  status: ('A' for Active; 'I' for Inactive)
ROOT
ATOM      1  N1  IND d   1       0.205   0.471  -0.487  0.00  0.00    -0.196 N 
ATOM      2  C2  IND d   1      -0.547  -0.048   0.531  0.00  0.00     0.054 A 
ATOM      3  C3  IND d   1      -0.618   0.829   1.557  0.00  0.00    -0.031 A 
ATOM      4  C4  IND d   1       0.336   3.213   1.741  0.00  0.00     0.051 A 
ATOM      5  C5  IND d   1       1.126   4.111   1.080  0.00  0.00    -0.031 A 
ATOM      6  C6  IND d   1       1.658   3.837  -0.164  0.00  0.00     0.015 A 
ATOM      7  C7  IND d   1       1.409   2.654  -0.800  0.00  0.00    -0.016 A 
ATOM      8  C8  IND d   1       0.613   1.737  -0.129  0.00  0.00    -0.047 A 
ATOM      9  C9  IND d   1       0.106   1.993   1.152  0.00  0.00    -0.096 A 
ATOM     10  HN1 IND d   1       0.391   0.074  -1.226  0.00  0.00     0.298 HD
ENDROOT
TORSDOF 0
ENDMDL
