MODEL 1
REMARK minimizedAffinity -1.9732908
REMARK minimizedRMSD -1
REMARK  0 active torsions:
REMARK  status: ('A' for Active; 'I' for Inactive)
ROOT
ATOM      1  N1  IND d   1       0.935  -2.693  -0.370  0.00  0.00    -0.196 N 
ATOM      2  C2  IND d   1       0.240  -3.595   0.385  0.00  0.00     0.054 A 
ATOM      3  C3  IND d   1      -0.742  -2.973   1.076  0.00  0.00    -0.031 A 
ATOM      4  C4  IND d   1      -1.451  -0.499   1.040  0.00  0.00     0.051 A 
ATOM      5  C5  IND d   1      -1.092   0.718   0.530  0.00  0.00    -0.031 A 
ATOM      6  C6  IND d   1      -0.019   0.862  -0.325  0.00  0.00     0.015 A 
ATOM      7  C7  IND d   1       0.732  -0.212  -0.713  0.00  0.00    -0.016 A 
ATOM      8  C8  IND d   1       0.374  -1.447  -0.192  0.00  0.00    -0.047 A 
ATOM      9  C9  IND d   1      -0.688  -1.593   0.710  0.00  0.00    -0.096 A 
ATOM     10  HN1 IND d   1       1.610  -2.873  -0.872  0.00  0.00     0.298 HD
ENDROOT
TORSDOF 0
ENDMDL
