MODEL 1
REMARK minimizedAffinity -4.07793379
REMARK minimizedRMSD -1
REMARK  0 active torsions:
REMARK  status: ('A' for Active; 'I' for Inactive)
ROOT
ATOM      1  N1  IND d   1       0.069   0.771  -0.674  0.00  0.00    -0.196 N 
ATOM      2  C2  IND d   1      -0.994   1.419  -0.110  0.00  0.00     0.054 A 
ATOM      3  C3  IND d   1      -1.638   0.602   0.754  0.00  0.00    -0.031 A 
ATOM      4  C4  IND d   1      -1.061  -1.802   1.471  0.00  0.00     0.051 A 
ATOM      5  C5  IND d   1      -0.201  -2.829   1.202  0.00  0.00    -0.031 A 
ATOM      6  C6  IND d   1       0.815  -2.706   0.277  0.00  0.00     0.015 A 
ATOM      7  C7  IND d   1       1.017  -1.541  -0.408  0.00  0.00    -0.016 A 
ATOM      8  C8  IND d   1       0.142  -0.498  -0.143  0.00  0.00    -0.047 A 
ATOM      9  C9  IND d   1      -0.918  -0.632   0.764  0.00  0.00    -0.096 A 
ATOM     10  HN1 IND d   1       0.603   1.100  -1.262  0.00  0.00     0.298 HD
ENDROOT
TORSDOF 0
ENDMDL
