MODEL 1
REMARK minimizedAffinity -4.77428102
REMARK minimizedRMSD -1
REMARK  0 active torsions:
REMARK  status: ('A' for Active; 'I' for Inactive)
ROOT
ATOM      1  N1  IND d   1       0.289   0.313  -0.725  0.00  0.00    -0.196 N 
ATOM      2  C2  IND d   1      -0.487   1.126   0.053  0.00  0.00     0.054 A 
ATOM      3  C3  IND d   1      -1.115   0.403   1.008  0.00  0.00    -0.031 A 
ATOM      4  C4  IND d   1      -0.935  -2.109   1.541  0.00  0.00     0.051 A 
ATOM      5  C5  IND d   1      -0.379  -3.270   1.083  0.00  0.00    -0.031 A 
ATOM      6  C6  IND d   1       0.448  -3.296  -0.021  0.00  0.00     0.015 A 
ATOM      7  C7  IND d   1       0.759  -2.156  -0.706  0.00  0.00    -0.016 A 
ATOM      8  C8  IND d   1       0.190  -0.976  -0.248  0.00  0.00    -0.047 A 
ATOM      9  C9  IND d   1      -0.684  -0.949   0.847  0.00  0.00    -0.096 A 
ATOM     10  HN1 IND d   1       0.760   0.564  -1.400  0.00  0.00     0.298 HD
ENDROOT
TORSDOF 0
ENDMDL
