MODEL 1
REMARK minimizedAffinity -0.62192446
REMARK minimizedRMSD -1
REMARK  0 active torsions:
REMARK  status: ('A' for Active; 'I' for Inactive)
ROOT
ATOM      1  N1  IND d   1       0.590  -1.485  -2.215  0.00  0.00    -0.196 N 
ATOM      2  C2  IND d   1       0.541  -2.642  -1.488  0.00  0.00     0.054 A 
ATOM      3  C3  IND d   1       0.246  -2.374  -0.196  0.00  0.00    -0.031 A 
ATOM      4  C4  IND d   1      -0.299  -0.121   0.923  0.00  0.00     0.051 A 
ATOM      5  C5  IND d   1      -0.346   1.222   0.675  0.00  0.00    -0.031 A 
ATOM      6  C6  IND d   1      -0.081   1.742  -0.576  0.00  0.00     0.015 A 
ATOM      7  C7  IND d   1       0.232   0.933  -1.632  0.00  0.00    -0.016 A 
ATOM      8  C8  IND d   1       0.287  -0.431  -1.381  0.00  0.00    -0.047 A 
ATOM      9  C9  IND d   1       0.060  -0.961  -0.104  0.00  0.00    -0.096 A 
ATOM     10  HN1 IND d   1       0.777  -1.426  -3.052  0.00  0.00     0.298 HD
ENDROOT
TORSDOF 0
ENDMDL
