MODEL 1
REMARK minimizedAffinity -2.7012105
REMARK minimizedRMSD -1
REMARK  0 active torsions:
REMARK  status: ('A' for Active; 'I' for Inactive)
ROOT
ATOM      1  N1  IND d   1      -1.188   1.221   0.085  0.00  0.00    -0.196 N 
ATOM      2  C2  IND d   1      -0.187   1.659  -0.737  0.00  0.00     0.054 A 
ATOM      3  C3  IND d   1       0.708   0.671  -0.955  0.00  0.00    -0.031 A 
ATOM      4  C4  IND d   1       0.675  -1.774  -0.149  0.00  0.00     0.051 A 
ATOM      5  C5  IND d   1      -0.019  -2.633   0.656  0.00  0.00    -0.031 A 
ATOM      6  C6  IND d   1      -1.163  -2.245   1.323  0.00  0.00     0.015 A 
ATOM      7  C7  IND d   1      -1.664  -0.980   1.200  0.00  0.00    -0.016 A 
ATOM      8  C8  IND d   1      -0.958  -0.102   0.389  0.00  0.00    -0.047 A 
ATOM      9  C9  IND d   1       0.227  -0.479  -0.256  0.00  0.00    -0.096 A 
ATOM     10  HN1 IND d   1      -1.851   1.693   0.364  0.00  0.00     0.298 HD
ENDROOT
TORSDOF 0
ENDMDL
