MODEL 1
REMARK minimizedAffinity -5.46436262
REMARK minimizedRMSD -1
REMARK  0 active torsions:
REMARK  status: ('A' for Active; 'I' for Inactive)
ROOT
ATOM      1  N1  IND d   1       0.067   0.412  -0.662  0.00  0.00    -0.196 N 
ATOM      2  C2  IND d   1      -0.276   0.752   0.617  0.00  0.00     0.054 A 
ATOM      3  C3  IND d   1      -0.543  -0.357   1.342  0.00  0.00    -0.031 A 
ATOM      4  C4  IND d   1      -0.382  -2.835   0.662  0.00  0.00     0.051 A 
ATOM      5  C5  IND d   1      -0.146  -3.643  -0.415  0.00  0.00    -0.031 A 
ATOM      6  C6  IND d   1       0.183  -3.130  -1.653  0.00  0.00     0.015 A 
ATOM      7  C7  IND d   1       0.299  -1.785  -1.859  0.00  0.00    -0.016 A 
ATOM      8  C8  IND d   1       0.053  -0.961  -0.770  0.00  0.00    -0.047 A 
ATOM      9  C9  IND d   1      -0.323  -1.474   0.478  0.00  0.00    -0.096 A 
ATOM     10  HN1 IND d   1       0.259   0.964  -1.293  0.00  0.00     0.298 HD
ENDROOT
TORSDOF 0
ENDMDL
