MODEL 1
REMARK minimizedAffinity -4.48239708
REMARK minimizedRMSD -1
REMARK  0 active torsions:
REMARK  status: ('A' for Active; 'I' for Inactive)
ROOT
ATOM      1  N1  IND d   1       0.501  -0.012  -0.899  0.00  0.00    -0.196 N 
ATOM      2  C2  IND d   1      -0.050   0.605   0.189  0.00  0.00     0.054 A 
ATOM      3  C3  IND d   1      -0.551  -0.312   1.046  0.00  0.00    -0.031 A 
ATOM      4  C4  IND d   1      -0.486  -2.882   0.913  0.00  0.00     0.051 A 
ATOM      5  C5  IND d   1      -0.120  -3.909   0.089  0.00  0.00    -0.031 A 
ATOM      6  C6  IND d   1       0.486  -3.685  -1.130  0.00  0.00     0.015 A 
ATOM      7  C7  IND d   1       0.761  -2.420  -1.567  0.00  0.00    -0.016 A 
ATOM      8  C8  IND d   1       0.385  -1.375  -0.736  0.00  0.00    -0.047 A 
ATOM      9  C9  IND d   1      -0.270  -1.595   0.483  0.00  0.00    -0.096 A 
ATOM     10  HN1 IND d   1       0.861   0.385  -1.572  0.00  0.00     0.298 HD
ENDROOT
TORSDOF 0
ENDMDL
