MODEL 1
REMARK minimizedAffinity -2.95328665
REMARK minimizedRMSD -1
REMARK  0 active torsions:
REMARK  status: ('A' for Active; 'I' for Inactive)
ROOT
ATOM      1  N1  IND d   1      -0.218   2.115   0.780  0.00  0.00    -0.196 N 
ATOM      2  C2  IND d   1       0.589   2.594  -0.214  0.00  0.00     0.054 A 
ATOM      3  C3  IND d   1       1.085   1.575  -0.950  0.00  0.00    -0.031 A 
ATOM      4  C4  IND d   1       0.626  -0.952  -0.764  0.00  0.00     0.051 A 
ATOM      5  C5  IND d   1      -0.016  -1.875   0.012  0.00  0.00    -0.031 A 
ATOM      6  C6  IND d   1      -0.776  -1.509   1.105  0.00  0.00     0.015 A 
ATOM      7  C7  IND d   1      -0.931  -0.198   1.456  0.00  0.00    -0.016 A 
ATOM      8  C8  IND d   1      -0.275   0.743   0.674  0.00  0.00    -0.047 A 
ATOM      9  C9  IND d   1       0.531   0.374  -0.410  0.00  0.00    -0.096 A 
ATOM     10  HN1 IND d   1      -0.621   2.591   1.372  0.00  0.00     0.298 HD
ENDROOT
TORSDOF 0
ENDMDL
