MODEL 1
REMARK minimizedAffinity 6.31730413
REMARK minimizedRMSD -1
REMARK  0 active torsions:
REMARK  status: ('A' for Active; 'I' for Inactive)
ROOT
ATOM      1  C   UNL d   1       2.546  -1.624  -0.136  0.00  0.00     0.124 A 
ATOM      2  C1  UNL d   1       3.137  -0.799  -1.083  0.00  0.00     0.062 A 
ATOM      3  C2  UNL d   1       2.777   0.543  -1.165  0.00  0.00     0.162 A 
ATOM      4  C3  UNL d   1       1.821   1.070  -0.297  0.00  0.00    -0.034 A 
ATOM      5  C4  UNL d   1       1.230   0.234   0.652  0.00  0.00     0.162 A 
ATOM      6  C5  UNL d   1       1.593  -1.107   0.731  0.00  0.00     0.062 A 
ATOM      7  F   UNL d   1       1.020  -1.902   1.646  0.00  0.00    -0.097 F 
ATOM      8  F1  UNL d   1       0.307   0.707   1.502  0.00  0.00    -0.096 F 
ATOM      9  I   UNL d   1       1.279   3.076  -0.417  0.00  0.00    -0.060 I 
ATOM     10  F2  UNL d   1       3.365   1.316  -2.090  0.00  0.00    -0.096 F 
ATOM     11  F3  UNL d   1       4.057  -1.296  -1.922  0.00  0.00    -0.097 F 
ATOM     12  F4  UNL d   1       2.893  -2.915  -0.059  0.00  0.00    -0.092 F 
ENDROOT
TORSDOF 0
ENDMDL
