MODEL 1
REMARK minimizedAffinity 10.4344931
REMARK minimizedRMSD -1
REMARK  0 active torsions:
REMARK  status: ('A' for Active; 'I' for Inactive)
ROOT
ATOM      1  C   UNL d   1       2.264  -1.281   0.181  0.00  0.00     0.124 A 
ATOM      2  C1  UNL d   1       2.023   0.078   0.029  0.00  0.00     0.062 A 
ATOM      3  C2  UNL d   1       0.773   0.605   0.341  0.00  0.00     0.162 A 
ATOM      4  C3  UNL d   1      -0.244  -0.225   0.811  0.00  0.00    -0.034 A 
ATOM      5  C4  UNL d   1       0.006  -1.590   0.960  0.00  0.00     0.162 A 
ATOM      6  C5  UNL d   1       1.256  -2.113   0.646  0.00  0.00     0.062 A 
ATOM      7  F   UNL d   1       1.488  -3.426   0.794  0.00  0.00    -0.097 F 
ATOM      8  F1  UNL d   1      -0.950  -2.418   1.408  0.00  0.00    -0.096 F 
ATOM      9  I   UNL d   1      -2.114   0.560   1.279  0.00  0.00    -0.060 I 
ATOM     10  F2  UNL d   1       0.568   1.922   0.185  0.00  0.00    -0.096 F 
ATOM     11  F3  UNL d   1       2.995   0.884  -0.421  0.00  0.00    -0.097 F 
ATOM     12  F4  UNL d   1       3.467  -1.786  -0.122  0.00  0.00    -0.092 F 
ENDROOT
TORSDOF 0
ENDMDL
