MODEL 1
REMARK minimizedAffinity 8.7693758
REMARK minimizedRMSD -1
REMARK  0 active torsions:
REMARK  status: ('A' for Active; 'I' for Inactive)
ROOT
ATOM      1  C   UNL d   1      -3.732  -4.784   3.006  0.00  0.00     0.124 A 
ATOM      2  C1  UNL d   1      -4.051  -3.666   3.765  0.00  0.00     0.062 A 
ATOM      3  C2  UNL d   1      -3.635  -2.402   3.359  0.00  0.00     0.162 A 
ATOM      4  C3  UNL d   1      -2.895  -2.248   2.186  0.00  0.00    -0.034 A 
ATOM      5  C4  UNL d   1      -2.577  -3.377   1.429  0.00  0.00     0.162 A 
ATOM      6  C5  UNL d   1      -2.996  -4.639   1.840  0.00  0.00     0.062 A 
ATOM      7  F   UNL d   1      -2.686  -5.717   1.105  0.00  0.00    -0.097 F 
ATOM      8  F1  UNL d   1      -1.867  -3.265   0.297  0.00  0.00    -0.096 F 
ATOM      9  I   UNL d   1      -2.269  -0.360   1.575  0.00  0.00    -0.060 I 
ATOM     10  F2  UNL d   1      -3.957  -1.340   4.111  0.00  0.00    -0.096 F 
ATOM     11  F3  UNL d   1      -4.762  -3.805   4.894  0.00  0.00    -0.097 F 
ATOM     12  F4  UNL d   1      -4.134  -6.000   3.400  0.00  0.00    -0.092 F 
ENDROOT
TORSDOF 0
ENDMDL
