MODEL 1
REMARK minimizedAffinity 13.3512783
REMARK minimizedRMSD -1
REMARK  0 active torsions:
REMARK  status: ('A' for Active; 'I' for Inactive)
ROOT
ATOM      1  C   UNL d   1      -2.978  -2.145   1.938  0.00  0.00     0.124 A 
ATOM      2  C1  UNL d   1      -3.029  -0.803   2.290  0.00  0.00     0.062 A 
ATOM      3  C2  UNL d   1      -3.277   0.166   1.322  0.00  0.00     0.162 A 
ATOM      4  C3  UNL d   1      -3.478  -0.204  -0.009  0.00  0.00    -0.034 A 
ATOM      5  C4  UNL d   1      -3.424  -1.555  -0.355  0.00  0.00     0.162 A 
ATOM      6  C5  UNL d   1      -3.175  -2.519   0.616  0.00  0.00     0.062 A 
ATOM      7  F   UNL d   1      -3.126  -3.815   0.274  0.00  0.00    -0.097 F 
ATOM      8  F1  UNL d   1      -3.612  -1.945  -1.625  0.00  0.00    -0.096 F 
ATOM      9  I   UNL d   1      -3.849   1.242  -1.459  0.00  0.00    -0.060 I 
ATOM     10  F2  UNL d   1      -3.321   1.455   1.690  0.00  0.00    -0.096 F 
ATOM     11  F3  UNL d   1      -2.838  -0.438   3.566  0.00  0.00    -0.097 F 
ATOM     12  F4  UNL d   1      -2.738  -3.075   2.871  0.00  0.00    -0.092 F 
ENDROOT
TORSDOF 0
ENDMDL
