MODEL 1
REMARK minimizedAffinity 12.6467562
REMARK minimizedRMSD -1
REMARK  0 active torsions:
REMARK  status: ('A' for Active; 'I' for Inactive)
ROOT
ATOM      1  C   UNL d   1      -4.265   1.331  -0.870  0.00  0.00     0.124 A 
ATOM      2  C1  UNL d   1      -3.337   0.661  -1.655  0.00  0.00     0.062 A 
ATOM      3  C2  UNL d   1      -2.624   1.347  -2.634  0.00  0.00     0.162 A 
ATOM      4  C3  UNL d   1      -2.835   2.711  -2.833  0.00  0.00    -0.034 A 
ATOM      5  C4  UNL d   1      -3.771   3.378  -2.040  0.00  0.00     0.162 A 
ATOM      6  C5  UNL d   1      -4.481   2.688  -1.063  0.00  0.00     0.062 A 
ATOM      7  F   UNL d   1      -5.377   3.337  -0.305  0.00  0.00    -0.097 F 
ATOM      8  F1  UNL d   1      -3.998   4.689  -2.204  0.00  0.00    -0.096 F 
ATOM      9  I   UNL d   1      -1.770   3.740  -4.296  0.00  0.00    -0.060 I 
ATOM     10  F2  UNL d   1      -1.733   0.674  -3.378  0.00  0.00    -0.096 F 
ATOM     11  F3  UNL d   1      -3.127  -0.651  -1.471  0.00  0.00    -0.097 F 
ATOM     12  F4  UNL d   1      -4.951   0.668   0.071  0.00  0.00    -0.092 F 
ENDROOT
TORSDOF 0
ENDMDL
