MODEL 1
REMARK minimizedAffinity 3.56220984
REMARK minimizedRMSD -1
REMARK  0 active torsions:
REMARK  status: ('A' for Active; 'I' for Inactive)
ROOT
ATOM      1  C   UNL d   1       2.215  -0.832  -0.277  0.00  0.00     0.124 A 
ATOM      2  C1  UNL d   1       3.425  -1.090   0.350  0.00  0.00     0.062 A 
ATOM      3  C2  UNL d   1       3.466  -1.326   1.721  0.00  0.00     0.162 A 
ATOM      4  C3  UNL d   1       2.293  -1.305   2.475  0.00  0.00    -0.034 A 
ATOM      5  C4  UNL d   1       1.079  -1.043   1.837  0.00  0.00     0.162 A 
ATOM      6  C5  UNL d   1       1.043  -0.808   0.466  0.00  0.00     0.062 A 
ATOM      7  F   UNL d   1      -0.128  -0.559  -0.139  0.00  0.00    -0.097 F 
ATOM      8  F1  UNL d   1      -0.068  -1.015   2.531  0.00  0.00    -0.096 F 
ATOM      9  I   UNL d   1       2.350  -1.656   4.525  0.00  0.00    -0.060 I 
ATOM     10  F2  UNL d   1       4.650  -1.573   2.302  0.00  0.00    -0.096 F 
ATOM     11  F3  UNL d   1       4.559  -1.113  -0.366  0.00  0.00    -0.097 F 
ATOM     12  F4  UNL d   1       2.178  -0.604  -1.597  0.00  0.00    -0.092 F 
ENDROOT
TORSDOF 0
ENDMDL
