MODEL 1
REMARK minimizedAffinity 17.2966881
REMARK minimizedRMSD -1
REMARK  0 active torsions:
REMARK  status: ('A' for Active; 'I' for Inactive)
ROOT
ATOM      1  C   UNL d   1       2.016   0.934   0.149  0.00  0.00     0.124 A 
ATOM      2  C1  UNL d   1       0.891   1.128   0.939  0.00  0.00     0.062 A 
ATOM      3  C2  UNL d   1      -0.169   0.228   0.881  0.00  0.00     0.162 A 
ATOM      4  C3  UNL d   1      -0.110  -0.875   0.029  0.00  0.00    -0.034 A 
ATOM      5  C4  UNL d   1       1.024  -1.062  -0.765  0.00  0.00     0.162 A 
ATOM      6  C5  UNL d   1       2.081  -0.160  -0.702  0.00  0.00     0.062 A 
ATOM      7  F   UNL d   1       3.166  -0.348  -1.467  0.00  0.00    -0.097 F 
ATOM      8  F1  UNL d   1       1.114  -2.112  -1.595  0.00  0.00    -0.096 F 
ATOM      9  I   UNL d   1      -1.693  -2.223  -0.062  0.00  0.00    -0.060 I 
ATOM     10  F2  UNL d   1      -1.242   0.439   1.656  0.00  0.00    -0.096 F 
ATOM     11  F3  UNL d   1       0.826   2.185   1.762  0.00  0.00    -0.097 F 
ATOM     12  F4  UNL d   1       3.034   1.802   0.206  0.00  0.00    -0.092 F 
ENDROOT
TORSDOF 0
ENDMDL
