MODEL 1
REMARK minimizedAffinity -0.0425207056
REMARK minimizedRMSD -1
REMARK  0 active torsions:
REMARK  status: ('A' for Active; 'I' for Inactive)
ROOT
ATOM      1  C   UNL d   1       1.080  -4.702   4.751  0.00  0.00     0.124 A 
ATOM      2  C1  UNL d   1      -0.098  -4.589   4.025  0.00  0.00     0.062 A 
ATOM      3  C2  UNL d   1      -0.192  -3.671   2.983  0.00  0.00     0.162 A 
ATOM      4  C3  UNL d   1       0.896  -2.859   2.659  0.00  0.00    -0.034 A 
ATOM      5  C4  UNL d   1       2.076  -2.978   3.395  0.00  0.00     0.162 A 
ATOM      6  C5  UNL d   1       2.165  -3.897   4.436  0.00  0.00     0.062 A 
ATOM      7  F   UNL d   1       3.304  -4.005   5.136  0.00  0.00    -0.097 F 
ATOM      8  F1  UNL d   1       3.141  -2.213   3.111  0.00  0.00    -0.096 F 
ATOM      9  I   UNL d   1       0.759  -1.486   1.102  0.00  0.00    -0.060 I 
ATOM     10  F2  UNL d   1      -1.342  -3.583   2.298  0.00  0.00    -0.096 F 
ATOM     11  F3  UNL d   1      -1.148  -5.365   4.328  0.00  0.00    -0.097 F 
ATOM     12  F4  UNL d   1       1.167  -5.585   5.754  0.00  0.00    -0.092 F 
ENDROOT
TORSDOF 0
ENDMDL
