MODEL 1
REMARK minimizedAffinity 11.7531443
REMARK minimizedRMSD -1
REMARK  0 active torsions:
REMARK  status: ('A' for Active; 'I' for Inactive)
ROOT
ATOM      1  C   UNL d   1      -3.711  -4.635  -0.375  0.00  0.00     0.124 A 
ATOM      2  C1  UNL d   1      -4.768  -5.319   0.209  0.00  0.00     0.062 A 
ATOM      3  C2  UNL d   1      -4.915  -5.329   1.593  0.00  0.00     0.162 A 
ATOM      4  C3  UNL d   1      -4.003  -4.653   2.403  0.00  0.00    -0.034 A 
ATOM      5  C4  UNL d   1      -2.941  -3.969   1.808  0.00  0.00     0.162 A 
ATOM      6  C5  UNL d   1      -2.799  -3.961   0.425  0.00  0.00     0.062 A 
ATOM      7  F   UNL d   1      -1.776  -3.301  -0.138  0.00  0.00    -0.097 F 
ATOM      8  F1  UNL d   1      -2.046  -3.308   2.557  0.00  0.00    -0.096 F 
ATOM      9  I   UNL d   1      -4.220  -4.666   4.473  0.00  0.00    -0.060 I 
ATOM     10  F2  UNL d   1      -5.947  -5.997   2.131  0.00  0.00    -0.096 F 
ATOM     11  F3  UNL d   1      -5.650  -5.972  -0.561  0.00  0.00    -0.097 F 
ATOM     12  F4  UNL d   1      -3.571  -4.628  -1.707  0.00  0.00    -0.092 F 
ENDROOT
TORSDOF 0
ENDMDL
