MODEL 1
REMARK minimizedAffinity 14.9393139
REMARK minimizedRMSD -1
REMARK  0 active torsions:
REMARK  status: ('A' for Active; 'I' for Inactive)
ROOT
ATOM      1  C   UNL d   1       4.847   1.763   0.091  0.00  0.00     0.124 A 
ATOM      2  C1  UNL d   1       4.786   0.534   0.734  0.00  0.00     0.062 A 
ATOM      3  C2  UNL d   1       3.589  -0.175   0.775  0.00  0.00     0.162 A 
ATOM      4  C3  UNL d   1       2.443   0.342   0.171  0.00  0.00    -0.034 A 
ATOM      5  C4  UNL d   1       2.513   1.579  -0.473  0.00  0.00     0.162 A 
ATOM      6  C5  UNL d   1       3.711   2.284  -0.511  0.00  0.00     0.062 A 
ATOM      7  F   UNL d   1       3.769   3.471  -1.133  0.00  0.00    -0.097 F 
ATOM      8  F1  UNL d   1       1.430   2.105  -1.065  0.00  0.00    -0.096 F 
ATOM      9  I   UNL d   1       0.652  -0.716   0.230  0.00  0.00    -0.060 I 
ATOM     10  F2  UNL d   1       3.559  -1.360   1.403  0.00  0.00    -0.096 F 
ATOM     11  F3  UNL d   1       5.882   0.029   1.318  0.00  0.00    -0.097 F 
ATOM     12  F4  UNL d   1       6.000   2.444   0.054  0.00  0.00    -0.092 F 
ENDROOT
TORSDOF 0
ENDMDL
