MODEL 1
REMARK minimizedAffinity 14.3686886
REMARK minimizedRMSD -1
REMARK  0 active torsions:
REMARK  status: ('A' for Active; 'I' for Inactive)
ROOT
ATOM      1  C   UNL d   1       1.279  -0.059  -0.363  0.00  0.00     0.124 A 
ATOM      2  C1  UNL d   1       1.644  -1.395  -0.453  0.00  0.00     0.062 A 
ATOM      3  C2  UNL d   1       0.706  -2.394  -0.213  0.00  0.00     0.162 A 
ATOM      4  C3  UNL d   1      -0.608  -2.062   0.119  0.00  0.00    -0.034 A 
ATOM      5  C4  UNL d   1      -0.967  -0.716   0.208  0.00  0.00     0.162 A 
ATOM      6  C5  UNL d   1      -0.026   0.280  -0.033  0.00  0.00     0.062 A 
ATOM      7  F   UNL d   1      -0.380   1.570   0.054  0.00  0.00    -0.097 F 
ATOM      8  F1  UNL d   1      -2.221  -0.361   0.524  0.00  0.00    -0.096 F 
ATOM      9  I   UNL d   1      -2.013  -3.554   0.479  0.00  0.00    -0.060 I 
ATOM     10  F2  UNL d   1       1.087  -3.677  -0.306  0.00  0.00    -0.096 F 
ATOM     11  F3  UNL d   1       2.905  -1.724  -0.771  0.00  0.00    -0.097 F 
ATOM     12  F4  UNL d   1       2.184   0.901  -0.594  0.00  0.00    -0.092 F 
ENDROOT
TORSDOF 0
ENDMDL
