MODEL 1
REMARK minimizedAffinity 9.34636784
REMARK minimizedRMSD -1
REMARK  0 active torsions:
REMARK  status: ('A' for Active; 'I' for Inactive)
ROOT
ATOM      1  C   UNL d   1      -2.243  -4.272  -0.868  0.00  0.00     0.124 A 
ATOM      2  C1  UNL d   1      -0.866  -4.135  -0.973  0.00  0.00     0.062 A 
ATOM      3  C2  UNL d   1      -0.197  -4.627  -2.089  0.00  0.00     0.162 A 
ATOM      4  C3  UNL d   1      -0.904  -5.260  -3.112  0.00  0.00    -0.034 A 
ATOM      5  C4  UNL d   1      -2.289  -5.394  -2.998  0.00  0.00     0.162 A 
ATOM      6  C5  UNL d   1      -2.953  -4.901  -1.880  0.00  0.00     0.062 A 
ATOM      7  F   UNL d   1      -4.284  -5.033  -1.780  0.00  0.00    -0.097 F 
ATOM      8  F1  UNL d   1      -3.000  -5.997  -3.963  0.00  0.00    -0.096 F 
ATOM      9  I   UNL d   1       0.093  -5.997  -4.783  0.00  0.00    -0.060 I 
ATOM     10  F2  UNL d   1       1.135  -4.482  -2.164  0.00  0.00    -0.096 F 
ATOM     11  F3  UNL d   1      -0.177  -3.528   0.005  0.00  0.00    -0.097 F 
ATOM     12  F4  UNL d   1      -2.884  -3.798   0.209  0.00  0.00    -0.092 F 
ENDROOT
TORSDOF 0
ENDMDL
