MODEL 1
REMARK minimizedAffinity 3.59914422
REMARK minimizedRMSD -1
REMARK  0 active torsions:
REMARK  status: ('A' for Active; 'I' for Inactive)
ROOT
ATOM      1  C   UNL d   1       2.245  -5.665  -3.632  0.00  0.00     0.124 A 
ATOM      2  C1  UNL d   1       1.543  -5.643  -4.829  0.00  0.00     0.062 A 
ATOM      3  C2  UNL d   1       0.153  -5.719  -4.828  0.00  0.00     0.162 A 
ATOM      4  C3  UNL d   1      -0.545  -5.815  -3.624  0.00  0.00    -0.034 A 
ATOM      5  C4  UNL d   1       0.168  -5.836  -2.424  0.00  0.00     0.162 A 
ATOM      6  C5  UNL d   1       1.557  -5.761  -2.431  0.00  0.00     0.062 A 
ATOM      7  F   UNL d   1       2.233  -5.782  -1.273  0.00  0.00    -0.097 F 
ATOM      8  F1  UNL d   1      -0.472  -5.928  -1.248  0.00  0.00    -0.096 F 
ATOM      9  I   UNL d   1      -2.623  -5.927  -3.617  0.00  0.00    -0.060 I 
ATOM     10  F2  UNL d   1      -0.499  -5.696  -6.000  0.00  0.00    -0.096 F 
ATOM     11  F3  UNL d   1       2.206  -5.551  -5.992  0.00  0.00    -0.097 F 
ATOM     12  F4  UNL d   1       3.582  -5.593  -3.637  0.00  0.00    -0.092 F 
ENDROOT
TORSDOF 0
ENDMDL
