MODEL 1
REMARK minimizedAffinity 8.79558659
REMARK minimizedRMSD -1
REMARK  0 active torsions:
REMARK  status: ('A' for Active; 'I' for Inactive)
ROOT
ATOM      1  C   UNL d   1       2.583  -0.401   0.954  0.00  0.00     0.124 A 
ATOM      2  C1  UNL d   1       3.041  -0.226  -0.344  0.00  0.00     0.062 A 
ATOM      3  C2  UNL d   1       2.166   0.185  -1.345  0.00  0.00     0.162 A 
ATOM      4  C3  UNL d   1       0.824   0.425  -1.052  0.00  0.00    -0.034 A 
ATOM      5  C4  UNL d   1       0.370   0.246   0.256  0.00  0.00     0.162 A 
ATOM      6  C5  UNL d   1       1.248  -0.165   1.253  0.00  0.00     0.062 A 
ATOM      7  F   UNL d   1       0.804  -0.334   2.507  0.00  0.00    -0.097 F 
ATOM      8  F1  UNL d   1      -0.914   0.467   0.572  0.00  0.00    -0.096 F 
ATOM      9  I   UNL d   1      -0.488   1.040  -2.547  0.00  0.00    -0.060 I 
ATOM     10  F2  UNL d   1       2.636   0.347  -2.591  0.00  0.00    -0.096 F 
ATOM     11  F3  UNL d   1       4.330  -0.454  -0.635  0.00  0.00    -0.097 F 
ATOM     12  F4  UNL d   1       3.427  -0.798   1.916  0.00  0.00    -0.092 F 
ENDROOT
TORSDOF 0
ENDMDL
