MODEL 1
REMARK minimizedAffinity 11.2426443
REMARK minimizedRMSD -1
REMARK  0 active torsions:
REMARK  status: ('A' for Active; 'I' for Inactive)
ROOT
ATOM      1  C   UNL d   1      -2.299  -0.940   0.451  0.00  0.00     0.124 A 
ATOM      2  C1  UNL d   1      -2.096   0.281   1.080  0.00  0.00     0.062 A 
ATOM      3  C2  UNL d   1      -1.848   1.424   0.326  0.00  0.00     0.162 A 
ATOM      4  C3  UNL d   1      -1.802   1.352  -1.067  0.00  0.00    -0.034 A 
ATOM      5  C4  UNL d   1      -2.006   0.121  -1.692  0.00  0.00     0.162 A 
ATOM      6  C5  UNL d   1      -2.254  -1.019  -0.933  0.00  0.00     0.062 A 
ATOM      7  F   UNL d   1      -2.450  -2.197  -1.542  0.00  0.00    -0.097 F 
ATOM      8  F1  UNL d   1      -1.969   0.016  -3.028  0.00  0.00    -0.096 F 
ATOM      9  I   UNL d   1      -1.431   3.059  -2.198  0.00  0.00    -0.060 I 
ATOM     10  F2  UNL d   1      -1.655   2.590   0.960  0.00  0.00    -0.096 F 
ATOM     11  F3  UNL d   1      -2.138   0.360   2.418  0.00  0.00    -0.097 F 
ATOM     12  F4  UNL d   1      -2.537  -2.038   1.180  0.00  0.00    -0.092 F 
ENDROOT
TORSDOF 0
ENDMDL
