MODEL 1
REMARK minimizedAffinity -2.87791371
REMARK minimizedRMSD -1
REMARK  0 active torsions:
REMARK  status: ('A' for Active; 'I' for Inactive)
ROOT
ATOM      1  O1  BZF d   1      -0.585  -0.500  -1.198  0.00  0.00    -0.204 OA
ATOM      2  C2  BZF d   1       0.721  -0.921  -1.044  0.00  0.00     0.174 A 
ATOM      3  C3  BZF d   1       1.251  -0.432   0.096  0.00  0.00    -0.012 A 
ATOM      4  C3A BZF d   1       0.180   0.268   0.737  0.00  0.00    -0.107 A 
ATOM      5  C4  BZF d   1       0.080   0.956   1.913  0.00  0.00     0.055 A 
ATOM      6  C5  BZF d   1      -1.087   1.585   2.213  0.00  0.00    -0.016 A 
ATOM      7  C6  BZF d   1      -2.170   1.551   1.359  0.00  0.00     0.022 A 
ATOM      8  C7  BZF d   1      -2.120   0.877   0.184  0.00  0.00     0.029 A 
ATOM      9  C7A BZF d   1      -0.953   0.214  -0.107  0.00  0.00     0.058 A 
ENDROOT
TORSDOF 0
ENDMDL
