MODEL 1
REMARK minimizedAffinity -6.26449537
REMARK minimizedRMSD -1
REMARK  0 active torsions:
REMARK  status: ('A' for Active; 'I' for Inactive)
ROOT
ATOM      1  O1  BZF d   1       0.598   0.738  -0.737  0.00  0.00    -0.204 OA
ATOM      2  C2  BZF d   1       0.502  -0.448  -0.035  0.00  0.00     0.174 A 
ATOM      3  C3  BZF d   1      -0.438  -0.359   0.928  0.00  0.00    -0.012 A 
ATOM      4  C3A BZF d   1      -1.026   0.934   0.761  0.00  0.00    -0.107 A 
ATOM      5  C4  BZF d   1      -2.028   1.600   1.408  0.00  0.00     0.055 A 
ATOM      6  C5  BZF d   1      -2.311   2.879   1.047  0.00  0.00    -0.016 A 
ATOM      7  C6  BZF d   1      -1.611   3.524   0.048  0.00  0.00     0.022 A 
ATOM      8  C7  BZF d   1      -0.612   2.902  -0.625  0.00  0.00     0.029 A 
ATOM      9  C7A BZF d   1      -0.346   1.599  -0.285  0.00  0.00     0.058 A 
ENDROOT
TORSDOF 0
ENDMDL
