MODEL 1
REMARK minimizedAffinity -3.78586602
REMARK minimizedRMSD -1
REMARK  0 active torsions:
REMARK  status: ('A' for Active; 'I' for Inactive)
ROOT
ATOM      1  O1  BZF d   1       0.830   0.709  -0.520  0.00  0.00    -0.204 OA
ATOM      2  C2  BZF d   1       0.519  -0.613  -0.265  0.00  0.00     0.174 A 
ATOM      3  C3  BZF d   1      -0.688  -0.714   0.329  0.00  0.00    -0.012 A 
ATOM      4  C3A BZF d   1      -1.202   0.621   0.368  0.00  0.00    -0.107 A 
ATOM      5  C4  BZF d   1      -2.367   1.165   0.825  0.00  0.00     0.055 A 
ATOM      6  C5  BZF d   1      -2.528   2.514   0.783  0.00  0.00    -0.016 A 
ATOM      7  C6  BZF d   1      -1.543   3.347   0.295  0.00  0.00     0.022 A 
ATOM      8  C7  BZF d   1      -0.371   2.853  -0.175  0.00  0.00     0.029 A 
ATOM      9  C7A BZF d   1      -0.219   1.488  -0.163  0.00  0.00     0.058 A 
ENDROOT
TORSDOF 0
ENDMDL
