MODEL 1
REMARK minimizedAffinity -2.41779709
REMARK minimizedRMSD -1
REMARK  0 active torsions:
REMARK  status: ('A' for Active; 'I' for Inactive)
ROOT
ATOM      1  O1  BZF d   1      -0.426  -1.240  -1.126  0.00  0.00    -0.204 OA
ATOM      2  C2  BZF d   1       0.927  -1.519  -1.123  0.00  0.00     0.174 A 
ATOM      3  C3  BZF d   1       1.556  -0.822  -0.155  0.00  0.00    -0.012 A 
ATOM      4  C3A BZF d   1       0.519  -0.130   0.547  0.00  0.00    -0.107 A 
ATOM      5  C4  BZF d   1       0.513   0.713   1.621  0.00  0.00     0.055 A 
ATOM      6  C5  BZF d   1      -0.660   1.275   2.012  0.00  0.00    -0.016 A 
ATOM      7  C6  BZF d   1      -1.844   1.022   1.350  0.00  0.00     0.022 A 
ATOM      8  C7  BZF d   1      -1.888   0.189   0.282  0.00  0.00     0.029 A 
ATOM      9  C7A BZF d   1      -0.710  -0.407  -0.096  0.00  0.00     0.058 A 
ENDROOT
TORSDOF 0
ENDMDL
