MODEL 1
REMARK minimizedAffinity -3.88691115
REMARK minimizedRMSD -1
REMARK  0 active torsions:
REMARK  status: ('A' for Active; 'I' for Inactive)
ROOT
ATOM      1  O1  BZF d   1       0.531   0.448  -0.830  0.00  0.00    -0.204 OA
ATOM      2  C2  BZF d   1       0.269  -0.827  -0.366  0.00  0.00     0.174 A 
ATOM      3  C3  BZF d   1      -0.567  -0.788   0.691  0.00  0.00    -0.012 A 
ATOM      4  C3A BZF d   1      -0.919   0.591   0.843  0.00  0.00    -0.107 A 
ATOM      5  C4  BZF d   1      -1.732   1.262   1.711  0.00  0.00     0.055 A 
ATOM      6  C5  BZF d   1      -1.800   2.617   1.637  0.00  0.00    -0.016 A 
ATOM      7  C6  BZF d   1      -1.067   3.332   0.714  0.00  0.00     0.022 A 
ATOM      8  C7  BZF d   1      -0.250   2.710  -0.171  0.00  0.00     0.029 A 
ATOM      9  C7A BZF d   1      -0.204   1.338  -0.121  0.00  0.00     0.058 A 
ENDROOT
TORSDOF 0
ENDMDL
