MODEL 1
REMARK minimizedAffinity -5.83651495
REMARK minimizedRMSD -1
REMARK  0 active torsions:
REMARK  status: ('A' for Active; 'I' for Inactive)
ROOT
ATOM      1  O1  BZF d   1       0.880   0.243  -0.875  0.00  0.00    -0.204 OA
ATOM      2  C2  BZF d   1       0.748  -0.824  -0.007  0.00  0.00     0.174 A 
ATOM      3  C3  BZF d   1      -0.016  -0.487   1.052  0.00  0.00    -0.012 A 
ATOM      4  C3A BZF d   1      -0.460   0.847   0.787  0.00  0.00    -0.107 A 
ATOM      5  C4  BZF d   1      -1.261   1.721   1.464  0.00  0.00     0.055 A 
ATOM      6  C5  BZF d   1      -1.437   2.975   0.969  0.00  0.00    -0.016 A 
ATOM      7  C6  BZF d   1      -0.824   3.388  -0.196  0.00  0.00     0.022 A 
ATOM      8  C7  BZF d   1      -0.024   2.554  -0.905  0.00  0.00     0.029 A 
ATOM      9  C7A BZF d   1       0.129   1.277  -0.424  0.00  0.00     0.058 A 
ENDROOT
TORSDOF 0
ENDMDL
