MODEL 1
REMARK minimizedAffinity -6.31705952
REMARK minimizedRMSD -1
REMARK  0 active torsions:
REMARK  status: ('A' for Active; 'I' for Inactive)
ROOT
ATOM      1  O1  BZF d   1       0.760   0.347  -0.485  0.00  0.00    -0.204 OA
ATOM      2  C2  BZF d   1       0.567  -0.717   0.375  0.00  0.00     0.174 A 
ATOM      3  C3  BZF d   1      -0.315  -0.395   1.343  0.00  0.00    -0.012 A 
ATOM      4  C3A BZF d   1      -0.767   0.922   1.018  0.00  0.00    -0.107 A 
ATOM      5  C4  BZF d   1      -1.662   1.777   1.595  0.00  0.00     0.055 A 
ATOM      6  C5  BZF d   1      -1.821   3.020   1.070  0.00  0.00    -0.016 A 
ATOM      7  C6  BZF d   1      -1.099   3.443  -0.027  0.00  0.00     0.022 A 
ATOM      8  C7  BZF d   1      -0.204   2.629  -0.637  0.00  0.00     0.029 A 
ATOM      9  C7A BZF d   1      -0.065   1.361  -0.129  0.00  0.00     0.058 A 
ENDROOT
TORSDOF 0
ENDMDL
