MODEL 1
REMARK minimizedAffinity -3.50242543
REMARK minimizedRMSD -1
REMARK  0 active torsions:
REMARK  status: ('A' for Active; 'I' for Inactive)
ROOT
ATOM      1  O1  BZF d   1      -0.574  -0.805   0.130  0.00  0.00    -0.204 OA
ATOM      2  C2  BZF d   1      -0.213   0.437  -0.355  0.00  0.00     0.174 A 
ATOM      3  C3  BZF d   1       0.242   0.342  -1.621  0.00  0.00    -0.012 A 
ATOM      4  C3A BZF d   1       0.073  -1.032  -1.980  0.00  0.00    -0.107 A 
ATOM      5  C4  BZF d   1       0.328  -1.744  -3.118  0.00  0.00     0.055 A 
ATOM      6  C5  BZF d   1       0.118  -3.087  -3.118  0.00  0.00    -0.016 A 
ATOM      7  C6  BZF d   1      -0.339  -3.750  -1.998  0.00  0.00     0.022 A 
ATOM      8  C7  BZF d   1      -0.611  -3.086  -0.848  0.00  0.00     0.029 A 
ATOM      9  C7A BZF d   1      -0.431  -1.724  -0.855  0.00  0.00     0.058 A 
ENDROOT
TORSDOF 0
ENDMDL
