MODEL 1
REMARK minimizedAffinity -4.08869362
REMARK minimizedRMSD -1
REMARK  0 active torsions:
REMARK  status: ('A' for Active; 'I' for Inactive)
ROOT
ATOM      1  O1  BZF d   1       0.787   1.707  -1.472  0.00  0.00    -0.204 OA
ATOM      2  C2  BZF d   1       1.089   0.365  -1.599  0.00  0.00     0.174 A 
ATOM      3  C3  BZF d   1       0.676  -0.323  -0.515  0.00  0.00    -0.012 A 
ATOM      4  C3A BZF d   1      -0.004   0.635   0.301  0.00  0.00    -0.107 A 
ATOM      5  C4  BZF d   1      -0.650   0.555   1.502  0.00  0.00     0.055 A 
ATOM      6  C5  BZF d   1      -1.144   1.690   2.063  0.00  0.00    -0.016 A 
ATOM      7  C6  BZF d   1      -1.006   2.920   1.455  0.00  0.00     0.022 A 
ATOM      8  C7  BZF d   1      -0.378   3.049   0.261  0.00  0.00     0.029 A 
ATOM      9  C7A BZF d   1       0.094   1.899  -0.325  0.00  0.00     0.058 A 
ENDROOT
TORSDOF 0
ENDMDL
