MODEL 1
REMARK minimizedAffinity -3.83831644
REMARK minimizedRMSD -1
REMARK  0 active torsions:
REMARK  status: ('A' for Active; 'I' for Inactive)
ROOT
ATOM      1  O1  BZF d   1      -0.232   2.909  -1.109  0.00  0.00    -0.204 OA
ATOM      2  C2  BZF d   1      -0.846   4.012  -0.550  0.00  0.00     0.174 A 
ATOM      3  C3  BZF d   1      -1.507   3.672   0.576  0.00  0.00    -0.012 A 
ATOM      4  C3A BZF d   1      -1.215   2.287   0.780  0.00  0.00    -0.107 A 
ATOM      5  C4  BZF d   1      -1.571   1.384   1.741  0.00  0.00     0.055 A 
ATOM      6  C5  BZF d   1      -1.178   0.089   1.609  0.00  0.00    -0.016 A 
ATOM      7  C6  BZF d   1      -0.435  -0.337   0.527  0.00  0.00     0.022 A 
ATOM      8  C7  BZF d   1      -0.055   0.523  -0.449  0.00  0.00     0.029 A 
ATOM      9  C7A BZF d   1      -0.422   1.838  -0.301  0.00  0.00     0.058 A 
ENDROOT
TORSDOF 0
ENDMDL
