MODEL 1
REMARK minimizedAffinity -4.70471382
REMARK minimizedRMSD -1
REMARK  0 active torsions:
REMARK  status: ('A' for Active; 'I' for Inactive)
ROOT
ATOM      1  O1  BZF d   1       1.029  -0.089   1.280  0.00  0.00    -0.204 OA
ATOM      2  C2  BZF d   1       1.571  -0.350   0.037  0.00  0.00     0.174 A 
ATOM      3  C3  BZF d   1       0.891   0.304  -0.928  0.00  0.00    -0.012 A 
ATOM      4  C3A BZF d   1      -0.082   1.090  -0.235  0.00  0.00    -0.107 A 
ATOM      5  C4  BZF d   1      -1.046   1.967  -0.645  0.00  0.00     0.055 A 
ATOM      6  C5  BZF d   1      -1.880   2.512   0.279  0.00  0.00    -0.016 A 
ATOM      7  C6  BZF d   1      -1.782   2.199   1.619  0.00  0.00     0.022 A 
ATOM      8  C7  BZF d   1      -0.839   1.339   2.075  0.00  0.00     0.029 A 
ATOM      9  C7A BZF d   1       0.026   0.812   1.147  0.00  0.00     0.058 A 
ENDROOT
TORSDOF 0
ENDMDL
