MODEL 1
REMARK minimizedAffinity -4.46120834
REMARK minimizedRMSD -1
REMARK  0 active torsions:
REMARK  status: ('A' for Active; 'I' for Inactive)
ROOT
ATOM      1  O1  BZF d   1       0.960   1.615  -1.028  0.00  0.00    -0.204 OA
ATOM      2  C2  BZF d   1       0.652   2.961  -1.084  0.00  0.00     0.174 A 
ATOM      3  C3  BZF d   1      -0.258   3.284  -0.142  0.00  0.00    -0.012 A 
ATOM      4  C3A BZF d   1      -0.467   2.082   0.606  0.00  0.00    -0.107 A 
ATOM      5  C4  BZF d   1      -1.247   1.771   1.683  0.00  0.00     0.055 A 
ATOM      6  C5  BZF d   1      -1.278   0.486   2.126  0.00  0.00    -0.016 A 
ATOM      7  C6  BZF d   1      -0.547  -0.511   1.515  0.00  0.00     0.022 A 
ATOM      8  C7  BZF d   1       0.246  -0.249   0.447  0.00  0.00     0.029 A 
ATOM      9  C7A BZF d   1       0.304   1.054   0.017  0.00  0.00     0.058 A 
ENDROOT
TORSDOF 0
ENDMDL
