MODEL 1
REMARK minimizedAffinity -5.77972794
REMARK minimizedRMSD -1
REMARK  0 active torsions:
REMARK  status: ('A' for Active; 'I' for Inactive)
ROOT
ATOM      1  O1  BZF d   1       0.634  -0.280  -1.678  0.00  0.00    -0.204 OA
ATOM      2  C2  BZF d   1       0.735   0.145  -0.367  0.00  0.00     0.174 A 
ATOM      3  C3  BZF d   1       0.604  -0.894   0.484  0.00  0.00    -0.012 A 
ATOM      4  C3A BZF d   1       0.501  -2.052  -0.350  0.00  0.00    -0.107 A 
ATOM      5  C4  BZF d   1       0.368  -3.386  -0.091  0.00  0.00     0.055 A 
ATOM      6  C5  BZF d   1       0.222  -4.250  -1.131  0.00  0.00    -0.016 A 
ATOM      7  C6  BZF d   1       0.199  -3.813  -2.439  0.00  0.00     0.022 A 
ATOM      8  C7  BZF d   1       0.333  -2.500  -2.746  0.00  0.00     0.029 A 
ATOM      9  C7A BZF d   1       0.514  -1.629  -1.699  0.00  0.00     0.058 A 
ENDROOT
TORSDOF 0
ENDMDL
