MODEL 1
REMARK minimizedAffinity -4.58649588
REMARK minimizedRMSD -1
REMARK  0 active torsions:
REMARK  status: ('A' for Active; 'I' for Inactive)
ROOT
ATOM      1  O1  BZF d   1      -0.221  -0.281  -1.326  0.00  0.00    -0.204 OA
ATOM      2  C2  BZF d   1       0.088   0.270  -0.097  0.00  0.00     0.174 A 
ATOM      3  C3  BZF d   1       0.676  -0.644   0.703  0.00  0.00    -0.012 A 
ATOM      4  C3A BZF d   1       0.822  -1.814  -0.107  0.00  0.00    -0.107 A 
ATOM      5  C4  BZF d   1       1.352  -3.052   0.120  0.00  0.00     0.055 A 
ATOM      6  C5  BZF d   1       1.273  -3.993  -0.858  0.00  0.00    -0.016 A 
ATOM      7  C6  BZF d   1       0.667  -3.733  -2.069  0.00  0.00     0.022 A 
ATOM      8  C7  BZF d   1       0.132  -2.518  -2.342  0.00  0.00     0.029 A 
ATOM      9  C7A BZF d   1       0.240  -1.555  -1.369  0.00  0.00     0.058 A 
ENDROOT
TORSDOF 0
ENDMDL
