MODEL 1
REMARK minimizedAffinity -4.79738235
REMARK minimizedRMSD -1
REMARK  0 active torsions:
REMARK  status: ('A' for Active; 'I' for Inactive)
ROOT
ATOM      1  O1  BZF d   1       1.051  -0.115   0.441  0.00  0.00    -0.204 OA
ATOM      2  C2  BZF d   1       1.637   0.417  -0.691  0.00  0.00     0.174 A 
ATOM      3  C3  BZF d   1       0.862   1.385  -1.221  0.00  0.00    -0.012 A 
ATOM      4  C3A BZF d   1      -0.236   1.526  -0.315  0.00  0.00    -0.107 A 
ATOM      5  C4  BZF d   1      -1.333   2.340  -0.288  0.00  0.00     0.055 A 
ATOM      6  C5  BZF d   1      -2.253   2.175   0.698  0.00  0.00    -0.016 A 
ATOM      7  C6  BZF d   1      -2.112   1.204   1.669  0.00  0.00     0.022 A 
ATOM      8  C7  BZF d   1      -1.039   0.377   1.686  0.00  0.00     0.029 A 
ATOM      9  C7A BZF d   1      -0.090   0.563   0.710  0.00  0.00     0.058 A 
ENDROOT
TORSDOF 0
ENDMDL
