MODEL 1
REMARK minimizedAffinity -4.87420368
REMARK minimizedRMSD -1
REMARK  0 active torsions:
REMARK  status: ('A' for Active; 'I' for Inactive)
ROOT
ATOM      1  O1  BZF d   1       0.021  -0.385   0.647  0.00  0.00    -0.204 OA
ATOM      2  C2  BZF d   1       0.879  -0.441  -0.434  0.00  0.00     0.174 A 
ATOM      3  C3  BZF d   1       0.745   0.654  -1.209  0.00  0.00    -0.012 A 
ATOM      4  C3A BZF d   1      -0.193   1.488  -0.523  0.00  0.00    -0.107 A 
ATOM      5  C4  BZF d   1      -0.723   2.719  -0.785  0.00  0.00     0.055 A 
ATOM      6  C5  BZF d   1      -1.671   3.221   0.049  0.00  0.00    -0.016 A 
ATOM      7  C6  BZF d   1      -2.116   2.519   1.150  0.00  0.00     0.022 A 
ATOM      8  C7  BZF d   1      -1.616   1.296   1.454  0.00  0.00     0.029 A 
ATOM      9  C7A BZF d   1      -0.635   0.800   0.631  0.00  0.00     0.058 A 
ENDROOT
TORSDOF 0
ENDMDL
