MODEL 1
REMARK minimizedAffinity -5.15327406
REMARK minimizedRMSD -1
REMARK  0 active torsions:
REMARK  status: ('A' for Active; 'I' for Inactive)
ROOT
ATOM      1  O1  BZF d   1       0.633   0.305  -0.555  0.00  0.00    -0.204 OA
ATOM      2  C2  BZF d   1       0.701  -0.632   0.457  0.00  0.00     0.174 A 
ATOM      3  C3  BZF d   1      -0.108  -0.291   1.481  0.00  0.00    -0.012 A 
ATOM      4  C3A BZF d   1      -0.791   0.888   1.044  0.00  0.00    -0.107 A 
ATOM      5  C4  BZF d   1      -1.737   1.690   1.614  0.00  0.00     0.055 A 
ATOM      6  C5  BZF d   1      -2.142   2.807   0.953  0.00  0.00    -0.016 A 
ATOM      7  C6  BZF d   1      -1.618   3.153  -0.276  0.00  0.00     0.022 A 
ATOM      8  C7  BZF d   1      -0.681   2.386  -0.883  0.00  0.00     0.029 A 
ATOM      9  C7A BZF d   1      -0.294   1.239  -0.233  0.00  0.00     0.058 A 
ENDROOT
TORSDOF 0
ENDMDL
