MODEL 1
REMARK minimizedAffinity -3.52014256
REMARK minimizedRMSD -1
REMARK  0 active torsions:
REMARK  status: ('A' for Active; 'I' for Inactive)
ROOT
ATOM      1  O1  BZF d   1      -1.116   1.408   1.693  0.00  0.00    -0.204 OA
ATOM      2  C2  BZF d   1      -1.494   2.668   1.271  0.00  0.00     0.174 A 
ATOM      3  C3  BZF d   1      -1.056   2.904   0.017  0.00  0.00    -0.012 A 
ATOM      4  C3A BZF d   1      -0.440   1.683  -0.402  0.00  0.00    -0.107 A 
ATOM      5  C4  BZF d   1       0.169   1.287  -1.559  0.00  0.00     0.055 A 
ATOM      6  C5  BZF d   1       0.732   0.052  -1.620  0.00  0.00    -0.016 A 
ATOM      7  C6  BZF d   1       0.708  -0.811  -0.544  0.00  0.00     0.022 A 
ATOM      8  C7  BZF d   1       0.111  -0.465   0.623  0.00  0.00     0.029 A 
ATOM      9  C7A BZF d   1      -0.487   0.770   0.677  0.00  0.00     0.058 A 
ENDROOT
TORSDOF 0
ENDMDL
