MODEL 1
REMARK minimizedAffinity -1.80180991
REMARK minimizedRMSD -1
REMARK  0 active torsions:
REMARK  status: ('A' for Active; 'I' for Inactive)
ROOT
ATOM      1  O1  BZF d   1      -0.146  -0.002   0.309  0.00  0.00    -0.204 OA
ATOM      2  C2  BZF d   1      -0.765  -0.122   1.538  0.00  0.00     0.174 A 
ATOM      3  C3  BZF d   1      -0.986   1.091   2.083  0.00  0.00    -0.012 A 
ATOM      4  C3A BZF d   1      -0.556   2.032   1.095  0.00  0.00    -0.107 A 
ATOM      5  C4  BZF d   1      -0.537   3.396   1.043  0.00  0.00     0.055 A 
ATOM      6  C5  BZF d   1       0.016   4.009  -0.037  0.00  0.00    -0.016 A 
ATOM      7  C6  BZF d   1       0.562   3.289  -1.079  0.00  0.00     0.022 A 
ATOM      8  C7  BZF d   1       0.562   1.933  -1.075  0.00  0.00     0.029 A 
ATOM      9  C7A BZF d   1      -0.026   1.312  -0.000  0.00  0.00     0.058 A 
ENDROOT
TORSDOF 0
ENDMDL
