MODEL 1
REMARK minimizedAffinity -2.06071544
REMARK minimizedRMSD -1
REMARK  0 active torsions:
REMARK  status: ('A' for Active; 'I' for Inactive)
ROOT
ATOM      1  C   UNL d   1       1.333  -0.526  -1.768  0.00  0.00     0.023 A 
ATOM      2  C1  UNL d   1       2.335   0.151  -2.463  0.00  0.00     0.003 A 
ATOM      3  C2  UNL d   1       3.675  -0.188  -2.265  0.00  0.00     0.048 A 
ATOM      4  C3  UNL d   1       4.006  -1.206  -1.371  0.00  0.00     0.023 A 
ATOM      5  C4  UNL d   1       3.006  -1.886  -0.674  0.00  0.00     0.048 A 
ATOM      6  C5  UNL d   1       1.668  -1.543  -0.874  0.00  0.00     0.003 A 
ATOM      7  I   UNL d   1       6.000  -1.713  -1.074  0.00  0.00    -0.146 I 
ENDROOT
TORSDOF 0
ENDMDL
