MODEL 1
REMARK minimizedAffinity 7.87958288
REMARK minimizedRMSD -1
REMARK  0 active torsions:
REMARK  status: ('A' for Active; 'I' for Inactive)
ROOT
ATOM      1  C   UNL d   1       2.380   2.511   0.270  0.00  0.00     0.023 A 
ATOM      2  C1  UNL d   1       2.706   1.160   0.157  0.00  0.00     0.003 A 
ATOM      3  C2  UNL d   1       2.407   0.464  -1.017  0.00  0.00     0.048 A 
ATOM      4  C3  UNL d   1       1.784   1.126  -2.074  0.00  0.00     0.023 A 
ATOM      5  C4  UNL d   1       1.458   2.479  -1.966  0.00  0.00     0.048 A 
ATOM      6  C5  UNL d   1       1.757   3.170  -0.790  0.00  0.00     0.003 A 
ATOM      7  I   UNL d   1       1.339   0.093  -3.822  0.00  0.00    -0.146 I 
ENDROOT
TORSDOF 0
ENDMDL
