MODEL 1
REMARK minimizedAffinity 6.6605134
REMARK minimizedRMSD -1
REMARK  0 active torsions:
REMARK  status: ('A' for Active; 'I' for Inactive)
ROOT
ATOM      1  C   UNL d   1      -2.780   0.593  -4.067  0.00  0.00     0.023 A 
ATOM      2  C1  UNL d   1      -2.996   1.704  -3.252  0.00  0.00     0.003 A 
ATOM      3  C2  UNL d   1      -2.999   2.986  -3.804  0.00  0.00     0.048 A 
ATOM      4  C3  UNL d   1      -2.787   3.150  -5.172  0.00  0.00     0.023 A 
ATOM      5  C4  UNL d   1      -2.572   2.041  -5.992  0.00  0.00     0.048 A 
ATOM      6  C5  UNL d   1      -2.568   0.761  -5.435  0.00  0.00     0.003 A 
ATOM      7  I   UNL d   1      -2.792   5.058  -5.997  0.00  0.00    -0.146 I 
ENDROOT
TORSDOF 0
ENDMDL
