MODEL 1
REMARK minimizedAffinity 19.1954899
REMARK minimizedRMSD -1
REMARK  0 active torsions:
REMARK  status: ('A' for Active; 'I' for Inactive)
ROOT
ATOM      1  C   UNL d   1      -3.002   2.250   4.199  0.00  0.00     0.023 A 
ATOM      2  C1  UNL d   1      -3.609   1.875   3.000  0.00  0.00     0.003 A 
ATOM      3  C2  UNL d   1      -4.469   0.776   2.965  0.00  0.00     0.048 A 
ATOM      4  C3  UNL d   1      -4.719   0.056   4.133  0.00  0.00     0.023 A 
ATOM      5  C4  UNL d   1      -4.115   0.428   5.335  0.00  0.00     0.048 A 
ATOM      6  C5  UNL d   1      -3.255   1.527   5.365  0.00  0.00     0.003 A 
ATOM      7  I   UNL d   1      -6.000  -1.580   4.083  0.00  0.00    -0.146 I 
ENDROOT
TORSDOF 0
ENDMDL
