MODEL 1
REMARK minimizedAffinity 14.274106
REMARK minimizedRMSD -1
REMARK  0 active torsions:
REMARK  status: ('A' for Active; 'I' for Inactive)
ROOT
ATOM      1  C   UNL d   1       1.543  -0.507  -0.851  0.00  0.00     0.023 A 
ATOM      2  C1  UNL d   1       0.656  -1.285  -0.107  0.00  0.00     0.003 A 
ATOM      3  C2  UNL d   1       0.006  -2.367  -0.704  0.00  0.00     0.048 A 
ATOM      4  C3  UNL d   1       0.248  -2.667  -2.044  0.00  0.00     0.023 A 
ATOM      5  C4  UNL d   1       1.136  -1.891  -2.792  0.00  0.00     0.048 A 
ATOM      6  C5  UNL d   1       1.783  -0.809  -2.191  0.00  0.00     0.003 A 
ATOM      7  I   UNL d   1      -0.718  -4.277  -2.934  0.00  0.00    -0.146 I 
ENDROOT
TORSDOF 0
ENDMDL
