MODEL 1
REMARK minimizedAffinity 15.1626167
REMARK minimizedRMSD -1
REMARK  0 active torsions:
REMARK  status: ('A' for Active; 'I' for Inactive)
ROOT
ATOM      1  C   UNL d   1       2.437  -0.379  -1.992  0.00  0.00     0.023 A 
ATOM      2  C1  UNL d   1       1.523   0.378  -2.725  0.00  0.00     0.003 A 
ATOM      3  C2  UNL d   1       1.266   1.703  -2.366  0.00  0.00     0.048 A 
ATOM      4  C3  UNL d   1       1.927   2.265  -1.274  0.00  0.00     0.023 A 
ATOM      5  C4  UNL d   1       2.843   1.511  -0.539  0.00  0.00     0.048 A 
ATOM      6  C5  UNL d   1       3.096   0.186  -0.900  0.00  0.00     0.003 A 
ATOM      7  I   UNL d   1       1.546   4.236  -0.739  0.00  0.00    -0.146 I 
ENDROOT
TORSDOF 0
ENDMDL
