MODEL 1
REMARK minimizedAffinity 19.3121567
REMARK minimizedRMSD -1
REMARK  0 active torsions:
REMARK  status: ('A' for Active; 'I' for Inactive)
ROOT
ATOM      1  C   UNL d   1       3.088   1.350  -1.836  0.00  0.00     0.023 A 
ATOM      2  C1  UNL d   1       3.500   0.561  -0.762  0.00  0.00     0.003 A 
ATOM      3  C2  UNL d   1       2.654  -0.429  -0.257  0.00  0.00     0.048 A 
ATOM      4  C3  UNL d   1       1.399  -0.625  -0.832  0.00  0.00     0.023 A 
ATOM      5  C4  UNL d   1       0.984   0.161  -1.908  0.00  0.00     0.048 A 
ATOM      6  C5  UNL d   1       1.832   1.151  -2.408  0.00  0.00     0.003 A 
ATOM      7  I   UNL d   1       0.139  -2.099  -0.083  0.00  0.00    -0.146 I 
ENDROOT
TORSDOF 0
ENDMDL
