MODEL 1
REMARK minimizedAffinity 22.2464676
REMARK minimizedRMSD -1
REMARK  0 active torsions:
REMARK  status: ('A' for Active; 'I' for Inactive)
ROOT
ATOM      1  C   UNL d   1      -1.670   2.153   4.817  0.00  0.00     0.023 A 
ATOM      2  C1  UNL d   1      -2.347   1.865   3.632  0.00  0.00     0.003 A 
ATOM      3  C2  UNL d   1      -3.381   0.926   3.627  0.00  0.00     0.048 A 
ATOM      4  C3  UNL d   1      -3.733   0.279   4.811  0.00  0.00     0.023 A 
ATOM      5  C4  UNL d   1      -3.059   0.565   6.000  0.00  0.00     0.048 A 
ATOM      6  C5  UNL d   1      -2.026   1.504   6.000  0.00  0.00     0.003 A 
ATOM      7  I   UNL d   1      -5.271  -1.118   4.807  0.00  0.00    -0.146 I 
ENDROOT
TORSDOF 0
ENDMDL
