MODEL 1
REMARK minimizedAffinity 10.069869
REMARK minimizedRMSD -1
REMARK  0 active torsions:
REMARK  status: ('A' for Active; 'I' for Inactive)
ROOT
ATOM      1  C   UNL d   1       0.041   2.214   5.999  0.00  0.00     0.023 A 
ATOM      2  C1  UNL d   1       1.124   1.335   5.997  0.00  0.00     0.003 A 
ATOM      3  C2  UNL d   1       1.854   1.126   4.825  0.00  0.00     0.048 A 
ATOM      4  C3  UNL d   1       1.495   1.800   3.658  0.00  0.00     0.023 A 
ATOM      5  C4  UNL d   1       0.412   2.681   3.655  0.00  0.00     0.048 A 
ATOM      6  C5  UNL d   1      -0.314   2.886   4.829  0.00  0.00     0.003 A 
ATOM      7  I   UNL d   1       2.579   1.490   1.912  0.00  0.00    -0.146 I 
ENDROOT
TORSDOF 0
ENDMDL
