MODEL 1
REMARK minimizedAffinity 4.67421722
REMARK minimizedRMSD -1
REMARK  0 active torsions:
REMARK  status: ('A' for Active; 'I' for Inactive)
ROOT
ATOM      1  C   UNL d   1      -0.395  -1.984   1.769  0.00  0.00     0.023 A 
ATOM      2  C1  UNL d   1      -1.165  -3.133   1.586  0.00  0.00     0.003 A 
ATOM      3  C2  UNL d   1      -1.363  -3.645   0.302  0.00  0.00     0.048 A 
ATOM      4  C3  UNL d   1      -0.789  -3.003  -0.795  0.00  0.00     0.023 A 
ATOM      5  C4  UNL d   1      -0.018  -1.854  -0.617  0.00  0.00     0.048 A 
ATOM      6  C5  UNL d   1       0.178  -1.345   0.669  0.00  0.00     0.003 A 
ATOM      7  I   UNL d   1      -1.083  -3.763  -2.707  0.00  0.00    -0.146 I 
ENDROOT
TORSDOF 0
ENDMDL
