MODEL 1
REMARK minimizedAffinity 9.7474699
REMARK minimizedRMSD -1
REMARK  0 active torsions:
REMARK  status: ('A' for Active; 'I' for Inactive)
ROOT
ATOM      1  C   UNL d   1       1.219   6.000   0.457  0.00  0.00     0.023 A 
ATOM      2  C1  UNL d   1       0.965   5.792  -0.899  0.00  0.00     0.003 A 
ATOM      3  C2  UNL d   1       1.084   4.512  -1.444  0.00  0.00     0.048 A 
ATOM      4  C3  UNL d   1       1.456   3.444  -0.628  0.00  0.00     0.023 A 
ATOM      5  C4  UNL d   1       1.711   3.647   0.729  0.00  0.00     0.048 A 
ATOM      6  C5  UNL d   1       1.592   4.929   1.270  0.00  0.00     0.003 A 
ATOM      7  I   UNL d   1       1.634   1.538  -1.438  0.00  0.00    -0.146 I 
ENDROOT
TORSDOF 0
ENDMDL
