MODEL 1
REMARK minimizedAffinity -3.18683624
REMARK minimizedRMSD -1
REMARK  0 active torsions:
REMARK  status: ('A' for Active; 'I' for Inactive)
ROOT
ATOM      1  C   UNL d   1       1.354  -0.593  -1.018  0.00  0.00     0.023 A 
ATOM      2  C1  UNL d   1       0.935  -1.595  -0.142  0.00  0.00     0.003 A 
ATOM      3  C2  UNL d   1      -0.079  -1.337   0.783  0.00  0.00     0.048 A 
ATOM      4  C3  UNL d   1      -0.671  -0.075   0.825  0.00  0.00     0.023 A 
ATOM      5  C4  UNL d   1      -0.256   0.930  -0.049  0.00  0.00     0.048 A 
ATOM      6  C5  UNL d   1       0.759   0.668  -0.971  0.00  0.00     0.003 A 
ATOM      7  I   UNL d   1      -2.181   0.311   2.200  0.00  0.00    -0.146 I 
ENDROOT
TORSDOF 0
ENDMDL
