MODEL 1
REMARK minimizedAffinity -0.65803951
REMARK minimizedRMSD -1
REMARK  0 active torsions:
REMARK  status: ('A' for Active; 'I' for Inactive)
ROOT
ATOM      1  C   UNL d   1       0.373   0.677   0.831  0.00  0.00     0.023 A 
ATOM      2  C1  UNL d   1       0.880   0.938  -0.442  0.00  0.00     0.003 A 
ATOM      3  C2  UNL d   1       0.847  -0.053  -1.424  0.00  0.00     0.048 A 
ATOM      4  C3  UNL d   1       0.305  -1.303  -1.128  0.00  0.00     0.023 A 
ATOM      5  C4  UNL d   1      -0.204  -1.569   0.145  0.00  0.00     0.048 A 
ATOM      6  C5  UNL d   1      -0.169  -0.574   1.124  0.00  0.00     0.003 A 
ATOM      7  I   UNL d   1       0.255  -2.780  -2.589  0.00  0.00    -0.146 I 
ENDROOT
TORSDOF 0
ENDMDL
