MODEL 1
REMARK minimizedAffinity 0.377217263
REMARK minimizedRMSD -1
REMARK  0 active torsions:
REMARK  status: ('A' for Active; 'I' for Inactive)
ROOT
ATOM      1  C   UNL d   1      -4.145   1.422  -5.682  0.00  0.00     0.023 A 
ATOM      2  C1  UNL d   1      -5.505   1.639  -5.903  0.00  0.00     0.003 A 
ATOM      3  C2  UNL d   1      -6.000   2.941  -5.994  0.00  0.00     0.048 A 
ATOM      4  C3  UNL d   1      -5.128   4.022  -5.864  0.00  0.00     0.023 A 
ATOM      5  C4  UNL d   1      -3.767   3.810  -5.643  0.00  0.00     0.048 A 
ATOM      6  C5  UNL d   1      -3.277   2.506  -5.552  0.00  0.00     0.003 A 
ATOM      7  I   UNL d   1      -5.862   5.962  -5.999  0.00  0.00    -0.146 I 
ENDROOT
TORSDOF 0
ENDMDL
