MODEL 1
REMARK minimizedAffinity -0.687625885
REMARK minimizedRMSD -1
REMARK  0 active torsions:
REMARK  status: ('A' for Active; 'I' for Inactive)
ROOT
ATOM      1  C   UNL d   1       2.336   0.141  -3.334  0.00  0.00     0.023 A 
ATOM      2  C1  UNL d   1       2.698  -1.035  -3.992  0.00  0.00     0.003 A 
ATOM      3  C2  UNL d   1       2.324  -2.274  -3.467  0.00  0.00     0.048 A 
ATOM      4  C3  UNL d   1       1.587  -2.330  -2.284  0.00  0.00     0.023 A 
ATOM      5  C4  UNL d   1       1.222  -1.156  -1.623  0.00  0.00     0.048 A 
ATOM      6  C5  UNL d   1       1.599   0.080  -2.151  0.00  0.00     0.003 A 
ATOM      7  I   UNL d   1       1.029  -4.172  -1.501  0.00  0.00    -0.146 I 
ENDROOT
TORSDOF 0
ENDMDL
