MODEL 1
REMARK minimizedAffinity -5.74901438
REMARK minimizedRMSD -1
REMARK  0 active torsions:
REMARK  status: ('A' for Active; 'I' for Inactive)
ROOT
ATOM      1  C   UNL d   1       2.124  -1.491  -3.050  0.00  0.00     0.023 A 
ATOM      2  C1  UNL d   1       1.642  -0.190  -2.905  0.00  0.00     0.003 A 
ATOM      3  C2  UNL d   1       0.834   0.139  -1.815  0.00  0.00     0.048 A 
ATOM      4  C3  UNL d   1       0.512  -0.838  -0.874  0.00  0.00     0.023 A 
ATOM      5  C4  UNL d   1       0.992  -2.141  -1.014  0.00  0.00     0.048 A 
ATOM      6  C5  UNL d   1       1.799  -2.465  -2.106  0.00  0.00     0.003 A 
ATOM      7  I   UNL d   1      -0.692  -0.350   0.750  0.00  0.00    -0.146 I 
ENDROOT
TORSDOF 0
ENDMDL
