MODEL 1
REMARK minimizedAffinity -2.33510613
REMARK minimizedRMSD -1
REMARK  0 active torsions:
REMARK  status: ('A' for Active; 'I' for Inactive)
ROOT
ATOM      1  C   UNL d   1      -0.633  -3.474   0.616  0.00  0.00     0.078 C 
ATOM      2  C1  UNL d   1      -0.357  -2.107   0.064  0.00  0.00    -0.077 A 
ATOM      3  C2  UNL d   1       0.000  -1.931  -1.278  0.00  0.00    -0.001 A 
ATOM      4  C3  UNL d   1       0.263  -0.654  -1.776  0.00  0.00     0.003 A 
ATOM      5  C4  UNL d   1       0.172   0.457  -0.939  0.00  0.00    -0.005 A 
ATOM      6  C5  UNL d   1      -0.181   0.290   0.398  0.00  0.00     0.003 A 
ATOM      7  C6  UNL d   1      -0.444  -0.986   0.898  0.00  0.00    -0.001 A 
ENDROOT
TORSDOF 0
ENDMDL
