MODEL 1
REMARK minimizedAffinity -5.14495611
REMARK minimizedRMSD -1
REMARK  0 active torsions:
REMARK  status: ('A' for Active; 'I' for Inactive)
ROOT
ATOM      1  C   UNL d   1       0.068   1.381   0.063  0.00  0.00     0.078 C 
ATOM      2  C1  UNL d   1      -0.015  -0.092   0.336  0.00  0.00    -0.077 A 
ATOM      3  C2  UNL d   1       0.433  -1.026  -0.607  0.00  0.00    -0.001 A 
ATOM      4  C3  UNL d   1       0.341  -2.393  -0.343  0.00  0.00     0.003 A 
ATOM      5  C4  UNL d   1      -0.199  -2.839   0.861  0.00  0.00    -0.005 A 
ATOM      6  C5  UNL d   1      -0.649  -1.917   1.804  0.00  0.00     0.003 A 
ATOM      7  C6  UNL d   1      -0.558  -0.549   1.542  0.00  0.00    -0.001 A 
ENDROOT
TORSDOF 0
ENDMDL
