MODEL 1
REMARK minimizedAffinity -3.01053929
REMARK minimizedRMSD -1
REMARK  0 active torsions:
REMARK  status: ('A' for Active; 'I' for Inactive)
ROOT
ATOM      1  C   UNL d   1      -0.316   1.020  -0.446  0.00  0.00     0.078 C 
ATOM      2  C1  UNL d   1      -0.293  -0.260   0.336  0.00  0.00    -0.077 A 
ATOM      3  C2  UNL d   1      -0.789  -0.315   1.644  0.00  0.00    -0.001 A 
ATOM      4  C3  UNL d   1      -0.751  -1.511   2.363  0.00  0.00     0.003 A 
ATOM      5  C4  UNL d   1      -0.218  -2.660   1.783  0.00  0.00    -0.005 A 
ATOM      6  C5  UNL d   1       0.280  -2.614   0.482  0.00  0.00     0.003 A 
ATOM      7  C6  UNL d   1       0.244  -1.419  -0.238  0.00  0.00    -0.001 A 
ENDROOT
TORSDOF 0
ENDMDL
