MODEL 1
REMARK minimizedAffinity -2.25483203
REMARK minimizedRMSD -1
REMARK  0 active torsions:
REMARK  status: ('A' for Active; 'I' for Inactive)
ROOT
ATOM      1  C   UNL d   1       0.098   1.534  -0.006  0.00  0.00     0.078 C 
ATOM      2  C1  UNL d   1      -0.267   0.097   0.216  0.00  0.00    -0.077 A 
ATOM      3  C2  UNL d   1      -0.546  -0.386   1.500  0.00  0.00    -0.001 A 
ATOM      4  C3  UNL d   1      -0.876  -1.729   1.694  0.00  0.00     0.003 A 
ATOM      5  C4  UNL d   1      -0.928  -2.599   0.607  0.00  0.00    -0.005 A 
ATOM      6  C5  UNL d   1      -0.650  -2.129  -0.674  0.00  0.00     0.003 A 
ATOM      7  C6  UNL d   1      -0.320  -0.786  -0.870  0.00  0.00    -0.001 A 
ENDROOT
TORSDOF 0
ENDMDL
