MODEL 1
REMARK minimizedAffinity -5.51593876
REMARK minimizedRMSD -1
REMARK  0 active torsions:
REMARK  status: ('A' for Active; 'I' for Inactive)
ROOT
ATOM      1  C   UNL d   1       0.384  -3.339   0.565  0.00  0.00     0.078 C 
ATOM      2  C1  UNL d   1       0.228  -1.941   0.044  0.00  0.00    -0.077 A 
ATOM      3  C2  UNL d   1       0.468  -1.642  -1.302  0.00  0.00    -0.001 A 
ATOM      4  C3  UNL d   1       0.328  -0.335  -1.771  0.00  0.00     0.003 A 
ATOM      5  C4  UNL d   1      -0.051   0.684  -0.899  0.00  0.00    -0.005 A 
ATOM      6  C5  UNL d   1      -0.290   0.396   0.443  0.00  0.00     0.003 A 
ATOM      7  C6  UNL d   1      -0.150  -0.910   0.914  0.00  0.00    -0.001 A 
ENDROOT
TORSDOF 0
ENDMDL
