MODEL 1
REMARK minimizedAffinity -4.30591631
REMARK minimizedRMSD -1
REMARK  0 active torsions:
REMARK  status: ('A' for Active; 'I' for Inactive)
ROOT
ATOM      1  C   UNL d   1       0.009  -3.477   0.371  0.00  0.00     0.078 C 
ATOM      2  C1  UNL d   1       0.064  -1.999   0.121  0.00  0.00    -0.077 A 
ATOM      3  C2  UNL d   1      -0.395  -1.088   1.079  0.00  0.00    -0.001 A 
ATOM      4  C3  UNL d   1      -0.346   0.284   0.829  0.00  0.00     0.003 A 
ATOM      5  C4  UNL d   1       0.160   0.757  -0.380  0.00  0.00    -0.005 A 
ATOM      6  C5  UNL d   1       0.618  -0.142  -1.341  0.00  0.00     0.003 A 
ATOM      7  C6  UNL d   1       0.570  -1.515  -1.092  0.00  0.00    -0.001 A 
ENDROOT
TORSDOF 0
ENDMDL
