MODEL 1
REMARK minimizedAffinity -3.88603401
REMARK minimizedRMSD -1
REMARK  0 active torsions:
REMARK  status: ('A' for Active; 'I' for Inactive)
ROOT
ATOM      1  C   UNL d   1       0.539   1.441  -0.009  0.00  0.00     0.078 C 
ATOM      2  C1  UNL d   1       0.168  -0.000   0.176  0.00  0.00    -0.077 A 
ATOM      3  C2  UNL d   1       0.797  -1.008  -0.567  0.00  0.00    -0.001 A 
ATOM      4  C3  UNL d   1       0.435  -2.344  -0.391  0.00  0.00     0.003 A 
ATOM      5  C4  UNL d   1      -0.558  -2.686   0.525  0.00  0.00    -0.005 A 
ATOM      6  C5  UNL d   1      -1.190  -1.690   1.267  0.00  0.00     0.003 A 
ATOM      7  C6  UNL d   1      -0.830  -0.353   1.093  0.00  0.00    -0.001 A 
ENDROOT
TORSDOF 0
ENDMDL
