MODEL 1
REMARK minimizedAffinity -1.13666379
REMARK minimizedRMSD -1
REMARK  0 active torsions:
REMARK  status: ('A' for Active; 'I' for Inactive)
ROOT
ATOM      1  C   UNL d   1       0.564  -0.844  -1.962  0.00  0.00     0.078 C 
ATOM      2  C1  UNL d   1       0.062  -1.055  -0.565  0.00  0.00    -0.077 A 
ATOM      3  C2  UNL d   1       0.166  -0.044   0.399  0.00  0.00    -0.001 A 
ATOM      4  C3  UNL d   1      -0.296  -0.257   1.698  0.00  0.00     0.003 A 
ATOM      5  C4  UNL d   1      -0.865  -1.481   2.046  0.00  0.00    -0.005 A 
ATOM      6  C5  UNL d   1      -0.971  -2.493   1.095  0.00  0.00     0.003 A 
ATOM      7  C6  UNL d   1      -0.509  -2.282  -0.205  0.00  0.00    -0.001 A 
ENDROOT
TORSDOF 0
ENDMDL
