MODEL 1
REMARK minimizedAffinity -2.91506839
REMARK minimizedRMSD -1
REMARK  0 active torsions:
REMARK  status: ('A' for Active; 'I' for Inactive)
ROOT
ATOM      1  C   UNL d   1       0.482   3.532   0.487  0.00  0.00     0.078 C 
ATOM      2  C1  UNL d   1       0.143   2.075   0.381  0.00  0.00    -0.077 A 
ATOM      3  C2  UNL d   1       0.265   1.393  -0.836  0.00  0.00    -0.001 A 
ATOM      4  C3  UNL d   1      -0.064   0.039  -0.922  0.00  0.00     0.003 A 
ATOM      5  C4  UNL d   1      -0.518  -0.644   0.204  0.00  0.00    -0.005 A 
ATOM      6  C5  UNL d   1      -0.645   0.027   1.419  0.00  0.00     0.003 A 
ATOM      7  C6  UNL d   1      -0.317   1.381   1.507  0.00  0.00    -0.001 A 
ENDROOT
TORSDOF 0
ENDMDL
