MODEL 1
REMARK minimizedAffinity -4.74186802
REMARK minimizedRMSD -1
REMARK  0 active torsions:
REMARK  status: ('A' for Active; 'I' for Inactive)
ROOT
ATOM      1  C   UNL d   1       0.554   1.107   0.032  0.00  0.00     0.078 C 
ATOM      2  C1  UNL d   1       0.303  -0.371   0.050  0.00  0.00    -0.077 A 
ATOM      3  C2  UNL d   1       0.475  -1.146  -1.104  0.00  0.00    -0.001 A 
ATOM      4  C3  UNL d   1       0.228  -2.519  -1.075  0.00  0.00     0.003 A 
ATOM      5  C4  UNL d   1      -0.193  -3.130   0.105  0.00  0.00    -0.005 A 
ATOM      6  C5  UNL d   1      -0.369  -2.367   1.257  0.00  0.00     0.003 A 
ATOM      7  C6  UNL d   1      -0.123  -0.993   1.230  0.00  0.00    -0.001 A 
ENDROOT
TORSDOF 0
ENDMDL
