MODEL 1
REMARK minimizedAffinity -2.97917485
REMARK minimizedRMSD -1
REMARK  0 active torsions:
REMARK  status: ('A' for Active; 'I' for Inactive)
ROOT
ATOM      1  C   UNL d   1       0.806   2.129   0.149  0.00  0.00     0.078 C 
ATOM      2  C1  UNL d   1       0.303   0.730   0.343  0.00  0.00    -0.077 A 
ATOM      3  C2  UNL d   1       0.868  -0.343  -0.356  0.00  0.00    -0.001 A 
ATOM      4  C3  UNL d   1       0.383  -1.639  -0.173  0.00  0.00     0.003 A 
ATOM      5  C4  UNL d   1      -0.671  -1.873   0.708  0.00  0.00    -0.005 A 
ATOM      6  C5  UNL d   1      -1.241  -0.811   1.407  0.00  0.00     0.003 A 
ATOM      7  C6  UNL d   1      -0.757   0.485   1.225  0.00  0.00    -0.001 A 
ENDROOT
TORSDOF 0
ENDMDL
