MODEL 1
REMARK minimizedAffinity 0.573043525
REMARK minimizedRMSD -1
REMARK  0 active torsions:
REMARK  status: ('A' for Active; 'I' for Inactive)
ROOT
ATOM      1  C   UNL d   1       1.897   5.961   1.794  0.00  0.00     0.077 C 
ATOM      2  C1  UNL d   1       2.065   5.704   3.262  0.00  0.00    -0.074 A 
ATOM      3  C2  UNL d   1       1.011   5.197   4.029  0.00  0.00    -0.005 A 
ATOM      4  C3  UNL d   1       1.186   4.954   5.391  0.00  0.00     0.006 A 
ATOM      5  C4  UNL d   1       2.414   5.215   6.000  0.00  0.00    -0.005 A 
ATOM      6  C5  UNL d   1       3.480   5.722   5.249  0.00  0.00    -0.074 A 
ATOM      7  C6  UNL d   1       4.809   5.999   5.886  0.00  0.00     0.077 C 
ATOM      8  C7  UNL d   1       3.299   5.957   3.879  0.00  0.00    -0.001 A 
ENDROOT
TORSDOF 0
ENDMDL
