MODEL 1
REMARK minimizedAffinity 8.43464947
REMARK minimizedRMSD -1
REMARK  0 active torsions:
REMARK  status: ('A' for Active; 'I' for Inactive)
ROOT
ATOM      1  C   UNL d   1       0.300  -1.244   2.262  0.00  0.00     0.077 C 
ATOM      2  C1  UNL d   1       1.206  -1.845   1.229  0.00  0.00    -0.074 A 
ATOM      3  C2  UNL d   1       1.324  -1.275  -0.043  0.00  0.00    -0.005 A 
ATOM      4  C3  UNL d   1       2.179  -1.840  -0.990  0.00  0.00     0.006 A 
ATOM      5  C4  UNL d   1       2.922  -2.978  -0.675  0.00  0.00    -0.005 A 
ATOM      6  C5  UNL d   1       2.817  -3.561   0.592  0.00  0.00    -0.074 A 
ATOM      7  C6  UNL d   1       3.616  -4.779   0.949  0.00  0.00     0.077 C 
ATOM      8  C7  UNL d   1       1.962  -2.984   1.540  0.00  0.00    -0.001 A 
ENDROOT
TORSDOF 0
ENDMDL
