MODEL 1
REMARK minimizedAffinity 6.21504974
REMARK minimizedRMSD -1
REMARK  0 active torsions:
REMARK  status: ('A' for Active; 'I' for Inactive)
ROOT
ATOM      1  C   UNL d   1      -5.804   5.982   5.751  0.00  0.00     0.077 C 
ATOM      2  C1  UNL d   1      -4.601   5.109   5.545  0.00  0.00    -0.074 A 
ATOM      3  C2  UNL d   1      -3.336   5.513   5.984  0.00  0.00    -0.005 A 
ATOM      4  C3  UNL d   1      -2.229   4.687   5.793  0.00  0.00     0.006 A 
ATOM      5  C4  UNL d   1      -2.375   3.451   5.163  0.00  0.00    -0.005 A 
ATOM      6  C5  UNL d   1      -3.632   3.030   4.718  0.00  0.00    -0.074 A 
ATOM      7  C6  UNL d   1      -3.808   1.700   4.047  0.00  0.00     0.077 C 
ATOM      8  C7  UNL d   1      -4.741   3.863   4.919  0.00  0.00    -0.001 A 
ENDROOT
TORSDOF 0
ENDMDL
