MODEL 1
REMARK minimizedAffinity -0.27516669
REMARK minimizedRMSD -1
REMARK  0 active torsions:
REMARK  status: ('A' for Active; 'I' for Inactive)
ROOT
ATOM      1  C   UNL d   1       0.359  -2.286   1.085  0.00  0.00     0.077 C 
ATOM      2  C1  UNL d   1       1.812  -2.602   1.282  0.00  0.00    -0.074 A 
ATOM      3  C2  UNL d   1       2.597  -3.065   0.222  0.00  0.00    -0.005 A 
ATOM      4  C3  UNL d   1       3.949  -3.346   0.418  0.00  0.00     0.006 A 
ATOM      5  C4  UNL d   1       4.529  -3.167   1.675  0.00  0.00    -0.005 A 
ATOM      6  C5  UNL d   1       3.760  -2.704   2.747  0.00  0.00    -0.074 A 
ATOM      7  C6  UNL d   1       4.369  -2.497   4.102  0.00  0.00     0.077 C 
ATOM      8  C7  UNL d   1       2.403  -2.418   2.540  0.00  0.00    -0.001 A 
ENDROOT
TORSDOF 0
ENDMDL
