MODEL 1
REMARK minimizedAffinity 9.15330315
REMARK minimizedRMSD -1
REMARK  0 active torsions:
REMARK  status: ('A' for Active; 'I' for Inactive)
ROOT
ATOM      1  C   UNL d   1      -2.239   2.687  -2.955  0.00  0.00     0.077 C 
ATOM      2  C1  UNL d   1      -3.539   2.552  -3.690  0.00  0.00    -0.074 A 
ATOM      3  C2  UNL d   1      -4.149   3.662  -4.283  0.00  0.00    -0.005 A 
ATOM      4  C3  UNL d   1      -5.354   3.519  -4.971  0.00  0.00     0.006 A 
ATOM      5  C4  UNL d   1      -5.960   2.267  -5.073  0.00  0.00    -0.005 A 
ATOM      6  C5  UNL d   1      -5.366   1.145  -4.486  0.00  0.00    -0.074 A 
ATOM      7  C6  UNL d   1      -6.000  -0.210  -4.594  0.00  0.00     0.077 C 
ATOM      8  C7  UNL d   1      -4.151   1.295  -3.803  0.00  0.00    -0.001 A 
ENDROOT
TORSDOF 0
ENDMDL
