MODEL 1
REMARK minimizedAffinity 0.0344650708
REMARK minimizedRMSD -1
REMARK  0 active torsions:
REMARK  status: ('A' for Active; 'I' for Inactive)
ROOT
ATOM      1  C   UNL d   1       2.071  -2.035   0.677  0.00  0.00     0.077 C 
ATOM      2  C1  UNL d   1       3.074  -2.939   1.329  0.00  0.00    -0.074 A 
ATOM      3  C2  UNL d   1       3.700  -3.960   0.606  0.00  0.00    -0.005 A 
ATOM      4  C3  UNL d   1       4.638  -4.787   1.223  0.00  0.00     0.006 A 
ATOM      5  C4  UNL d   1       4.960  -4.602   2.568  0.00  0.00    -0.005 A 
ATOM      6  C5  UNL d   1       4.346  -3.586   3.308  0.00  0.00    -0.074 A 
ATOM      7  C6  UNL d   1       4.688  -3.367   4.752  0.00  0.00     0.077 C 
ATOM      8  C7  UNL d   1       3.409  -2.755   2.678  0.00  0.00    -0.001 A 
ENDROOT
TORSDOF 0
ENDMDL
