MODEL 1
REMARK minimizedAffinity 11.1747656
REMARK minimizedRMSD -1
REMARK  0 active torsions:
REMARK  status: ('A' for Active; 'I' for Inactive)
ROOT
ATOM      1  C   UNL d   1       5.426   3.535   2.314  0.00  0.00     0.077 C 
ATOM      2  C1  UNL d   1       4.774   4.355   3.387  0.00  0.00    -0.074 A 
ATOM      3  C2  UNL d   1       5.532   5.192   4.212  0.00  0.00    -0.005 A 
ATOM      4  C3  UNL d   1       4.911   5.957   5.200  0.00  0.00     0.006 A 
ATOM      5  C4  UNL d   1       3.528   5.891   5.372  0.00  0.00    -0.005 A 
ATOM      6  C5  UNL d   1       2.754   5.060   4.557  0.00  0.00    -0.074 A 
ATOM      7  C6  UNL d   1       1.265   4.986   4.723  0.00  0.00     0.077 C 
ATOM      8  C7  UNL d   1       3.384   4.301   3.562  0.00  0.00    -0.001 A 
ENDROOT
TORSDOF 0
ENDMDL
