MODEL 1
REMARK minimizedAffinity -0.684634268
REMARK minimizedRMSD -1
REMARK  0 active torsions:
REMARK  status: ('A' for Active; 'I' for Inactive)
ROOT
ATOM      1  C   UNL d   1      -1.835  -0.747  -0.383  0.00  0.00     0.078 C 
ATOM      2  C1  UNL d   1      -1.327   0.045   0.785  0.00  0.00    -0.077 A 
ATOM      3  C2  UNL d   1      -1.832  -0.165   2.074  0.00  0.00    -0.001 A 
ATOM      4  C3  UNL d   1      -1.357   0.586   3.149  0.00  0.00     0.003 A 
ATOM      5  C4  UNL d   1      -0.375   1.554   2.947  0.00  0.00    -0.005 A 
ATOM      6  C5  UNL d   1       0.132   1.772   1.668  0.00  0.00     0.003 A 
ATOM      7  C6  UNL d   1      -0.342   1.022   0.591  0.00  0.00    -0.001 A 
ENDROOT
TORSDOF 0
ENDMDL
