MODEL 1
REMARK minimizedAffinity -3.68473458
REMARK minimizedRMSD -1
REMARK  0 active torsions:
REMARK  status: ('A' for Active; 'I' for Inactive)
ROOT
ATOM      1  C   UNL d   1       2.269  -0.493   0.785  0.00  0.00     0.078 C 
ATOM      2  C1  UNL d   1       0.872  -0.111   1.176  0.00  0.00    -0.077 A 
ATOM      3  C2  UNL d   1      -0.220  -0.445   0.367  0.00  0.00    -0.001 A 
ATOM      4  C3  UNL d   1      -1.514  -0.074   0.738  0.00  0.00     0.003 A 
ATOM      5  C4  UNL d   1      -1.726   0.634   1.919  0.00  0.00    -0.005 A 
ATOM      6  C5  UNL d   1      -0.645   0.973   2.729  0.00  0.00     0.003 A 
ATOM      7  C6  UNL d   1       0.649   0.603   2.360  0.00  0.00    -0.001 A 
ENDROOT
TORSDOF 0
ENDMDL
