MODEL 1
REMARK minimizedAffinity 0.144134536
REMARK minimizedRMSD -1
REMARK  0 active torsions:
REMARK  status: ('A' for Active; 'I' for Inactive)
ROOT
ATOM      1  C   UNL d   1       1.986  -0.442   0.694  0.00  0.00     0.078 C 
ATOM      2  C1  UNL d   1       0.497  -0.306   0.583  0.00  0.00    -0.077 A 
ATOM      3  C2  UNL d   1      -0.246   0.325   1.589  0.00  0.00    -0.001 A 
ATOM      4  C3  UNL d   1      -1.633   0.436   1.477  0.00  0.00     0.003 A 
ATOM      5  C4  UNL d   1      -2.289  -0.081   0.362  0.00  0.00    -0.005 A 
ATOM      6  C5  UNL d   1      -1.558  -0.712  -0.643  0.00  0.00     0.003 A 
ATOM      7  C6  UNL d   1      -0.171  -0.825  -0.533  0.00  0.00    -0.001 A 
ENDROOT
TORSDOF 0
ENDMDL
