MODEL 1
REMARK minimizedAffinity -5.69368458
REMARK minimizedRMSD -1
REMARK  0 active torsions:
REMARK  status: ('A' for Active; 'I' for Inactive)
ROOT
ATOM      1  C   UNL d   1       1.688  -0.320  -0.860  0.00  0.00     0.078 C 
ATOM      2  C1  UNL d   1       1.313   0.087   0.534  0.00  0.00    -0.077 A 
ATOM      3  C2  UNL d   1       2.239   0.012   1.581  0.00  0.00    -0.001 A 
ATOM      4  C3  UNL d   1       1.873   0.384   2.875  0.00  0.00     0.003 A 
ATOM      5  C4  UNL d   1       0.580   0.834   3.135  0.00  0.00    -0.005 A 
ATOM      6  C5  UNL d   1      -0.349   0.911   2.099  0.00  0.00     0.003 A 
ATOM      7  C6  UNL d   1       0.015   0.538   0.804  0.00  0.00    -0.001 A 
ENDROOT
TORSDOF 0
ENDMDL
