MODEL 1
REMARK minimizedAffinity -4.06985903
REMARK minimizedRMSD -1
REMARK  0 active torsions:
REMARK  status: ('A' for Active; 'I' for Inactive)
ROOT
ATOM      1  C   UNL d   1       1.415  -0.244   0.057  0.00  0.00     0.078 C 
ATOM      2  C1  UNL d   1      -0.009  -0.014   0.469  0.00  0.00    -0.077 A 
ATOM      3  C2  UNL d   1      -0.338   0.966   1.413  0.00  0.00    -0.001 A 
ATOM      4  C3  UNL d   1      -1.666   1.162   1.794  0.00  0.00     0.003 A 
ATOM      5  C4  UNL d   1      -2.676   0.381   1.237  0.00  0.00    -0.005 A 
ATOM      6  C5  UNL d   1      -2.359  -0.599   0.298  0.00  0.00     0.003 A 
ATOM      7  C6  UNL d   1      -1.031  -0.796  -0.084  0.00  0.00    -0.001 A 
ENDROOT
TORSDOF 0
ENDMDL
