MODEL 1
REMARK minimizedAffinity -4.64688015
REMARK minimizedRMSD -1
REMARK  0 active torsions:
REMARK  status: ('A' for Active; 'I' for Inactive)
ROOT
ATOM      1  C   UNL d   1       0.464   0.210  -1.548  0.00  0.00     0.078 C 
ATOM      2  C1  UNL d   1      -0.060   0.270  -0.145  0.00  0.00    -0.077 A 
ATOM      3  C2  UNL d   1      -1.390   0.622   0.114  0.00  0.00    -0.001 A 
ATOM      4  C3  UNL d   1      -1.862   0.683   1.427  0.00  0.00     0.003 A 
ATOM      5  C4  UNL d   1      -1.009   0.395   2.491  0.00  0.00    -0.005 A 
ATOM      6  C5  UNL d   1       0.316   0.046   2.243  0.00  0.00     0.003 A 
ATOM      7  C6  UNL d   1       0.790  -0.016   0.931  0.00  0.00    -0.001 A 
ENDROOT
TORSDOF 0
ENDMDL
