MODEL 1
REMARK minimizedAffinity 1.8144381
REMARK minimizedRMSD -1
REMARK  0 active torsions:
REMARK  status: ('A' for Active; 'I' for Inactive)
ROOT
ATOM      1  C   UNL d   1       4.480   2.890   5.033  0.00  0.00     0.172 C 
ATOM      2  N   UNL d   1       4.866   1.519   5.271  0.00  0.00    -0.070 N 
ATOM      3  C1  UNL d   1       4.201   0.412   4.815  0.00  0.00    -0.004 A 
ATOM      4  C2  UNL d   1       4.885  -0.702   5.254  0.00  0.00    -0.047 A 
ATOM      5  C3  UNL d   1       5.999  -0.248   5.999  0.00  0.00    -0.047 A 
ATOM      6  C4  UNL d   1       5.963   1.130   5.994  0.00  0.00    -0.004 A 
ENDROOT
TORSDOF 0
ENDMDL
