MODEL 1
REMARK minimizedAffinity 4.78161669
REMARK minimizedRMSD -1
REMARK  0 active torsions:
REMARK  status: ('A' for Active; 'I' for Inactive)
ROOT
ATOM      1  C   UNL d   1      -1.236   0.119  -0.437  0.00  0.00     0.172 C 
ATOM      2  N   UNL d   1      -0.294   1.209  -0.333  0.00  0.00    -0.070 N 
ATOM      3  C1  UNL d   1       0.757   1.439  -1.180  0.00  0.00    -0.004 A 
ATOM      4  C2  UNL d   1       1.411   2.571  -0.744  0.00  0.00    -0.047 A 
ATOM      5  C3  UNL d   1       0.729   3.038   0.405  0.00  0.00    -0.047 A 
ATOM      6  C4  UNL d   1      -0.322   2.176   0.637  0.00  0.00    -0.004 A 
ENDROOT
TORSDOF 0
ENDMDL
