MODEL 1
REMARK minimizedAffinity -2.21920586
REMARK minimizedRMSD -1
REMARK  0 active torsions:
REMARK  status: ('A' for Active; 'I' for Inactive)
ROOT
ATOM      1  C   UNL d   1       0.577   1.411  -1.189  0.00  0.00     0.172 C 
ATOM      2  N   UNL d   1       1.033   0.279  -1.962  0.00  0.00    -0.070 N 
ATOM      3  C1  UNL d   1       1.179   0.248  -3.323  0.00  0.00    -0.004 A 
ATOM      4  C2  UNL d   1       1.634  -1.005  -3.671  0.00  0.00    -0.047 A 
ATOM      5  C3  UNL d   1       1.765  -1.754  -2.477  0.00  0.00    -0.047 A 
ATOM      6  C4  UNL d   1       1.386  -0.935  -1.435  0.00  0.00    -0.004 A 
ENDROOT
TORSDOF 0
ENDMDL
