MODEL 1
REMARK minimizedAffinity 1.71840978
REMARK minimizedRMSD -1
REMARK  0 active torsions:
REMARK  status: ('A' for Active; 'I' for Inactive)
ROOT
ATOM      1  C   UNL d   1       1.154  -1.862  -0.360  0.00  0.00     0.172 C 
ATOM      2  N   UNL d   1       1.250  -0.928  -1.457  0.00  0.00    -0.070 N 
ATOM      3  C1  UNL d   1       0.839   0.378  -1.432  0.00  0.00    -0.004 A 
ATOM      4  C2  UNL d   1       1.103   0.927  -2.668  0.00  0.00    -0.047 A 
ATOM      5  C3  UNL d   1       1.692  -0.084  -3.464  0.00  0.00    -0.047 A 
ATOM      6  C4  UNL d   1       1.771  -1.222  -2.690  0.00  0.00    -0.004 A 
ENDROOT
TORSDOF 0
ENDMDL
