MODEL 1
REMARK minimizedAffinity 5.05358315
REMARK minimizedRMSD -1
REMARK  0 active torsions:
REMARK  status: ('A' for Active; 'I' for Inactive)
ROOT
ATOM      1  C   UNL d   1      -1.932   0.349   3.169  0.00  0.00     0.172 C 
ATOM      2  N   UNL d   1      -3.113  -0.469   3.314  0.00  0.00    -0.070 N 
ATOM      3  C1  UNL d   1      -3.128  -1.831   3.459  0.00  0.00    -0.004 A 
ATOM      4  C2  UNL d   1      -4.443  -2.229   3.567  0.00  0.00    -0.047 A 
ATOM      5  C3  UNL d   1      -5.246  -1.067   3.484  0.00  0.00    -0.047 A 
ATOM      6  C4  UNL d   1      -4.397   0.008   3.327  0.00  0.00    -0.004 A 
ENDROOT
TORSDOF 0
ENDMDL
