MODEL 1
REMARK minimizedAffinity -1.31041622
REMARK minimizedRMSD -1
REMARK  0 active torsions:
REMARK  status: ('A' for Active; 'I' for Inactive)
ROOT
ATOM      1  C   UNL d   1       5.671   5.910   4.901  0.00  0.00     0.172 C 
ATOM      2  N   UNL d   1       5.670   4.466   4.911  0.00  0.00    -0.070 N 
ATOM      3  C1  UNL d   1       5.358   3.660   3.849  0.00  0.00    -0.004 A 
ATOM      4  C2  UNL d   1       5.477   2.351   4.264  0.00  0.00    -0.047 A 
ATOM      5  C3  UNL d   1       5.873   2.371   5.622  0.00  0.00    -0.047 A 
ATOM      6  C4  UNL d   1       5.985   3.693   5.998  0.00  0.00    -0.004 A 
ENDROOT
TORSDOF 0
ENDMDL
