MODEL 1
REMARK minimizedAffinity -1.53485954
REMARK minimizedRMSD -1
REMARK  0 active torsions:
REMARK  status: ('A' for Active; 'I' for Inactive)
ROOT
ATOM      1  C   UNL d   1       5.977   0.549   5.743  0.00  0.00     0.172 C 
ATOM      2  N   UNL d   1       5.984  -0.803   5.236  0.00  0.00    -0.070 N 
ATOM      3  C1  UNL d   1       5.991  -1.942   5.997  0.00  0.00    -0.004 A 
ATOM      4  C2  UNL d   1       5.995  -3.022   5.141  0.00  0.00    -0.047 A 
ATOM      5  C3  UNL d   1       5.992  -2.515   3.820  0.00  0.00    -0.047 A 
ATOM      6  C4  UNL d   1       5.985  -1.139   3.908  0.00  0.00    -0.004 A 
ENDROOT
TORSDOF 0
ENDMDL
