MODEL 1
REMARK minimizedAffinity -1.5274744
REMARK minimizedRMSD -1
REMARK  0 active torsions:
REMARK  status: ('A' for Active; 'I' for Inactive)
ROOT
ATOM      1  C   UNL d   1       5.945  -1.803   5.631  0.00  0.00     0.172 C 
ATOM      2  N   UNL d   1       5.352  -0.486   5.625  0.00  0.00    -0.070 N 
ATOM      3  C1  UNL d   1       4.069  -0.190   5.249  0.00  0.00    -0.004 A 
ATOM      4  C2  UNL d   1       3.892   1.169   5.386  0.00  0.00    -0.047 A 
ATOM      5  C3  UNL d   1       5.111   1.709   5.860  0.00  0.00    -0.047 A 
ATOM      6  C4  UNL d   1       5.998   0.662   6.000  0.00  0.00    -0.004 A 
ENDROOT
TORSDOF 0
ENDMDL
