MODEL 1
REMARK minimizedAffinity -0.549929023
REMARK minimizedRMSD -1
REMARK  0 active torsions:
REMARK  status: ('A' for Active; 'I' for Inactive)
ROOT
ATOM      1  C   UNL d   1       4.743   1.692   4.494  0.00  0.00     0.172 C 
ATOM      2  N   UNL d   1       5.049   0.350   4.930  0.00  0.00    -0.070 N 
ATOM      3  C1  UNL d   1       5.989   0.010   5.866  0.00  0.00    -0.004 A 
ATOM      4  C2  UNL d   1       5.975  -1.362   6.000  0.00  0.00    -0.047 A 
ATOM      5  C3  UNL d   1       4.993  -1.863   5.113  0.00  0.00    -0.047 A 
ATOM      6  C4  UNL d   1       4.435  -0.782   4.463  0.00  0.00    -0.004 A 
ENDROOT
TORSDOF 0
ENDMDL
