MODEL 1
REMARK minimizedAffinity -2.1716392
REMARK minimizedRMSD -1
REMARK  0 active torsions:
REMARK  status: ('A' for Active; 'I' for Inactive)
ROOT
ATOM      1  C   UNL d   1       5.179   1.474   5.621  0.00  0.00     0.172 C 
ATOM      2  N   UNL d   1       5.343   0.083   5.273  0.00  0.00    -0.070 N 
ATOM      3  C1  UNL d   1       4.880  -0.982   6.000  0.00  0.00    -0.004 A 
ATOM      4  C2  UNL d   1       5.238  -2.135   5.335  0.00  0.00    -0.047 A 
ATOM      5  C3  UNL d   1       5.942  -1.750   4.169  0.00  0.00    -0.047 A 
ATOM      6  C4  UNL d   1       5.992  -0.372   4.155  0.00  0.00    -0.004 A 
ENDROOT
TORSDOF 0
ENDMDL
