MODEL 1
REMARK minimizedAffinity -1.23063791
REMARK minimizedRMSD -1
REMARK  0 active torsions:
REMARK  status: ('A' for Active; 'I' for Inactive)
ROOT
ATOM      1  C   UNL d   1       1.751   0.424  -4.199  0.00  0.00     0.172 C 
ATOM      2  N   UNL d   1       1.645  -0.208  -2.905  0.00  0.00    -0.070 N 
ATOM      3  C1  UNL d   1       0.985   0.301  -1.819  0.00  0.00    -0.004 A 
ATOM      4  C2  UNL d   1       1.117  -0.600  -0.784  0.00  0.00    -0.047 A 
ATOM      5  C3  UNL d   1       1.883  -1.688  -1.265  0.00  0.00    -0.047 A 
ATOM      6  C4  UNL d   1       2.197  -1.420  -2.581  0.00  0.00    -0.004 A 
ENDROOT
TORSDOF 0
ENDMDL
