MODEL 1
REMARK minimizedAffinity 0.655752122
REMARK minimizedRMSD -1
REMARK  0 active torsions:
REMARK  status: ('A' for Active; 'I' for Inactive)
ROOT
ATOM      1  C   UNL d   1       1.727  -2.162  -1.079  0.00  0.00     0.172 C 
ATOM      2  N   UNL d   1       1.552  -1.856  -2.480  0.00  0.00    -0.070 N 
ATOM      3  C1  UNL d   1       1.131  -2.735  -3.442  0.00  0.00    -0.004 A 
ATOM      4  C2  UNL d   1       1.094  -2.060  -4.643  0.00  0.00    -0.047 A 
ATOM      5  C3  UNL d   1       1.508  -0.730  -4.394  0.00  0.00    -0.047 A 
ATOM      6  C4  UNL d   1       1.785  -0.631  -3.047  0.00  0.00    -0.004 A 
ENDROOT
TORSDOF 0
ENDMDL
