MODEL 1
REMARK minimizedAffinity 3.5390532
REMARK minimizedRMSD -1
REMARK  0 active torsions:
REMARK  status: ('A' for Active; 'I' for Inactive)
ROOT
ATOM      1  C   UNL d   1       2.030  -1.892  -1.097  0.00  0.00     0.172 C 
ATOM      2  N   UNL d   1       0.759  -1.403  -0.617  0.00  0.00    -0.070 N 
ATOM      3  C1  UNL d   1      -0.252  -2.173  -0.107  0.00  0.00    -0.004 A 
ATOM      4  C2  UNL d   1      -1.289  -1.333   0.237  0.00  0.00    -0.047 A 
ATOM      5  C3  UNL d   1      -0.888  -0.013  -0.078  0.00  0.00    -0.047 A 
ATOM      6  C4  UNL d   1       0.384  -0.085  -0.605  0.00  0.00    -0.004 A 
ENDROOT
TORSDOF 0
ENDMDL
