MODEL 1
REMARK minimizedAffinity 3.76396513
REMARK minimizedRMSD -1
REMARK  0 active torsions:
REMARK  status: ('A' for Active; 'I' for Inactive)
ROOT
ATOM      1  C   UNL d   1       1.876   0.383  -4.498  0.00  0.00     0.172 C 
ATOM      2  N   UNL d   1       1.875   1.775  -4.883  0.00  0.00    -0.070 N 
ATOM      3  C1  UNL d   1       2.490   2.298  -5.989  0.00  0.00    -0.004 A 
ATOM      4  C2  UNL d   1       2.256   3.656  -6.000  0.00  0.00    -0.047 A 
ATOM      5  C3  UNL d   1       1.474   3.960  -4.860  0.00  0.00    -0.047 A 
ATOM      6  C4  UNL d   1       1.253   2.777  -4.186  0.00  0.00    -0.004 A 
ENDROOT
TORSDOF 0
ENDMDL
