MODEL 1
REMARK minimizedAffinity 1.80261505
REMARK minimizedRMSD -1
REMARK  0 active torsions:
REMARK  status: ('A' for Active; 'I' for Inactive)
ROOT
ATOM      1  C   UNL d   1       1.589  -0.198  -3.260  0.00  0.00     0.172 C 
ATOM      2  N   UNL d   1       1.284  -0.857  -2.012  0.00  0.00    -0.070 N 
ATOM      3  C1  UNL d   1       0.517  -0.338  -1.003  0.00  0.00    -0.004 A 
ATOM      4  C2  UNL d   1       0.466  -1.271   0.010  0.00  0.00    -0.047 A 
ATOM      5  C3  UNL d   1       1.229  -2.389  -0.404  0.00  0.00    -0.047 A 
ATOM      6  C4  UNL d   1       1.723  -2.105  -1.660  0.00  0.00    -0.004 A 
ENDROOT
TORSDOF 0
ENDMDL
