MODEL 1
REMARK minimizedAffinity -3.26843786
REMARK minimizedRMSD -1
REMARK  0 active torsions:
REMARK  status: ('A' for Active; 'I' for Inactive)
ROOT
ATOM      1  C   UNL d   1       1.195   0.477  -3.324  0.00  0.00     0.172 C 
ATOM      2  N   UNL d   1       1.148  -0.452  -2.220  0.00  0.00    -0.070 N 
ATOM      3  C1  UNL d   1       0.426  -0.287  -1.068  0.00  0.00    -0.004 A 
ATOM      4  C2  UNL d   1       0.647  -1.388  -0.270  0.00  0.00    -0.047 A 
ATOM      5  C3  UNL d   1       1.532  -2.245  -0.966  0.00  0.00    -0.047 A 
ATOM      6  C4  UNL d   1       1.827  -1.641  -2.170  0.00  0.00    -0.004 A 
ENDROOT
TORSDOF 0
ENDMDL
