MODEL 1
REMARK minimizedAffinity 0.323810071
REMARK minimizedRMSD -1
REMARK  0 active torsions:
REMARK  status: ('A' for Active; 'I' for Inactive)
ROOT
ATOM      1  C   UNL d   1       5.660   4.860   5.811  0.00  0.00     0.172 C 
ATOM      2  N   UNL d   1       5.233   3.488   5.667  0.00  0.00    -0.070 N 
ATOM      3  C1  UNL d   1       4.020   3.076   5.186  0.00  0.00    -0.004 A 
ATOM      4  C2  UNL d   1       4.003   1.698   5.207  0.00  0.00    -0.047 A 
ATOM      5  C3  UNL d   1       5.249   1.267   5.721  0.00  0.00    -0.047 A 
ATOM      6  C4  UNL d   1       5.992   2.396   5.997  0.00  0.00    -0.004 A 
ENDROOT
TORSDOF 0
ENDMDL
