MODEL 1
REMARK minimizedAffinity 11.0711012
REMARK minimizedRMSD -1
REMARK  0 active torsions:
REMARK  status: ('A' for Active; 'I' for Inactive)
ROOT
ATOM      1  C   UNL d   1       1.929   5.982  -3.623  0.00  0.00    -0.002 A 
ATOM      2  C1  UNL d   1       2.459   5.376  -2.493  0.00  0.00     0.010 A 
ATOM      3  C2  UNL d   1       3.717   4.771  -2.535  0.00  0.00     0.041 A 
ATOM      4  C3  UNL d   1       4.441   4.787  -3.743  0.00  0.00    -0.075 A 
ATOM      5  S   UNL d   1       6.000   4.109  -4.030  0.00  0.00     0.015 SA
ATOM      6  C4  UNL d   1       6.000   4.609  -5.660  0.00  0.00     0.022 A 
ATOM      7  C5  UNL d   1       4.846   5.277  -5.994  0.00  0.00     0.026 A 
ATOM      8  C6  UNL d   1       3.928   5.391  -4.895  0.00  0.00    -0.082 A 
ATOM      9  C7  UNL d   1       2.650   5.996  -4.820  0.00  0.00     0.045 A 
ENDROOT
TORSDOF 0
ENDMDL
