MODEL 1
REMARK minimizedAffinity 2.61595559
REMARK minimizedRMSD -1
REMARK  0 active torsions:
REMARK  status: ('A' for Active; 'I' for Inactive)
ROOT
ATOM      1  C   UNL d   1       1.893  -2.377  -3.593  0.00  0.00    -0.002 A 
ATOM      2  C1  UNL d   1       2.391  -1.841  -2.413  0.00  0.00     0.010 A 
ATOM      3  C2  UNL d   1       1.540  -1.580  -1.337  0.00  0.00     0.041 A 
ATOM      4  C3  UNL d   1       0.168  -1.872  -1.467  0.00  0.00    -0.075 A 
ATOM      5  S   UNL d   1      -1.062  -1.636  -0.282  0.00  0.00     0.015 SA
ATOM      6  C4  UNL d   1      -2.276  -2.242  -1.313  0.00  0.00     0.022 A 
ATOM      7  C5  UNL d   1      -1.774  -2.619  -2.536  0.00  0.00     0.026 A 
ATOM      8  C6  UNL d   1      -0.357  -2.412  -2.645  0.00  0.00    -0.082 A 
ATOM      9  C7  UNL d   1       0.531  -2.664  -3.718  0.00  0.00     0.045 A 
ENDROOT
TORSDOF 0
ENDMDL
