MODEL 1
REMARK minimizedAffinity 7.91289377
REMARK minimizedRMSD -1
REMARK  0 active torsions:
REMARK  status: ('A' for Active; 'I' for Inactive)
ROOT
ATOM      1  C   UNL d   1      -2.146  -2.076   0.244  0.00  0.00    -0.002 A 
ATOM      2  C1  UNL d   1      -2.905  -2.475  -0.847  0.00  0.00     0.010 A 
ATOM      3  C2  UNL d   1      -2.326  -2.588  -2.113  0.00  0.00     0.041 A 
ATOM      4  C3  UNL d   1      -0.957  -2.291  -2.264  0.00  0.00    -0.075 A 
ATOM      5  S   UNL d   1      -0.034  -2.360  -3.719  0.00  0.00     0.015 SA
ATOM      6  C4  UNL d   1       1.390  -1.863  -2.926  0.00  0.00     0.022 A 
ATOM      7  C5  UNL d   1       1.185  -1.644  -1.585  0.00  0.00     0.026 A 
ATOM      8  C6  UNL d   1      -0.172  -1.888  -1.181  0.00  0.00    -0.082 A 
ATOM      9  C7  UNL d   1      -0.788  -1.783   0.089  0.00  0.00     0.045 A 
ENDROOT
TORSDOF 0
ENDMDL
