MODEL 1
REMARK minimizedAffinity 7.32836151
REMARK minimizedRMSD -1
REMARK  0 active torsions:
REMARK  status: ('A' for Active; 'I' for Inactive)
ROOT
ATOM      1  C   UNL d   1       5.221   2.541  -5.595  0.00  0.00    -0.002 A 
ATOM      2  C1  UNL d   1       5.718   1.736  -4.581  0.00  0.00     0.010 A 
ATOM      3  C2  UNL d   1       5.988   2.268  -3.318  0.00  0.00     0.041 A 
ATOM      4  C3  UNL d   1       5.745   3.636  -3.090  0.00  0.00    -0.075 A 
ATOM      5  S   UNL d   1       5.999   4.506  -1.623  0.00  0.00     0.015 SA
ATOM      6  C4  UNL d   1       5.452   5.968  -2.308  0.00  0.00     0.022 A 
ATOM      7  C5  UNL d   1       5.081   5.814  -3.623  0.00  0.00     0.026 A 
ATOM      8  C6  UNL d   1       5.243   4.468  -4.095  0.00  0.00    -0.082 A 
ATOM      9  C7  UNL d   1       4.981   3.899  -5.364  0.00  0.00     0.045 A 
ENDROOT
TORSDOF 0
ENDMDL
