MODEL 1
REMARK minimizedAffinity 2.24189925
REMARK minimizedRMSD -1
REMARK  0 active torsions:
REMARK  status: ('A' for Active; 'I' for Inactive)
ROOT
ATOM      1  C   UNL d   1       5.997   4.622  -0.961  0.00  0.00    -0.002 A 
ATOM      2  C1  UNL d   1       5.998   5.867  -1.575  0.00  0.00     0.010 A 
ATOM      3  C2  UNL d   1       5.623   6.000  -2.913  0.00  0.00     0.041 A 
ATOM      4  C3  UNL d   1       5.242   4.850  -3.631  0.00  0.00    -0.075 A 
ATOM      5  S   UNL d   1       4.744   4.771  -5.280  0.00  0.00     0.015 SA
ATOM      6  C4  UNL d   1       4.517   3.084  -5.209  0.00  0.00     0.022 A 
ATOM      7  C5  UNL d   1       4.810   2.576  -3.965  0.00  0.00     0.026 A 
ATOM      8  C6  UNL d   1       5.232   3.585  -3.035  0.00  0.00    -0.082 A 
ATOM      9  C7  UNL d   1       5.618   3.483  -1.677  0.00  0.00     0.045 A 
ENDROOT
TORSDOF 0
ENDMDL
