MODEL 1
REMARK minimizedAffinity -2.1260283
REMARK minimizedRMSD -1
REMARK  0 active torsions:
REMARK  status: ('A' for Active; 'I' for Inactive)
ROOT
ATOM      1  C   UNL d   1       0.422  -2.565  -3.675  0.00  0.00    -0.002 A 
ATOM      2  C1  UNL d   1       1.185  -2.036  -2.644  0.00  0.00     0.010 A 
ATOM      3  C2  UNL d   1       0.650  -1.900  -1.361  0.00  0.00     0.041 A 
ATOM      4  C3  UNL d   1      -0.678  -2.310  -1.130  0.00  0.00    -0.075 A 
ATOM      5  S   UNL d   1      -1.544  -2.239   0.359  0.00  0.00     0.015 SA
ATOM      6  C4  UNL d   1      -2.947  -2.910  -0.338  0.00  0.00     0.022 A 
ATOM      7  C5  UNL d   1      -2.777  -3.187  -1.674  0.00  0.00     0.026 A 
ATOM      8  C6  UNL d   1      -1.466  -2.846  -2.152  0.00  0.00    -0.082 A 
ATOM      9  C7  UNL d   1      -0.895  -2.971  -3.441  0.00  0.00     0.045 A 
ENDROOT
TORSDOF 0
ENDMDL
