MODEL 1
REMARK minimizedAffinity 6.80785179
REMARK minimizedRMSD -1
REMARK  0 active torsions:
REMARK  status: ('A' for Active; 'I' for Inactive)
ROOT
ATOM      1  C   UNL d   1       3.539   5.319  -1.496  0.00  0.00    -0.002 A 
ATOM      2  C1  UNL d   1       2.609   5.947  -2.312  0.00  0.00     0.010 A 
ATOM      3  C2  UNL d   1       2.794   5.994  -3.695  0.00  0.00     0.041 A 
ATOM      4  C3  UNL d   1       3.940   5.391  -4.250  0.00  0.00    -0.075 A 
ATOM      5  S   UNL d   1       4.375   5.324  -5.917  0.00  0.00     0.015 SA
ATOM      6  C4  UNL d   1       5.806   4.460  -5.586  0.00  0.00     0.022 A 
ATOM      7  C5  UNL d   1       5.964   4.220  -4.241  0.00  0.00     0.026 A 
ATOM      8  C6  UNL d   1       4.891   4.752  -3.450  0.00  0.00    -0.082 A 
ATOM      9  C7  UNL d   1       4.675   4.722  -2.051  0.00  0.00     0.045 A 
ENDROOT
TORSDOF 0
ENDMDL
