MODEL 1
REMARK minimizedAffinity 2.68094206
REMARK minimizedRMSD -1
REMARK  0 active torsions:
REMARK  status: ('A' for Active; 'I' for Inactive)
ROOT
ATOM      1  C   UNL d   1       4.133   4.200  -0.753  0.00  0.00    -0.002 A 
ATOM      2  C1  UNL d   1       5.353   4.847  -0.618  0.00  0.00     0.010 A 
ATOM      3  C2  UNL d   1       6.000   5.384  -1.733  0.00  0.00     0.041 A 
ATOM      4  C3  UNL d   1       5.393   5.261  -2.998  0.00  0.00    -0.075 A 
ATOM      5  S   UNL d   1       6.000   5.842  -4.503  0.00  0.00     0.015 SA
ATOM      6  C4  UNL d   1       4.653   5.247  -5.361  0.00  0.00     0.022 A 
ATOM      7  C5  UNL d   1       3.753   4.617  -4.535  0.00  0.00     0.026 A 
ATOM      8  C6  UNL d   1       4.164   4.615  -3.159  0.00  0.00    -0.082 A 
ATOM      9  C7  UNL d   1       3.534   4.080  -2.010  0.00  0.00     0.045 A 
ENDROOT
TORSDOF 0
ENDMDL
