MODEL 1
REMARK minimizedAffinity 2.15973973
REMARK minimizedRMSD -1
REMARK  0 active torsions:
REMARK  status: ('A' for Active; 'I' for Inactive)
ROOT
ATOM      1  C   UNL d   1      -1.322   2.023   4.849  0.00  0.00    -0.002 A 
ATOM      2  C1  UNL d   1      -1.891   1.486   5.995  0.00  0.00     0.010 A 
ATOM      3  C2  UNL d   1      -2.380   0.179   6.000  0.00  0.00     0.041 A 
ATOM      4  C3  UNL d   1      -2.286  -0.589   4.822  0.00  0.00    -0.075 A 
ATOM      5  S   UNL d   1      -2.817  -2.213   4.595  0.00  0.00     0.015 SA
ATOM      6  C4  UNL d   1      -2.300  -2.234   2.971  0.00  0.00     0.022 A 
ATOM      7  C5  UNL d   1      -1.734  -1.039   2.595  0.00  0.00     0.026 A 
ATOM      8  C6  UNL d   1      -1.716  -0.071   3.656  0.00  0.00    -0.082 A 
ATOM      9  C7  UNL d   1      -1.229   1.258   3.683  0.00  0.00     0.045 A 
ENDROOT
TORSDOF 0
ENDMDL
