MODEL 1
REMARK minimizedAffinity 10.187912
REMARK minimizedRMSD -1
REMARK  0 active torsions:
REMARK  status: ('A' for Active; 'I' for Inactive)
ROOT
ATOM      1  C   UNL d   1      -3.715  -3.423   0.236  0.00  0.00    -0.002 A 
ATOM      2  C1  UNL d   1      -3.301  -3.788   1.509  0.00  0.00     0.010 A 
ATOM      3  C2  UNL d   1      -1.989  -3.549   1.925  0.00  0.00     0.041 A 
ATOM      4  C3  UNL d   1      -1.094  -2.929   1.032  0.00  0.00    -0.075 A 
ATOM      5  S   UNL d   1       0.560  -2.536   1.323  0.00  0.00     0.015 SA
ATOM      6  C4  UNL d   1       0.754  -1.873  -0.235  0.00  0.00     0.022 A 
ATOM      7  C5  UNL d   1      -0.404  -1.942  -0.973  0.00  0.00     0.026 A 
ATOM      8  C6  UNL d   1      -1.488  -2.551  -0.255  0.00  0.00    -0.082 A 
ATOM      9  C7  UNL d   1      -2.824  -2.808  -0.647  0.00  0.00     0.045 A 
ENDROOT
TORSDOF 0
ENDMDL
