MODEL 1
REMARK minimizedAffinity 6.67187262
REMARK minimizedRMSD -1
REMARK  0 active torsions:
REMARK  status: ('A' for Active; 'I' for Inactive)
ROOT
ATOM      1  C   UNL d   1      -2.652  -2.874  -3.024  0.00  0.00    -0.002 A 
ATOM      2  C1  UNL d   1      -1.281  -2.704  -3.155  0.00  0.00     0.010 A 
ATOM      3  C2  UNL d   1      -0.439  -2.845  -2.050  0.00  0.00     0.041 A 
ATOM      4  C3  UNL d   1      -1.003  -3.164  -0.800  0.00  0.00    -0.075 A 
ATOM      5  S   UNL d   1      -0.168  -3.387   0.692  0.00  0.00     0.015 SA
ATOM      6  C4  UNL d   1      -1.611  -3.713   1.538  0.00  0.00     0.022 A 
ATOM      7  C5  UNL d   1      -2.713  -3.658   0.718  0.00  0.00     0.026 A 
ATOM      8  C6  UNL d   1      -2.381  -3.341  -0.643  0.00  0.00    -0.082 A 
ATOM      9  C7  UNL d   1      -3.208  -3.191  -1.782  0.00  0.00     0.045 A 
ENDROOT
TORSDOF 0
ENDMDL
