MODEL 1
REMARK minimizedAffinity 3.68537903
REMARK minimizedRMSD -1
REMARK  0 active torsions:
REMARK  status: ('A' for Active; 'I' for Inactive)
ROOT
ATOM      1  C   UNL d   1       3.958  -2.189   6.000  0.00  0.00    -0.002 A 
ATOM      2  C1  UNL d   1       5.042  -3.053   5.951  0.00  0.00     0.010 A 
ATOM      3  C2  UNL d   1       5.581  -3.448   4.725  0.00  0.00     0.041 A 
ATOM      4  C3  UNL d   1       5.007  -2.953   3.537  0.00  0.00    -0.075 A 
ATOM      5  S   UNL d   1       5.500  -3.299   1.922  0.00  0.00     0.015 SA
ATOM      6  C4  UNL d   1       4.283  -2.307   1.259  0.00  0.00     0.022 A 
ATOM      7  C5  UNL d   1       3.510  -1.719   2.232  0.00  0.00     0.026 A 
ATOM      8  C6  UNL d   1       3.914  -2.081   3.561  0.00  0.00    -0.082 A 
ATOM      9  C7  UNL d   1       3.391  -1.700   4.820  0.00  0.00     0.045 A 
ENDROOT
TORSDOF 0
ENDMDL
