MODEL 1
REMARK minimizedAffinity 9.63244057
REMARK minimizedRMSD -1
REMARK  0 active torsions:
REMARK  status: ('A' for Active; 'I' for Inactive)
ROOT
ATOM      1  C   UNL d   1       3.988   5.234  -5.751  0.00  0.00    -0.002 A 
ATOM      2  C1  UNL d   1       4.454   3.928  -5.810  0.00  0.00     0.010 A 
ATOM      3  C2  UNL d   1       5.091   3.351  -4.710  0.00  0.00     0.041 A 
ATOM      4  C3  UNL d   1       5.252   4.115  -3.537  0.00  0.00    -0.075 A 
ATOM      5  S   UNL d   1       6.000   3.616  -2.066  0.00  0.00     0.015 SA
ATOM      6  C4  UNL d   1       5.718   5.124  -1.324  0.00  0.00     0.022 A 
ATOM      7  C5  UNL d   1       5.070   5.999  -2.164  0.00  0.00     0.026 A 
ATOM      8  C6  UNL d   1       4.790   5.431  -3.453  0.00  0.00    -0.082 A 
ATOM      9  C7  UNL d   1       4.150   5.989  -4.586  0.00  0.00     0.045 A 
ENDROOT
TORSDOF 0
ENDMDL
