MODEL 1
REMARK minimizedAffinity -3.25333786
REMARK minimizedRMSD -1
REMARK  0 active torsions:
REMARK  status: ('A' for Active; 'I' for Inactive)
ROOT
ATOM      1  C   UNL d   1       0.773  -1.089   0.276  0.00  0.00     0.023 A 
ATOM      2  C1  UNL d   1      -0.484  -0.598   0.628  0.00  0.00     0.003 A 
ATOM      3  C2  UNL d   1      -0.660   0.766   0.870  0.00  0.00     0.048 A 
ATOM      4  C3  UNL d   1       0.426   1.634   0.757  0.00  0.00     0.023 A 
ATOM      5  C4  UNL d   1       1.686   1.147   0.404  0.00  0.00     0.048 A 
ATOM      6  C5  UNL d   1       1.857  -0.217   0.164  0.00  0.00     0.003 A 
ATOM      7  I   UNL d   1       0.166   3.664   1.117  0.00  0.00    -0.146 I 
ENDROOT
TORSDOF 0
ENDMDL
