MODEL 1
REMARK minimizedAffinity 0.0100318855
REMARK minimizedRMSD -1
REMARK  0 active torsions:
REMARK  status: ('A' for Active; 'I' for Inactive)
ROOT
ATOM      1  C   UNL d   1      -1.518  -3.125  -0.847  0.00  0.00     0.023 A 
ATOM      2  C1  UNL d   1      -1.748  -4.441  -0.447  0.00  0.00     0.003 A 
ATOM      3  C2  UNL d   1      -1.400  -4.851   0.842  0.00  0.00     0.048 A 
ATOM      4  C3  UNL d   1      -0.824  -3.939   1.726  0.00  0.00     0.023 A 
ATOM      5  C4  UNL d   1      -0.593  -2.621   1.330  0.00  0.00     0.048 A 
ATOM      6  C5  UNL d   1      -0.941  -2.216   0.040  0.00  0.00     0.003 A 
ATOM      7  I   UNL d   1      -0.307  -4.547   3.645  0.00  0.00    -0.146 I 
ENDROOT
TORSDOF 0
ENDMDL
