MODEL 1
REMARK minimizedAffinity 2.90478635
REMARK minimizedRMSD -1
REMARK  0 active torsions:
REMARK  status: ('A' for Active; 'I' for Inactive)
ROOT
ATOM      1  C   UNL d   1      -1.833  -4.085  -1.958  0.00  0.00     0.023 A 
ATOM      2  C1  UNL d   1      -2.666  -3.885  -0.857  0.00  0.00     0.003 A 
ATOM      3  C2  UNL d   1      -2.140  -3.936   0.436  0.00  0.00     0.048 A 
ATOM      4  C3  UNL d   1      -0.780  -4.186   0.620  0.00  0.00     0.023 A 
ATOM      5  C4  UNL d   1       0.057  -4.386  -0.479  0.00  0.00     0.048 A 
ATOM      6  C5  UNL d   1      -0.474  -4.335  -1.770  0.00  0.00     0.003 A 
ATOM      7  I   UNL d   1       0.005  -4.262   2.543  0.00  0.00    -0.146 I 
ENDROOT
TORSDOF 0
ENDMDL
