MODEL 1
REMARK minimizedAffinity 7.59017611
REMARK minimizedRMSD -1
REMARK  0 active torsions:
REMARK  status: ('A' for Active; 'I' for Inactive)
ROOT
ATOM      1  C   UNL d   1      -1.777  -3.754  -2.370  0.00  0.00     0.023 A 
ATOM      2  C1  UNL d   1      -2.313  -3.107  -1.257  0.00  0.00     0.003 A 
ATOM      3  C2  UNL d   1      -1.697  -3.232  -0.010  0.00  0.00     0.048 A 
ATOM      4  C3  UNL d   1      -0.544  -4.006   0.116  0.00  0.00     0.023 A 
ATOM      5  C4  UNL d   1      -0.003  -4.656  -0.995  0.00  0.00     0.048 A 
ATOM      6  C5  UNL d   1      -0.624  -4.528  -2.240  0.00  0.00     0.003 A 
ATOM      7  I   UNL d   1       0.376  -4.195   1.970  0.00  0.00    -0.146 I 
ENDROOT
TORSDOF 0
ENDMDL
