MODEL 1
REMARK minimizedAffinity 5.81972313
REMARK minimizedRMSD -1
REMARK  0 active torsions:
REMARK  status: ('A' for Active; 'I' for Inactive)
ROOT
ATOM      1  C   UNL d   1      -0.590  -4.305   0.556  0.00  0.00     0.023 A 
ATOM      2  C1  UNL d   1       0.069  -3.744   1.650  0.00  0.00     0.003 A 
ATOM      3  C2  UNL d   1       1.025  -2.745   1.454  0.00  0.00     0.048 A 
ATOM      4  C3  UNL d   1       1.316  -2.310   0.162  0.00  0.00     0.023 A 
ATOM      5  C4  UNL d   1       0.659  -2.868  -0.936  0.00  0.00     0.048 A 
ATOM      6  C5  UNL d   1      -0.295  -3.868  -0.735  0.00  0.00     0.003 A 
ATOM      7  I   UNL d   1       2.737  -0.823  -0.133  0.00  0.00    -0.146 I 
ENDROOT
TORSDOF 0
ENDMDL
