MODEL 1
REMARK minimizedAffinity 2.92965436
REMARK minimizedRMSD -1
REMARK  0 active torsions:
REMARK  status: ('A' for Active; 'I' for Inactive)
ROOT
ATOM      1  C   UNL d   1      -3.432  -5.038  -0.147  0.00  0.00     0.023 A 
ATOM      2  C1  UNL d   1      -2.761  -4.436  -1.211  0.00  0.00     0.003 A 
ATOM      3  C2  UNL d   1      -1.528  -3.815  -1.000  0.00  0.00     0.048 A 
ATOM      4  C3  UNL d   1      -0.971  -3.801   0.278  0.00  0.00     0.023 A 
ATOM      5  C4  UNL d   1      -1.638  -4.403   1.346  0.00  0.00     0.048 A 
ATOM      6  C5  UNL d   1      -2.871  -5.022   1.130  0.00  0.00     0.003 A 
ATOM      7  I   UNL d   1       0.864  -2.878   0.595  0.00  0.00    -0.146 I 
ENDROOT
TORSDOF 0
ENDMDL
