MODEL 1
REMARK minimizedAffinity 9.22265434
REMARK minimizedRMSD -1
REMARK  0 active torsions:
REMARK  status: ('A' for Active; 'I' for Inactive)
ROOT
ATOM      1  C   UNL d   1       2.682  -2.332   0.043  0.00  0.00     0.023 A 
ATOM      2  C1  UNL d   1       2.553  -3.222  -1.024  0.00  0.00     0.003 A 
ATOM      3  C2  UNL d   1       1.294  -3.712  -1.377  0.00  0.00     0.048 A 
ATOM      4  C3  UNL d   1       0.168  -3.308  -0.660  0.00  0.00     0.023 A 
ATOM      5  C4  UNL d   1       0.293  -2.417   0.408  0.00  0.00     0.048 A 
ATOM      6  C5  UNL d   1       1.554  -1.931   0.758  0.00  0.00     0.003 A 
ATOM      7  I   UNL d   1      -1.707  -4.036  -1.184  0.00  0.00    -0.146 I 
ENDROOT
TORSDOF 0
ENDMDL
