MODEL 1
REMARK minimizedAffinity -0.834717274
REMARK minimizedRMSD -1
REMARK  0 active torsions:
REMARK  status: ('A' for Active; 'I' for Inactive)
ROOT
ATOM      1  C   UNL d   1      -1.895  -1.367   0.967  0.00  0.00     0.023 A 
ATOM      2  C1  UNL d   1      -1.884  -0.045   1.413  0.00  0.00     0.003 A 
ATOM      3  C2  UNL d   1      -0.683   0.667   1.461  0.00  0.00     0.048 A 
ATOM      4  C3  UNL d   1       0.502   0.051   1.061  0.00  0.00     0.023 A 
ATOM      5  C4  UNL d   1       0.496  -1.271   0.614  0.00  0.00     0.048 A 
ATOM      6  C5  UNL d   1      -0.707  -1.979   0.568  0.00  0.00     0.003 A 
ATOM      7  I   UNL d   1       2.290   1.108   1.132  0.00  0.00    -0.146 I 
ENDROOT
TORSDOF 0
ENDMDL
