MODEL 1
REMARK minimizedAffinity -1.42131436
REMARK minimizedRMSD -1
REMARK  0 active torsions:
REMARK  status: ('A' for Active; 'I' for Inactive)
ROOT
ATOM      1  C   UNL d   1      -2.270  -3.028   0.685  0.00  0.00     0.023 A 
ATOM      2  C1  UNL d   1      -1.372  -2.709   1.704  0.00  0.00     0.003 A 
ATOM      3  C2  UNL d   1       0.002  -2.826   1.487  0.00  0.00     0.048 A 
ATOM      4  C3  UNL d   1       0.472  -3.261   0.248  0.00  0.00     0.023 A 
ATOM      5  C4  UNL d   1      -0.423  -3.580  -0.775  0.00  0.00     0.048 A 
ATOM      6  C5  UNL d   1      -1.796  -3.462  -0.553  0.00  0.00     0.003 A 
ATOM      7  I   UNL d   1       2.517  -3.436  -0.078  0.00  0.00    -0.146 I 
ENDROOT
TORSDOF 0
ENDMDL
