MODEL 1
REMARK minimizedAffinity 8.59103966
REMARK minimizedRMSD -1
REMARK  0 active torsions:
REMARK  status: ('A' for Active; 'I' for Inactive)
ROOT
ATOM      1  C   UNL d   1      -5.401   1.003   0.746  0.00  0.00     0.023 A 
ATOM      2  C1  UNL d   1      -4.197   1.503   0.250  0.00  0.00     0.003 A 
ATOM      3  C2  UNL d   1      -2.988   0.915   0.627  0.00  0.00     0.048 A 
ATOM      4  C3  UNL d   1      -2.990  -0.172   1.500  0.00  0.00     0.023 A 
ATOM      5  C4  UNL d   1      -4.192  -0.676   1.998  0.00  0.00     0.048 A 
ATOM      6  C5  UNL d   1      -5.399  -0.085   1.619  0.00  0.00     0.003 A 
ATOM      7  I   UNL d   1      -1.191  -1.049   2.062  0.00  0.00    -0.146 I 
ENDROOT
TORSDOF 0
ENDMDL
