MODEL 1
REMARK minimizedAffinity 4.16792154
REMARK minimizedRMSD -1
REMARK  0 active torsions:
REMARK  status: ('A' for Active; 'I' for Inactive)
ROOT
ATOM      1  C   UNL d   1      -2.897  -4.817  -1.006  0.00  0.00     0.023 A 
ATOM      2  C1  UNL d   1      -2.114  -4.058  -1.876  0.00  0.00     0.003 A 
ATOM      3  C2  UNL d   1      -1.115  -3.223  -1.370  0.00  0.00     0.048 A 
ATOM      4  C3  UNL d   1      -0.905  -3.151   0.006  0.00  0.00     0.023 A 
ATOM      5  C4  UNL d   1      -1.685  -3.910   0.881  0.00  0.00     0.048 A 
ATOM      6  C5  UNL d   1      -2.683  -4.743   0.371  0.00  0.00     0.003 A 
ATOM      7  I   UNL d   1       0.580  -1.909   0.761  0.00  0.00    -0.146 I 
ENDROOT
TORSDOF 0
ENDMDL
