MODEL 1
REMARK minimizedAffinity 4.07507944
REMARK minimizedRMSD -1
REMARK  0 active torsions:
REMARK  status: ('A' for Active; 'I' for Inactive)
ROOT
ATOM      1  C   UNL d   1      -3.259   3.095  -5.657  0.00  0.00     0.023 A 
ATOM      2  C1  UNL d   1      -2.892   1.886  -5.065  0.00  0.00     0.003 A 
ATOM      3  C2  UNL d   1      -1.547   1.611  -4.812  0.00  0.00     0.048 A 
ATOM      4  C3  UNL d   1      -0.573   2.549  -5.152  0.00  0.00     0.023 A 
ATOM      5  C4  UNL d   1      -0.935   3.761  -5.744  0.00  0.00     0.048 A 
ATOM      6  C5  UNL d   1      -2.282   4.031  -5.995  0.00  0.00     0.003 A 
ATOM      7  I   UNL d   1       1.430   2.142  -4.776  0.00  0.00    -0.146 I 
ENDROOT
TORSDOF 0
ENDMDL
