MODEL 1
REMARK minimizedAffinity 5.5003438
REMARK minimizedRMSD -1
REMARK  0 active torsions:
REMARK  status: ('A' for Active; 'I' for Inactive)
ROOT
ATOM      1  C   UNL d   1       5.957   4.035  -0.059  0.00  0.00     0.023 A 
ATOM      2  C1  UNL d   1       5.844   5.418   0.085  0.00  0.00     0.003 A 
ATOM      3  C2  UNL d   1       5.726   5.981   1.358  0.00  0.00     0.048 A 
ATOM      4  C3  UNL d   1       5.722   5.155   2.481  0.00  0.00     0.023 A 
ATOM      5  C4  UNL d   1       5.836   3.771   2.342  0.00  0.00     0.048 A 
ATOM      6  C5  UNL d   1       5.953   3.212   1.067  0.00  0.00     0.003 A 
ATOM      7  I   UNL d   1       5.546   5.990   4.376  0.00  0.00    -0.146 I 
ENDROOT
TORSDOF 0
ENDMDL
