MODEL 1
REMARK minimizedAffinity 5.82399559
REMARK minimizedRMSD -1
REMARK  0 active torsions:
REMARK  status: ('A' for Active; 'I' for Inactive)
ROOT
ATOM      1  C   UNL d   1      -2.983   1.885  -3.728  0.00  0.00     0.023 A 
ATOM      2  C1  UNL d   1      -2.061   2.507  -2.886  0.00  0.00     0.003 A 
ATOM      3  C2  UNL d   1      -0.701   2.493  -3.206  0.00  0.00     0.048 A 
ATOM      4  C3  UNL d   1      -0.271   1.856  -4.370  0.00  0.00     0.023 A 
ATOM      5  C4  UNL d   1      -1.191   1.234  -5.216  0.00  0.00     0.048 A 
ATOM      6  C5  UNL d   1      -2.549   1.250  -4.892  0.00  0.00     0.003 A 
ATOM      7  I   UNL d   1       1.751   1.834  -4.848  0.00  0.00    -0.146 I 
ENDROOT
TORSDOF 0
ENDMDL
