MODEL 1
REMARK minimizedAffinity 6.26533794
REMARK minimizedRMSD -1
REMARK  0 active torsions:
REMARK  status: ('A' for Active; 'I' for Inactive)
ROOT
ATOM      1  C   UNL d   1      -3.716   2.935  -5.784  0.00  0.00     0.023 A 
ATOM      2  C1  UNL d   1      -3.333   1.741  -5.174  0.00  0.00     0.003 A 
ATOM      3  C2  UNL d   1      -2.007   1.551  -4.778  0.00  0.00     0.048 A 
ATOM      4  C3  UNL d   1      -1.070   2.561  -4.994  0.00  0.00     0.023 A 
ATOM      5  C4  UNL d   1      -1.449   3.758  -5.604  0.00  0.00     0.048 A 
ATOM      6  C5  UNL d   1      -2.775   3.943  -5.999  0.00  0.00     0.003 A 
ATOM      7  I   UNL d   1       0.903   2.281  -4.405  0.00  0.00    -0.146 I 
ENDROOT
TORSDOF 0
ENDMDL
