MODEL 1
REMARK minimizedAffinity 8.13364506
REMARK minimizedRMSD -1
REMARK  0 active torsions:
REMARK  status: ('A' for Active; 'I' for Inactive)
ROOT
ATOM      1  C   UNL d   1      -2.220   4.323  -5.621  0.00  0.00     0.023 A 
ATOM      2  C1  UNL d   1      -1.924   3.014  -5.240  0.00  0.00     0.003 A 
ATOM      3  C2  UNL d   1      -0.601   2.569  -5.237  0.00  0.00     0.048 A 
ATOM      4  C3  UNL d   1       0.422   3.438  -5.613  0.00  0.00     0.023 A 
ATOM      5  C4  UNL d   1       0.132   4.749  -5.994  0.00  0.00     0.048 A 
ATOM      6  C5  UNL d   1      -1.193   5.190  -5.997  0.00  0.00     0.003 A 
ATOM      7  I   UNL d   1       2.393   2.778  -5.608  0.00  0.00    -0.146 I 
ENDROOT
TORSDOF 0
ENDMDL
