MODEL 1
REMARK minimizedAffinity -4.2462697
REMARK minimizedRMSD -1
REMARK  0 active torsions:
REMARK  status: ('A' for Active; 'I' for Inactive)
ROOT
ATOM      1  C   UNL d   1       1.529  -0.240  -1.314  0.00  0.00     0.077 C 
ATOM      2  C1  UNL d   1       0.768  -0.019  -0.040  0.00  0.00    -0.074 A 
ATOM      3  C2  UNL d   1       1.184  -0.610   1.157  0.00  0.00    -0.005 A 
ATOM      4  C3  UNL d   1       0.471  -0.388   2.335  0.00  0.00     0.006 A 
ATOM      5  C4  UNL d   1      -0.663   0.425   2.328  0.00  0.00    -0.005 A 
ATOM      6  C5  UNL d   1      -1.094   1.025   1.141  0.00  0.00    -0.074 A 
ATOM      7  C6  UNL d   1      -2.304   1.909   1.118  0.00  0.00     0.077 C 
ATOM      8  C7  UNL d   1      -0.368   0.803  -0.038  0.00  0.00    -0.001 A 
ENDROOT
TORSDOF 0
ENDMDL
