MODEL 1
REMARK minimizedAffinity -4.5015893
REMARK minimizedRMSD -1
REMARK  0 active torsions:
REMARK  status: ('A' for Active; 'I' for Inactive)
ROOT
ATOM      1  C   UNL d   1      -2.065   3.238   0.877  0.00  0.00     0.077 C 
ATOM      2  C1  UNL d   1      -1.139   2.076   0.676  0.00  0.00    -0.074 A 
ATOM      3  C2  UNL d   1      -0.303   2.008  -0.442  0.00  0.00    -0.005 A 
ATOM      4  C3  UNL d   1       0.560   0.925  -0.611  0.00  0.00     0.006 A 
ATOM      5  C4  UNL d   1       0.595  -0.100   0.337  0.00  0.00    -0.005 A 
ATOM      6  C5  UNL d   1      -0.233  -0.048   1.462  0.00  0.00    -0.074 A 
ATOM      7  C6  UNL d   1      -0.201  -1.136   2.495  0.00  0.00     0.077 C 
ATOM      8  C7  UNL d   1      -1.092   1.047   1.628  0.00  0.00    -0.001 A 
ENDROOT
TORSDOF 0
ENDMDL
