MODEL 1
REMARK minimizedAffinity -1.65213847
REMARK minimizedRMSD -1
REMARK  0 active torsions:
REMARK  status: ('A' for Active; 'I' for Inactive)
ROOT
ATOM      1  C   UNL d   1      -2.127   2.672   1.191  0.00  0.00     0.077 C 
ATOM      2  C1  UNL d   1      -1.352   1.393   1.085  0.00  0.00    -0.074 A 
ATOM      3  C2  UNL d   1      -1.370   0.454   2.121  0.00  0.00    -0.005 A 
ATOM      4  C3  UNL d   1      -0.651  -0.736   2.005  0.00  0.00     0.006 A 
ATOM      5  C4  UNL d   1       0.092  -0.998   0.853  0.00  0.00    -0.005 A 
ATOM      6  C5  UNL d   1       0.121  -0.071  -0.194  0.00  0.00    -0.074 A 
ATOM      7  C6  UNL d   1       0.907  -0.342  -1.442  0.00  0.00     0.077 C 
ATOM      8  C7  UNL d   1      -0.609   1.119  -0.072  0.00  0.00    -0.001 A 
ENDROOT
TORSDOF 0
ENDMDL
