MODEL 1
REMARK minimizedAffinity 0.333868295
REMARK minimizedRMSD -1
REMARK  0 active torsions:
REMARK  status: ('A' for Active; 'I' for Inactive)
ROOT
ATOM      1  C   UNL d   1      -2.520   2.310   0.673  0.00  0.00     0.077 C 
ATOM      2  C1  UNL d   1      -1.321   1.625   0.088  0.00  0.00    -0.074 A 
ATOM      3  C2  UNL d   1      -0.800   2.019  -1.148  0.00  0.00    -0.005 A 
ATOM      4  C3  UNL d   1       0.322   1.379  -1.675  0.00  0.00     0.006 A 
ATOM      5  C4  UNL d   1       0.932   0.339  -0.972  0.00  0.00    -0.005 A 
ATOM      6  C5  UNL d   1       0.425  -0.068   0.266  0.00  0.00    -0.074 A 
ATOM      7  C6  UNL d   1       1.075  -1.178   1.039  0.00  0.00     0.077 C 
ATOM      8  C7  UNL d   1      -0.698   0.585   0.792  0.00  0.00    -0.001 A 
ENDROOT
TORSDOF 0
ENDMDL
