MODEL 1
REMARK minimizedAffinity -5.32596779
REMARK minimizedRMSD -1
REMARK  0 active torsions:
REMARK  status: ('A' for Active; 'I' for Inactive)
ROOT
ATOM      1  C   UNL d   1       1.304  -1.409  -0.561  0.00  0.00     0.077 C 
ATOM      2  C1  UNL d   1       0.723  -0.026  -0.563  0.00  0.00    -0.074 A 
ATOM      3  C2  UNL d   1       1.304   0.996  -1.321  0.00  0.00    -0.005 A 
ATOM      4  C3  UNL d   1       0.747   2.275  -1.320  0.00  0.00     0.006 A 
ATOM      5  C4  UNL d   1      -0.394   2.544  -0.563  0.00  0.00    -0.005 A 
ATOM      6  C5  UNL d   1      -0.989   1.534   0.200  0.00  0.00    -0.074 A 
ATOM      7  C6  UNL d   1      -2.221   1.804   1.011  0.00  0.00     0.077 C 
ATOM      8  C7  UNL d   1      -0.427   0.250   0.189  0.00  0.00    -0.001 A 
ENDROOT
TORSDOF 0
ENDMDL
