MODEL 1
REMARK minimizedAffinity -4.42768002
REMARK minimizedRMSD -1
REMARK  0 active torsions:
REMARK  status: ('A' for Active; 'I' for Inactive)
ROOT
ATOM      1  C   UNL d   1      -0.087   2.722  -1.339  0.00  0.00     0.077 C 
ATOM      2  C1  UNL d   1       0.029   1.519  -0.450  0.00  0.00    -0.074 A 
ATOM      3  C2  UNL d   1      -0.654   1.458   0.769  0.00  0.00    -0.005 A 
ATOM      4  C3  UNL d   1      -0.544   0.329   1.580  0.00  0.00     0.006 A 
ATOM      5  C4  UNL d   1       0.248  -0.749   1.181  0.00  0.00    -0.005 A 
ATOM      6  C5  UNL d   1       0.937  -0.706  -0.035  0.00  0.00    -0.074 A 
ATOM      7  C6  UNL d   1       1.784  -1.860  -0.483  0.00  0.00     0.077 C 
ATOM      8  C7  UNL d   1       0.816   0.429  -0.848  0.00  0.00    -0.001 A 
ENDROOT
TORSDOF 0
ENDMDL
