MODEL 1
REMARK minimizedAffinity -3.37227321
REMARK minimizedRMSD -1
REMARK  0 active torsions:
REMARK  status: ('A' for Active; 'I' for Inactive)
ROOT
ATOM      1  C   UNL d   1      -2.050   1.324  -0.301  0.00  0.00     0.077 C 
ATOM      2  C1  UNL d   1      -0.907   0.369  -0.472  0.00  0.00    -0.074 A 
ATOM      3  C2  UNL d   1      -0.129  -0.025   0.621  0.00  0.00    -0.005 A 
ATOM      4  C3  UNL d   1       0.925  -0.922   0.448  0.00  0.00     0.006 A 
ATOM      5  C4  UNL d   1       1.212  -1.433  -0.818  0.00  0.00    -0.005 A 
ATOM      6  C5  UNL d   1       0.445  -1.051  -1.923  0.00  0.00    -0.074 A 
ATOM      7  C6  UNL d   1       0.734  -1.598  -3.290  0.00  0.00     0.077 C 
ATOM      8  C7  UNL d   1      -0.617  -0.155  -1.740  0.00  0.00    -0.001 A 
ENDROOT
TORSDOF 0
ENDMDL
