MODEL 1
REMARK minimizedAffinity -5.49118423
REMARK minimizedRMSD -1
REMARK  0 active torsions:
REMARK  status: ('A' for Active; 'I' for Inactive)
ROOT
ATOM      1  C   UNL d   1      -0.747   3.905  -0.959  0.00  0.00     0.077 C 
ATOM      2  C1  UNL d   1      -0.784   2.635  -0.162  0.00  0.00    -0.074 A 
ATOM      3  C2  UNL d   1      -1.471   2.570   1.055  0.00  0.00    -0.005 A 
ATOM      4  C3  UNL d   1      -1.505   1.379   1.780  0.00  0.00     0.006 A 
ATOM      5  C4  UNL d   1      -0.854   0.243   1.296  0.00  0.00    -0.005 A 
ATOM      6  C5  UNL d   1      -0.164   0.289   0.081  0.00  0.00    -0.074 A 
ATOM      7  C6  UNL d   1       0.533  -0.925  -0.458  0.00  0.00     0.077 C 
ATOM      8  C7  UNL d   1      -0.140   1.487  -0.645  0.00  0.00    -0.001 A 
ENDROOT
TORSDOF 0
ENDMDL
