MODEL 1
REMARK minimizedAffinity -3.69096923
REMARK minimizedRMSD -1
REMARK  0 active torsions:
REMARK  status: ('A' for Active; 'I' for Inactive)
ROOT
ATOM      1  C   UNL d   1       1.321   0.801  -1.793  0.00  0.00     0.077 C 
ATOM      2  C1  UNL d   1       0.737   0.411  -0.468  0.00  0.00    -0.074 A 
ATOM      3  C2  UNL d   1       1.186  -0.728   0.208  0.00  0.00    -0.005 A 
ATOM      4  C3  UNL d   1       0.640  -1.073   1.445  0.00  0.00     0.006 A 
ATOM      5  C4  UNL d   1      -0.359  -0.284   2.017  0.00  0.00    -0.005 A 
ATOM      6  C5  UNL d   1      -0.819   0.859   1.356  0.00  0.00    -0.074 A 
ATOM      7  C6  UNL d   1      -1.885   1.724   1.962  0.00  0.00     0.077 C 
ATOM      8  C7  UNL d   1      -0.261   1.203   0.117  0.00  0.00    -0.001 A 
ENDROOT
TORSDOF 0
ENDMDL
