MODEL 1
REMARK minimizedAffinity -4.27634621
REMARK minimizedRMSD -1
REMARK  0 active torsions:
REMARK  status: ('A' for Active; 'I' for Inactive)
ROOT
ATOM      1  C   UNL d   1       0.049   1.562   3.825  0.00  0.00     0.077 C 
ATOM      2  C1  UNL d   1      -0.431   1.257   2.437  0.00  0.00    -0.074 A 
ATOM      3  C2  UNL d   1      -1.454   2.008   1.849  0.00  0.00    -0.005 A 
ATOM      4  C3  UNL d   1      -1.883   1.719   0.554  0.00  0.00     0.006 A 
ATOM      5  C4  UNL d   1      -1.295   0.677  -0.165  0.00  0.00    -0.005 A 
ATOM      6  C5  UNL d   1      -0.270  -0.084   0.406  0.00  0.00    -0.074 A 
ATOM      7  C6  UNL d   1       0.379  -1.200  -0.357  0.00  0.00     0.077 C 
ATOM      8  C7  UNL d   1       0.160   0.218   1.705  0.00  0.00    -0.001 A 
ENDROOT
TORSDOF 0
ENDMDL
