MODEL 1
REMARK minimizedAffinity -5.32446814
REMARK minimizedRMSD -1
REMARK  0 active torsions:
REMARK  status: ('A' for Active; 'I' for Inactive)
ROOT
ATOM      1  C   UNL d   1       1.719   1.025  -1.431  0.00  0.00     0.077 C 
ATOM      2  C1  UNL d   1       0.473   0.527  -0.760  0.00  0.00    -0.074 A 
ATOM      3  C2  UNL d   1       0.136  -0.830  -0.786  0.00  0.00    -0.005 A 
ATOM      4  C3  UNL d   1      -1.021  -1.280  -0.149  0.00  0.00     0.006 A 
ATOM      5  C4  UNL d   1      -1.851  -0.379   0.518  0.00  0.00    -0.005 A 
ATOM      6  C5  UNL d   1      -1.530   0.982   0.556  0.00  0.00    -0.074 A 
ATOM      7  C6  UNL d   1      -2.406   1.963   1.277  0.00  0.00     0.077 C 
ATOM      8  C7  UNL d   1      -0.362   1.425  -0.080  0.00  0.00    -0.001 A 
ENDROOT
TORSDOF 0
ENDMDL
