MODEL 1
REMARK minimizedAffinity -4.01579571
REMARK minimizedRMSD -1
REMARK  0 active torsions:
REMARK  status: ('A' for Active; 'I' for Inactive)
ROOT
ATOM      1  C   UNL d   1       0.001  -3.043  -2.563  0.00  0.00     0.077 C 
ATOM      2  C1  UNL d   1       0.353  -2.003  -1.540  0.00  0.00    -0.074 A 
ATOM      3  C2  UNL d   1       1.622  -1.973  -0.953  0.00  0.00    -0.005 A 
ATOM      4  C3  UNL d   1       1.938  -0.995  -0.011  0.00  0.00     0.006 A 
ATOM      5  C4  UNL d   1       0.990  -0.038   0.353  0.00  0.00    -0.005 A 
ATOM      6  C5  UNL d   1      -0.284  -0.051  -0.224  0.00  0.00    -0.074 A 
ATOM      7  C6  UNL d   1      -1.311   0.976   0.149  0.00  0.00     0.077 C 
ATOM      8  C7  UNL d   1      -0.591  -1.034  -1.175  0.00  0.00    -0.001 A 
ENDROOT
TORSDOF 0
ENDMDL
