MODEL 1
REMARK minimizedAffinity -4.11235905
REMARK minimizedRMSD -1
REMARK  0 active torsions:
REMARK  status: ('A' for Active; 'I' for Inactive)
ROOT
ATOM      1  C   UNL d   1       0.715  -2.379  -1.429  0.00  0.00     0.077 C 
ATOM      2  C1  UNL d   1       0.577  -0.919  -1.116  0.00  0.00    -0.074 A 
ATOM      3  C2  UNL d   1       1.631  -0.031  -1.350  0.00  0.00    -0.005 A 
ATOM      4  C3  UNL d   1       1.485   1.326  -1.063  0.00  0.00     0.006 A 
ATOM      5  C4  UNL d   1       0.284   1.808  -0.541  0.00  0.00    -0.005 A 
ATOM      6  C5  UNL d   1      -0.782   0.935  -0.302  0.00  0.00    -0.074 A 
ATOM      7  C6  UNL d   1      -2.083   1.439   0.250  0.00  0.00     0.077 C 
ATOM      8  C7  UNL d   1      -0.629  -0.426  -0.599  0.00  0.00    -0.001 A 
ENDROOT
TORSDOF 0
ENDMDL
