MODEL 1
REMARK minimizedAffinity -1.70505881
REMARK minimizedRMSD -1
REMARK  0 active torsions:
REMARK  status: ('A' for Active; 'I' for Inactive)
ROOT
ATOM      1  C   UNL d   1       1.098  -1.631  -0.738  0.00  0.00     0.077 C 
ATOM      2  C1  UNL d   1       0.156  -0.570  -0.252  0.00  0.00    -0.074 A 
ATOM      3  C2  UNL d   1      -0.774   0.015  -1.116  0.00  0.00    -0.005 A 
ATOM      4  C3  UNL d   1      -1.651   0.994  -0.648  0.00  0.00     0.006 A 
ATOM      5  C4  UNL d   1      -1.607   1.396   0.688  0.00  0.00    -0.005 A 
ATOM      6  C5  UNL d   1      -0.684   0.821   1.567  0.00  0.00    -0.074 A 
ATOM      7  C6  UNL d   1      -0.629   1.234   3.008  0.00  0.00     0.077 C 
ATOM      8  C7  UNL d   1       0.189  -0.167   1.091  0.00  0.00    -0.001 A 
ENDROOT
TORSDOF 0
ENDMDL
