MODEL 1
REMARK minimizedAffinity -5.27833748
REMARK minimizedRMSD -1
REMARK  0 active torsions:
REMARK  status: ('A' for Active; 'I' for Inactive)
ROOT
ATOM      1  C   UNL d   1       1.399  -1.578  -0.808  0.00  0.00     0.077 C 
ATOM      2  C1  UNL d   1       0.642  -0.295  -0.640  0.00  0.00    -0.074 A 
ATOM      3  C2  UNL d   1       1.068   0.879  -1.272  0.00  0.00    -0.005 A 
ATOM      4  C3  UNL d   1       0.348   2.063  -1.115  0.00  0.00     0.006 A 
ATOM      5  C4  UNL d   1      -0.803   2.086  -0.325  0.00  0.00    -0.005 A 
ATOM      6  C5  UNL d   1      -1.244   0.923   0.314  0.00  0.00    -0.074 A 
ATOM      7  C6  UNL d   1      -2.483   0.928   1.158  0.00  0.00     0.077 C 
ATOM      8  C7  UNL d   1      -0.519  -0.265   0.145  0.00  0.00    -0.001 A 
ENDROOT
TORSDOF 0
ENDMDL
