MODEL 1
REMARK minimizedAffinity 6.7907691
REMARK minimizedRMSD -1
REMARK  0 active torsions:
REMARK  status: ('A' for Active; 'I' for Inactive)
ROOT
ATOM      1  C2' OXE d   1       0.223   5.907  -3.417  0.00  0.00     0.078 C 
ATOM      2  C1' OXE d   1      -2.432   5.279  -2.754  0.00  0.00     0.078 C 
ATOM      3  C1  OXE d   1      -1.341   4.779  -1.840  0.00  0.00    -0.078 A 
ATOM      4  C2  OXE d   1      -0.042   5.050  -2.198  0.00  0.00    -0.078 A 
ATOM      5  C3  OXE d   1       0.999   4.659  -1.361  0.00  0.00     0.003 A 
ATOM      6  C4  OXE d   1       0.746   3.859  -0.241  0.00  0.00    -0.002 A 
ATOM      7  C5  OXE d   1      -0.567   3.537   0.119  0.00  0.00    -0.002 A 
ATOM      8  C6  OXE d   1      -1.622   4.024  -0.644  0.00  0.00     0.003 A 
ENDROOT
TORSDOF 0
ENDMDL
