MODEL 1
REMARK minimizedAffinity -1.01404881
REMARK minimizedRMSD -1
REMARK  0 active torsions:
REMARK  status: ('A' for Active; 'I' for Inactive)
ROOT
ATOM      1  C2' OXE d   1       1.691   4.801  -0.018  0.00  0.00     0.078 C 
ATOM      2  C1' OXE d   1      -0.038   2.590   0.024  0.00  0.00     0.078 C 
ATOM      3  C1  OXE d   1      -0.418   3.764  -0.843  0.00  0.00    -0.078 A 
ATOM      4  C2  OXE d   1       0.410   4.861  -0.821  0.00  0.00    -0.078 A 
ATOM      5  C3  OXE d   1       0.134   5.949  -1.644  0.00  0.00     0.003 A 
ATOM      6  C4  OXE d   1      -1.058   6.000  -2.377  0.00  0.00    -0.002 A 
ATOM      7  C5  OXE d   1      -1.935   4.910  -2.383  0.00  0.00    -0.002 A 
ATOM      8  C6  OXE d   1      -1.609   3.770  -1.656  0.00  0.00     0.003 A 
ENDROOT
TORSDOF 0
ENDMDL
