MODEL 1
REMARK minimizedAffinity 11.2677469
REMARK minimizedRMSD -1
REMARK  0 active torsions:
REMARK  status: ('A' for Active; 'I' for Inactive)
ROOT
ATOM      1  C2' OXE d   1       3.088  -1.250   0.155  0.00  0.00     0.078 C 
ATOM      2  C1' OXE d   1       1.655  -3.635  -0.218  0.00  0.00     0.078 C 
ATOM      3  C1  OXE d   1       3.139  -3.658  -0.482  0.00  0.00    -0.078 A 
ATOM      4  C2  OXE d   1       3.825  -2.475  -0.342  0.00  0.00    -0.078 A 
ATOM      5  C3  OXE d   1       5.205  -2.453  -0.520  0.00  0.00     0.003 A 
ATOM      6  C4  OXE d   1       5.877  -3.588  -0.989  0.00  0.00    -0.002 A 
ATOM      7  C5  OXE d   1       5.191  -4.793  -1.176  0.00  0.00    -0.002 A 
ATOM      8  C6  OXE d   1       3.833  -4.856  -0.887  0.00  0.00     0.003 A 
ENDROOT
TORSDOF 0
ENDMDL
