MODEL 1
REMARK minimizedAffinity 7.68645287
REMARK minimizedRMSD -1
REMARK  0 active torsions:
REMARK  status: ('A' for Active; 'I' for Inactive)
ROOT
ATOM      1  C2' OXE d   1      -1.164   2.458   2.703  0.00  0.00     0.078 C 
ATOM      2  C1' OXE d   1       1.639   2.580   2.640  0.00  0.00     0.078 C 
ATOM      3  C1  OXE d   1       0.886   3.088   1.436  0.00  0.00    -0.078 A 
ATOM      4  C2  OXE d   1      -0.484   2.981   1.456  0.00  0.00    -0.078 A 
ATOM      5  C3  OXE d   1      -1.230   3.485   0.395  0.00  0.00     0.003 A 
ATOM      6  C4  OXE d   1      -0.592   3.958  -0.758  0.00  0.00    -0.002 A 
ATOM      7  C5  OXE d   1       0.803   4.038  -0.816  0.00  0.00    -0.002 A 
ATOM      8  C6  OXE d   1       1.554   3.648   0.287  0.00  0.00     0.003 A 
ENDROOT
TORSDOF 0
ENDMDL
