MODEL 1
REMARK minimizedAffinity 1.37260783
REMARK minimizedRMSD -1
REMARK  0 active torsions:
REMARK  status: ('A' for Active; 'I' for Inactive)
ROOT
ATOM      1  C2' OXE d   1       2.438   2.808   3.931  0.00  0.00     0.078 C 
ATOM      2  C1' OXE d   1       0.059   1.401   3.438  0.00  0.00     0.078 C 
ATOM      3  C1  OXE d   1       0.532   2.375   2.387  0.00  0.00    -0.078 A 
ATOM      4  C2  OXE d   1       1.671   3.093   2.658  0.00  0.00    -0.078 A 
ATOM      5  C3  OXE d   1       2.181   3.964   1.699  0.00  0.00     0.003 A 
ATOM      6  C4  OXE d   1       1.460   4.230   0.528  0.00  0.00    -0.002 A 
ATOM      7  C5  OXE d   1       0.276   3.539   0.251  0.00  0.00    -0.002 A 
ATOM      8  C6  OXE d   1      -0.178   2.579   1.149  0.00  0.00     0.003 A 
ENDROOT
TORSDOF 0
ENDMDL
