MODEL 1
REMARK minimizedAffinity 5.74049807
REMARK minimizedRMSD -1
REMARK  0 active torsions:
REMARK  status: ('A' for Active; 'I' for Inactive)
ROOT
ATOM      1  C2' OXE d   1      -0.039   4.910  -1.335  0.00  0.00     0.078 C 
ATOM      2  C1' OXE d   1       2.577   5.501  -0.506  0.00  0.00     0.078 C 
ATOM      3  C1  OXE d   1       1.769   4.550   0.341  0.00  0.00    -0.078 A 
ATOM      4  C2  OXE d   1       0.474   4.303  -0.047  0.00  0.00    -0.078 A 
ATOM      5  C3  OXE d   1      -0.298   3.391   0.668  0.00  0.00     0.003 A 
ATOM      6  C4  OXE d   1       0.181   2.842   1.863  0.00  0.00    -0.002 A 
ATOM      7  C5  OXE d   1       1.483   3.111   2.298  0.00  0.00    -0.002 A 
ATOM      8  C6  OXE d   1       2.303   3.928   1.527  0.00  0.00     0.003 A 
ENDROOT
TORSDOF 0
ENDMDL
