MODEL 1
REMARK minimizedAffinity 13.2364187
REMARK minimizedRMSD -1
REMARK  0 active torsions:
REMARK  status: ('A' for Active; 'I' for Inactive)
ROOT
ATOM      1  C2' OXE d   1       3.304  -1.814   0.056  0.00  0.00     0.078 C 
ATOM      2  C1' OXE d   1       3.924  -4.487  -0.537  0.00  0.00     0.078 C 
ATOM      3  C1  OXE d   1       2.483  -4.058  -0.651  0.00  0.00    -0.078 A 
ATOM      4  C2  OXE d   1       2.181  -2.760  -0.314  0.00  0.00    -0.078 A 
ATOM      5  C3  OXE d   1       0.876  -2.297  -0.453  0.00  0.00     0.003 A 
ATOM      6  C4  OXE d   1      -0.158  -3.181  -0.786  0.00  0.00    -0.002 A 
ATOM      7  C5  OXE d   1       0.122  -4.517  -1.095  0.00  0.00    -0.002 A 
ATOM      8  C6  OXE d   1       1.440  -4.959  -1.073  0.00  0.00     0.003 A 
ENDROOT
TORSDOF 0
ENDMDL
