MODEL 1
REMARK minimizedAffinity -2.42274022
REMARK minimizedRMSD -1
REMARK  0 active torsions:
REMARK  status: ('A' for Active; 'I' for Inactive)
ROOT
ATOM      1  C2' OXE d   1       0.328   3.436   0.756  0.00  0.00     0.078 C 
ATOM      2  C1' OXE d   1      -0.192   4.338  -1.851  0.00  0.00     0.078 C 
ATOM      3  C1  OXE d   1      -0.441   2.882  -1.548  0.00  0.00    -0.078 A 
ATOM      4  C2  OXE d   1      -0.140   2.439  -0.282  0.00  0.00    -0.078 A 
ATOM      5  C3  OXE d   1      -0.403   1.117   0.066  0.00  0.00     0.003 A 
ATOM      6  C4  OXE d   1      -0.827   0.199  -0.903  0.00  0.00    -0.002 A 
ATOM      7  C5  OXE d   1      -1.101   0.621  -2.208  0.00  0.00    -0.002 A 
ATOM      8  C6  OXE d   1      -0.955   1.964  -2.535  0.00  0.00     0.003 A 
ENDROOT
TORSDOF 0
ENDMDL
