MODEL 1
REMARK minimizedAffinity -2.693712
REMARK minimizedRMSD -1
REMARK  1 active torsions:
REMARK  status: ('A' for Active; 'I' for Inactive)
REMARK    1  A    between atoms: C1_2  and  C2_3 
ROOT
ATOM      1  C2  UNL d   1       2.447  -2.171  -0.868  0.00  0.00    -0.081 A 
ATOM      2  C3  UNL d   1       2.190  -3.547  -0.905  0.00  0.00     0.006 A 
ATOM      3  C4  UNL d   1       0.899  -4.020  -1.149  0.00  0.00     0.002 A 
ATOM      4  C5  UNL d   1      -0.155  -3.127  -1.367  0.00  0.00    -0.080 A 
ATOM      5  C6  UNL d   1      -1.541  -3.622  -1.659  0.00  0.00     0.076 C 
ATOM      6  C7  UNL d   1       0.098  -1.752  -1.312  0.00  0.00     0.002 A 
ATOM      7  C8  UNL d   1       1.389  -1.278  -1.067  0.00  0.00     0.006 A 
ENDROOT
BRANCH   1   8
ATOM      8  C1  UNL d   1       3.850  -1.659  -0.669  0.00  0.00     0.054 C 
ATOM      9  C   UNL d   1       4.103  -1.286   0.784  0.00  0.00     0.018 C 
ENDBRANCH   1   8
TORSDOF 1
ENDMDL
