MODEL 1
REMARK minimizedAffinity -2.96980166
REMARK minimizedRMSD -1
REMARK  1 active torsions:
REMARK  status: ('A' for Active; 'I' for Inactive)
REMARK    1  A    between atoms: C1_2  and  C2_3 
ROOT
ATOM      1  C2  UNL d   1       0.268  -1.288  -0.427  0.00  0.00    -0.081 A 
ATOM      2  C3  UNL d   1       1.186  -1.037   0.600  0.00  0.00     0.006 A 
ATOM      3  C4  UNL d   1       1.087   0.124   1.370  0.00  0.00     0.002 A 
ATOM      4  C5  UNL d   1       0.066   1.050   1.131  0.00  0.00    -0.080 A 
ATOM      5  C6  UNL d   1      -0.070   2.285   1.970  0.00  0.00     0.076 C 
ATOM      6  C7  UNL d   1      -0.841   0.808   0.094  0.00  0.00     0.002 A 
ATOM      7  C8  UNL d   1      -0.742  -0.353  -0.677  0.00  0.00     0.006 A 
ENDROOT
BRANCH   1   8
ATOM      8  C1  UNL d   1       0.333  -2.570  -1.216  0.00  0.00     0.054 C 
ATOM      9  C   UNL d   1      -0.939  -3.389  -1.048  0.00  0.00     0.018 C 
ENDBRANCH   1   8
TORSDOF 1
ENDMDL
