MODEL 1
REMARK minimizedAffinity -0.555873871
REMARK minimizedRMSD -1
REMARK  1 active torsions:
REMARK  status: ('A' for Active; 'I' for Inactive)
REMARK    1  A    between atoms: C1_2  and  C2_3 
ROOT
ATOM      1  C2  UNL d   1       1.057  -0.013   0.392  0.00  0.00    -0.081 A 
ATOM      2  C3  UNL d   1       0.543   0.833  -0.598  0.00  0.00     0.006 A 
ATOM      3  C4  UNL d   1      -0.288   1.902  -0.255  0.00  0.00     0.002 A 
ATOM      4  C5  UNL d   1      -0.611   2.148   1.084  0.00  0.00    -0.080 A 
ATOM      5  C6  UNL d   1      -1.478   3.310   1.469  0.00  0.00     0.076 C 
ATOM      6  C7  UNL d   1      -0.112   1.292   2.072  0.00  0.00     0.002 A 
ATOM      7  C8  UNL d   1       0.718   0.222   1.728  0.00  0.00     0.006 A 
ENDROOT
BRANCH   1   8
ATOM      8  C1  UNL d   1       2.006  -1.128   0.030  0.00  0.00     0.054 C 
ATOM      9  C   UNL d   1       3.425  -0.815   0.483  0.00  0.00     0.018 C 
ENDBRANCH   1   8
TORSDOF 1
ENDMDL
