MODEL 1
REMARK minimizedAffinity -1.55768299
REMARK minimizedRMSD -1
REMARK  1 active torsions:
REMARK  status: ('A' for Active; 'I' for Inactive)
REMARK    1  A    between atoms: C1_2  and  C2_3 
ROOT
ATOM      1  C2  UNL d   1       0.327  -1.892  -1.153  0.00  0.00    -0.081 A 
ATOM      2  C3  UNL d   1      -0.620  -2.902  -1.360  0.00  0.00     0.006 A 
ATOM      3  C4  UNL d   1      -0.308  -4.234  -1.079  0.00  0.00     0.002 A 
ATOM      4  C5  UNL d   1       0.953  -4.577  -0.579  0.00  0.00    -0.080 A 
ATOM      5  C6  UNL d   1       1.291  -6.000  -0.245  0.00  0.00     0.076 C 
ATOM      6  C7  UNL d   1       1.905  -3.570  -0.389  0.00  0.00     0.002 A 
ATOM      7  C8  UNL d   1       1.594  -2.238  -0.670  0.00  0.00     0.006 A 
ENDROOT
BRANCH   1   8
ATOM      8  C1  UNL d   1      -0.029  -0.447  -1.394  0.00  0.00     0.054 C 
ATOM      9  C   UNL d   1      -0.393   0.257  -0.094  0.00  0.00     0.018 C 
ENDBRANCH   1   8
TORSDOF 1
ENDMDL
