MODEL 1
REMARK minimizedAffinity -0.791315317
REMARK minimizedRMSD -1
REMARK  1 active torsions:
REMARK  status: ('A' for Active; 'I' for Inactive)
REMARK    1  A    between atoms: C1_2  and  C2_3 
ROOT
ATOM      1  C2  UNL d   1      -0.631  -1.034  -0.349  0.00  0.00    -0.081 A 
ATOM      2  C3  UNL d   1      -0.366  -1.024   1.026  0.00  0.00     0.006 A 
ATOM      3  C4  UNL d   1      -0.194   0.184   1.706  0.00  0.00     0.002 A 
ATOM      4  C5  UNL d   1      -0.293   1.402   1.025  0.00  0.00    -0.080 A 
ATOM      5  C6  UNL d   1      -0.141   2.707   1.749  0.00  0.00     0.076 C 
ATOM      6  C7  UNL d   1      -0.541   1.392  -0.352  0.00  0.00     0.002 A 
ATOM      7  C8  UNL d   1      -0.712   0.184  -1.032  0.00  0.00     0.006 A 
ENDROOT
BRANCH   1   8
ATOM      8  C1  UNL d   1      -0.881  -2.332  -1.072  0.00  0.00     0.054 C 
ATOM      9  C   UNL d   1      -2.094  -2.232  -1.986  0.00  0.00     0.018 C 
ENDBRANCH   1   8
TORSDOF 1
ENDMDL
