MODEL 1
REMARK minimizedAffinity -3.9254818
REMARK minimizedRMSD -1
REMARK  2 active torsions:
REMARK  status: ('A' for Active; 'I' for Inactive)
REMARK    1  A    between atoms: C1_2  and  C2_3 
REMARK    2  A    between atoms: C2_3  and  C3_4 
ROOT
ATOM      1  C3  UNL d   1      -4.835   1.744  -0.775  0.00  0.00    -0.075 A 
ATOM      2  C4  UNL d   1      -5.999   2.387  -0.328  0.00  0.00     0.002 A 
ATOM      3  C5  UNL d   1      -5.973   3.181   0.819  0.00  0.00     0.002 A 
ATOM      4  C6  UNL d   1      -4.789   3.333   1.538  0.00  0.00    -0.004 A 
ATOM      5  C7  UNL d   1      -3.631   2.686   1.112  0.00  0.00     0.002 A 
ATOM      6  C8  UNL d   1      -3.653   1.895  -0.038  0.00  0.00     0.002 A 
ENDROOT
BRANCH   1   7
ATOM      7  C2  UNL d   1      -4.850   0.908  -2.033  0.00  0.00     0.056 C 
BRANCH   7   8
ATOM      8  C1  UNL d   1      -4.230   1.602  -3.250  0.00  0.00     0.007 C 
ATOM      9  C   UNL d   1      -5.253   2.329  -4.112  0.00  0.00     0.009 C 
ENDBRANCH   7   8
ENDBRANCH   1   7
TORSDOF 2
ENDMDL
