MODEL 1
REMARK minimizedAffinity -0.673358738
REMARK minimizedRMSD -1
REMARK  2 active torsions:
REMARK  status: ('A' for Active; 'I' for Inactive)
REMARK    1  A    between atoms: C1_2  and  C2_3 
REMARK    2  A    between atoms: C2_3  and  C3_4 
ROOT
ATOM      1  C3  UNL d   1      -3.026   1.800  -0.533  0.00  0.00    -0.075 A 
ATOM      2  C4  UNL d   1      -3.552   2.002  -1.817  0.00  0.00     0.002 A 
ATOM      3  C5  UNL d   1      -3.388   1.035  -2.810  0.00  0.00     0.002 A 
ATOM      4  C6  UNL d   1      -2.689  -0.138  -2.535  0.00  0.00    -0.004 A 
ATOM      5  C7  UNL d   1      -2.148  -0.341  -1.267  0.00  0.00     0.002 A 
ATOM      6  C8  UNL d   1      -2.314   0.622  -0.271  0.00  0.00     0.002 A 
ENDROOT
BRANCH   1   7
ATOM      7  C2  UNL d   1      -3.226   2.829   0.554  0.00  0.00     0.056 C 
BRANCH   7   8
ATOM      8  C1  UNL d   1      -4.615   2.794   1.199  0.00  0.00     0.007 C 
ATOM      9  C   UNL d   1      -5.636   3.663   0.476  0.00  0.00     0.009 C 
ENDBRANCH   7   8
ENDBRANCH   1   7
TORSDOF 2
ENDMDL
