MODEL 1
REMARK minimizedAffinity 11.2022152
REMARK minimizedRMSD -1
REMARK  2 active torsions:
REMARK  status: ('A' for Active; 'I' for Inactive)
REMARK    1  A    between atoms: C1_2  and  C2_3 
REMARK    2  A    between atoms: C2_3  and  C3_4 
ROOT
ATOM      1  C3  UNL d   1       2.052  -3.621   2.296  0.00  0.00    -0.075 A 
ATOM      2  C4  UNL d   1       1.301  -3.549   3.478  0.00  0.00     0.002 A 
ATOM      3  C5  UNL d   1       0.886  -2.314   3.979  0.00  0.00     0.002 A 
ATOM      4  C6  UNL d   1       1.225  -1.139   3.313  0.00  0.00    -0.004 A 
ATOM      5  C7  UNL d   1       1.986  -1.198   2.147  0.00  0.00     0.002 A 
ATOM      6  C8  UNL d   1       2.398  -2.432   1.641  0.00  0.00     0.002 A 
ENDROOT
BRANCH   1   7
ATOM      7  C2  UNL d   1       2.479  -4.955   1.733  0.00  0.00     0.056 C 
BRANCH   7   8
ATOM      8  C1  UNL d   1       1.640  -5.426   0.540  0.00  0.00     0.007 C 
ATOM      9  C   UNL d   1       2.482  -5.886  -0.642  0.00  0.00     0.009 C 
ENDBRANCH   7   8
ENDBRANCH   1   7
TORSDOF 2
ENDMDL
