MODEL 1
REMARK minimizedAffinity 9.22187614
REMARK minimizedRMSD -1
REMARK  2 active torsions:
REMARK  status: ('A' for Active; 'I' for Inactive)
REMARK    1  A    between atoms: C1_2  and  C2_3 
REMARK    2  A    between atoms: C2_3  and  C3_4 
ROOT
ATOM      1  C3  UNL d   1       1.590  -4.468   4.101  0.00  0.00    -0.075 A 
ATOM      2  C4  UNL d   1       2.649  -4.134   3.245  0.00  0.00     0.002 A 
ATOM      3  C5  UNL d   1       2.823  -2.819   2.812  0.00  0.00     0.002 A 
ATOM      4  C6  UNL d   1       1.936  -1.825   3.221  0.00  0.00    -0.004 A 
ATOM      5  C7  UNL d   1       0.870  -2.148   4.058  0.00  0.00     0.002 A 
ATOM      6  C8  UNL d   1       0.697  -3.462   4.496  0.00  0.00     0.002 A 
ENDROOT
BRANCH   1   7
ATOM      7  C2  UNL d   1       1.413  -5.883   4.596  0.00  0.00     0.056 C 
BRANCH   7   8
ATOM      8  C1  UNL d   1       0.807  -5.982   6.000  0.00  0.00     0.007 C 
ATOM      9  C   UNL d   1      -0.716  -5.983   5.998  0.00  0.00     0.009 C 
ENDBRANCH   7   8
ENDBRANCH   1   7
TORSDOF 2
ENDMDL
