MODEL 1
REMARK minimizedAffinity 8.00914955
REMARK minimizedRMSD -1
REMARK  2 active torsions:
REMARK  status: ('A' for Active; 'I' for Inactive)
REMARK    1  A    between atoms: C1_2  and  C2_3 
REMARK    2  A    between atoms: C2_3  and  C3_4 
ROOT
ATOM      1  C3  UNL d   1       3.872  -5.571  -0.845  0.00  0.00    -0.075 A 
ATOM      2  C4  UNL d   1       2.939  -5.572  -1.892  0.00  0.00     0.002 A 
ATOM      3  C5  UNL d   1       3.350  -5.790  -3.207  0.00  0.00     0.002 A 
ATOM      4  C6  UNL d   1       4.698  -6.000  -3.493  0.00  0.00    -0.004 A 
ATOM      5  C7  UNL d   1       5.635  -5.984  -2.462  0.00  0.00     0.002 A 
ATOM      6  C8  UNL d   1       5.226  -5.770  -1.145  0.00  0.00     0.002 A 
ENDROOT
BRANCH   1   7
ATOM      7  C2  UNL d   1       3.429  -5.364   0.584  0.00  0.00     0.056 C 
BRANCH   7   8
ATOM      8  C1  UNL d   1       2.400  -4.243   0.763  0.00  0.00     0.007 C 
ATOM      9  C   UNL d   1       2.394  -3.651   2.166  0.00  0.00     0.009 C 
ENDBRANCH   7   8
ENDBRANCH   1   7
TORSDOF 2
ENDMDL
