MODEL 1
REMARK minimizedAffinity 3.61684155
REMARK minimizedRMSD -1
REMARK  2 active torsions:
REMARK  status: ('A' for Active; 'I' for Inactive)
REMARK    1  A    between atoms: C1_2  and  C2_3 
REMARK    2  A    between atoms: C2_3  and  C3_4 
ROOT
ATOM      1  C3  UNL d   1       3.068  -2.824   0.608  0.00  0.00    -0.075 A 
ATOM      2  C4  UNL d   1       2.845  -1.446   0.471  0.00  0.00     0.002 A 
ATOM      3  C5  UNL d   1       2.347  -0.699   1.539  0.00  0.00     0.002 A 
ATOM      4  C6  UNL d   1       2.056  -1.320   2.752  0.00  0.00    -0.004 A 
ATOM      5  C7  UNL d   1       2.258  -2.691   2.894  0.00  0.00     0.002 A 
ATOM      6  C8  UNL d   1       2.761  -3.440   1.828  0.00  0.00     0.002 A 
ENDROOT
BRANCH   1   7
ATOM      7  C2  UNL d   1       3.635  -3.632  -0.535  0.00  0.00     0.056 C 
BRANCH   7   8
ATOM      8  C1  UNL d   1       3.958  -5.085  -0.171  0.00  0.00     0.007 C 
ATOM      9  C   UNL d   1       5.416  -5.454  -0.408  0.00  0.00     0.009 C 
ENDBRANCH   7   8
ENDBRANCH   1   7
TORSDOF 2
ENDMDL
