MODEL 1
REMARK minimizedAffinity 8.63963032
REMARK minimizedRMSD -1
REMARK  2 active torsions:
REMARK  status: ('A' for Active; 'I' for Inactive)
REMARK    1  A    between atoms: C1_2  and  C2_3 
REMARK    2  A    between atoms: C2_3  and  C3_4 
ROOT
ATOM      1  C3  UNL d   1      -2.567   0.562  -2.294  0.00  0.00    -0.075 A 
ATOM      2  C4  UNL d   1      -1.598   0.076  -1.404  0.00  0.00     0.002 A 
ATOM      3  C5  UNL d   1      -1.248   0.808  -0.269  0.00  0.00     0.002 A 
ATOM      4  C6  UNL d   1      -1.852   2.037  -0.015  0.00  0.00    -0.004 A 
ATOM      5  C7  UNL d   1      -2.804   2.537  -0.901  0.00  0.00     0.002 A 
ATOM      6  C8  UNL d   1      -3.160   1.805  -2.035  0.00  0.00     0.002 A 
ENDROOT
BRANCH   1   7
ATOM      7  C2  UNL d   1      -2.972  -0.239  -3.508  0.00  0.00     0.056 C 
BRANCH   7   8
ATOM      8  C1  UNL d   1      -3.294  -1.707  -3.208  0.00  0.00     0.007 C 
ATOM      9  C   UNL d   1      -4.443  -1.881  -2.224  0.00  0.00     0.009 C 
ENDBRANCH   7   8
ENDBRANCH   1   7
TORSDOF 2
ENDMDL
