MODEL 1
REMARK minimizedAffinity 6.75959158
REMARK minimizedRMSD -1
REMARK  2 active torsions:
REMARK  status: ('A' for Active; 'I' for Inactive)
REMARK    1  A    between atoms: C1_2  and  C2_3 
REMARK    2  A    between atoms: C2_3  and  C3_4 
ROOT
ATOM      1  C3  UNL d   1       1.916  -0.481   1.993  0.00  0.00    -0.075 A 
ATOM      2  C4  UNL d   1       1.165  -1.302   1.139  0.00  0.00     0.002 A 
ATOM      3  C5  UNL d   1       0.906  -2.630   1.479  0.00  0.00     0.002 A 
ATOM      4  C6  UNL d   1       1.403  -3.157   2.669  0.00  0.00    -0.004 A 
ATOM      5  C7  UNL d   1       2.165  -2.356   3.517  0.00  0.00     0.002 A 
ATOM      6  C8  UNL d   1       2.421  -1.025   3.182  0.00  0.00     0.002 A 
ENDROOT
BRANCH   1   7
ATOM      7  C2  UNL d   1       2.174   0.965   1.646  0.00  0.00     0.056 C 
BRANCH   7   8
ATOM      8  C1  UNL d   1       2.952   1.164   0.341  0.00  0.00     0.007 C 
ATOM      9  C   UNL d   1       2.806   2.565  -0.238  0.00  0.00     0.009 C 
ENDBRANCH   7   8
ENDBRANCH   1   7
TORSDOF 2
ENDMDL
