MODEL 1
REMARK minimizedAffinity -5.19884872
REMARK minimizedRMSD -1
REMARK  0 active torsions:
REMARK  status: ('A' for Active; 'I' for Inactive)
ROOT
ATOM      1  N1  IND d   1       0.132  -0.882  -0.192  0.00  0.00    -0.196 N 
ATOM      2  C2  IND d   1       0.144  -0.406  -1.473  0.00  0.00     0.054 A 
ATOM      3  C3  IND d   1      -0.189   0.904  -1.491  0.00  0.00    -0.031 A 
ATOM      4  C4  IND d   1      -0.695   2.491   0.472  0.00  0.00     0.051 A 
ATOM      5  C5  IND d   1      -0.864   2.506   1.828  0.00  0.00    -0.031 A 
ATOM      6  C6  IND d   1      -0.704   1.371   2.596  0.00  0.00     0.015 A 
ATOM      7  C7  IND d   1      -0.356   0.175   2.035  0.00  0.00    -0.016 A 
ATOM      8  C8  IND d   1      -0.191   0.154   0.657  0.00  0.00    -0.047 A 
ATOM      9  C9  IND d   1      -0.393   1.293  -0.132  0.00  0.00    -0.096 A 
ATOM     10  HN1 IND d   1       0.297  -1.692   0.044  0.00  0.00     0.298 HD
ENDROOT
TORSDOF 0
ENDMDL
