MODEL 1
REMARK minimizedAffinity -3.38884401
REMARK minimizedRMSD -1
REMARK  0 active torsions:
REMARK  status: ('A' for Active; 'I' for Inactive)
ROOT
ATOM      1  N1  IND d   1      -0.790  -0.060  -0.976  0.00  0.00    -0.196 N 
ATOM      2  C2  IND d   1       0.008  -1.161  -1.116  0.00  0.00     0.054 A 
ATOM      3  C3  IND d   1       0.901  -1.227  -0.104  0.00  0.00    -0.031 A 
ATOM      4  C4  IND d   1       1.168   0.309   1.945  0.00  0.00     0.051 A 
ATOM      5  C5  IND d   1       0.693   1.468   2.491  0.00  0.00    -0.031 A 
ATOM      6  C6  IND d   1      -0.323   2.190   1.900  0.00  0.00     0.015 A 
ATOM      7  C7  IND d   1      -0.912   1.772   0.740  0.00  0.00    -0.016 A 
ATOM      8  C8  IND d   1      -0.427   0.600   0.178  0.00  0.00    -0.047 A 
ATOM      9  C9  IND d   1       0.632  -0.115   0.752  0.00  0.00    -0.096 A 
ATOM     10  HN1 IND d   1      -1.413   0.181  -1.517  0.00  0.00     0.298 HD
ENDROOT
TORSDOF 0
ENDMDL
