MODEL 1
REMARK minimizedAffinity -5.01907778
REMARK minimizedRMSD -1
REMARK  0 active torsions:
REMARK  status: ('A' for Active; 'I' for Inactive)
ROOT
ATOM      1  N1  IND d   1       0.304  -0.391  -0.641  0.00  0.00    -0.196 N 
ATOM      2  C2  IND d   1       0.908  -1.131   0.337  0.00  0.00     0.054 A 
ATOM      3  C3  IND d   1       0.932  -0.442   1.500  0.00  0.00    -0.031 A 
ATOM      4  C4  IND d   1      -0.052   1.872   2.051  0.00  0.00     0.051 A 
ATOM      5  C5  IND d   1      -0.666   2.947   1.472  0.00  0.00    -0.031 A 
ATOM      6  C6  IND d   1      -0.998   2.963   0.133  0.00  0.00     0.015 A 
ATOM      7  C7  IND d   1      -0.736   1.896  -0.679  0.00  0.00    -0.016 A 
ATOM      8  C8  IND d   1      -0.106   0.806  -0.096  0.00  0.00    -0.047 A 
ATOM      9  C9  IND d   1       0.271   0.800   1.253  0.00  0.00    -0.096 A 
ATOM     10  HN1 IND d   1       0.198  -0.633  -1.460  0.00  0.00     0.298 HD
ENDROOT
TORSDOF 0
ENDMDL
