MODEL 1
REMARK minimizedAffinity -5.37285614
REMARK minimizedRMSD -1
REMARK  0 active torsions:
REMARK  status: ('A' for Active; 'I' for Inactive)
ROOT
ATOM      1  N1  IND d   1      -0.808   0.204   0.294  0.00  0.00    -0.196 N 
ATOM      2  C2  IND d   1      -0.030  -0.742   0.900  0.00  0.00     0.054 A 
ATOM      3  C3  IND d   1       0.802  -0.164   1.796  0.00  0.00    -0.031 A 
ATOM      4  C4  IND d   1       0.984   2.305   2.501  0.00  0.00     0.051 A 
ATOM      5  C5  IND d   1       0.506   3.549   2.201  0.00  0.00    -0.031 A 
ATOM      6  C6  IND d   1      -0.456   3.746   1.231  0.00  0.00     0.015 A 
ATOM      7  C7  IND d   1      -0.986   2.699   0.531  0.00  0.00    -0.016 A 
ATOM      8  C8  IND d   1      -0.498   1.435   0.829  0.00  0.00    -0.047 A 
ATOM      9  C9  IND d   1       0.509   1.234   1.782  0.00  0.00    -0.096 A 
ATOM     10  HN1 IND d   1      -1.392   0.055  -0.319  0.00  0.00     0.298 HD
ENDROOT
TORSDOF 0
ENDMDL
