MODEL 1
REMARK minimizedAffinity -3.13616204
REMARK minimizedRMSD -1
REMARK  0 active torsions:
REMARK  status: ('A' for Active; 'I' for Inactive)
ROOT
ATOM      1  N1  IND d   1      -1.039   2.157   0.919  0.00  0.00    -0.196 N 
ATOM      2  C2  IND d   1      -0.675   2.369   2.220  0.00  0.00     0.054 A 
ATOM      3  C3  IND d   1       0.160   1.393   2.640  0.00  0.00    -0.031 A 
ATOM      4  C4  IND d   1       1.143  -0.594   1.332  0.00  0.00     0.051 A 
ATOM      5  C5  IND d   1       1.075  -1.227   0.123  0.00  0.00    -0.031 A 
ATOM      6  C6  IND d   1       0.285  -0.753  -0.905  0.00  0.00     0.015 A 
ATOM      7  C7  IND d   1      -0.461   0.383  -0.764  0.00  0.00    -0.016 A 
ATOM      8  C8  IND d   1      -0.400   1.024   0.465  0.00  0.00    -0.047 A 
ATOM      9  C9  IND d   1       0.367   0.524   1.525  0.00  0.00    -0.096 A 
ATOM     10  HN1 IND d   1      -1.577   2.648   0.462  0.00  0.00     0.298 HD
ENDROOT
TORSDOF 0
ENDMDL
