MODEL 1
REMARK minimizedAffinity -2.41491079
REMARK minimizedRMSD -1
REMARK  0 active torsions:
REMARK  status: ('A' for Active; 'I' for Inactive)
ROOT
ATOM      1  N1  IND d   1       0.821  -0.443   0.287  0.00  0.00    -0.196 N 
ATOM      2  C2  IND d   1       0.710  -0.903  -0.996  0.00  0.00     0.054 A 
ATOM      3  C3  IND d   1      -0.257  -0.227  -1.656  0.00  0.00    -0.031 A 
ATOM      4  C4  IND d   1      -1.713   1.740  -0.857  0.00  0.00     0.051 A 
ATOM      5  C5  IND d   1      -2.001   2.487   0.251  0.00  0.00    -0.031 A 
ATOM      6  C6  IND d   1      -1.347   2.294   1.451  0.00  0.00     0.015 A 
ATOM      7  C7  IND d   1      -0.369   1.349   1.585  0.00  0.00    -0.016 A 
ATOM      8  C8  IND d   1      -0.080   0.584   0.464  0.00  0.00    -0.047 A 
ATOM      9  C9  IND d   1      -0.770   0.747  -0.744  0.00  0.00    -0.096 A 
ATOM     10  HN1 IND d   1       1.362  -0.745   0.883  0.00  0.00     0.298 HD
ENDROOT
TORSDOF 0
ENDMDL
