MODEL 1
REMARK minimizedAffinity -5.36058807
REMARK minimizedRMSD -1
REMARK  2 active torsions:
REMARK  status: ('A' for Active; 'I' for Inactive)
REMARK    1  A    between atoms: C2'_3  and  C1'_4 
REMARK    2  A    between atoms: C1'_4  and  C1_5 
ROOT
ATOM      1  C1  I4B d   1       0.117   0.028   0.004  0.00  0.00    -0.075 A 
ATOM      2  C2  I4B d   1      -1.252   0.121  -0.011  0.00  0.00     0.003 A 
ATOM      3  C3  I4B d   1      -1.942   0.676   1.094  0.00  0.00     0.002 A 
ATOM      4  C4  I4B d   1      -1.231   1.078   2.206  0.00  0.00    -0.004 A 
ATOM      5  C5  I4B d   1       0.159   1.005   2.211  0.00  0.00     0.002 A 
ATOM      6  C6  I4B d   1       0.839   0.488   1.098  0.00  0.00     0.003 A 
ENDROOT
BRANCH   1   7
ATOM      7  C1' I4B d   1       0.811  -0.594  -1.166  0.00  0.00     0.060 C 
BRANCH   7   8
ATOM      8  C2' I4B d   1       0.385   0.155  -2.413  0.00  0.00    -0.013 C 
ATOM      9  C4' I4B d   1       1.434   1.150  -2.835  0.00  0.00     0.013 C 
ATOM     10  C3' I4B d   1       0.129  -0.853  -3.493  0.00  0.00     0.013 C 
ENDBRANCH   7   8
ENDBRANCH   1   7
TORSDOF 2
ENDMDL
