MODEL 1
REMARK minimizedAffinity -2.43377757
REMARK minimizedRMSD -1
REMARK  2 active torsions:
REMARK  status: ('A' for Active; 'I' for Inactive)
REMARK    1  A    between atoms: C2'_3  and  C1'_4 
REMARK    2  A    between atoms: C1'_4  and  C1_5 
ROOT
ATOM      1  C1  I4B d   1      -0.138  -0.059   2.287  0.00  0.00    -0.075 A 
ATOM      2  C2  I4B d   1       0.437  -0.544   3.435  0.00  0.00     0.003 A 
ATOM      3  C3  I4B d   1       1.813  -0.881   3.456  0.00  0.00     0.002 A 
ATOM      4  C4  I4B d   1       2.558  -0.766   2.300  0.00  0.00    -0.004 A 
ATOM      5  C5  I4B d   1       1.979  -0.252   1.144  0.00  0.00     0.002 A 
ATOM      6  C6  I4B d   1       0.625   0.115   1.140  0.00  0.00     0.003 A 
ENDROOT
BRANCH   1   7
ATOM      7  C1' I4B d   1      -1.600   0.256   2.291  0.00  0.00     0.060 C 
BRANCH   7   8
ATOM      8  C2' I4B d   1      -2.081   0.259   0.855  0.00  0.00    -0.013 C 
ATOM      9  C4' I4B d   1      -2.112  -1.136   0.287  0.00  0.00     0.013 C 
ATOM     10  C3' I4B d   1      -3.443   0.887   0.823  0.00  0.00     0.013 C 
ENDBRANCH   7   8
ENDBRANCH   1   7
TORSDOF 2
ENDMDL
