MODEL 1
REMARK minimizedAffinity -3.74825239
REMARK minimizedRMSD -1
REMARK  2 active torsions:
REMARK  status: ('A' for Active; 'I' for Inactive)
REMARK    1  A    between atoms: C2'_3  and  C1'_4 
REMARK    2  A    between atoms: C1'_4  and  C1_5 
ROOT
ATOM      1  C1  I4B d   1       0.203  -0.166   0.052  0.00  0.00    -0.075 A 
ATOM      2  C2  I4B d   1      -1.153  -0.364   0.122  0.00  0.00     0.003 A 
ATOM      3  C3  I4B d   1      -1.897   0.169   1.203  0.00  0.00     0.002 A 
ATOM      4  C4  I4B d   1      -1.240   0.846   2.210  0.00  0.00    -0.004 A 
ATOM      5  C5  I4B d   1       0.132   1.066   2.126  0.00  0.00     0.002 A 
ATOM      6  C6  I4B d   1       0.856   0.567   1.034  0.00  0.00     0.003 A 
ENDROOT
BRANCH   1   7
ATOM      7  C1' I4B d   1       0.962  -0.772  -1.086  0.00  0.00     0.060 C 
BRANCH   7   8
ATOM      8  C2' I4B d   1       0.868   0.174  -2.265  0.00  0.00    -0.013 C 
ATOM      9  C4' I4B d   1       2.216   0.751  -2.610  0.00  0.00     0.013 C 
ATOM     10  C3' I4B d   1       0.292  -0.585  -3.423  0.00  0.00     0.013 C 
ENDBRANCH   7   8
ENDBRANCH   1   7
TORSDOF 2
ENDMDL
