MODEL 1
REMARK minimizedAffinity -3.89124751
REMARK minimizedRMSD -1
REMARK  2 active torsions:
REMARK  status: ('A' for Active; 'I' for Inactive)
REMARK    1  A    between atoms: C2'_3  and  C1'_4 
REMARK    2  A    between atoms: C1'_4  and  C1_5 
ROOT
ATOM      1  C1  I4B d   1       0.152  -0.171   0.025  0.00  0.00    -0.075 A 
ATOM      2  C2  I4B d   1      -1.172  -0.175   0.385  0.00  0.00     0.003 A 
ATOM      3  C3  I4B d   1      -1.582   0.424   1.601  0.00  0.00     0.002 A 
ATOM      4  C4  I4B d   1      -0.635   0.969   2.443  0.00  0.00    -0.004 A 
ATOM      5  C5  I4B d   1       0.704   0.993   2.065  0.00  0.00     0.002 A 
ATOM      6  C6  I4B d   1       1.099   0.431   0.843  0.00  0.00     0.003 A 
ENDROOT
BRANCH   1   7
ATOM      7  C1' I4B d   1       0.554  -0.842  -1.250  0.00  0.00     0.060 C 
BRANCH   7   8
ATOM      8  C2' I4B d   1       0.375   0.153  -2.379  0.00  0.00    -0.013 C 
ATOM      9  C4' I4B d   1       1.702   0.671  -2.865  0.00  0.00     0.013 C 
ATOM     10  C3' I4B d   1      -0.377  -0.530  -3.482  0.00  0.00     0.013 C 
ENDBRANCH   7   8
ENDBRANCH   1   7
TORSDOF 2
ENDMDL
