MODEL 1
REMARK minimizedAffinity -3.41763997
REMARK minimizedRMSD -1
REMARK  2 active torsions:
REMARK  status: ('A' for Active; 'I' for Inactive)
REMARK    1  A    between atoms: C2'_3  and  C1'_4 
REMARK    2  A    between atoms: C1'_4  and  C1_5 
ROOT
ATOM      1  C1  I4B d   1       5.748   3.761   3.931  0.00  0.00    -0.075 A 
ATOM      2  C2  I4B d   1       5.531   3.792   5.286  0.00  0.00     0.003 A 
ATOM      3  C3  I4B d   1       5.292   2.590   5.996  0.00  0.00     0.002 A 
ATOM      4  C4  I4B d   1       5.230   1.395   5.309  0.00  0.00    -0.004 A 
ATOM      5  C5  I4B d   1       5.474   1.364   3.939  0.00  0.00     0.002 A 
ATOM      6  C6  I4B d   1       5.747   2.552   3.247  0.00  0.00     0.003 A 
ENDROOT
BRANCH   1   7
ATOM      7  C1' I4B d   1       5.964   5.052   3.207  0.00  0.00     0.060 C 
BRANCH   7   8
ATOM      8  C2' I4B d   1       4.921   5.154   2.113  0.00  0.00    -0.013 C 
ATOM      9  C4' I4B d   1       3.736   5.968   2.564  0.00  0.00     0.013 C 
ATOM     10  C3' I4B d   1       5.571   5.766   0.908  0.00  0.00     0.013 C 
ENDBRANCH   7   8
ENDBRANCH   1   7
TORSDOF 2
ENDMDL
