MODEL 1
REMARK minimizedAffinity -3.85599136
REMARK minimizedRMSD -1
REMARK  0 active torsions:
REMARK  status: ('A' for Active; 'I' for Inactive)
ROOT
ATOM      1  C4' PXY d   1      -1.124  -5.999  -5.715  0.00  0.00     0.077 C 
ATOM      2  C1' PXY d   1      -5.912  -3.310  -3.909  0.00  0.00     0.077 C 
ATOM      3  C1  PXY d   1      -4.657  -4.024  -4.373  0.00  0.00    -0.082 A 
ATOM      4  C2  PXY d   1      -3.764  -3.371  -5.100  0.00  0.00     0.003 A 
ATOM      5  C3  PXY d   1      -2.640  -4.011  -5.554  0.00  0.00     0.003 A 
ATOM      6  C4  PXY d   1      -2.401  -5.316  -5.217  0.00  0.00    -0.082 A 
ATOM      7  C5  PXY d   1      -3.302  -5.985  -4.467  0.00  0.00     0.003 A 
ATOM      8  C6  PXY d   1      -4.457  -5.330  -4.050  0.00  0.00     0.003 A 
ENDROOT
TORSDOF 0
ENDMDL
