MODEL 1
REMARK minimizedAffinity -3.62130904
REMARK minimizedRMSD -1
REMARK  0 active torsions:
REMARK  status: ('A' for Active; 'I' for Inactive)
ROOT
ATOM      1  C4' PXY d   1      -2.058  -6.000  -4.880  0.00  0.00     0.077 C 
ATOM      2  C1' PXY d   1      -6.000  -1.913  -5.965  0.00  0.00     0.077 C 
ATOM      3  C1  PXY d   1      -4.975  -2.992  -5.674  0.00  0.00    -0.082 A 
ATOM      4  C2  PXY d   1      -3.690  -2.681  -5.641  0.00  0.00     0.003 A 
ATOM      5  C3  PXY d   1      -2.747  -3.650  -5.411  0.00  0.00     0.003 A 
ATOM      6  C4  PXY d   1      -3.128  -4.942  -5.161  0.00  0.00    -0.082 A 
ATOM      7  C5  PXY d   1      -4.439  -5.265  -5.183  0.00  0.00     0.003 A 
ATOM      8  C6  PXY d   1      -5.377  -4.274  -5.458  0.00  0.00     0.003 A 
ENDROOT
TORSDOF 0
ENDMDL
