MODEL 1
REMARK minimizedAffinity -2.8838098
REMARK minimizedRMSD -1
REMARK  0 active torsions:
REMARK  status: ('A' for Active; 'I' for Inactive)
ROOT
ATOM      1  C4' PXY d   1      -1.168  -6.000  -4.946  0.00  0.00     0.077 C 
ATOM      2  C1' PXY d   1      -5.991  -2.821  -4.731  0.00  0.00     0.077 C 
ATOM      3  C1  PXY d   1      -4.724  -3.651  -4.775  0.00  0.00    -0.082 A 
ATOM      4  C2  PXY d   1      -4.145  -3.901  -5.939  0.00  0.00     0.003 A 
ATOM      5  C3  PXY d   1      -3.016  -4.677  -6.000  0.00  0.00     0.003 A 
ATOM      6  C4  PXY d   1      -2.444  -5.158  -4.853  0.00  0.00    -0.082 A 
ATOM      7  C5  PXY d   1      -3.022  -4.899  -3.661  0.00  0.00     0.003 A 
ATOM      8  C6  PXY d   1      -4.190  -4.144  -3.624  0.00  0.00     0.003 A 
ENDROOT
TORSDOF 0
ENDMDL
