MODEL 1
REMARK minimizedAffinity -4.13178253
REMARK minimizedRMSD -1
REMARK  0 active torsions:
REMARK  status: ('A' for Active; 'I' for Inactive)
ROOT
ATOM      1  C4' PXY d   1      -2.354  -5.973  -5.232  0.00  0.00     0.077 C 
ATOM      2  C1' PXY d   1      -5.999  -1.884  -3.385  0.00  0.00     0.077 C 
ATOM      3  C1  PXY d   1      -5.052  -2.965  -3.868  0.00  0.00    -0.082 A 
ATOM      4  C2  PXY d   1      -3.746  -2.792  -3.750  0.00  0.00     0.003 A 
ATOM      5  C3  PXY d   1      -2.875  -3.745  -4.211  0.00  0.00     0.003 A 
ATOM      6  C4  PXY d   1      -3.347  -4.912  -4.750  0.00  0.00    -0.082 A 
ATOM      7  C5  PXY d   1      -4.678  -5.101  -4.864  0.00  0.00     0.003 A 
ATOM      8  C6  PXY d   1      -5.545  -4.103  -4.428  0.00  0.00     0.003 A 
ENDROOT
TORSDOF 0
ENDMDL
