MODEL 1
REMARK minimizedAffinity -4.17989063
REMARK minimizedRMSD -1
REMARK  0 active torsions:
REMARK  status: ('A' for Active; 'I' for Inactive)
ROOT
ATOM      1  C4' PXY d   1      -5.991  -2.505  -5.224  0.00  0.00     0.077 C 
ATOM      2  C1' PXY d   1      -1.242  -5.800  -5.221  0.00  0.00     0.077 C 
ATOM      3  C1  PXY d   1      -2.480  -4.926  -5.226  0.00  0.00    -0.082 A 
ATOM      4  C2  PXY d   1      -3.521  -5.262  -4.482  0.00  0.00     0.003 A 
ATOM      5  C3  PXY d   1      -4.661  -4.500  -4.498  0.00  0.00     0.003 A 
ATOM      6  C4  PXY d   1      -4.716  -3.353  -5.244  0.00  0.00    -0.082 A 
ATOM      7  C5  PXY d   1      -3.655  -2.997  -5.997  0.00  0.00     0.003 A 
ATOM      8  C6  PXY d   1      -2.522  -3.806  -5.998  0.00  0.00     0.003 A 
ENDROOT
TORSDOF 0
ENDMDL
