MODEL 1
REMARK minimizedAffinity -3.71082258
REMARK minimizedRMSD -1
REMARK  0 active torsions:
REMARK  status: ('A' for Active; 'I' for Inactive)
ROOT
ATOM      1  C4' PXY d   1      -1.766  -5.995  -5.991  0.00  0.00     0.077 C 
ATOM      2  C1' PXY d   1      -5.999  -3.036  -3.395  0.00  0.00     0.077 C 
ATOM      3  C1  PXY d   1      -4.891  -3.822  -4.068  0.00  0.00    -0.082 A 
ATOM      4  C2  PXY d   1      -3.921  -3.178  -4.696  0.00  0.00     0.003 A 
ATOM      5  C3  PXY d   1      -2.928  -3.874  -5.337  0.00  0.00     0.003 A 
ATOM      6  C4  PXY d   1      -2.900  -5.242  -5.290  0.00  0.00    -0.082 A 
ATOM      7  C5  PXY d   1      -3.881  -5.906  -4.642  0.00  0.00     0.003 A 
ATOM      8  C6  PXY d   1      -4.902  -5.182  -4.033  0.00  0.00     0.003 A 
ENDROOT
TORSDOF 0
ENDMDL
