MODEL 1
REMARK minimizedAffinity -1.26235008
REMARK minimizedRMSD -1
REMARK  0 active torsions:
REMARK  status: ('A' for Active; 'I' for Inactive)
ROOT
ATOM      1  C4' PXY d   1      -3.375  -5.999  -3.232  0.00  0.00     0.077 C 
ATOM      2  C1' PXY d   1      -5.999  -1.613  -5.933  0.00  0.00     0.077 C 
ATOM      3  C1  PXY d   1      -5.302  -2.764  -5.234  0.00  0.00    -0.082 A 
ATOM      4  C2  PXY d   1      -5.984  -3.532  -4.401  0.00  0.00     0.003 A 
ATOM      5  C3  PXY d   1      -5.361  -4.557  -3.736  0.00  0.00     0.003 A 
ATOM      6  C4  PXY d   1      -4.040  -4.832  -3.967  0.00  0.00    -0.082 A 
ATOM      7  C5  PXY d   1      -3.340  -4.059  -4.825  0.00  0.00     0.003 A 
ATOM      8  C6  PXY d   1      -3.980  -2.998  -5.458  0.00  0.00     0.003 A 
ENDROOT
TORSDOF 0
ENDMDL
