MODEL 1
REMARK minimizedAffinity -3.70048809
REMARK minimizedRMSD -1
REMARK  0 active torsions:
REMARK  status: ('A' for Active; 'I' for Inactive)
ROOT
ATOM      1  C4' PXY d   1      -5.998  -1.384  -4.785  0.00  0.00     0.077 C 
ATOM      2  C1' PXY d   1      -2.648  -5.997  -5.739  0.00  0.00     0.077 C 
ATOM      3  C1  PXY d   1      -3.537  -4.795  -5.491  0.00  0.00    -0.082 A 
ATOM      4  C2  PXY d   1      -3.041  -3.576  -5.627  0.00  0.00     0.003 A 
ATOM      5  C3  PXY d   1      -3.822  -2.477  -5.375  0.00  0.00     0.003 A 
ATOM      6  C4  PXY d   1      -5.139  -2.628  -5.034  0.00  0.00    -0.082 A 
ATOM      7  C5  PXY d   1      -5.656  -3.868  -4.904  0.00  0.00     0.003 A 
ATOM      8  C6  PXY d   1      -4.835  -4.971  -5.124  0.00  0.00     0.003 A 
ENDROOT
TORSDOF 0
ENDMDL
