MODEL 1
REMARK minimizedAffinity -3.65963745
REMARK minimizedRMSD -1
REMARK  0 active torsions:
REMARK  status: ('A' for Active; 'I' for Inactive)
ROOT
ATOM      1  C4' PXY d   1      -1.739  -5.352  -6.000  0.00  0.00     0.077 C 
ATOM      2  C1' PXY d   1      -6.000  -2.639  -3.190  0.00  0.00     0.077 C 
ATOM      3  C1  PXY d   1      -4.890  -3.350  -3.938  0.00  0.00    -0.082 A 
ATOM      4  C2  PXY d   1      -4.023  -4.093  -3.269  0.00  0.00     0.003 A 
ATOM      5  C3  PXY d   1      -2.993  -4.718  -3.926  0.00  0.00     0.003 A 
ATOM      6  C4  PXY d   1      -2.882  -4.624  -5.287  0.00  0.00    -0.082 A 
ATOM      7  C5  PXY d   1      -3.769  -3.876  -5.978  0.00  0.00     0.003 A 
ATOM      8  C6  PXY d   1      -4.782  -3.217  -5.287  0.00  0.00     0.003 A 
ENDROOT
TORSDOF 0
ENDMDL
