MODEL 1
REMARK minimizedAffinity -3.96251488
REMARK minimizedRMSD -1
REMARK  0 active torsions:
REMARK  status: ('A' for Active; 'I' for Inactive)
ROOT
ATOM      1  C4' PXY d   1      -1.595  -5.999  -5.998  0.00  0.00     0.077 C 
ATOM      2  C1' PXY d   1      -6.000  -3.259  -3.446  0.00  0.00     0.077 C 
ATOM      3  C1  PXY d   1      -4.850  -3.989  -4.112  0.00  0.00    -0.082 A 
ATOM      4  C2  PXY d   1      -3.689  -3.374  -4.271  0.00  0.00     0.003 A 
ATOM      5  C3  PXY d   1      -2.649  -4.009  -4.900  0.00  0.00     0.003 A 
ATOM      6  C4  PXY d   1      -2.781  -5.304  -5.323  0.00  0.00    -0.082 A 
ATOM      7  C5  PXY d   1      -3.959  -5.942  -5.154  0.00  0.00     0.003 A 
ATOM      8  C6  PXY d   1      -5.015  -5.267  -4.551  0.00  0.00     0.003 A 
ENDROOT
TORSDOF 0
ENDMDL
