MODEL 1
REMARK minimizedAffinity 1.44359481
REMARK minimizedRMSD -1
REMARK  0 active torsions:
REMARK  status: ('A' for Active; 'I' for Inactive)
ROOT
ATOM      1  C4' PXY d   1      -5.999  -0.677  -3.115  0.00  0.00     0.077 C 
ATOM      2  C1' PXY d   1      -5.888  -5.685  -6.000  0.00  0.00     0.077 C 
ATOM      3  C1  PXY d   1      -5.922  -4.378  -5.233  0.00  0.00    -0.082 A 
ATOM      4  C2  PXY d   1      -6.000  -3.234  -5.893  0.00  0.00     0.003 A 
ATOM      5  C3  PXY d   1      -5.999  -2.041  -5.216  0.00  0.00     0.003 A 
ATOM      6  C4  PXY d   1      -5.972  -2.021  -3.848  0.00  0.00    -0.082 A 
ATOM      7  C5  PXY d   1      -5.903  -3.185  -3.166  0.00  0.00     0.003 A 
ATOM      8  C6  PXY d   1      -5.864  -4.383  -3.873  0.00  0.00     0.003 A 
ENDROOT
TORSDOF 0
ENDMDL
