MODEL 1
REMARK minimizedAffinity -2.72145438
REMARK minimizedRMSD -1
REMARK  0 active torsions:
REMARK  status: ('A' for Active; 'I' for Inactive)
ROOT
ATOM      1  C4' PXY d   1      -2.124  -5.999  -5.974  0.00  0.00     0.077 C 
ATOM      2  C1' PXY d   1      -6.000  -2.439  -3.583  0.00  0.00     0.077 C 
ATOM      3  C1  PXY d   1      -4.974  -3.368  -4.202  0.00  0.00    -0.082 A 
ATOM      4  C2  PXY d   1      -5.164  -3.828  -5.429  0.00  0.00     0.003 A 
ATOM      5  C3  PXY d   1      -4.262  -4.694  -5.992  0.00  0.00     0.003 A 
ATOM      6  C4  PXY d   1      -3.128  -5.051  -5.313  0.00  0.00    -0.082 A 
ATOM      7  C5  PXY d   1      -2.922  -4.578  -4.066  0.00  0.00     0.003 A 
ATOM      8  C6  PXY d   1      -3.870  -3.733  -3.496  0.00  0.00     0.003 A 
ENDROOT
TORSDOF 0
ENDMDL
