MODEL 1
REMARK minimizedAffinity -3.51342344
REMARK minimizedRMSD -1
REMARK  0 active torsions:
REMARK  status: ('A' for Active; 'I' for Inactive)
ROOT
ATOM      1  C4' PXY d   1      -5.965  -1.654  -4.635  0.00  0.00     0.077 C 
ATOM      2  C1' PXY d   1      -2.325  -5.946  -5.957  0.00  0.00     0.077 C 
ATOM      3  C1  PXY d   1      -3.289  -4.829  -5.609  0.00  0.00    -0.082 A 
ATOM      4  C2  PXY d   1      -3.026  -3.593  -6.000  0.00  0.00     0.003 A 
ATOM      5  C3  PXY d   1      -3.871  -2.565  -5.666  0.00  0.00     0.003 A 
ATOM      6  C4  PXY d   1      -5.024  -2.815  -4.972  0.00  0.00    -0.082 A 
ATOM      7  C5  PXY d   1      -5.305  -4.075  -4.579  0.00  0.00     0.003 A 
ATOM      8  C6  PXY d   1      -4.414  -5.098  -4.892  0.00  0.00     0.003 A 
ENDROOT
TORSDOF 0
ENDMDL
