MODEL 1
REMARK minimizedAffinity -3.46046066
REMARK minimizedRMSD -1
REMARK  0 active torsions:
REMARK  status: ('A' for Active; 'I' for Inactive)
ROOT
ATOM      1  C4' PXY d   1      -5.974  -0.856  -5.763  0.00  0.00     0.077 C 
ATOM      2  C1' PXY d   1      -3.500  -5.999  -4.845  0.00  0.00     0.077 C 
ATOM      3  C1  PXY d   1      -4.161  -4.656  -5.084  0.00  0.00    -0.082 A 
ATOM      4  C2  PXY d   1      -3.535  -3.737  -5.801  0.00  0.00     0.003 A 
ATOM      5  C3  PXY d   1      -4.103  -2.506  -6.000  0.00  0.00     0.003 A 
ATOM      6  C4  PXY d   1      -5.350  -2.230  -5.505  0.00  0.00    -0.082 A 
ATOM      7  C5  PXY d   1      -6.000  -3.166  -4.781  0.00  0.00     0.003 A 
ATOM      8  C6  PXY d   1      -5.388  -4.395  -4.556  0.00  0.00     0.003 A 
ENDROOT
TORSDOF 0
ENDMDL
