MODEL 1
REMARK minimizedAffinity -2.93275118
REMARK minimizedRMSD -1
REMARK  0 active torsions:
REMARK  status: ('A' for Active; 'I' for Inactive)
ROOT
ATOM      1  C4' PXY d   1      -6.000  -1.871  -4.858  0.00  0.00     0.077 C 
ATOM      2  C1' PXY d   1      -1.983  -5.999  -5.353  0.00  0.00     0.077 C 
ATOM      3  C1  PXY d   1      -3.046  -4.926  -5.225  0.00  0.00    -0.082 A 
ATOM      4  C2  PXY d   1      -2.724  -3.659  -5.432  0.00  0.00     0.003 A 
ATOM      5  C3  PXY d   1      -3.666  -2.672  -5.290  0.00  0.00     0.003 A 
ATOM      6  C4  PXY d   1      -4.962  -2.990  -4.985  0.00  0.00    -0.082 A 
ATOM      7  C5  PXY d   1      -5.300  -4.281  -4.783  0.00  0.00     0.003 A 
ATOM      8  C6  PXY d   1      -4.321  -5.264  -4.891  0.00  0.00     0.003 A 
ENDROOT
TORSDOF 0
ENDMDL
