MODEL 1
REMARK minimizedAffinity -2.7469008
REMARK minimizedRMSD -1
REMARK  0 active torsions:
REMARK  status: ('A' for Active; 'I' for Inactive)
ROOT
ATOM      1  C4' PXY d   1      -5.998  -5.998  -3.957  0.00  0.00     0.077 C 
ATOM      2  C1' PXY d   1      -3.331  -1.293  -5.997  0.00  0.00     0.077 C 
ATOM      3  C1  PXY d   1      -4.042  -2.521  -5.464  0.00  0.00    -0.082 A 
ATOM      4  C2  PXY d   1      -3.397  -3.355  -4.664  0.00  0.00     0.003 A 
ATOM      5  C3  PXY d   1      -4.015  -4.487  -4.199  0.00  0.00     0.003 A 
ATOM      6  C4  PXY d   1      -5.323  -4.741  -4.512  0.00  0.00    -0.082 A 
ATOM      7  C5  PXY d   1      -5.992  -3.889  -5.318  0.00  0.00     0.003 A 
ATOM      8  C6  PXY d   1      -5.334  -2.767  -5.814  0.00  0.00     0.003 A 
ENDROOT
TORSDOF 0
ENDMDL
