MODEL 1
REMARK minimizedAffinity -1.37955248
REMARK minimizedRMSD -1
REMARK  0 active torsions:
REMARK  status: ('A' for Active; 'I' for Inactive)
ROOT
ATOM      1  C4' PXY d   1      -6.000  -2.612  -3.316  0.00  0.00     0.077 C 
ATOM      2  C1' PXY d   1      -1.430  -4.921  -5.999  0.00  0.00     0.077 C 
ATOM      3  C1  PXY d   1      -2.627  -4.324  -5.285  0.00  0.00    -0.082 A 
ATOM      4  C2  PXY d   1      -3.537  -3.659  -5.978  0.00  0.00     0.003 A 
ATOM      5  C3  PXY d   1      -4.609  -3.085  -5.345  0.00  0.00     0.003 A 
ATOM      6  C4  PXY d   1      -4.780  -3.240  -3.995  0.00  0.00    -0.082 A 
ATOM      7  C5  PXY d   1      -3.862  -3.927  -3.283  0.00  0.00     0.003 A 
ATOM      8  C6  PXY d   1      -2.759  -4.466  -3.938  0.00  0.00     0.003 A 
ENDROOT
TORSDOF 0
ENDMDL
