MODEL 1
REMARK minimizedAffinity -2.37513041
REMARK minimizedRMSD -1
REMARK  0 active torsions:
REMARK  status: ('A' for Active; 'I' for Inactive)
ROOT
ATOM      1  C4' PXY d   1      -1.494  -5.920  -5.990  0.00  0.00     0.077 C 
ATOM      2  C1' PXY d   1      -5.999  -2.606  -4.526  0.00  0.00     0.077 C 
ATOM      3  C1  PXY d   1      -4.820  -3.482  -4.900  0.00  0.00    -0.082 A 
ATOM      4  C2  PXY d   1      -3.835  -2.979  -5.625  0.00  0.00     0.003 A 
ATOM      5  C3  PXY d   1      -2.776  -3.767  -5.999  0.00  0.00     0.003 A 
ATOM      6  C4  PXY d   1      -2.700  -5.069  -5.581  0.00  0.00    -0.082 A 
ATOM      7  C5  PXY d   1      -3.696  -5.586  -4.831  0.00  0.00     0.003 A 
ATOM      8  C6  PXY d   1      -4.782  -4.782  -4.497  0.00  0.00     0.003 A 
ENDROOT
TORSDOF 0
ENDMDL
