MODEL 1
REMARK minimizedAffinity -3.9685204
REMARK minimizedRMSD -1
REMARK  0 active torsions:
REMARK  status: ('A' for Active; 'I' for Inactive)
ROOT
ATOM      1  C4' PXY d   1      -6.000  -2.677  -4.107  0.00  0.00     0.077 C 
ATOM      2  C1' PXY d   1      -1.631  -5.994  -5.930  0.00  0.00     0.077 C 
ATOM      3  C1  PXY d   1      -2.768  -5.114  -5.451  0.00  0.00    -0.082 A 
ATOM      4  C2  PXY d   1      -3.822  -5.665  -4.870  0.00  0.00     0.003 A 
ATOM      5  C3  PXY d   1      -4.874  -4.887  -4.460  0.00  0.00     0.003 A 
ATOM      6  C4  PXY d   1      -4.824  -3.526  -4.597  0.00  0.00    -0.082 A 
ATOM      7  C5  PXY d   1      -3.748  -2.955  -5.180  0.00  0.00     0.003 A 
ATOM      8  C6  PXY d   1      -2.709  -3.766  -5.627  0.00  0.00     0.003 A 
ENDROOT
TORSDOF 0
ENDMDL
