MODEL 1
REMARK minimizedAffinity 4.2850194
REMARK minimizedRMSD -1
REMARK  0 active torsions:
REMARK  status: ('A' for Active; 'I' for Inactive)
ROOT
ATOM      1  C   UNL d   1      -5.920   1.526  -6.000  0.00  0.00     0.020 A 
ATOM      2  C1  UNL d   1      -5.985   0.134  -5.952  0.00  0.00     0.020 A 
ATOM      3  C2  UNL d   1      -6.000  -0.522  -4.720  0.00  0.00     0.034 A 
ATOM      4  C3  UNL d   1      -5.949   0.213  -3.530  0.00  0.00     0.017 A 
ATOM      5  C4  UNL d   1      -5.884   1.611  -3.579  0.00  0.00     0.017 A 
ATOM      6  C5  UNL d   1      -5.869   2.263  -4.816  0.00  0.00     0.034 A 
ATOM      7 Cl   UNL d   1      -5.818   2.586  -2.154  0.00  0.00    -0.070 Cl
ATOM      8 Cl1  UNL d   1      -5.971  -0.664  -2.042  0.00  0.00    -0.070 Cl
ENDROOT
TORSDOF 0
ENDMDL
