MODEL 1
REMARK minimizedAffinity 2.31656194
REMARK minimizedRMSD -1
REMARK  0 active torsions:
REMARK  status: ('A' for Active; 'I' for Inactive)
ROOT
ATOM      1  C   UNL d   1      -5.970  -0.031  -4.866  0.00  0.00     0.020 A 
ATOM      2  C1  UNL d   1      -5.989  -1.231  -4.156  0.00  0.00     0.020 A 
ATOM      3  C2  UNL d   1      -5.997  -1.215  -2.759  0.00  0.00     0.034 A 
ATOM      4  C3  UNL d   1      -5.987   0.002  -2.069  0.00  0.00     0.017 A 
ATOM      5  C4  UNL d   1      -5.969   1.206  -2.783  0.00  0.00     0.017 A 
ATOM      6  C5  UNL d   1      -5.960   1.184  -4.181  0.00  0.00     0.034 A 
ATOM      7 Cl   UNL d   1      -5.956   2.747  -2.001  0.00  0.00    -0.070 Cl
ATOM      8 Cl1  UNL d   1      -5.999  -0.053  -0.342  0.00  0.00    -0.070 Cl
ENDROOT
TORSDOF 0
ENDMDL
