MODEL 1
REMARK minimizedAffinity 4.79384851
REMARK minimizedRMSD -1
REMARK  0 active torsions:
REMARK  status: ('A' for Active; 'I' for Inactive)
ROOT
ATOM      1  C   UNL d   1      -3.061  -2.190   0.676  0.00  0.00     0.020 A 
ATOM      2  C1  UNL d   1      -4.167  -1.656   0.014  0.00  0.00     0.020 A 
ATOM      3  C2  UNL d   1      -4.980  -0.719   0.656  0.00  0.00     0.034 A 
ATOM      4  C3  UNL d   1      -4.689  -0.313   1.963  0.00  0.00     0.017 A 
ATOM      5  C4  UNL d   1      -3.579  -0.849   2.627  0.00  0.00     0.017 A 
ATOM      6  C5  UNL d   1      -2.769  -1.787   1.980  0.00  0.00     0.034 A 
ATOM      7 Cl   UNL d   1      -3.157  -0.397   4.240  0.00  0.00    -0.070 Cl
ATOM      8 Cl1  UNL d   1      -5.737   0.849   2.695  0.00  0.00    -0.070 Cl
ENDROOT
TORSDOF 0
ENDMDL
