MODEL 1
REMARK minimizedAffinity 7.59353971
REMARK minimizedRMSD -1
REMARK  0 active torsions:
REMARK  status: ('A' for Active; 'I' for Inactive)
ROOT
ATOM      1  C   UNL d   1      -2.959  -3.055   1.701  0.00  0.00     0.020 A 
ATOM      2  C1  UNL d   1      -2.844  -4.128   0.818  0.00  0.00     0.020 A 
ATOM      3  C2  UNL d   1      -1.583  -4.544   0.385  0.00  0.00     0.034 A 
ATOM      4  C3  UNL d   1      -0.433  -3.886   0.833  0.00  0.00     0.017 A 
ATOM      5  C4  UNL d   1      -0.549  -2.808   1.719  0.00  0.00     0.017 A 
ATOM      6  C5  UNL d   1      -1.814  -2.396   2.150  0.00  0.00     0.034 A 
ATOM      7 Cl   UNL d   1       0.825  -1.947   2.317  0.00  0.00    -0.070 Cl
ATOM      8 Cl1  UNL d   1       1.094  -4.453   0.256  0.00  0.00    -0.070 Cl
ENDROOT
TORSDOF 0
ENDMDL
