MODEL 1
REMARK minimizedAffinity 1.70108676
REMARK minimizedRMSD -1
REMARK  0 active torsions:
REMARK  status: ('A' for Active; 'I' for Inactive)
ROOT
ATOM      1  C   UNL d   1      -0.045   6.000  -5.975  0.00  0.00     0.020 A 
ATOM      2  C1  UNL d   1      -1.181   5.225  -5.743  0.00  0.00     0.020 A 
ATOM      3  C2  UNL d   1      -1.153   4.220  -4.774  0.00  0.00     0.034 A 
ATOM      4  C3  UNL d   1       0.012   3.986  -4.034  0.00  0.00     0.017 A 
ATOM      5  C4  UNL d   1       1.151   4.764  -4.269  0.00  0.00     0.017 A 
ATOM      6  C5  UNL d   1       1.118   5.770  -5.240  0.00  0.00     0.034 A 
ATOM      7 Cl   UNL d   1       2.626   4.535  -3.396  0.00  0.00    -0.070 Cl
ATOM      8 Cl1  UNL d   1      -0.026   2.727  -2.852  0.00  0.00    -0.070 Cl
ENDROOT
TORSDOF 0
ENDMDL
