MODEL 1
REMARK minimizedAffinity 2.63300514
REMARK minimizedRMSD -1
REMARK  0 active torsions:
REMARK  status: ('A' for Active; 'I' for Inactive)
ROOT
ATOM      1  C   UNL d   1       0.080   5.804  -5.859  0.00  0.00     0.020 A 
ATOM      2  C1  UNL d   1      -0.956   5.368  -5.033  0.00  0.00     0.020 A 
ATOM      3  C2  UNL d   1      -0.670   4.602  -3.901  0.00  0.00     0.034 A 
ATOM      4  C3  UNL d   1       0.653   4.269  -3.592  0.00  0.00     0.017 A 
ATOM      5  C4  UNL d   1       1.692   4.707  -4.421  0.00  0.00     0.017 A 
ATOM      6  C5  UNL d   1       1.401   5.474  -5.554  0.00  0.00     0.034 A 
ATOM      7 Cl   UNL d   1       3.350   4.336  -4.105  0.00  0.00    -0.070 Cl
ATOM      8 Cl1  UNL d   1       0.933   3.319  -2.176  0.00  0.00    -0.070 Cl
ENDROOT
TORSDOF 0
ENDMDL
