MODEL 1
REMARK minimizedAffinity 4.80319214
REMARK minimizedRMSD -1
REMARK  0 active torsions:
REMARK  status: ('A' for Active; 'I' for Inactive)
ROOT
ATOM      1  C   UNL d   1      -3.737  -1.236   0.940  0.00  0.00     0.020 A 
ATOM      2  C1  UNL d   1      -2.529  -1.446   1.606  0.00  0.00     0.020 A 
ATOM      3  C2  UNL d   1      -2.372  -1.006   2.921  0.00  0.00     0.034 A 
ATOM      4  C3  UNL d   1      -3.422  -0.353   3.576  0.00  0.00     0.017 A 
ATOM      5  C4  UNL d   1      -4.634  -0.142   2.907  0.00  0.00     0.017 A 
ATOM      6  C5  UNL d   1      -4.786  -0.585   1.590  0.00  0.00     0.034 A 
ATOM      7 Cl   UNL d   1      -5.975   0.656   3.649  0.00  0.00    -0.070 Cl
ATOM      8 Cl1  UNL d   1      -3.157   0.165   5.203  0.00  0.00    -0.070 Cl
ENDROOT
TORSDOF 0
ENDMDL
