MODEL 1
REMARK minimizedAffinity 3.33400178
REMARK minimizedRMSD -1
REMARK  0 active torsions:
REMARK  status: ('A' for Active; 'I' for Inactive)
ROOT
ATOM      1  C   UNL d   1      -0.120   6.000  -5.994  0.00  0.00     0.020 A 
ATOM      2  C1  UNL d   1      -1.011   5.768  -4.947  0.00  0.00     0.020 A 
ATOM      3  C2  UNL d   1      -0.614   5.001  -3.849  0.00  0.00     0.034 A 
ATOM      4  C3  UNL d   1       0.677   4.464  -3.795  0.00  0.00     0.017 A 
ATOM      5  C4  UNL d   1       1.571   4.698  -4.847  0.00  0.00     0.017 A 
ATOM      6  C5  UNL d   1       1.168   5.466  -5.944  0.00  0.00     0.034 A 
ATOM      7 Cl   UNL d   1       3.181   4.068  -4.852  0.00  0.00    -0.070 Cl
ATOM      8 Cl1  UNL d   1       1.101   3.526  -2.407  0.00  0.00    -0.070 Cl
ENDROOT
TORSDOF 0
ENDMDL
