MODEL 1
REMARK minimizedAffinity 5.55332375
REMARK minimizedRMSD -1
REMARK  0 active torsions:
REMARK  status: ('A' for Active; 'I' for Inactive)
ROOT
ATOM      1  C   UNL d   1      -5.997  -0.247  -5.769  0.00  0.00     0.020 A 
ATOM      2  C1  UNL d   1      -6.000   1.128  -6.000  0.00  0.00     0.020 A 
ATOM      3  C2  UNL d   1      -5.882   2.016  -4.928  0.00  0.00     0.034 A 
ATOM      4  C3  UNL d   1      -5.762   1.529  -3.621  0.00  0.00     0.017 A 
ATOM      5  C4  UNL d   1      -5.759   0.149  -3.391  0.00  0.00     0.017 A 
ATOM      6  C5  UNL d   1      -5.877  -0.735  -4.468  0.00  0.00     0.034 A 
ATOM      7 Cl   UNL d   1      -5.615  -0.526  -1.806  0.00  0.00    -0.070 Cl
ATOM      8 Cl1  UNL d   1      -5.620   2.685  -2.344  0.00  0.00    -0.070 Cl
ENDROOT
TORSDOF 0
ENDMDL
