MODEL 1
REMARK minimizedAffinity -0.945396125
REMARK minimizedRMSD -1
REMARK  0 active torsions:
REMARK  status: ('A' for Active; 'I' for Inactive)
ROOT
ATOM      1  C   UNL d   1      -6.000  -1.256  -4.602  0.00  0.00     0.020 A 
ATOM      2  C1  UNL d   1      -6.000  -0.066  -5.328  0.00  0.00     0.020 A 
ATOM      3  C2  UNL d   1      -6.000   1.160  -4.659  0.00  0.00     0.034 A 
ATOM      4  C3  UNL d   1      -6.000   1.199  -3.260  0.00  0.00     0.017 A 
ATOM      5  C4  UNL d   1      -6.000   0.004  -2.532  0.00  0.00     0.017 A 
ATOM      6  C5  UNL d   1      -6.000  -1.221  -3.207  0.00  0.00     0.034 A 
ATOM      7 Cl   UNL d   1      -5.999  -0.029  -0.804  0.00  0.00    -0.070 Cl
ATOM      8 Cl1  UNL d   1      -5.999   2.750  -2.499  0.00  0.00    -0.070 Cl
ENDROOT
TORSDOF 0
ENDMDL
