MODEL 1
REMARK minimizedAffinity 2.42362905
REMARK minimizedRMSD -1
REMARK  0 active torsions:
REMARK  status: ('A' for Active; 'I' for Inactive)
ROOT
ATOM      1  C   UNL d   1      -1.370   4.948  -5.166  0.00  0.00     0.020 A 
ATOM      2  C1  UNL d   1      -0.304   5.603  -5.782  0.00  0.00     0.020 A 
ATOM      3  C2  UNL d   1       1.005   5.346  -5.370  0.00  0.00     0.034 A 
ATOM      4  C3  UNL d   1       1.252   4.433  -4.338  0.00  0.00     0.017 A 
ATOM      5  C4  UNL d   1       0.182   3.776  -3.721  0.00  0.00     0.017 A 
ATOM      6  C5  UNL d   1      -1.127   4.037  -4.137  0.00  0.00     0.034 A 
ATOM      7 Cl   UNL d   1       0.407   2.636  -2.441  0.00  0.00    -0.070 Cl
ATOM      8 Cl1  UNL d   1       2.896   4.163  -3.880  0.00  0.00    -0.070 Cl
ENDROOT
TORSDOF 0
ENDMDL
