MODEL 1
REMARK minimizedAffinity 2.93173885
REMARK minimizedRMSD -1
REMARK  0 active torsions:
REMARK  status: ('A' for Active; 'I' for Inactive)
ROOT
ATOM      1  C   UNL d   1      -1.509   5.336  -5.021  0.00  0.00     0.020 A 
ATOM      2  C1  UNL d   1      -0.580   5.835  -5.933  0.00  0.00     0.020 A 
ATOM      3  C2  UNL d   1       0.769   5.496  -5.812  0.00  0.00     0.034 A 
ATOM      4  C3  UNL d   1       1.194   4.656  -4.776  0.00  0.00     0.017 A 
ATOM      5  C4  UNL d   1       0.260   4.155  -3.861  0.00  0.00     0.017 A 
ATOM      6  C5  UNL d   1      -1.089   4.498  -3.987  0.00  0.00     0.034 A 
ATOM      7 Cl   UNL d   1       0.708   3.113  -2.557  0.00  0.00    -0.070 Cl
ATOM      8 Cl1  UNL d   1       2.877   4.278  -4.687  0.00  0.00    -0.070 Cl
ENDROOT
TORSDOF 0
ENDMDL
