MODEL 1
REMARK minimizedAffinity 9.85922146
REMARK minimizedRMSD -1
REMARK  0 active torsions:
REMARK  status: ('A' for Active; 'I' for Inactive)
ROOT
ATOM      1  C   UNL d   1      -4.204  -5.979  -5.996  0.00  0.00     0.020 A 
ATOM      2  C1  UNL d   1      -5.552  -5.624  -5.995  0.00  0.00     0.020 A 
ATOM      3  C2  UNL d   1      -6.000  -4.582  -5.180  0.00  0.00     0.034 A 
ATOM      4  C3  UNL d   1      -5.098  -3.891  -4.362  0.00  0.00     0.017 A 
ATOM      5  C4  UNL d   1      -3.745  -4.248  -4.364  0.00  0.00     0.017 A 
ATOM      6  C5  UNL d   1      -3.302  -5.292  -5.182  0.00  0.00     0.034 A 
ATOM      7 Cl   UNL d   1      -2.573  -3.442  -3.382  0.00  0.00    -0.070 Cl
ATOM      8 Cl1  UNL d   1      -5.721  -2.613  -3.380  0.00  0.00    -0.070 Cl
ENDROOT
TORSDOF 0
ENDMDL
