MODEL 1
REMARK minimizedAffinity 4.19743776
REMARK minimizedRMSD -1
REMARK  0 active torsions:
REMARK  status: ('A' for Active; 'I' for Inactive)
ROOT
ATOM      1  C   UNL d   1      -5.990   0.636  -5.932  0.00  0.00     0.020 A 
ATOM      2  C1  UNL d   1      -5.990   2.029  -5.999  0.00  0.00     0.020 A 
ATOM      3  C2  UNL d   1      -5.985   2.784  -4.824  0.00  0.00     0.034 A 
ATOM      4  C3  UNL d   1      -5.979   2.147  -3.578  0.00  0.00     0.017 A 
ATOM      5  C4  UNL d   1      -5.979   0.749  -3.512  0.00  0.00     0.017 A 
ATOM      6  C5  UNL d   1      -5.984  -0.002  -4.691  0.00  0.00     0.034 A 
ATOM      7 Cl   UNL d   1      -5.972  -0.108  -2.011  0.00  0.00    -0.070 Cl
ATOM      8 Cl1  UNL d   1      -5.972   3.144  -2.166  0.00  0.00    -0.070 Cl
ENDROOT
TORSDOF 0
ENDMDL
