MODEL 1
REMARK minimizedAffinity 6.86372471
REMARK minimizedRMSD -1
REMARK  0 active torsions:
REMARK  status: ('A' for Active; 'I' for Inactive)
ROOT
ATOM      1  C   UNL d   1      -5.991  -0.391  -5.508  0.00  0.00     0.020 A 
ATOM      2  C1  UNL d   1      -5.968   0.914  -5.998  0.00  0.00     0.020 A 
ATOM      3  C2  UNL d   1      -5.945   1.992  -5.111  0.00  0.00     0.034 A 
ATOM      4  C3  UNL d   1      -5.944   1.767  -3.729  0.00  0.00     0.017 A 
ATOM      5  C4  UNL d   1      -5.967   0.457  -3.239  0.00  0.00     0.017 A 
ATOM      6  C5  UNL d   1      -5.990  -0.619  -4.131  0.00  0.00     0.034 A 
ATOM      7 Cl   UNL d   1      -5.967   0.101  -1.547  0.00  0.00    -0.070 Cl
ATOM      8 Cl1  UNL d   1      -5.914   3.148  -2.691  0.00  0.00    -0.070 Cl
ENDROOT
TORSDOF 0
ENDMDL
