MODEL 1
REMARK minimizedAffinity 9.53935814
REMARK minimizedRMSD -1
REMARK  0 active torsions:
REMARK  status: ('A' for Active; 'I' for Inactive)
ROOT
ATOM      1  C   UNL d   1       2.995  -0.814  -0.391  0.00  0.00     0.020 A 
ATOM      2  C1  UNL d   1       2.811  -0.577   0.971  0.00  0.00     0.020 A 
ATOM      3  C2  UNL d   1       2.205   0.606   1.398  0.00  0.00     0.034 A 
ATOM      4  C3  UNL d   1       1.781   1.557   0.463  0.00  0.00     0.017 A 
ATOM      5  C4  UNL d   1       1.966   1.319  -0.903  0.00  0.00     0.017 A 
ATOM      6  C5  UNL d   1       2.573   0.132  -1.326  0.00  0.00     0.034 A 
ATOM      7 Cl   UNL d   1       1.469   2.446  -2.116  0.00  0.00    -0.070 Cl
ATOM      8 Cl1  UNL d   1       1.039   2.998   1.063  0.00  0.00    -0.070 Cl
ENDROOT
TORSDOF 0
ENDMDL
