MODEL 1
REMARK minimizedAffinity 2.24471521
REMARK minimizedRMSD -1
REMARK  0 active torsions:
REMARK  status: ('A' for Active; 'I' for Inactive)
ROOT
ATOM      1  C   UNL d   1      -4.903   4.866  -1.268  0.00  0.00     0.020 A 
ATOM      2  C1  UNL d   1      -4.871   4.753   0.121  0.00  0.00     0.020 A 
ATOM      3  C2  UNL d   1      -5.189   3.537   0.730  0.00  0.00     0.034 A 
ATOM      4  C3  UNL d   1      -5.542   2.430  -0.050  0.00  0.00     0.017 A 
ATOM      5  C4  UNL d   1      -5.574   2.545  -1.445  0.00  0.00     0.017 A 
ATOM      6  C5  UNL d   1      -5.254   3.764  -2.049  0.00  0.00     0.034 A 
ATOM      7 Cl   UNL d   1      -5.999   1.223  -2.474  0.00  0.00    -0.070 Cl
ATOM      8 Cl1  UNL d   1      -5.923   0.958   0.770  0.00  0.00    -0.070 Cl
ENDROOT
TORSDOF 0
ENDMDL
