MODEL 1
REMARK minimizedAffinity 4.6589694
REMARK minimizedRMSD -1
REMARK  0 active torsions:
REMARK  status: ('A' for Active; 'I' for Inactive)
ROOT
ATOM      1  C   UNL d   1      -0.617   5.688  -4.991  0.00  0.00     0.020 A 
ATOM      2  C1  UNL d   1       0.293   5.999  -6.000  0.00  0.00     0.020 A 
ATOM      3  C2  UNL d   1       1.596   5.502  -5.943  0.00  0.00     0.034 A 
ATOM      4  C3  UNL d   1       1.994   4.690  -4.874  0.00  0.00     0.017 A 
ATOM      5  C4  UNL d   1       1.079   4.378  -3.861  0.00  0.00     0.017 A 
ATOM      6  C5  UNL d   1      -0.225   4.879  -3.924  0.00  0.00     0.034 A 
ATOM      7 Cl   UNL d   1       1.496   3.383  -2.511  0.00  0.00    -0.070 Cl
ATOM      8 Cl1  UNL d   1       3.621   4.109  -4.868  0.00  0.00    -0.070 Cl
ENDROOT
TORSDOF 0
ENDMDL
