MODEL 1
REMARK minimizedAffinity 9.43515873
REMARK minimizedRMSD -1
REMARK  1 active torsions:
REMARK  status: ('A' for Active; 'I' for Inactive)
REMARK    1  A    between atoms: C1_2  and  C2_3 
ROOT
ATOM      1  C2  UNL d   1      -5.294  -2.363  -3.374  0.00  0.00    -0.076 A 
ATOM      2  C3  UNL d   1      -5.966  -3.552  -3.707  0.00  0.00     0.004 A 
ATOM      3  C4  UNL d   1      -5.938  -4.052  -5.008  0.00  0.00    -0.003 A 
ATOM      4  C5  UNL d   1      -5.237  -3.370  -5.997  0.00  0.00     0.000 A 
ATOM      5  C6  UNL d   1      -4.550  -2.199  -5.680  0.00  0.00     0.000 A 
ATOM      6  C7  UNL d   1      -4.554  -1.691  -4.370  0.00  0.00    -0.073 A 
ATOM      7  C8  UNL d   1      -3.801  -0.420  -4.086  0.00  0.00     0.078 C 
ENDROOT
BRANCH   1   8
ATOM      8  C1  UNL d   1      -5.382  -1.856  -1.952  0.00  0.00     0.053 C 
ATOM      9  C   UNL d   1      -4.188  -2.276  -1.108  0.00  0.00     0.018 C 
ENDBRANCH   1   8
TORSDOF 1
ENDMDL
