MODEL 1
REMARK minimizedAffinity 21.3704605
REMARK minimizedRMSD -1
REMARK  1 active torsions:
REMARK  status: ('A' for Active; 'I' for Inactive)
REMARK    1  A    between atoms: C1_2  and  C2_3 
ROOT
ATOM      1  C2  UNL d   1      -0.596   0.488   2.401  0.00  0.00    -0.076 A 
ATOM      2  C3  UNL d   1       0.442   0.644   3.337  0.00  0.00     0.004 A 
ATOM      3  C4  UNL d   1       1.063   1.878   3.520  0.00  0.00    -0.003 A 
ATOM      4  C5  UNL d   1       0.656   2.977   2.772  0.00  0.00     0.000 A 
ATOM      5  C6  UNL d   1      -0.384   2.845   1.852  0.00  0.00     0.000 A 
ATOM      6  C7  UNL d   1      -1.031   1.611   1.666  0.00  0.00    -0.073 A 
ATOM      7  C8  UNL d   1      -2.142   1.524   0.656  0.00  0.00     0.078 C 
ENDROOT
BRANCH   1   8
ATOM      8  C1  UNL d   1      -1.213  -0.881   2.225  0.00  0.00     0.053 C 
ATOM      9  C   UNL d   1      -2.542  -1.019   2.952  0.00  0.00     0.018 C 
ENDBRANCH   1   8
TORSDOF 1
ENDMDL
