MODEL 1
REMARK minimizedAffinity 1.20021641
REMARK minimizedRMSD -1
REMARK  1 active torsions:
REMARK  status: ('A' for Active; 'I' for Inactive)
REMARK    1  A    between atoms: C1_2  and  C2_3 
ROOT
ATOM      1  C2  UNL d   1      -5.398  -3.626  -4.314  0.00  0.00    -0.076 A 
ATOM      2  C3  UNL d   1      -6.000  -4.896  -4.349  0.00  0.00     0.004 A 
ATOM      3  C4  UNL d   1      -5.507  -5.901  -5.180  0.00  0.00    -0.003 A 
ATOM      4  C5  UNL d   1      -4.404  -5.652  -5.989  0.00  0.00     0.000 A 
ATOM      5  C6  UNL d   1      -3.783  -4.404  -5.954  0.00  0.00     0.000 A 
ATOM      6  C7  UNL d   1      -4.258  -3.385  -5.110  0.00  0.00    -0.073 A 
ATOM      7  C8  UNL d   1      -3.554  -2.055  -5.117  0.00  0.00     0.078 C 
ENDROOT
BRANCH   1   8
ATOM      8  C1  UNL d   1      -5.993  -2.567  -3.413  0.00  0.00     0.053 C 
ATOM      9  C   UNL d   1      -5.958  -2.965  -1.946  0.00  0.00     0.018 C 
ENDBRANCH   1   8
TORSDOF 1
ENDMDL
