MODEL 1
REMARK minimizedAffinity 4.89734173
REMARK minimizedRMSD -1
REMARK  1 active torsions:
REMARK  status: ('A' for Active; 'I' for Inactive)
REMARK    1  A    between atoms: C1_2  and  C2_3 
ROOT
ATOM      1  C2  UNL d   1      -4.803  -4.325   1.243  0.00  0.00    -0.076 A 
ATOM      2  C3  UNL d   1      -5.214  -3.483   2.291  0.00  0.00     0.004 A 
ATOM      3  C4  UNL d   1      -5.807  -2.249   2.031  0.00  0.00    -0.003 A 
ATOM      4  C5  UNL d   1      -6.000  -1.837   0.717  0.00  0.00     0.000 A 
ATOM      5  C6  UNL d   1      -5.615  -2.666  -0.336  0.00  0.00     0.000 A 
ATOM      6  C7  UNL d   1      -5.030  -3.920  -0.090  0.00  0.00    -0.073 A 
ATOM      7  C8  UNL d   1      -4.629  -4.772  -1.264  0.00  0.00     0.078 C 
ENDROOT
BRANCH   1   8
ATOM      8  C1  UNL d   1      -4.141  -5.640   1.586  0.00  0.00     0.053 C 
ATOM      9  C   UNL d   1      -3.014  -5.993   0.627  0.00  0.00     0.018 C 
ENDBRANCH   1   8
TORSDOF 1
ENDMDL
