MODEL 1
REMARK minimizedAffinity 3.09962869
REMARK minimizedRMSD -1
REMARK  1 active torsions:
REMARK  status: ('A' for Active; 'I' for Inactive)
REMARK    1  A    between atoms: C1_2  and  C2_3 
ROOT
ATOM      1  C2  UNL d   1      -5.206  -4.629   0.585  0.00  0.00    -0.076 A 
ATOM      2  C3  UNL d   1      -5.596  -4.582   1.935  0.00  0.00     0.004 A 
ATOM      3  C4  UNL d   1      -5.989  -3.383   2.528  0.00  0.00    -0.003 A 
ATOM      4  C5  UNL d   1      -6.000  -2.211   1.779  0.00  0.00     0.000 A 
ATOM      5  C6  UNL d   1      -5.634  -2.242   0.434  0.00  0.00     0.000 A 
ATOM      6  C7  UNL d   1      -5.251  -3.446  -0.183  0.00  0.00    -0.073 A 
ATOM      7  C8  UNL d   1      -4.860  -3.420  -1.635  0.00  0.00     0.078 C 
ENDROOT
BRANCH   1   8
ATOM      8  C1  UNL d   1      -4.764  -5.953   0.005  0.00  0.00     0.053 C 
ATOM      9  C   UNL d   1      -3.267  -6.000  -0.264  0.00  0.00     0.018 C 
ENDBRANCH   1   8
TORSDOF 1
ENDMDL
