MODEL 1
REMARK minimizedAffinity 15.0096941
REMARK minimizedRMSD -1
REMARK  1 active torsions:
REMARK  status: ('A' for Active; 'I' for Inactive)
REMARK    1  A    between atoms: C1_2  and  C2_3 
ROOT
ATOM      1  C2  UNL d   1       2.625   3.600  -4.176  0.00  0.00    -0.076 A 
ATOM      2  C3  UNL d   1       2.625   2.249  -3.788  0.00  0.00     0.004 A 
ATOM      3  C4  UNL d   1       1.969   1.837  -2.629  0.00  0.00    -0.003 A 
ATOM      4  C5  UNL d   1       1.303   2.768  -1.840  0.00  0.00     0.000 A 
ATOM      5  C6  UNL d   1       1.279   4.110  -2.220  0.00  0.00     0.000 A 
ATOM      6  C7  UNL d   1       1.921   4.540  -3.394  0.00  0.00    -0.073 A 
ATOM      7  C8  UNL d   1       1.867   6.000  -3.753  0.00  0.00     0.078 C 
ENDROOT
BRANCH   1   8
ATOM      8  C1  UNL d   1       3.376   3.993  -5.428  0.00  0.00     0.053 C 
ATOM      9  C   UNL d   1       4.873   4.127  -5.193  0.00  0.00     0.018 C 
ENDBRANCH   1   8
TORSDOF 1
ENDMDL
