MODEL 1
REMARK minimizedAffinity 16.0853653
REMARK minimizedRMSD -1
REMARK  1 active torsions:
REMARK  status: ('A' for Active; 'I' for Inactive)
REMARK    1  A    between atoms: C1_2  and  C2_3 
ROOT
ATOM      1  C2  UNL d   1       3.039   0.697  -5.089  0.00  0.00    -0.076 A 
ATOM      2  C3  UNL d   1       2.102   1.346  -4.266  0.00  0.00     0.004 A 
ATOM      3  C4  UNL d   1       1.259   0.620  -3.426  0.00  0.00    -0.003 A 
ATOM      4  C5  UNL d   1       1.342  -0.768  -3.394  0.00  0.00     0.000 A 
ATOM      5  C6  UNL d   1       2.278  -1.427  -4.190  0.00  0.00     0.000 A 
ATOM      6  C7  UNL d   1       3.145  -0.709  -5.031  0.00  0.00    -0.073 A 
ATOM      7  C8  UNL d   1       4.131  -1.472  -5.872  0.00  0.00     0.078 C 
ENDROOT
BRANCH   1   8
ATOM      8  C1  UNL d   1       3.907   1.536  -5.999  0.00  0.00     0.053 C 
ATOM      9  C   UNL d   1       3.766   3.026  -5.729  0.00  0.00     0.018 C 
ENDBRANCH   1   8
TORSDOF 1
ENDMDL
