MODEL 1
REMARK minimizedAffinity 15.2360172
REMARK minimizedRMSD -1
REMARK  1 active torsions:
REMARK  status: ('A' for Active; 'I' for Inactive)
REMARK    1  A    between atoms: C1_2  and  C2_3 
ROOT
ATOM      1  C2  UNL d   1       2.724   1.618  -4.813  0.00  0.00    -0.076 A 
ATOM      2  C3  UNL d   1       1.800   1.423  -5.854  0.00  0.00     0.004 A 
ATOM      3  C4  UNL d   1       1.123   0.213  -5.995  0.00  0.00    -0.003 A 
ATOM      4  C5  UNL d   1       1.360  -0.823  -5.098  0.00  0.00     0.000 A 
ATOM      5  C6  UNL d   1       2.261  -0.641  -4.049  0.00  0.00     0.000 A 
ATOM      6  C7  UNL d   1       2.939   0.579  -3.882  0.00  0.00    -0.073 A 
ATOM      7  C8  UNL d   1       3.904   0.717  -2.737  0.00  0.00     0.078 C 
ENDROOT
BRANCH   1   8
ATOM      8  C1  UNL d   1       3.448   2.942  -4.725  0.00  0.00     0.053 C 
ATOM      9  C   UNL d   1       4.779   2.929  -5.461  0.00  0.00     0.018 C 
ENDBRANCH   1   8
TORSDOF 1
ENDMDL
