MODEL 1
REMARK minimizedAffinity 16.1710167
REMARK minimizedRMSD -1
REMARK  1 active torsions:
REMARK  status: ('A' for Active; 'I' for Inactive)
REMARK    1  A    between atoms: C1_2  and  C2_3 
ROOT
ATOM      1  C2  UNL d   1       3.222   1.317  -4.815  0.00  0.00    -0.076 A 
ATOM      2  C3  UNL d   1       3.501   2.021  -5.999  0.00  0.00     0.004 A 
ATOM      3  C4  UNL d   1       3.658   3.406  -5.990  0.00  0.00    -0.003 A 
ATOM      4  C5  UNL d   1       3.538   4.109  -4.797  0.00  0.00     0.000 A 
ATOM      5  C6  UNL d   1       3.278   3.425  -3.610  0.00  0.00     0.000 A 
ATOM      6  C7  UNL d   1       3.134   2.027  -3.599  0.00  0.00    -0.073 A 
ATOM      7  C8  UNL d   1       2.849   1.341  -2.291  0.00  0.00     0.078 C 
ENDROOT
BRANCH   1   8
ATOM      8  C1  UNL d   1       3.036  -0.182  -4.890  0.00  0.00     0.053 C 
ATOM      9  C   UNL d   1       4.065  -0.853  -5.787  0.00  0.00     0.018 C 
ENDBRANCH   1   8
TORSDOF 1
ENDMDL
