MODEL 1
REMARK minimizedAffinity 10.3135004
REMARK minimizedRMSD -1
REMARK  1 active torsions:
REMARK  status: ('A' for Active; 'I' for Inactive)
REMARK    1  A    between atoms: C1_2  and  C2_3 
ROOT
ATOM      1  C2  UNL d   1       1.825  -5.523   2.505  0.00  0.00    -0.076 A 
ATOM      2  C3  UNL d   1       2.834  -5.541   1.527  0.00  0.00     0.004 A 
ATOM      3  C4  UNL d   1       4.164  -5.776   1.873  0.00  0.00    -0.003 A 
ATOM      4  C5  UNL d   1       4.506  -5.996   3.203  0.00  0.00     0.000 A 
ATOM      5  C6  UNL d   1       3.515  -5.998   4.184  0.00  0.00     0.000 A 
ATOM      6  C7  UNL d   1       2.167  -5.780   3.849  0.00  0.00    -0.073 A 
ATOM      7  C8  UNL d   1       1.140  -5.787   4.949  0.00  0.00     0.078 C 
ENDROOT
BRANCH   1   8
ATOM      8  C1  UNL d   1       0.404  -5.236   2.073  0.00  0.00     0.053 C 
ATOM      9  C   UNL d   1       0.328  -4.172   0.989  0.00  0.00     0.018 C 
ENDBRANCH   1   8
TORSDOF 1
ENDMDL
