MODEL 1
REMARK minimizedAffinity 7.07702923
REMARK minimizedRMSD -1
REMARK  1 active torsions:
REMARK  status: ('A' for Active; 'I' for Inactive)
REMARK    1  A    between atoms: C1_2  and  C2_3 
ROOT
ATOM      1  C2  UNL d   1      -3.442  -0.322   0.889  0.00  0.00    -0.076 A 
ATOM      2  C3  UNL d   1      -2.177  -0.839   1.220  0.00  0.00     0.004 A 
ATOM      3  C4  UNL d   1      -1.127   0.005   1.575  0.00  0.00    -0.003 A 
ATOM      4  C5  UNL d   1      -1.325   1.381   1.608  0.00  0.00     0.000 A 
ATOM      5  C6  UNL d   1      -2.577   1.911   1.300  0.00  0.00     0.000 A 
ATOM      6  C7  UNL d   1      -3.651   1.072   0.955  0.00  0.00    -0.073 A 
ATOM      7  C8  UNL d   1      -4.979   1.698   0.627  0.00  0.00     0.078 C 
ENDROOT
BRANCH   1   8
ATOM      8  C1  UNL d   1      -4.535  -1.285   0.485  0.00  0.00     0.053 C 
ATOM      9  C   UNL d   1      -3.989  -2.630   0.033  0.00  0.00     0.018 C 
ENDBRANCH   1   8
TORSDOF 1
ENDMDL
