MODEL 1
REMARK minimizedAffinity 10.6601734
REMARK minimizedRMSD -1
REMARK  1 active torsions:
REMARK  status: ('A' for Active; 'I' for Inactive)
REMARK    1  A    between atoms: C1_2  and  C2_3 
ROOT
ATOM      1  C2  UNL d   1      -3.258  -0.026   1.126  0.00  0.00    -0.076 A 
ATOM      2  C3  UNL d   1      -2.087  -0.774   1.342  0.00  0.00     0.004 A 
ATOM      3  C4  UNL d   1      -0.846  -0.149   1.453  0.00  0.00    -0.003 A 
ATOM      4  C5  UNL d   1      -0.756   1.235   1.352  0.00  0.00     0.000 A 
ATOM      5  C6  UNL d   1      -1.909   1.994   1.155  0.00  0.00     0.000 A 
ATOM      6  C7  UNL d   1      -3.170   1.381   1.057  0.00  0.00    -0.073 A 
ATOM      7  C8  UNL d   1      -4.379   2.248   0.840  0.00  0.00     0.078 C 
ENDROOT
BRANCH   1   8
ATOM      8  C1  UNL d   1      -4.572  -0.761   0.987  0.00  0.00     0.053 C 
ATOM      9  C   UNL d   1      -4.515  -1.862  -0.061  0.00  0.00     0.018 C 
ENDBRANCH   1   8
TORSDOF 1
ENDMDL
