MODEL 1
REMARK minimizedAffinity 14.4902124
REMARK minimizedRMSD -1
REMARK  1 active torsions:
REMARK  status: ('A' for Active; 'I' for Inactive)
REMARK    1  A    between atoms: C1_2  and  C2_3 
ROOT
ATOM      1  C2  UNL d   1      -1.134   1.582   2.398  0.00  0.00    -0.076 A 
ATOM      2  C3  UNL d   1      -0.982   0.275   1.901  0.00  0.00     0.004 A 
ATOM      3  C4  UNL d   1      -2.016  -0.355   1.211  0.00  0.00    -0.003 A 
ATOM      4  C5  UNL d   1      -3.219   0.311   1.006  0.00  0.00     0.000 A 
ATOM      5  C6  UNL d   1      -3.381   1.614   1.476  0.00  0.00     0.000 A 
ATOM      6  C7  UNL d   1      -2.343   2.270   2.160  0.00  0.00    -0.073 A 
ATOM      7  C8  UNL d   1      -2.575   3.672   2.650  0.00  0.00     0.078 C 
ENDROOT
BRANCH   1   8
ATOM      8  C1  UNL d   1       0.012   2.204   3.162  0.00  0.00     0.053 C 
ATOM      9  C   UNL d   1       1.085   2.771   2.245  0.00  0.00     0.018 C 
ENDBRANCH   1   8
TORSDOF 1
ENDMDL
