MODEL 1
REMARK minimizedAffinity 10.6533003
REMARK minimizedRMSD -1
REMARK  1 active torsions:
REMARK  status: ('A' for Active; 'I' for Inactive)
REMARK    1  A    between atoms: C1_2  and  C2_3 
ROOT
ATOM      1  C2  UNL d   1      -0.837   0.744   2.438  0.00  0.00    -0.076 A 
ATOM      2  C3  UNL d   1      -1.673   1.727   1.882  0.00  0.00     0.004 A 
ATOM      3  C4  UNL d   1      -2.894   1.387   1.301  0.00  0.00    -0.003 A 
ATOM      4  C5  UNL d   1      -3.298   0.057   1.268  0.00  0.00     0.000 A 
ATOM      5  C6  UNL d   1      -2.489  -0.930   1.831  0.00  0.00     0.000 A 
ATOM      6  C7  UNL d   1      -1.263  -0.601   2.435  0.00  0.00    -0.073 A 
ATOM      7  C8  UNL d   1      -0.428  -1.707   3.021  0.00  0.00     0.078 C 
ENDROOT
BRANCH   1   8
ATOM      8  C1  UNL d   1       0.488   1.170   3.030  0.00  0.00     0.053 C 
ATOM      9  C   UNL d   1       0.587   2.676   3.212  0.00  0.00     0.018 C 
ENDBRANCH   1   8
TORSDOF 1
ENDMDL
