MODEL 1
REMARK minimizedAffinity 1.56020153
REMARK minimizedRMSD -1
REMARK  1 active torsions:
REMARK  status: ('A' for Active; 'I' for Inactive)
REMARK    1  A    between atoms: C1_2  and  C2_3 
ROOT
ATOM      1  C2  UNL d   1      -2.935  -1.507   0.556  0.00  0.00    -0.076 A 
ATOM      2  C3  UNL d   1      -4.290  -1.146   0.656  0.00  0.00     0.004 A 
ATOM      3  C4  UNL d   1      -5.289  -1.951   0.111  0.00  0.00    -0.003 A 
ATOM      4  C5  UNL d   1      -4.949  -3.131  -0.541  0.00  0.00     0.000 A 
ATOM      5  C6  UNL d   1      -3.611  -3.514  -0.633  0.00  0.00     0.000 A 
ATOM      6  C7  UNL d   1      -2.593  -2.721  -0.075  0.00  0.00    -0.073 A 
ATOM      7  C8  UNL d   1      -1.166  -3.179  -0.210  0.00  0.00     0.078 C 
ENDROOT
BRANCH   1   8
ATOM      8  C1  UNL d   1      -1.893  -0.580   1.142  0.00  0.00     0.053 C 
ATOM      9  C   UNL d   1      -2.285   0.885   1.026  0.00  0.00     0.018 C 
ENDBRANCH   1   8
TORSDOF 1
ENDMDL
