MODEL 1
REMARK minimizedAffinity 13.9989109
REMARK minimizedRMSD -1
REMARK  1 active torsions:
REMARK  status: ('A' for Active; 'I' for Inactive)
REMARK    1  A    between atoms: C1_2  and  C2_3 
ROOT
ATOM      1  C2  UNL d   1       3.609  -0.442   2.559  0.00  0.00    -0.076 A 
ATOM      2  C3  UNL d   1       3.564   0.387   1.424  0.00  0.00     0.004 A 
ATOM      3  C4  UNL d   1       4.719   0.672   0.698  0.00  0.00    -0.003 A 
ATOM      4  C5  UNL d   1       5.938   0.134   1.095  0.00  0.00     0.000 A 
ATOM      5  C6  UNL d   1       5.998  -0.705   2.208  0.00  0.00     0.000 A 
ATOM      6  C7  UNL d   1       4.840  -1.016   2.941  0.00  0.00    -0.073 A 
ATOM      7  C8  UNL d   1       4.964  -1.921   4.136  0.00  0.00     0.078 C 
ENDROOT
BRANCH   1   8
ATOM      8  C1  UNL d   1       2.329  -0.695   3.323  0.00  0.00     0.053 C 
ATOM      9  C   UNL d   1       1.146   0.067   2.745  0.00  0.00     0.018 C 
ENDBRANCH   1   8
TORSDOF 1
ENDMDL
