MODEL 1
REMARK minimizedAffinity 5.98348379
REMARK minimizedRMSD -1
REMARK  1 active torsions:
REMARK  status: ('A' for Active; 'I' for Inactive)
REMARK    1  A    between atoms: C1_2  and  C2_3 
ROOT
ATOM      1  C2  UNL d   1      -1.688   0.414   2.508  0.00  0.00    -0.076 A 
ATOM      2  C3  UNL d   1      -1.853   0.937   1.214  0.00  0.00     0.004 A 
ATOM      3  C4  UNL d   1      -3.120   1.241   0.719  0.00  0.00    -0.003 A 
ATOM      4  C5  UNL d   1      -4.243   1.028   1.511  0.00  0.00     0.000 A 
ATOM      5  C6  UNL d   1      -4.096   0.526   2.804  0.00  0.00     0.000 A 
ATOM      6  C7  UNL d   1      -2.825   0.230   3.324  0.00  0.00    -0.073 A 
ATOM      7  C8  UNL d   1      -2.726  -0.315   4.723  0.00  0.00     0.078 C 
ENDROOT
BRANCH   1   8
ATOM      8  C1  UNL d   1      -0.292   0.077   2.981  0.00  0.00     0.053 C 
ATOM      9  C   UNL d   1       0.699   1.200   2.718  0.00  0.00     0.018 C 
ENDBRANCH   1   8
TORSDOF 1
ENDMDL
