MODEL 1
REMARK minimizedAffinity -4.14706135
REMARK minimizedRMSD -1
REMARK  3 active torsions:
REMARK  status: ('A' for Active; 'I' for Inactive)
REMARK    1  A    between atoms: C3'_2  and  C2'_3 
REMARK    2  A    between atoms: C2'_3  and  C1'_4 
REMARK    3  A    between atoms: C1'_4  and  C1_5 
ROOT
ATOM      1  C1  N4B d   1      -0.175  -1.121  -0.581  0.00  0.00    -0.075 A 
ATOM      2  C2  N4B d   1       0.230  -1.456   0.730  0.00  0.00     0.002 A 
ATOM      3  C3  N4B d   1      -0.638  -2.110   1.570  0.00  0.00     0.002 A 
ATOM      4  C4  N4B d   1      -1.916  -2.420   1.130  0.00  0.00    -0.004 A 
ATOM      5  C5  N4B d   1      -2.290  -2.116  -0.146  0.00  0.00     0.002 A 
ATOM      6  C6  N4B d   1      -1.427  -1.463  -1.003  0.00  0.00     0.002 A 
ENDROOT
BRANCH   1   7
ATOM      7  C1' N4B d   1       0.708  -0.331  -1.507  0.00  0.00     0.057 C 
BRANCH   7   8
ATOM      8  C2' N4B d   1       0.346   1.148  -1.404  0.00  0.00     0.009 C 
BRANCH   8   9
ATOM      9  C3' N4B d   1       0.497   1.864  -2.735  0.00  0.00     0.004 C 
ATOM     10  C4' N4B d   1       1.649   1.347  -3.545  0.00  0.00     0.003 C 
ENDBRANCH   8   9
ENDBRANCH   7   8
ENDBRANCH   1   7
TORSDOF 3
ENDMDL
