MODEL 1
REMARK minimizedAffinity -2.78201342
REMARK minimizedRMSD -1
REMARK  3 active torsions:
REMARK  status: ('A' for Active; 'I' for Inactive)
REMARK    1  A    between atoms: C3'_2  and  C2'_3 
REMARK    2  A    between atoms: C2'_3  and  C1'_4 
REMARK    3  A    between atoms: C1'_4  and  C1_5 
ROOT
ATOM      1  C1  N4B d   1      -0.518   0.524   0.048  0.00  0.00    -0.075 A 
ATOM      2  C2  N4B d   1      -1.909   0.321  -0.085  0.00  0.00     0.002 A 
ATOM      3  C3  N4B d   1      -2.427  -0.949  -0.017  0.00  0.00     0.002 A 
ATOM      4  C4  N4B d   1      -1.576  -2.029   0.163  0.00  0.00    -0.004 A 
ATOM      5  C5  N4B d   1      -0.236  -1.822   0.315  0.00  0.00     0.002 A 
ATOM      6  C6  N4B d   1       0.298  -0.551   0.254  0.00  0.00     0.002 A 
ENDROOT
BRANCH   1   7
ATOM      7  C1' N4B d   1       0.104   1.885  -0.105  0.00  0.00     0.057 C 
BRANCH   7   8
ATOM      8  C2' N4B d   1      -0.255   2.449  -1.476  0.00  0.00     0.009 C 
BRANCH   8   9
ATOM      9  C3' N4B d   1       0.843   2.202  -2.497  0.00  0.00     0.004 C 
ATOM     10  C4' N4B d   1       0.307   1.835  -3.849  0.00  0.00     0.003 C 
ENDBRANCH   8   9
ENDBRANCH   7   8
ENDBRANCH   1   7
TORSDOF 3
ENDMDL
