MODEL 1
REMARK minimizedAffinity -4.85360813
REMARK minimizedRMSD -1
REMARK  3 active torsions:
REMARK  status: ('A' for Active; 'I' for Inactive)
REMARK    1  A    between atoms: C3'_2  and  C2'_3 
REMARK    2  A    between atoms: C2'_3  and  C1'_4 
REMARK    3  A    between atoms: C1'_4  and  C1_5 
ROOT
ATOM      1  C1  N4B d   1      -0.393  -0.356   0.363  0.00  0.00    -0.075 A 
ATOM      2  C2  N4B d   1       0.341  -1.521   0.677  0.00  0.00     0.002 A 
ATOM      3  C3  N4B d   1      -0.319  -2.684   0.993  0.00  0.00     0.002 A 
ATOM      4  C4  N4B d   1      -1.706  -2.700   1.020  0.00  0.00    -0.004 A 
ATOM      5  C5  N4B d   1      -2.407  -1.577   0.690  0.00  0.00     0.002 A 
ATOM      6  C6  N4B d   1      -1.757  -0.403   0.366  0.00  0.00     0.002 A 
ENDROOT
BRANCH   1   7
ATOM      7  C1' N4B d   1       0.285   0.960   0.095  0.00  0.00     0.057 C 
BRANCH   7   8
ATOM      8  C2' N4B d   1       0.315   1.211  -1.410  0.00  0.00     0.009 C 
BRANCH   8   9
ATOM      9  C3' N4B d   1       1.675   1.699  -1.877  0.00  0.00     0.004 C 
ATOM     10  C4' N4B d   1       1.715   1.986  -3.349  0.00  0.00     0.003 C 
ENDBRANCH   8   9
ENDBRANCH   7   8
ENDBRANCH   1   7
TORSDOF 3
ENDMDL
