MODEL 1
REMARK minimizedAffinity -2.54212236
REMARK minimizedRMSD -1
REMARK  3 active torsions:
REMARK  status: ('A' for Active; 'I' for Inactive)
REMARK    1  A    between atoms: C3'_2  and  C2'_3 
REMARK    2  A    between atoms: C2'_3  and  C1'_4 
REMARK    3  A    between atoms: C1'_4  and  C1_5 
ROOT
ATOM      1  C1  N4B d   1      -0.192  -2.113   2.294  0.00  0.00    -0.075 A 
ATOM      2  C2  N4B d   1       0.730  -3.066   2.782  0.00  0.00     0.002 A 
ATOM      3  C3  N4B d   1       0.732  -3.399   4.114  0.00  0.00     0.002 A 
ATOM      4  C4  N4B d   1      -0.161  -2.783   4.977  0.00  0.00    -0.004 A 
ATOM      5  C5  N4B d   1      -1.065  -1.883   4.494  0.00  0.00     0.002 A 
ATOM      6  C6  N4B d   1      -1.081  -1.541   3.157  0.00  0.00     0.002 A 
ENDROOT
BRANCH   1   7
ATOM      7  C1' N4B d   1      -0.175  -1.653   0.862  0.00  0.00     0.057 C 
BRANCH   7   8
ATOM      8  C2' N4B d   1       1.145  -0.942   0.580  0.00  0.00     0.009 C 
BRANCH   8   9
ATOM      9  C3' N4B d   1       1.028   0.563   0.754  0.00  0.00     0.004 C 
ATOM     10  C4' N4B d   1       2.352   1.223   1.005  0.00  0.00     0.003 C 
ENDBRANCH   8   9
ENDBRANCH   7   8
ENDBRANCH   1   7
TORSDOF 3
ENDMDL
