MODEL 1
REMARK minimizedAffinity -2.75454473
REMARK minimizedRMSD -1
REMARK  3 active torsions:
REMARK  status: ('A' for Active; 'I' for Inactive)
REMARK    1  A    between atoms: C3'_2  and  C2'_3 
REMARK    2  A    between atoms: C2'_3  and  C1'_4 
REMARK    3  A    between atoms: C1'_4  and  C1_5 
ROOT
ATOM      1  C1  N4B d   1       0.317  -1.991   1.373  0.00  0.00    -0.075 A 
ATOM      2  C2  N4B d   1      -0.463  -0.870   1.732  0.00  0.00     0.002 A 
ATOM      3  C3  N4B d   1      -0.366   0.294   1.010  0.00  0.00     0.002 A 
ATOM      4  C4  N4B d   1       0.515   0.367  -0.059  0.00  0.00    -0.004 A 
ATOM      5  C5  N4B d   1       1.246  -0.729  -0.416  0.00  0.00     0.002 A 
ATOM      6  C6  N4B d   1       1.155  -1.906   0.299  0.00  0.00     0.002 A 
ENDROOT
BRANCH   1   7
ATOM      7  C1' N4B d   1       0.309  -3.257   2.184  0.00  0.00     0.057 C 
BRANCH   7   8
ATOM      8  C2' N4B d   1      -1.064  -3.430   2.829  0.00  0.00     0.009 C 
BRANCH   8   9
ATOM      9  C3' N4B d   1      -1.073  -2.971   4.277  0.00  0.00     0.004 C 
ATOM     10  C4' N4B d   1       0.305  -2.757   4.827  0.00  0.00     0.003 C 
ENDBRANCH   8   9
ENDBRANCH   7   8
ENDBRANCH   1   7
TORSDOF 3
ENDMDL
