MODEL 1
REMARK minimizedAffinity 6.27118874
REMARK minimizedRMSD -1
REMARK  3 active torsions:
REMARK  status: ('A' for Active; 'I' for Inactive)
REMARK    1  A    between atoms: C3'_2  and  C2'_3 
REMARK    2  A    between atoms: C2'_3  and  C1'_4 
REMARK    3  A    between atoms: C1'_4  and  C1_5 
ROOT
ATOM      1  C1  N4B d   1       0.844  -1.272   0.792  0.00  0.00    -0.075 A 
ATOM      2  C2  N4B d   1      -0.525  -0.974   0.969  0.00  0.00     0.002 A 
ATOM      3  C3  N4B d   1      -0.965   0.322   0.855  0.00  0.00     0.002 A 
ATOM      4  C4  N4B d   1      -0.057   1.334   0.584  0.00  0.00    -0.004 A 
ATOM      5  C5  N4B d   1       1.259   1.034   0.389  0.00  0.00     0.002 A 
ATOM      6  C6  N4B d   1       1.716  -0.264   0.496  0.00  0.00     0.002 A 
ENDROOT
BRANCH   1   7
ATOM      7  C1' N4B d   1       1.387  -2.661   0.991  0.00  0.00     0.057 C 
BRANCH   7   8
ATOM      8  C2' N4B d   1       0.534  -3.387   2.027  0.00  0.00     0.009 C 
BRANCH   8   9
ATOM      9  C3' N4B d   1       0.963  -3.060   3.447  0.00  0.00     0.004 C 
ATOM     10  C4' N4B d   1      -0.133  -2.429   4.253  0.00  0.00     0.003 C 
ENDBRANCH   8   9
ENDBRANCH   7   8
ENDBRANCH   1   7
TORSDOF 3
ENDMDL
