MODEL 1
REMARK minimizedAffinity 4.6686511
REMARK minimizedRMSD -1
REMARK  3 active torsions:
REMARK  status: ('A' for Active; 'I' for Inactive)
REMARK    1  A    between atoms: C3'_2  and  C2'_3 
REMARK    2  A    between atoms: C2'_3  and  C1'_4 
REMARK    3  A    between atoms: C1'_4  and  C1_5 
ROOT
ATOM      1  C1  N4B d   1       0.111  -2.462   2.844  0.00  0.00    -0.075 A 
ATOM      2  C2  N4B d   1       1.398  -3.024   2.988  0.00  0.00     0.002 A 
ATOM      3  C3  N4B d   1       1.698  -3.776   4.097  0.00  0.00     0.002 A 
ATOM      4  C4  N4B d   1       0.738  -3.963   5.080  0.00  0.00    -0.004 A 
ATOM      5  C5  N4B d   1      -0.511  -3.438   4.920  0.00  0.00     0.002 A 
ATOM      6  C6  N4B d   1      -0.828  -2.683   3.809  0.00  0.00     0.002 A 
ENDROOT
BRANCH   1   7
ATOM      7  C1' N4B d   1      -0.238  -1.561   1.690  0.00  0.00     0.057 C 
BRANCH   7   8
ATOM      8  C2' N4B d   1       1.009  -1.327   0.843  0.00  0.00     0.009 C 
BRANCH   8   9
ATOM      9  C3' N4B d   1       0.883  -0.087  -0.025  0.00  0.00     0.004 C 
ATOM     10  C4' N4B d   1      -0.417   0.633   0.178  0.00  0.00     0.003 C 
ENDBRANCH   8   9
ENDBRANCH   7   8
ENDBRANCH   1   7
TORSDOF 3
ENDMDL
