MODEL 1
REMARK minimizedAffinity 2.78005147
REMARK minimizedRMSD -1
REMARK  3 active torsions:
REMARK  status: ('A' for Active; 'I' for Inactive)
REMARK    1  A    between atoms: C3'_2  and  C2'_3 
REMARK    2  A    between atoms: C2'_3  and  C1'_4 
REMARK    3  A    between atoms: C1'_4  and  C1_5 
ROOT
ATOM      1  C1  N4B d   1       0.341  -2.419   2.050  0.00  0.00    -0.075 A 
ATOM      2  C2  N4B d   1       1.290  -3.368   2.489  0.00  0.00     0.002 A 
ATOM      3  C3  N4B d   1       1.407  -3.654   3.827  0.00  0.00     0.002 A 
ATOM      4  C4  N4B d   1       0.603  -2.993   4.743  0.00  0.00    -0.004 A 
ATOM      5  C5  N4B d   1      -0.329  -2.096   4.309  0.00  0.00     0.002 A 
ATOM      6  C6  N4B d   1      -0.460  -1.801   2.966  0.00  0.00     0.002 A 
ENDROOT
BRANCH   1   7
ATOM      7  C1' N4B d   1       0.236  -2.010   0.606  0.00  0.00     0.057 C 
BRANCH   7   8
ATOM      8  C2' N4B d   1      -0.011  -0.506   0.528  0.00  0.00     0.009 C 
BRANCH   8   9
ATOM      9  C3' N4B d   1      -1.198  -0.170  -0.359  0.00  0.00     0.004 C 
ATOM     10  C4' N4B d   1      -2.288  -1.197  -0.284  0.00  0.00     0.003 C 
ENDBRANCH   8   9
ENDBRANCH   7   8
ENDBRANCH   1   7
TORSDOF 3
ENDMDL
