MODEL 1
REMARK minimizedAffinity -2.50726509
REMARK minimizedRMSD -1
REMARK  3 active torsions:
REMARK  status: ('A' for Active; 'I' for Inactive)
REMARK    1  A    between atoms: C3'_2  and  C2'_3 
REMARK    2  A    between atoms: C2'_3  and  C1'_4 
REMARK    3  A    between atoms: C1'_4  and  C1_5 
ROOT
ATOM      1  C1  N4B d   1      -3.221  -3.617  -5.105  0.00  0.00    -0.075 A 
ATOM      2  C2  N4B d   1      -2.429  -4.785  -5.157  0.00  0.00     0.002 A 
ATOM      3  C3  N4B d   1      -2.971  -5.962  -5.612  0.00  0.00     0.002 A 
ATOM      4  C4  N4B d   1      -4.302  -6.000  -6.000  0.00  0.00    -0.004 A 
ATOM      5  C5  N4B d   1      -5.053  -4.861  -5.971  0.00  0.00     0.002 A 
ATOM      6  C6  N4B d   1      -4.520  -3.670  -5.520  0.00  0.00     0.002 A 
ENDROOT
BRANCH   1   7
ATOM      7  C1' N4B d   1      -2.697  -2.327  -4.535  0.00  0.00     0.057 C 
BRANCH   7   8
ATOM      8  C2' N4B d   1      -2.215  -2.570  -3.108  0.00  0.00     0.009 C 
BRANCH   8   9
ATOM      9  C3' N4B d   1      -3.089  -1.863  -2.086  0.00  0.00     0.004 C 
ATOM     10  C4' N4B d   1      -2.364  -1.569  -0.806  0.00  0.00     0.003 C 
ENDBRANCH   8   9
ENDBRANCH   7   8
ENDBRANCH   1   7
TORSDOF 3
ENDMDL
