MODEL 1
REMARK minimizedAffinity -7.10899162
REMARK minimizedRMSD -1
REMARK  0 active torsions:
REMARK  status: ('A' for Active; 'I' for Inactive)
ROOT
ATOM      1  C1  DEN d   1      -0.075  -0.420   0.621  0.00  0.00     0.130 A 
ATOM      2  C2  DEN d   1      -0.841  -0.509   1.862  0.00  0.00    -0.031 A 
ATOM      3  C3  DEN d   1      -1.443   0.814   2.122  0.00  0.00     0.027 A 
ATOM      4  C4  DEN d   1      -1.269   2.979   0.731  0.00  0.00     0.027 A 
ATOM      5  C5  DEN d   1      -0.719   3.547  -0.397  0.00  0.00    -0.003 A 
ATOM      6  C6  DEN d   1       0.104   2.848  -1.239  0.00  0.00     0.001 A 
ATOM      7  C7  DEN d   1       0.366   1.527  -0.991  0.00  0.00     0.017 A 
ATOM      8  C8  DEN d   1      -0.179   0.949   0.148  0.00  0.00    -0.094 A 
ATOM      9  C9  DEN d   1      -1.019   1.669   0.981  0.00  0.00    -0.072 A 
ENDROOT
TORSDOF 0
ENDMDL
