MODEL 1
REMARK minimizedAffinity 0.412594408
REMARK minimizedRMSD -1
REMARK  0 active torsions:
REMARK  status: ('A' for Active; 'I' for Inactive)
ROOT
ATOM      1  C1  DEN d   1       0.696  -2.870  -0.298  0.00  0.00     0.130 A 
ATOM      2  C2  DEN d   1       1.335  -2.958  -1.608  0.00  0.00    -0.031 A 
ATOM      3  C3  DEN d   1       1.316  -1.613  -2.216  0.00  0.00     0.027 A 
ATOM      4  C4  DEN d   1       0.370   0.588  -1.259  0.00  0.00     0.027 A 
ATOM      5  C5  DEN d   1      -0.279   1.158  -0.186  0.00  0.00    -0.003 A 
ATOM      6  C6  DEN d   1      -0.675   0.425   0.901  0.00  0.00     0.001 A 
ATOM      7  C7  DEN d   1      -0.386  -0.913   0.960  0.00  0.00     0.017 A 
ATOM      8  C8  DEN d   1       0.261  -1.496  -0.122  0.00  0.00    -0.094 A 
ATOM      9  C9  DEN d   1       0.664  -0.736  -1.206  0.00  0.00    -0.072 A 
ENDROOT
TORSDOF 0
ENDMDL
