MODEL 1
REMARK minimizedAffinity -4.38920641
REMARK minimizedRMSD -1
REMARK  0 active torsions:
REMARK  status: ('A' for Active; 'I' for Inactive)
ROOT
ATOM      1  C1  DEN d   1      -1.475   2.102   0.156  0.00  0.00     0.130 A 
ATOM      2  C2  DEN d   1      -1.955   2.191   1.533  0.00  0.00    -0.031 A 
ATOM      3  C3  DEN d   1      -1.456   1.011   2.267  0.00  0.00     0.027 A 
ATOM      4  C4  DEN d   1       0.009  -0.932   1.412  0.00  0.00     0.027 A 
ATOM      5  C5  DEN d   1       0.655  -1.451   0.311  0.00  0.00    -0.003 A 
ATOM      6  C6  DEN d   1       0.608  -0.845  -0.916  0.00  0.00     0.001 A 
ATOM      7  C7  DEN d   1      -0.062   0.341  -1.062  0.00  0.00     0.017 A 
ATOM      8  C8  DEN d   1      -0.722   0.867   0.041  0.00  0.00    -0.094 A 
ATOM      9  C9  DEN d   1      -0.653   0.245   1.276  0.00  0.00    -0.072 A 
ENDROOT
TORSDOF 0
ENDMDL
