MODEL 1
REMARK minimizedAffinity -4.53406858
REMARK minimizedRMSD -1
REMARK  0 active torsions:
REMARK  status: ('A' for Active; 'I' for Inactive)
ROOT
ATOM      1  C1  DEN d   1       0.682   0.216  -1.111  0.00  0.00     0.130 A 
ATOM      2  C2  DEN d   1       1.235  -1.018  -0.560  0.00  0.00    -0.031 A 
ATOM      3  C3  DEN d   1       0.519  -1.318   0.696  0.00  0.00     0.027 A 
ATOM      4  C4  DEN d   1      -1.384  -0.001   1.835  0.00  0.00     0.027 A 
ATOM      5  C5  DEN d   1      -2.181   1.119   1.748  0.00  0.00    -0.003 A 
ATOM      6  C6  DEN d   1      -2.059   2.027   0.730  0.00  0.00     0.001 A 
ATOM      7  C7  DEN d   1      -1.147   1.807  -0.269  0.00  0.00     0.017 A 
ATOM      8  C8  DEN d   1      -0.334   0.684  -0.185  0.00  0.00    -0.094 A 
ATOM      9  C9  DEN d   1      -0.482  -0.228   0.846  0.00  0.00    -0.072 A 
ENDROOT
TORSDOF 0
ENDMDL
