MODEL 1
REMARK minimizedAffinity -3.49401426
REMARK minimizedRMSD -1
REMARK  0 active torsions:
REMARK  status: ('A' for Active; 'I' for Inactive)
ROOT
ATOM      1  C1  DEN d   1      -2.366   1.880   0.465  0.00  0.00     0.130 A 
ATOM      2  C2  DEN d   1      -2.147   2.260   1.858  0.00  0.00    -0.031 A 
ATOM      3  C3  DEN d   1      -0.924   1.581   2.330  0.00  0.00     0.027 A 
ATOM      4  C4  DEN d   1       0.648  -0.009   1.044  0.00  0.00     0.027 A 
ATOM      5  C5  DEN d   1       0.867  -0.639  -0.162  0.00  0.00    -0.003 A 
ATOM      6  C6  DEN d   1       0.012  -0.501  -1.223  0.00  0.00     0.001 A 
ATOM      7  C7  DEN d   1      -1.078   0.321  -1.115  0.00  0.00     0.017 A 
ATOM      8  C8  DEN d   1      -1.310   0.953   0.100  0.00  0.00    -0.094 A 
ATOM      9  C9  DEN d   1      -0.427   0.811   1.158  0.00  0.00    -0.072 A 
ENDROOT
TORSDOF 0
ENDMDL
