MODEL 1
REMARK minimizedAffinity -2.81685305
REMARK minimizedRMSD -1
REMARK  0 active torsions:
REMARK  status: ('A' for Active; 'I' for Inactive)
ROOT
ATOM      1  C1  DEN d   1       1.390  -0.937  -1.623  0.00  0.00     0.130 A 
ATOM      2  C2  DEN d   1       1.254  -2.053  -0.691  0.00  0.00    -0.031 A 
ATOM      3  C3  DEN d   1       0.318  -1.645   0.376  0.00  0.00     0.027 A 
ATOM      4  C4  DEN d   1      -0.931   0.592   0.670  0.00  0.00     0.027 A 
ATOM      5  C5  DEN d   1      -1.126   1.847   0.138  0.00  0.00    -0.003 A 
ATOM      6  C6  DEN d   1      -0.476   2.271  -0.990  0.00  0.00     0.001 A 
ATOM      7  C7  DEN d   1       0.368   1.416  -1.649  0.00  0.00     0.017 A 
ATOM      8  C8  DEN d   1       0.575   0.151  -1.114  0.00  0.00    -0.094 A 
ATOM      9  C9  DEN d   1      -0.102  -0.263   0.020  0.00  0.00    -0.072 A 
ENDROOT
TORSDOF 0
ENDMDL
