MODEL 1
REMARK minimizedAffinity -3.3285079
REMARK minimizedRMSD -1
REMARK  0 active torsions:
REMARK  status: ('A' for Active; 'I' for Inactive)
ROOT
ATOM      1  C1  DEN d   1       0.400  -0.411  -0.652  0.00  0.00     0.130 A 
ATOM      2  C2  DEN d   1       0.878  -1.293   0.410  0.00  0.00    -0.031 A 
ATOM      3  C3  DEN d   1       0.210  -0.899   1.666  0.00  0.00     0.027 A 
ATOM      4  C4  DEN d   1      -1.514   0.977   2.068  0.00  0.00     0.027 A 
ATOM      5  C5  DEN d   1      -2.221   1.998   1.473  0.00  0.00    -0.003 A 
ATOM      6  C6  DEN d   1      -2.079   2.308   0.147  0.00  0.00     0.001 A 
ATOM      7  C7  DEN d   1      -1.244   1.559  -0.640  0.00  0.00     0.017 A 
ATOM      8  C8  DEN d   1      -0.523   0.532  -0.045  0.00  0.00    -0.094 A 
ATOM      9  C9  DEN d   1      -0.689   0.227   1.295  0.00  0.00    -0.072 A 
ENDROOT
TORSDOF 0
ENDMDL
