MODEL 1
REMARK minimizedAffinity -2.78909135
REMARK minimizedRMSD -1
REMARK  0 active torsions:
REMARK  status: ('A' for Active; 'I' for Inactive)
ROOT
ATOM      1  C1  DEN d   1      -1.615   2.351   0.410  0.00  0.00     0.130 A 
ATOM      2  C2  DEN d   1      -2.338   1.939   1.610  0.00  0.00    -0.031 A 
ATOM      3  C3  DEN d   1      -1.829   0.614   2.017  0.00  0.00     0.027 A 
ATOM      4  C4  DEN d   1       0.001  -0.831   0.915  0.00  0.00     0.027 A 
ATOM      5  C5  DEN d   1       0.893  -0.906  -0.133  0.00  0.00    -0.003 A 
ATOM      6  C6  DEN d   1       0.986   0.075  -1.084  0.00  0.00     0.001 A 
ATOM      7  C7  DEN d   1       0.205   1.196  -0.982  0.00  0.00     0.017 A 
ATOM      8  C8  DEN d   1      -0.701   1.276   0.067  0.00  0.00    -0.094 A 
ATOM      9  C9  DEN d   1      -0.772   0.279   1.026  0.00  0.00    -0.072 A 
ENDROOT
TORSDOF 0
ENDMDL
