MODEL 1
REMARK minimizedAffinity -2.44707227
REMARK minimizedRMSD -1
REMARK  0 active torsions:
REMARK  status: ('A' for Active; 'I' for Inactive)
ROOT
ATOM      1  C1  DEN d   1      -1.888   1.119   1.717  0.00  0.00     0.130 A 
ATOM      2  C2  DEN d   1      -2.105   2.555   1.562  0.00  0.00    -0.031 A 
ATOM      3  C3  DEN d   1      -1.130   3.059   0.574  0.00  0.00     0.027 A 
ATOM      4  C4  DEN d   1       0.682   1.762  -0.726  0.00  0.00     0.027 A 
ATOM      5  C5  DEN d   1       1.255   0.525  -0.921  0.00  0.00    -0.003 A 
ATOM      6  C6  DEN d   1       0.847  -0.585  -0.230  0.00  0.00     0.001 A 
ATOM      7  C7  DEN d   1      -0.194  -0.489   0.655  0.00  0.00     0.017 A 
ATOM      8  C8  DEN d   1      -0.772   0.756   0.862  0.00  0.00    -0.094 A 
ATOM      9  C9  DEN d   1      -0.354   1.864   0.145  0.00  0.00    -0.072 A 
ENDROOT
TORSDOF 0
ENDMDL
