MODEL 1
REMARK minimizedAffinity -5.45286226
REMARK minimizedRMSD -1
REMARK  0 active torsions:
REMARK  status: ('A' for Active; 'I' for Inactive)
ROOT
ATOM      1  C1  DEN d   1       0.885  -0.063  -0.868  0.00  0.00     0.130 A 
ATOM      2  C2  DEN d   1       0.980  -1.242  -0.012  0.00  0.00    -0.031 A 
ATOM      3  C3  DEN d   1       0.234  -0.965   1.231  0.00  0.00     0.027 A 
ATOM      4  C4  DEN d   1      -1.058   1.162   1.909  0.00  0.00     0.027 A 
ATOM      5  C5  DEN d   1      -1.413   2.433   1.514  0.00  0.00    -0.003 A 
ATOM      6  C6  DEN d   1      -1.002   2.970   0.323  0.00  0.00     0.001 A 
ATOM      7  C7  DEN d   1      -0.248   2.215  -0.537  0.00  0.00     0.017 A 
ATOM      8  C8  DEN d   1       0.120   0.935  -0.143  0.00  0.00    -0.094 A 
ATOM      9  C9  DEN d   1      -0.317   0.407   1.060  0.00  0.00    -0.072 A 
ENDROOT
TORSDOF 0
ENDMDL
