MODEL 1
REMARK minimizedAffinity -4.60567093
REMARK minimizedRMSD -1
REMARK  0 active torsions:
REMARK  status: ('A' for Active; 'I' for Inactive)
ROOT
ATOM      1  C1  DEN d   1       0.765  -0.249  -0.860  0.00  0.00     0.130 A 
ATOM      2  C2  DEN d   1       1.563  -0.949   0.143  0.00  0.00    -0.031 A 
ATOM      3  C3  DEN d   1       0.967  -0.682   1.468  0.00  0.00     0.027 A 
ATOM      4  C4  DEN d   1      -1.106   0.734   2.059  0.00  0.00     0.027 A 
ATOM      5  C5  DEN d   1      -2.105   1.531   1.544  0.00  0.00    -0.003 A 
ATOM      6  C6  DEN d   1      -2.197   1.816   0.208  0.00  0.00     0.001 A 
ATOM      7  C7  DEN d   1      -1.299   1.262  -0.667  0.00  0.00     0.017 A 
ATOM      8  C8  DEN d   1      -0.285   0.464  -0.155  0.00  0.00    -0.094 A 
ATOM      9  C9  DEN d   1      -0.217   0.178   1.198  0.00  0.00    -0.072 A 
ENDROOT
TORSDOF 0
ENDMDL
