MODEL 1
REMARK minimizedAffinity -4.81857204
REMARK minimizedRMSD -1
REMARK  0 active torsions:
REMARK  status: ('A' for Active; 'I' for Inactive)
ROOT
ATOM      1  C1  DEN d   1      -1.464   3.236   0.926  0.00  0.00     0.130 A 
ATOM      2  C2  DEN d   1      -0.686   3.696  -0.220  0.00  0.00    -0.031 A 
ATOM      3  C3  DEN d   1       0.020   2.530  -0.790  0.00  0.00     0.027 A 
ATOM      4  C4  DEN d   1      -0.022   0.071  -0.015  0.00  0.00     0.027 A 
ATOM      5  C5  DEN d   1      -0.529  -0.803   0.921  0.00  0.00    -0.003 A 
ATOM      6  C6  DEN d   1      -1.350  -0.389   1.937  0.00  0.00     0.001 A 
ATOM      7  C7  DEN d   1      -1.724   0.926   2.013  0.00  0.00     0.017 A 
ATOM      8  C8  DEN d   1      -1.211   1.814   1.077  0.00  0.00    -0.094 A 
ATOM      9  C9  DEN d   1      -0.392   1.374   0.051  0.00  0.00    -0.072 A 
ENDROOT
TORSDOF 0
ENDMDL
