MODEL 1
REMARK minimizedAffinity -1.41998053
REMARK minimizedRMSD -1
REMARK  0 active torsions:
REMARK  status: ('A' for Active; 'I' for Inactive)
ROOT
ATOM      1  C1  DEN d   1       0.295  -1.570  -2.889  0.00  0.00     0.130 A 
ATOM      2  C2  DEN d   1       1.062  -2.761  -2.534  0.00  0.00    -0.031 A 
ATOM      3  C3  DEN d   1       1.221  -2.780  -1.066  0.00  0.00     0.027 A 
ATOM      4  C4  DEN d   1       0.354  -1.093   0.682  0.00  0.00     0.027 A 
ATOM      5  C5  DEN d   1      -0.339   0.084   0.859  0.00  0.00    -0.003 A 
ATOM      6  C6  DEN d   1      -0.836   0.804  -0.195  0.00  0.00     0.001 A 
ATOM      7  C7  DEN d   1      -0.686   0.330  -1.472  0.00  0.00     0.017 A 
ATOM      8  C8  DEN d   1       0.018  -0.852  -1.658  0.00  0.00    -0.094 A 
ATOM      9  C9  DEN d   1       0.502  -1.572  -0.579  0.00  0.00    -0.072 A 
ENDROOT
TORSDOF 0
ENDMDL
