MODEL 1
REMARK minimizedAffinity -1.86668742
REMARK minimizedRMSD -1
REMARK  1 active torsions:
REMARK  status: ('A' for Active; 'I' for Inactive)
REMARK    1  A    between atoms: C1_2  and  C2_3 
ROOT
ATOM      1  C2  UNL d   1       0.391  -0.940  -0.133  0.00  0.00    -0.073 A 
ATOM      2  C3  UNL d   1      -0.047  -0.141  -1.196  0.00  0.00    -0.002 A 
ATOM      3  C4  UNL d   1      -0.271  -0.702  -2.454  0.00  0.00     0.004 A 
ATOM      4  C5  UNL d   1      -0.067  -2.067  -2.660  0.00  0.00    -0.004 A 
ATOM      5  C6  UNL d   1       0.358  -2.884  -1.608  0.00  0.00    -0.075 A 
ATOM      6  C7  UNL d   1       0.584  -4.353  -1.814  0.00  0.00     0.076 C 
ATOM      7  C8  UNL d   1       0.584  -2.312  -0.348  0.00  0.00     0.001 A 
ENDROOT
BRANCH   1   8
ATOM      8  C1  UNL d   1       0.628  -0.340   1.229  0.00  0.00     0.053 C 
ATOM      9  C   UNL d   1      -0.660   0.156   1.865  0.00  0.00     0.018 C 
ENDBRANCH   1   8
TORSDOF 1
ENDMDL
