MODEL 1
REMARK minimizedAffinity -4.83729219
REMARK minimizedRMSD -1
REMARK  1 active torsions:
REMARK  status: ('A' for Active; 'I' for Inactive)
REMARK    1  A    between atoms: C1_2  and  C2_3 
ROOT
ATOM      1  C2  UNL d   1      -0.526   0.774   0.877  0.00  0.00    -0.073 A 
ATOM      2  C3  UNL d   1      -1.433   1.304   1.801  0.00  0.00    -0.002 A 
ATOM      3  C4  UNL d   1      -1.874   2.623   1.680  0.00  0.00     0.004 A 
ATOM      4  C5  UNL d   1      -1.419   3.421   0.631  0.00  0.00    -0.004 A 
ATOM      5  C6  UNL d   1      -0.522   2.906  -0.310  0.00  0.00    -0.075 A 
ATOM      6  C7  UNL d   1      -0.021   3.753  -1.443  0.00  0.00     0.076 C 
ATOM      7  C8  UNL d   1      -0.081   1.582  -0.180  0.00  0.00     0.001 A 
ENDROOT
BRANCH   1   8
ATOM      8  C1  UNL d   1      -0.051  -0.650   1.000  0.00  0.00     0.053 C 
ATOM      9  C   UNL d   1       0.922  -1.025  -0.106  0.00  0.00     0.018 C 
ENDBRANCH   1   8
TORSDOF 1
ENDMDL
