MODEL 1
REMARK minimizedAffinity -2.20874953
REMARK minimizedRMSD -1
REMARK  1 active torsions:
REMARK  status: ('A' for Active; 'I' for Inactive)
REMARK    1  A    between atoms: C1_2  and  C2_3 
ROOT
ATOM      1  C2  UNL d   1       0.415  -1.018  -1.005  0.00  0.00    -0.073 A 
ATOM      2  C3  UNL d   1       0.016  -1.095  -2.344  0.00  0.00    -0.002 A 
ATOM      3  C4  UNL d   1       0.171  -2.283  -3.059  0.00  0.00     0.004 A 
ATOM      4  C5  UNL d   1       0.718  -3.408  -2.441  0.00  0.00    -0.004 A 
ATOM      5  C6  UNL d   1       1.112  -3.354  -1.100  0.00  0.00    -0.075 A 
ATOM      6  C7  UNL d   1       1.704  -4.554  -0.421  0.00  0.00     0.076 C 
ATOM      7  C8  UNL d   1       0.955  -2.156  -0.390  0.00  0.00     0.001 A 
ENDROOT
BRANCH   1   8
ATOM      8  C1  UNL d   1       0.244   0.262  -0.227  0.00  0.00     0.053 C 
ATOM      9  C   UNL d   1      -0.538   0.047   1.059  0.00  0.00     0.018 C 
ENDBRANCH   1   8
TORSDOF 1
ENDMDL
