MODEL 1
REMARK minimizedAffinity -5.24579859
REMARK minimizedRMSD -1
REMARK  1 active torsions:
REMARK  status: ('A' for Active; 'I' for Inactive)
REMARK    1  A    between atoms: C1_2  and  C2_3 
ROOT
ATOM      1  C2  UNL d   1      -0.121   0.352   0.682  0.00  0.00    -0.073 A 
ATOM      2  C3  UNL d   1      -0.696   1.010   1.775  0.00  0.00    -0.002 A 
ATOM      3  C4  UNL d   1      -0.830   2.399   1.770  0.00  0.00     0.004 A 
ATOM      4  C5  UNL d   1      -0.400   3.142   0.671  0.00  0.00    -0.004 A 
ATOM      5  C6  UNL d   1       0.166   2.501  -0.436  0.00  0.00    -0.075 A 
ATOM      6  C7  UNL d   1       0.636   3.287  -1.625  0.00  0.00     0.076 C 
ATOM      7  C8  UNL d   1       0.301   1.107  -0.422  0.00  0.00     0.001 A 
ENDROOT
BRANCH   1   8
ATOM      8  C1  UNL d   1       0.021  -1.149   0.680  0.00  0.00     0.053 C 
ATOM      9  C   UNL d   1       0.350  -1.688  -0.703  0.00  0.00     0.018 C 
ENDBRANCH   1   8
TORSDOF 1
ENDMDL
