MODEL 1
REMARK minimizedAffinity -3.25069404
REMARK minimizedRMSD -1
REMARK  1 active torsions:
REMARK  status: ('A' for Active; 'I' for Inactive)
REMARK    1  A    between atoms: C1_2  and  C2_3 
ROOT
ATOM      1  C2  UNL d   1       0.346   0.717   0.295  0.00  0.00    -0.073 A 
ATOM      2  C3  UNL d   1      -0.214   0.303   1.509  0.00  0.00    -0.002 A 
ATOM      3  C4  UNL d   1      -0.659   1.244   2.438  0.00  0.00     0.004 A 
ATOM      4  C5  UNL d   1      -0.555   2.607   2.161  0.00  0.00    -0.004 A 
ATOM      5  C6  UNL d   1      -0.010   3.041   0.948  0.00  0.00    -0.075 A 
ATOM      6  C7  UNL d   1       0.111   4.503   0.635  0.00  0.00     0.076 C 
ATOM      7  C8  UNL d   1       0.437   2.089   0.021  0.00  0.00     0.001 A 
ENDROOT
BRANCH   1   8
ATOM      8  C1  UNL d   1       0.822  -0.296  -0.713  0.00  0.00     0.053 C 
ATOM      9  C   UNL d   1       1.074  -1.656  -0.080  0.00  0.00     0.018 C 
ENDBRANCH   1   8
TORSDOF 1
ENDMDL
