MODEL 1
REMARK minimizedAffinity -3.40918732
REMARK minimizedRMSD -1
REMARK  1 active torsions:
REMARK  status: ('A' for Active; 'I' for Inactive)
REMARK    1  A    between atoms: C1_2  and  C2_3 
ROOT
ATOM      1  C2  UNL d   1       0.608  -0.062   0.093  0.00  0.00    -0.073 A 
ATOM      2  C3  UNL d   1      -0.054  -0.855   1.038  0.00  0.00    -0.002 A 
ATOM      3  C4  UNL d   1      -0.846  -0.264   2.023  0.00  0.00     0.004 A 
ATOM      4  C5  UNL d   1      -0.990   1.122   2.071  0.00  0.00    -0.004 A 
ATOM      5  C6  UNL d   1      -0.346   1.931   1.129  0.00  0.00    -0.075 A 
ATOM      6  C7  UNL d   1      -0.488   3.424   1.168  0.00  0.00     0.076 C 
ATOM      7  C8  UNL d   1       0.450   1.330   0.144  0.00  0.00     0.001 A 
ENDROOT
BRANCH   1   8
ATOM      8  C1  UNL d   1       1.459  -0.696  -0.977  0.00  0.00     0.053 C 
ATOM      9  C   UNL d   1       1.004  -2.109  -1.304  0.00  0.00     0.018 C 
ENDBRANCH   1   8
TORSDOF 1
ENDMDL
