MODEL 1
REMARK minimizedAffinity -4.2777009
REMARK minimizedRMSD -1
REMARK  1 active torsions:
REMARK  status: ('A' for Active; 'I' for Inactive)
REMARK    1  A    between atoms: C1_2  and  C2_3 
ROOT
ATOM      1  C2  UNL d   1       0.097  -0.922   0.083  0.00  0.00    -0.073 A 
ATOM      2  C3  UNL d   1       1.425  -0.967  -0.357  0.00  0.00    -0.002 A 
ATOM      3  C4  UNL d   1       1.789  -1.802  -1.414  0.00  0.00     0.004 A 
ATOM      4  C5  UNL d   1       0.831  -2.594  -2.046  0.00  0.00    -0.004 A 
ATOM      5  C6  UNL d   1      -0.504  -2.554  -1.629  0.00  0.00    -0.075 A 
ATOM      6  C7  UNL d   1      -1.547  -3.402  -2.296  0.00  0.00     0.076 C 
ATOM      7  C8  UNL d   1      -0.861  -1.715  -0.565  0.00  0.00     0.001 A 
ENDROOT
BRANCH   1   8
ATOM      8  C1  UNL d   1      -0.302  -0.017   1.219  0.00  0.00     0.053 C 
ATOM      9  C   UNL d   1      -1.218  -0.718   2.211  0.00  0.00     0.018 C 
ENDBRANCH   1   8
TORSDOF 1
ENDMDL
