MODEL 1
REMARK minimizedAffinity -2.56127143
REMARK minimizedRMSD -1
REMARK  1 active torsions:
REMARK  status: ('A' for Active; 'I' for Inactive)
REMARK    1  A    between atoms: C1_2  and  C2_3 
ROOT
ATOM      1  C2  UNL d   1      -0.014  -0.432   0.453  0.00  0.00    -0.073 A 
ATOM      2  C3  UNL d   1       1.132   0.258   0.042  0.00  0.00    -0.002 A 
ATOM      3  C4  UNL d   1       1.891  -0.212  -1.030  0.00  0.00     0.004 A 
ATOM      4  C5  UNL d   1       1.510  -1.371  -1.705  0.00  0.00    -0.004 A 
ATOM      5  C6  UNL d   1       0.361  -2.069  -1.317  0.00  0.00    -0.075 A 
ATOM      6  C7  UNL d   1      -0.061  -3.318  -2.032  0.00  0.00     0.076 C 
ATOM      7  C8  UNL d   1      -0.395  -1.592  -0.238  0.00  0.00     0.001 A 
ENDROOT
BRANCH   1   8
ATOM      8  C1  UNL d   1      -0.841   0.075   1.607  0.00  0.00     0.053 C 
ATOM      9  C   UNL d   1      -0.667   1.571   1.818  0.00  0.00     0.018 C 
ENDBRANCH   1   8
TORSDOF 1
ENDMDL
