MODEL 1
REMARK minimizedAffinity -3.75035453
REMARK minimizedRMSD -1
REMARK  0 active torsions:
REMARK  status: ('A' for Active; 'I' for Inactive)
ROOT
ATOM      1  C   UNL d   1       5.448   5.782  -2.021  0.00  0.00     0.172 C 
ATOM      2  N   UNL d   1       4.789   5.016  -3.053  0.00  0.00    -0.070 N 
ATOM      3  C1  UNL d   1       5.412   4.352  -4.075  0.00  0.00    -0.004 A 
ATOM      4  C2  UNL d   1       4.439   3.747  -4.841  0.00  0.00    -0.047 A 
ATOM      5  C3  UNL d   1       3.187   4.059  -4.259  0.00  0.00    -0.047 A 
ATOM      6  C4  UNL d   1       3.433   4.846  -3.153  0.00  0.00    -0.004 A 
ENDROOT
TORSDOF 0
ENDMDL
