MODEL 1
REMARK minimizedAffinity -3.17128515
REMARK minimizedRMSD -1
REMARK  0 active torsions:
REMARK  status: ('A' for Active; 'I' for Inactive)
ROOT
ATOM      1  C   UNL d   1       5.954   5.938  -1.900  0.00  0.00     0.172 C 
ATOM      2  N   UNL d   1       5.337   5.279  -3.028  0.00  0.00    -0.070 N 
ATOM      3  C1  UNL d   1       5.999   4.603  -4.017  0.00  0.00    -0.004 A 
ATOM      4  C2  UNL d   1       5.059   4.122  -4.903  0.00  0.00    -0.047 A 
ATOM      5  C3  UNL d   1       3.787   4.525  -4.429  0.00  0.00    -0.047 A 
ATOM      6  C4  UNL d   1       3.989   5.240  -3.268  0.00  0.00    -0.004 A 
ENDROOT
TORSDOF 0
ENDMDL
