MODEL 1
REMARK minimizedAffinity 0.995443046
REMARK minimizedRMSD -1
REMARK  0 active torsions:
REMARK  status: ('A' for Active; 'I' for Inactive)
ROOT
ATOM      1  C   UNL d   1       2.695   4.490  -3.403  0.00  0.00     0.172 C 
ATOM      2  N   UNL d   1       4.017   4.791  -2.904  0.00  0.00    -0.070 N 
ATOM      3  C1  UNL d   1       4.652   6.000  -3.005  0.00  0.00    -0.004 A 
ATOM      4  C2  UNL d   1       5.888   5.877  -2.408  0.00  0.00    -0.047 A 
ATOM      5  C3  UNL d   1       6.000   4.549  -1.933  0.00  0.00    -0.047 A 
ATOM      6  C4  UNL d   1       4.827   3.898  -2.253  0.00  0.00    -0.004 A 
ENDROOT
TORSDOF 0
ENDMDL
