MODEL 1
REMARK minimizedAffinity 7.30485582
REMARK minimizedRMSD -1
REMARK  0 active torsions:
REMARK  status: ('A' for Active; 'I' for Inactive)
ROOT
ATOM      1  C   UNL d   1      -0.480  -1.882  -0.996  0.00  0.00     0.172 C 
ATOM      2  N   UNL d   1      -0.301  -2.480  -2.298  0.00  0.00    -0.070 N 
ATOM      3  C1  UNL d   1       0.902  -2.744  -2.896  0.00  0.00    -0.004 A 
ATOM      4  C2  UNL d   1       0.646  -3.314  -4.125  0.00  0.00    -0.047 A 
ATOM      5  C3  UNL d   1      -0.759  -3.394  -4.271  0.00  0.00    -0.047 A 
ATOM      6  C4  UNL d   1      -1.321  -2.871  -3.125  0.00  0.00    -0.004 A 
ENDROOT
TORSDOF 0
ENDMDL
