MODEL 1
REMARK minimizedAffinity -0.409051806
REMARK minimizedRMSD -1
REMARK  0 active torsions:
REMARK  status: ('A' for Active; 'I' for Inactive)
ROOT
ATOM      1  C   UNL d   1       2.671  -2.992  -4.131  0.00  0.00     0.172 C 
ATOM      2  N   UNL d   1       4.025  -2.808  -3.665  0.00  0.00    -0.070 N 
ATOM      3  C1  UNL d   1       4.767  -1.664  -3.799  0.00  0.00    -0.004 A 
ATOM      4  C2  UNL d   1       6.000  -1.891  -3.226  0.00  0.00    -0.047 A 
ATOM      5  C3  UNL d   1       5.999  -3.217  -2.732  0.00  0.00    -0.047 A 
ATOM      6  C4  UNL d   1       4.765  -3.762  -3.017  0.00  0.00    -0.004 A 
ENDROOT
TORSDOF 0
ENDMDL
