MODEL 1
REMARK minimizedAffinity 5.05116987
REMARK minimizedRMSD -1
REMARK  0 active torsions:
REMARK  status: ('A' for Active; 'I' for Inactive)
ROOT
ATOM      1  C   UNL d   1      -0.394  -1.734  -0.701  0.00  0.00     0.172 C 
ATOM      2  N   UNL d   1      -0.403  -2.359  -2.003  0.00  0.00    -0.070 N 
ATOM      3  C1  UNL d   1       0.576  -3.175  -2.503  0.00  0.00    -0.004 A 
ATOM      4  C2  UNL d   1       0.195  -3.565  -3.769  0.00  0.00    -0.047 A 
ATOM      5  C3  UNL d   1      -1.057  -2.961  -4.039  0.00  0.00    -0.047 A 
ATOM      6  C4  UNL d   1      -1.403  -2.220  -2.929  0.00  0.00    -0.004 A 
ENDROOT
TORSDOF 0
ENDMDL
