MODEL 1
REMARK minimizedAffinity -1.9608835
REMARK minimizedRMSD -1
REMARK  0 active torsions:
REMARK  status: ('A' for Active; 'I' for Inactive)
ROOT
ATOM      1  C   UNL d   1       3.580  -2.601  -4.036  0.00  0.00     0.172 C 
ATOM      2  N   UNL d   1       4.505  -2.986  -2.996  0.00  0.00    -0.070 N 
ATOM      3  C1  UNL d   1       5.247  -4.136  -2.974  0.00  0.00    -0.004 A 
ATOM      4  C2  UNL d   1       6.000  -4.130  -1.820  0.00  0.00    -0.047 A 
ATOM      5  C3  UNL d   1       5.698  -2.936  -1.123  0.00  0.00    -0.047 A 
ATOM      6  C4  UNL d   1       4.770  -2.246  -1.874  0.00  0.00    -0.004 A 
ENDROOT
TORSDOF 0
ENDMDL
