MODEL 1
REMARK minimizedAffinity 1.39624703
REMARK minimizedRMSD -1
REMARK  0 active torsions:
REMARK  status: ('A' for Active; 'I' for Inactive)
ROOT
ATOM      1  C   UNL d   1       5.998  -3.005  -1.490  0.00  0.00     0.172 C 
ATOM      2  N   UNL d   1       5.400  -2.762  -2.782  0.00  0.00    -0.070 N 
ATOM      3  C1  UNL d   1       6.000  -2.982  -3.993  0.00  0.00    -0.004 A 
ATOM      4  C2  UNL d   1       5.103  -2.628  -4.978  0.00  0.00    -0.047 A 
ATOM      5  C3  UNL d   1       3.924  -2.179  -4.336  0.00  0.00    -0.047 A 
ATOM      6  C4  UNL d   1       4.135  -2.273  -2.977  0.00  0.00    -0.004 A 
ENDROOT
TORSDOF 0
ENDMDL
