MODEL 1
REMARK minimizedAffinity 2.26725721
REMARK minimizedRMSD -1
REMARK  0 active torsions:
REMARK  status: ('A' for Active; 'I' for Inactive)
ROOT
ATOM      1  C   UNL d   1       5.995  -2.281  -1.300  0.00  0.00     0.172 C 
ATOM      2  N   UNL d   1       5.200  -2.365  -2.503  0.00  0.00    -0.070 N 
ATOM      3  C1  UNL d   1       5.665  -2.199  -3.780  0.00  0.00    -0.004 A 
ATOM      4  C2  UNL d   1       4.600  -2.357  -4.640  0.00  0.00    -0.047 A 
ATOM      5  C3  UNL d   1       3.455  -2.625  -3.852  0.00  0.00    -0.047 A 
ATOM      6  C4  UNL d   1       3.855  -2.624  -2.533  0.00  0.00    -0.004 A 
ENDROOT
TORSDOF 0
ENDMDL
