MODEL 1
REMARK minimizedAffinity -0.297466546
REMARK minimizedRMSD -1
REMARK  0 active torsions:
REMARK  status: ('A' for Active; 'I' for Inactive)
ROOT
ATOM      1  C   UNL d   1       0.743  -0.849  -1.653  0.00  0.00     0.172 C 
ATOM      2  N   UNL d   1       0.060  -2.088  -1.944  0.00  0.00    -0.070 N 
ATOM      3  C1  UNL d   1      -0.288  -2.534  -3.191  0.00  0.00    -0.004 A 
ATOM      4  C2  UNL d   1      -0.919  -3.751  -3.043  0.00  0.00    -0.047 A 
ATOM      5  C3  UNL d   1      -0.951  -4.046  -1.659  0.00  0.00    -0.047 A 
ATOM      6  C4  UNL d   1      -0.338  -3.000  -1.002  0.00  0.00    -0.004 A 
ENDROOT
TORSDOF 0
ENDMDL
