MODEL 1
REMARK minimizedAffinity 1.85940266
REMARK minimizedRMSD -1
REMARK  0 active torsions:
REMARK  status: ('A' for Active; 'I' for Inactive)
ROOT
ATOM      1  C   UNL d   1       5.994   3.103  -3.760  0.00  0.00     0.172 C 
ATOM      2  N   UNL d   1       5.365   4.118  -2.948  0.00  0.00    -0.070 N 
ATOM      3  C1  UNL d   1       4.053   4.126  -2.555  0.00  0.00    -0.004 A 
ATOM      4  C2  UNL d   1       3.847   5.258  -1.796  0.00  0.00    -0.047 A 
ATOM      5  C3  UNL d   1       5.077   5.954  -1.732  0.00  0.00    -0.047 A 
ATOM      6  C4  UNL d   1       6.000   5.226  -2.453  0.00  0.00    -0.004 A 
ENDROOT
TORSDOF 0
ENDMDL
