MODEL 1
REMARK minimizedAffinity 5.64711142
REMARK minimizedRMSD -1
REMARK  0 active torsions:
REMARK  status: ('A' for Active; 'I' for Inactive)
ROOT
ATOM      1  C   UNL d   1      -3.776   1.186   5.998  0.00  0.00     0.172 C 
ATOM      2  N   UNL d   1      -2.880   0.234   5.383  0.00  0.00    -0.070 N 
ATOM      3  C1  UNL d   1      -2.394   0.306   4.105  0.00  0.00    -0.004 A 
ATOM      4  C2  UNL d   1      -1.576  -0.785   3.902  0.00  0.00    -0.047 A 
ATOM      5  C3  UNL d   1      -1.571  -1.538   5.100  0.00  0.00    -0.047 A 
ATOM      6  C4  UNL d   1      -2.386  -0.885   6.000  0.00  0.00    -0.004 A 
ENDROOT
TORSDOF 0
ENDMDL
