MODEL 1
REMARK minimizedAffinity -1.17503619
REMARK minimizedRMSD -1
REMARK  0 active torsions:
REMARK  status: ('A' for Active; 'I' for Inactive)
ROOT
ATOM      1  C   UNL d   1       5.935   5.309  -4.293  0.00  0.00     0.172 C 
ATOM      2  N   UNL d   1       5.472   5.276  -2.926  0.00  0.00    -0.070 N 
ATOM      3  C1  UNL d   1       5.999   5.995  -1.887  0.00  0.00    -0.004 A 
ATOM      4  C2  UNL d   1       5.281   5.686  -0.752  0.00  0.00    -0.047 A 
ATOM      5  C3  UNL d   1       4.288   4.748  -1.121  0.00  0.00    -0.047 A 
ATOM      6  C4  UNL d   1       4.429   4.512  -2.473  0.00  0.00    -0.004 A 
ENDROOT
TORSDOF 0
ENDMDL
