MODEL 1
REMARK minimizedAffinity 4.90158844
REMARK minimizedRMSD -1
REMARK  0 active torsions:
REMARK  status: ('A' for Active; 'I' for Inactive)
ROOT
ATOM      1  C   UNL d   1       5.888  -4.217   5.102  0.00  0.00     0.172 C 
ATOM      2  N   UNL d   1       4.828  -3.355   4.633  0.00  0.00    -0.070 N 
ATOM      3  C1  UNL d   1       4.180  -3.468   3.432  0.00  0.00    -0.004 A 
ATOM      4  C2  UNL d   1       3.241  -2.462   3.363  0.00  0.00    -0.047 A 
ATOM      5  C3  UNL d   1       3.328  -1.719   4.564  0.00  0.00    -0.047 A 
ATOM      6  C4  UNL d   1       4.318  -2.293   5.332  0.00  0.00    -0.004 A 
ENDROOT
TORSDOF 0
ENDMDL
