MODEL 1
REMARK minimizedAffinity 4.36942244
REMARK minimizedRMSD -1
REMARK  0 active torsions:
REMARK  status: ('A' for Active; 'I' for Inactive)
ROOT
ATOM      1  C   UNL d   1       4.094  -2.133  -3.708  0.00  0.00     0.172 C 
ATOM      2  N   UNL d   1       4.595  -0.855  -4.155  0.00  0.00    -0.070 N 
ATOM      3  C1  UNL d   1       5.895  -0.432  -4.068  0.00  0.00    -0.004 A 
ATOM      4  C2  UNL d   1       5.962   0.837  -4.601  0.00  0.00    -0.047 A 
ATOM      5  C3  UNL d   1       4.658   1.190  -5.022  0.00  0.00    -0.047 A 
ATOM      6  C4  UNL d   1       3.831   0.124  -4.734  0.00  0.00    -0.004 A 
ENDROOT
TORSDOF 0
ENDMDL
