MODEL 1
REMARK minimizedAffinity 3.27860236
REMARK minimizedRMSD -1
REMARK  0 active torsions:
REMARK  status: ('A' for Active; 'I' for Inactive)
ROOT
ATOM      1  C   UNL d   1       5.640   5.682  -1.274  0.00  0.00     0.172 C 
ATOM      2  N   UNL d   1       4.281   5.249  -1.498  0.00  0.00    -0.070 N 
ATOM      3  C1  UNL d   1       3.586   5.375  -2.671  0.00  0.00    -0.004 A 
ATOM      4  C2  UNL d   1       2.330   4.843  -2.477  0.00  0.00    -0.047 A 
ATOM      5  C3  UNL d   1       2.267   4.383  -1.140  0.00  0.00    -0.047 A 
ATOM      6  C4  UNL d   1       3.488   4.647  -0.557  0.00  0.00    -0.004 A 
ENDROOT
TORSDOF 0
ENDMDL
