MODEL 1
REMARK minimizedAffinity -1.09821105
REMARK minimizedRMSD -1
REMARK  0 active torsions:
REMARK  status: ('A' for Active; 'I' for Inactive)
ROOT
ATOM      1  C1  BNZ d   1      -4.155   3.190  -5.993  0.00  0.00     0.000 A 
ATOM      2  C2  BNZ d   1      -5.341   3.876  -5.988  0.00  0.00     0.000 A 
ATOM      3  C3  BNZ d   1      -5.359   5.242  -6.000  0.00  0.00     0.000 A 
ATOM      4  C4  BNZ d   1      -4.194   5.921  -5.977  0.00  0.00     0.000 A 
ATOM      5  C5  BNZ d   1      -2.991   5.245  -5.972  0.00  0.00     0.000 A 
ATOM      6  C6  BNZ d   1      -2.976   3.869  -5.999  0.00  0.00     0.000 A 
ENDROOT
TORSDOF 0
ENDMDL
