MODEL 1
REMARK minimizedAffinity -1.07572508
REMARK minimizedRMSD -1
REMARK  0 active torsions:
REMARK  status: ('A' for Active; 'I' for Inactive)
ROOT
ATOM      1  C1  BNZ d   1      -5.066   3.303  -5.994  0.00  0.00     0.000 A 
ATOM      2  C2  BNZ d   1      -3.808   2.761  -5.996  0.00  0.00     0.000 A 
ATOM      3  C3  BNZ d   1      -2.701   3.562  -5.973  0.00  0.00     0.000 A 
ATOM      4  C4  BNZ d   1      -2.852   4.902  -5.989  0.00  0.00     0.000 A 
ATOM      5  C5  BNZ d   1      -4.113   5.464  -5.997  0.00  0.00     0.000 A 
ATOM      6  C6  BNZ d   1      -5.225   4.654  -5.980  0.00  0.00     0.000 A 
ENDROOT
TORSDOF 0
ENDMDL
