MODEL 1
REMARK minimizedAffinity -1.36752486
REMARK minimizedRMSD -1
REMARK  0 active torsions:
REMARK  status: ('A' for Active; 'I' for Inactive)
ROOT
ATOM      1  C1  BNZ d   1      -2.399  -0.080   1.285  0.00  0.00     0.000 A 
ATOM      2  C2  BNZ d   1      -2.750   1.240   1.187  0.00  0.00     0.000 A 
ATOM      3  C3  BNZ d   1      -1.818   2.191   0.879  0.00  0.00     0.000 A 
ATOM      4  C4  BNZ d   1      -0.530   1.826   0.709  0.00  0.00     0.000 A 
ATOM      5  C5  BNZ d   1      -0.159   0.501   0.814  0.00  0.00     0.000 A 
ATOM      6  C6  BNZ d   1      -1.108  -0.459   1.085  0.00  0.00     0.000 A 
ENDROOT
TORSDOF 0
ENDMDL
