MODEL 1
REMARK minimizedAffinity 6.06967068
REMARK minimizedRMSD -1
REMARK  0 active torsions:
REMARK  status: ('A' for Active; 'I' for Inactive)
ROOT
ATOM      1  C1  BNZ d   1      -2.748   3.011  -6.000  0.00  0.00     0.000 A 
ATOM      2  C2  BNZ d   1      -1.847   2.804  -4.989  0.00  0.00     0.000 A 
ATOM      3  C3  BNZ d   1      -1.725   3.703  -3.966  0.00  0.00     0.000 A 
ATOM      4  C4  BNZ d   1      -2.474   4.824  -3.976  0.00  0.00     0.000 A 
ATOM      5  C5  BNZ d   1      -3.380   5.051  -4.992  0.00  0.00     0.000 A 
ATOM      6  C6  BNZ d   1      -3.528   4.126  -6.000  0.00  0.00     0.000 A 
ENDROOT
TORSDOF 0
ENDMDL
