MODEL 1
REMARK minimizedAffinity -0.509386182
REMARK minimizedRMSD -1
REMARK  0 active torsions:
REMARK  status: ('A' for Active; 'I' for Inactive)
ROOT
ATOM      1  C1  BNZ d   1      -0.124   1.231   0.424  0.00  0.00     0.000 A 
ATOM      2  C2  BNZ d   1      -0.562  -0.016   0.064  0.00  0.00     0.000 A 
ATOM      3  C3  BNZ d   1      -1.777  -0.479   0.485  0.00  0.00     0.000 A 
ATOM      4  C4  BNZ d   1      -2.534   0.287   1.297  0.00  0.00     0.000 A 
ATOM      5  C5  BNZ d   1      -2.102   1.543   1.675  0.00  0.00     0.000 A 
ATOM      6  C6  BNZ d   1      -0.896   2.022   1.218  0.00  0.00     0.000 A 
ENDROOT
TORSDOF 0
ENDMDL
