MODEL 1
REMARK minimizedAffinity -1.51189566
REMARK minimizedRMSD -1
REMARK  0 active torsions:
REMARK  status: ('A' for Active; 'I' for Inactive)
ROOT
ATOM      1  C1  BNZ d   1      -0.392   2.571   1.122  0.00  0.00     0.000 A 
ATOM      2  C2  BNZ d   1      -0.866   1.367   0.674  0.00  0.00     0.000 A 
ATOM      3  C3  BNZ d   1      -0.019   0.313   0.472  0.00  0.00     0.000 A 
ATOM      4  C4  BNZ d   1       1.303   0.476   0.681  0.00  0.00     0.000 A 
ATOM      5  C5  BNZ d   1       1.797   1.686   1.125  0.00  0.00     0.000 A 
ATOM      6  C6  BNZ d   1       0.937   2.733   1.363  0.00  0.00     0.000 A 
ENDROOT
TORSDOF 0
ENDMDL
