MODEL 1
REMARK minimizedAffinity 6.65382481
REMARK minimizedRMSD -1
REMARK  0 active torsions:
REMARK  status: ('A' for Active; 'I' for Inactive)
ROOT
ATOM      1  C1  BNZ d   1       0.205   2.981   1.665  0.00  0.00     0.000 A 
ATOM      2  C2  BNZ d   1       0.105   2.036   0.679  0.00  0.00     0.000 A 
ATOM      3  C3  BNZ d   1       1.221   1.422   0.183  0.00  0.00     0.000 A 
ATOM      4  C4  BNZ d   1       2.437   1.783   0.643  0.00  0.00     0.000 A 
ATOM      5  C5  BNZ d   1       2.554   2.741   1.629  0.00  0.00     0.000 A 
ATOM      6  C6  BNZ d   1       1.426   3.329   2.154  0.00  0.00     0.000 A 
ENDROOT
TORSDOF 0
ENDMDL
