MODEL 1
REMARK minimizedAffinity 4.49495316
REMARK minimizedRMSD -1
REMARK  0 active torsions:
REMARK  status: ('A' for Active; 'I' for Inactive)
ROOT
ATOM      1  C1  BNZ d   1      -1.573   2.242   0.463  0.00  0.00     0.000 A 
ATOM      2  C2  BNZ d   1      -2.882   1.898   0.669  0.00  0.00     0.000 A 
ATOM      3  C3  BNZ d   1      -3.240   0.594   0.871  0.00  0.00     0.000 A 
ATOM      4  C4  BNZ d   1      -2.294  -0.367   0.829  0.00  0.00     0.000 A 
ATOM      5  C5  BNZ d   1      -0.971  -0.037   0.613  0.00  0.00     0.000 A 
ATOM      6  C6  BNZ d   1      -0.610   1.280   0.448  0.00  0.00     0.000 A 
ENDROOT
TORSDOF 0
ENDMDL
