MODEL 1
REMARK minimizedAffinity 0.36276561
REMARK minimizedRMSD -1
REMARK  0 active torsions:
REMARK  status: ('A' for Active; 'I' for Inactive)
ROOT
ATOM      1  C1  BNZ d   1      -0.167  -0.220   1.056  0.00  0.00     0.000 A 
ATOM      2  C2  BNZ d   1      -1.519  -0.121   0.865  0.00  0.00     0.000 A 
ATOM      3  C3  BNZ d   1      -2.107   1.092   0.638  0.00  0.00     0.000 A 
ATOM      4  C4  BNZ d   1      -1.350   2.207   0.643  0.00  0.00     0.000 A 
ATOM      5  C5  BNZ d   1       0.014   2.125   0.843  0.00  0.00     0.000 A 
ATOM      6  C6  BNZ d   1       0.608   0.899   1.032  0.00  0.00     0.000 A 
ENDROOT
TORSDOF 0
ENDMDL
