MODEL 1
REMARK minimizedAffinity -0.655552566
REMARK minimizedRMSD -1
REMARK  0 active torsions:
REMARK  status: ('A' for Active; 'I' for Inactive)
ROOT
ATOM      1  C1  BNZ d   1      -3.268   3.053  -5.989  0.00  0.00     0.000 A 
ATOM      2  C2  BNZ d   1      -3.603   4.380  -5.999  0.00  0.00     0.000 A 
ATOM      3  C3  BNZ d   1      -2.884   5.289  -5.273  0.00  0.00     0.000 A 
ATOM      4  C4  BNZ d   1      -1.858   4.864  -4.508  0.00  0.00     0.000 A 
ATOM      5  C5  BNZ d   1      -1.514   3.527  -4.480  0.00  0.00     0.000 A 
ATOM      6  C6  BNZ d   1      -2.215   2.621  -5.243  0.00  0.00     0.000 A 
ENDROOT
TORSDOF 0
ENDMDL
