MODEL 1
REMARK minimizedAffinity 1.94228029
REMARK minimizedRMSD -1
REMARK  0 active torsions:
REMARK  status: ('A' for Active; 'I' for Inactive)
ROOT
ATOM      1  C1  BNZ d   1      -0.088   2.891   1.647  0.00  0.00     0.000 A 
ATOM      2  C2  BNZ d   1       0.874   3.394   2.482  0.00  0.00     0.000 A 
ATOM      3  C3  BNZ d   1       2.168   2.960   2.400  0.00  0.00     0.000 A 
ATOM      4  C4  BNZ d   1       2.490   1.998   1.512  0.00  0.00     0.000 A 
ATOM      5  C5  BNZ d   1       1.530   1.474   0.670  0.00  0.00     0.000 A 
ATOM      6  C6  BNZ d   1       0.236   1.941   0.728  0.00  0.00     0.000 A 
ENDROOT
TORSDOF 0
ENDMDL
