MODEL 1
REMARK minimizedAffinity 3.73651958
REMARK minimizedRMSD -1
REMARK  0 active torsions:
REMARK  status: ('A' for Active; 'I' for Inactive)
ROOT
ATOM      1  C1  BNZ d   1      -2.033   1.719   2.888  0.00  0.00     0.000 A 
ATOM      2  C2  BNZ d   1      -1.724   2.704   1.988  0.00  0.00     0.000 A 
ATOM      3  C3  BNZ d   1      -1.563   2.416   0.662  0.00  0.00     0.000 A 
ATOM      4  C4  BNZ d   1      -1.672   1.138   0.243  0.00  0.00     0.000 A 
ATOM      5  C5  BNZ d   1      -1.975   0.133   1.139  0.00  0.00     0.000 A 
ATOM      6  C6  BNZ d   1      -2.174   0.433   2.467  0.00  0.00     0.000 A 
ENDROOT
TORSDOF 0
ENDMDL
