MODEL 1
REMARK minimizedAffinity 1.3168081
REMARK minimizedRMSD -1
REMARK  0 active torsions:
REMARK  status: ('A' for Active; 'I' for Inactive)
ROOT
ATOM      1  C1  BNZ d   1      -2.166   5.251  -4.184  0.00  0.00     0.000 A 
ATOM      2  C2  BNZ d   1      -2.016   3.890  -4.196  0.00  0.00     0.000 A 
ATOM      3  C3  BNZ d   1      -2.670   3.121  -5.117  0.00  0.00     0.000 A 
ATOM      4  C4  BNZ d   1      -3.503   3.710  -6.000  0.00  0.00     0.000 A 
ATOM      5  C5  BNZ d   1      -3.673   5.080  -5.995  0.00  0.00     0.000 A 
ATOM      6  C6  BNZ d   1      -2.982   5.854  -5.091  0.00  0.00     0.000 A 
ENDROOT
TORSDOF 0
ENDMDL
