MODEL 1
REMARK minimizedAffinity 1.11686718
REMARK minimizedRMSD -1
REMARK  0 active torsions:
REMARK  status: ('A' for Active; 'I' for Inactive)
ROOT
ATOM      1  C1  BNZ d   1      -2.927  -5.709  -0.260  0.00  0.00     0.000 A 
ATOM      2  C2  BNZ d   1      -1.790  -5.057  -0.654  0.00  0.00     0.000 A 
ATOM      3  C3  BNZ d   1      -1.761  -3.694  -0.748  0.00  0.00     0.000 A 
ATOM      4  C4  BNZ d   1      -2.880  -2.987  -0.487  0.00  0.00     0.000 A 
ATOM      5  C5  BNZ d   1      -4.038  -3.631  -0.097  0.00  0.00     0.000 A 
ATOM      6  C6  BNZ d   1      -4.052  -5.001   0.034  0.00  0.00     0.000 A 
ENDROOT
TORSDOF 0
ENDMDL
