MODEL 1
REMARK minimizedAffinity -3.40777993
REMARK minimizedRMSD -1
REMARK  0 active torsions:
REMARK  status: ('A' for Active; 'I' for Inactive)
ROOT
ATOM      1  C1  BNZ d   1      -1.328   1.178   0.726  0.00  0.00     0.000 A 
ATOM      2  C2  BNZ d   1      -1.126   2.466   1.144  0.00  0.00     0.000 A 
ATOM      3  C3  BNZ d   1       0.123   2.905   1.483  0.00  0.00     0.000 A 
ATOM      4  C4  BNZ d   1       1.161   2.044   1.443  0.00  0.00     0.000 A 
ATOM      5  C5  BNZ d   1       0.972   0.739   1.033  0.00  0.00     0.000 A 
ATOM      6  C6  BNZ d   1      -0.280   0.313   0.655  0.00  0.00     0.000 A 
ENDROOT
TORSDOF 0
ENDMDL
