MODEL 1
REMARK minimizedAffinity -1.21888041
REMARK minimizedRMSD -1
REMARK  0 active torsions:
REMARK  status: ('A' for Active; 'I' for Inactive)
ROOT
ATOM      1  C1  BNZ d   1      -0.581   2.565   1.306  0.00  0.00     0.000 A 
ATOM      2  C2  BNZ d   1       0.755   2.651   1.592  0.00  0.00     0.000 A 
ATOM      3  C3  BNZ d   1       1.604   1.623   1.289  0.00  0.00     0.000 A 
ATOM      4  C4  BNZ d   1       1.109   0.496   0.737  0.00  0.00     0.000 A 
ATOM      5  C5  BNZ d   1      -0.238   0.390   0.451  0.00  0.00     0.000 A 
ATOM      6  C6  BNZ d   1      -1.082   1.442   0.722  0.00  0.00     0.000 A 
ENDROOT
TORSDOF 0
ENDMDL
