MODEL 1
REMARK minimizedAffinity 3.39256763
REMARK minimizedRMSD -1
REMARK  0 active torsions:
REMARK  status: ('A' for Active; 'I' for Inactive)
ROOT
ATOM      1  C1  BNZ d   1      -4.589   3.133  -5.962  0.00  0.00     0.000 A 
ATOM      2  C2  BNZ d   1      -5.650   3.997  -5.962  0.00  0.00     0.000 A 
ATOM      3  C3  BNZ d   1      -5.452   5.349  -5.999  0.00  0.00     0.000 A 
ATOM      4  C4  BNZ d   1      -4.194   5.835  -5.996  0.00  0.00     0.000 A 
ATOM      5  C5  BNZ d   1      -3.113   4.976  -5.988  0.00  0.00     0.000 A 
ATOM      6  C6  BNZ d   1      -3.317   3.615  -5.989  0.00  0.00     0.000 A 
ENDROOT
TORSDOF 0
ENDMDL
