MODEL 1
REMARK minimizedAffinity 2.08116007
REMARK minimizedRMSD -1
REMARK  0 active torsions:
REMARK  status: ('A' for Active; 'I' for Inactive)
ROOT
ATOM      1  C1  BNZ d   1       3.140   2.195   1.161  0.00  0.00     0.000 A 
ATOM      2  C2  BNZ d   1       4.494   2.165   0.956  0.00  0.00     0.000 A 
ATOM      3  C3  BNZ d   1       5.336   2.914   1.730  0.00  0.00     0.000 A 
ATOM      4  C4  BNZ d   1       4.821   3.720   2.681  0.00  0.00     0.000 A 
ATOM      5  C5  BNZ d   1       3.458   3.768   2.894  0.00  0.00     0.000 A 
ATOM      6  C6  BNZ d   1       2.616   2.984   2.139  0.00  0.00     0.000 A 
ENDROOT
TORSDOF 0
ENDMDL
