MODEL 1
REMARK minimizedAffinity -1.15712154
REMARK minimizedRMSD -1
REMARK  0 active torsions:
REMARK  status: ('A' for Active; 'I' for Inactive)
ROOT
ATOM      1  C1  BNZ d   1      -0.077   2.740   1.100  0.00  0.00     0.000 A 
ATOM      2  C2  BNZ d   1      -1.384   2.336   1.036  0.00  0.00     0.000 A 
ATOM      3  C3  BNZ d   1      -1.702   1.017   0.875  0.00  0.00     0.000 A 
ATOM      4  C4  BNZ d   1      -0.715   0.108   0.739  0.00  0.00     0.000 A 
ATOM      5  C5  BNZ d   1       0.608   0.500   0.792  0.00  0.00     0.000 A 
ATOM      6  C6  BNZ d   1       0.924   1.824   0.993  0.00  0.00     0.000 A 
ENDROOT
TORSDOF 0
ENDMDL
