MODEL 1
REMARK minimizedAffinity 3.49695253
REMARK minimizedRMSD -1
REMARK  0 active torsions:
REMARK  status: ('A' for Active; 'I' for Inactive)
ROOT
ATOM      1  C1  BNZ d   1       0.056  -0.044   0.285  0.00  0.00     0.000 A 
ATOM      2  C2  BNZ d   1      -1.084  -0.786   0.441  0.00  0.00     0.000 A 
ATOM      3  C3  BNZ d   1      -2.298  -0.178   0.601  0.00  0.00     0.000 A 
ATOM      4  C4  BNZ d   1      -2.365   1.168   0.644  0.00  0.00     0.000 A 
ATOM      5  C5  BNZ d   1      -1.223   1.930   0.498  0.00  0.00     0.000 A 
ATOM      6  C6  BNZ d   1      -0.008   1.315   0.298  0.00  0.00     0.000 A 
ENDROOT
TORSDOF 0
ENDMDL
