MODEL 1
REMARK minimizedAffinity -0.898295164
REMARK minimizedRMSD -1
REMARK  0 active torsions:
REMARK  status: ('A' for Active; 'I' for Inactive)
ROOT
ATOM      1  C   UNL d   1       1.074  -2.278   4.211  0.00  0.00     0.172 C 
ATOM      2  N   UNL d   1       1.122  -1.436   3.039  0.00  0.00    -0.070 N 
ATOM      3  C1  UNL d   1       0.413  -1.633   1.884  0.00  0.00    -0.004 A 
ATOM      4  C2  UNL d   1       0.736  -0.616   1.012  0.00  0.00    -0.047 A 
ATOM      5  C3  UNL d   1       1.671   0.222   1.665  0.00  0.00    -0.047 A 
ATOM      6  C4  UNL d   1       1.892  -0.309   2.918  0.00  0.00    -0.004 A 
ENDROOT
TORSDOF 0
ENDMDL
