MODEL 1
REMARK minimizedAffinity 0.344373792
REMARK minimizedRMSD -1
REMARK  0 active torsions:
REMARK  status: ('A' for Active; 'I' for Inactive)
ROOT
ATOM      1  C   UNL d   1       0.794  -3.354  -0.109  0.00  0.00     0.172 C 
ATOM      2  N   UNL d   1       1.037  -2.753   1.181  0.00  0.00    -0.070 N 
ATOM      3  C1  UNL d   1       0.820  -1.440   1.504  0.00  0.00    -0.004 A 
ATOM      4  C2  UNL d   1       1.174  -1.267   2.824  0.00  0.00    -0.047 A 
ATOM      5  C3  UNL d   1       1.621  -2.518   3.312  0.00  0.00    -0.047 A 
ATOM      6  C4  UNL d   1       1.525  -3.420   2.273  0.00  0.00    -0.004 A 
ENDROOT
TORSDOF 0
ENDMDL
