MODEL 1
REMARK minimizedAffinity 1.72505951
REMARK minimizedRMSD -1
REMARK  0 active torsions:
REMARK  status: ('A' for Active; 'I' for Inactive)
ROOT
ATOM      1  C   UNL d   1      -4.638   2.283  -1.982  0.00  0.00     0.172 C 
ATOM      2  N   UNL d   1      -4.616   2.270  -0.539  0.00  0.00    -0.070 N 
ATOM      3  C1  UNL d   1      -5.424   1.510   0.265  0.00  0.00    -0.004 A 
ATOM      4  C2  UNL d   1      -5.093   1.783   1.575  0.00  0.00    -0.047 A 
ATOM      5  C3  UNL d   1      -4.052   2.741   1.558  0.00  0.00    -0.047 A 
ATOM      6  C4  UNL d   1      -3.776   3.024   0.237  0.00  0.00    -0.004 A 
ENDROOT
TORSDOF 0
ENDMDL
