MODEL 1
REMARK minimizedAffinity 2.99200845
REMARK minimizedRMSD -1
REMARK  0 active torsions:
REMARK  status: ('A' for Active; 'I' for Inactive)
ROOT
ATOM      1  C   UNL d   1       0.363  -2.099   0.876  0.00  0.00     0.172 C 
ATOM      2  N   UNL d   1       1.017  -1.804   2.129  0.00  0.00    -0.070 N 
ATOM      3  C1  UNL d   1       1.628  -0.621   2.451  0.00  0.00    -0.004 A 
ATOM      4  C2  UNL d   1       2.127  -0.739   3.730  0.00  0.00    -0.047 A 
ATOM      5  C3  UNL d   1       1.805  -2.038   4.192  0.00  0.00    -0.047 A 
ATOM      6  C4  UNL d   1       1.118  -2.675   3.181  0.00  0.00    -0.004 A 
ENDROOT
TORSDOF 0
ENDMDL
