MODEL 1
REMARK minimizedAffinity -0.805789292
REMARK minimizedRMSD -1
REMARK  0 active torsions:
REMARK  status: ('A' for Active; 'I' for Inactive)
ROOT
ATOM      1  C   UNL d   1      -6.000   1.574  -0.936  0.00  0.00     0.172 C 
ATOM      2  N   UNL d   1      -5.181   2.300   0.007  0.00  0.00    -0.070 N 
ATOM      3  C1  UNL d   1      -3.988   1.871   0.524  0.00  0.00    -0.004 A 
ATOM      4  C2  UNL d   1      -3.525   2.845   1.381  0.00  0.00    -0.047 A 
ATOM      5  C3  UNL d   1      -4.474   3.896   1.381  0.00  0.00    -0.047 A 
ATOM      6  C4  UNL d   1      -5.489   3.532   0.521  0.00  0.00    -0.004 A 
ENDROOT
TORSDOF 0
ENDMDL
