MODEL 1
REMARK minimizedAffinity 1.71179795
REMARK minimizedRMSD -1
REMARK  0 active torsions:
REMARK  status: ('A' for Active; 'I' for Inactive)
ROOT
ATOM      1  C   UNL d   1      -5.953  -2.607  -4.985  0.00  0.00     0.172 C 
ATOM      2  N   UNL d   1      -5.376  -3.900  -5.270  0.00  0.00    -0.070 N 
ATOM      3  C1  UNL d   1      -5.999  -4.925  -5.930  0.00  0.00    -0.004 A 
ATOM      4  C2  UNL d   1      -5.117  -5.981  -5.998  0.00  0.00    -0.047 A 
ATOM      5  C3  UNL d   1      -3.922  -5.578  -5.357  0.00  0.00    -0.047 A 
ATOM      6  C4  UNL d   1      -4.110  -4.285  -4.915  0.00  0.00    -0.004 A 
ENDROOT
TORSDOF 0
ENDMDL
