MODEL 1
REMARK minimizedAffinity 4.10631227
REMARK minimizedRMSD -1
REMARK  0 active torsions:
REMARK  status: ('A' for Active; 'I' for Inactive)
ROOT
ATOM      1  C   UNL d   1       0.452  -3.397   0.051  0.00  0.00     0.172 C 
ATOM      2  N   UNL d   1       0.848  -2.571   1.167  0.00  0.00    -0.070 N 
ATOM      3  C1  UNL d   1       1.167  -3.022   2.420  0.00  0.00    -0.004 A 
ATOM      4  C2  UNL d   1       1.489  -1.927   3.194  0.00  0.00    -0.047 A 
ATOM      5  C3  UNL d   1       1.357  -0.779   2.377  0.00  0.00    -0.047 A 
ATOM      6  C4  UNL d   1       0.959  -1.206   1.128  0.00  0.00    -0.004 A 
ENDROOT
TORSDOF 0
ENDMDL
