MODEL 1
REMARK minimizedAffinity -0.926967621
REMARK minimizedRMSD -1
REMARK  0 active torsions:
REMARK  status: ('A' for Active; 'I' for Inactive)
ROOT
ATOM      1  C   UNL d   1      -6.000   3.000  -0.751  0.00  0.00     0.172 C 
ATOM      2  N   UNL d   1      -4.968   3.302   0.213  0.00  0.00    -0.070 N 
ATOM      3  C1  UNL d   1      -3.668   2.878   0.151  0.00  0.00    -0.004 A 
ATOM      4  C2  UNL d   1      -3.007   3.377   1.252  0.00  0.00    -0.047 A 
ATOM      5  C3  UNL d   1      -3.943   4.127   2.004  0.00  0.00    -0.047 A 
ATOM      6  C4  UNL d   1      -5.149   4.064   1.338  0.00  0.00    -0.004 A 
ENDROOT
TORSDOF 0
ENDMDL
