MODEL 1
REMARK minimizedAffinity -3.79060006
REMARK minimizedRMSD -1
REMARK  0 active torsions:
REMARK  status: ('A' for Active; 'I' for Inactive)
ROOT
ATOM      1  C1  BNZ d   1      -1.916   1.475  -3.080  0.00  0.00     0.000 A 
ATOM      2  C2  BNZ d   1      -2.354   2.769  -3.163  0.00  0.00     0.000 A 
ATOM      3  C3  BNZ d   1      -1.713   3.770  -2.487  0.00  0.00     0.000 A 
ATOM      4  C4  BNZ d   1      -0.661   3.469  -1.699  0.00  0.00     0.000 A 
ATOM      5  C5  BNZ d   1      -0.213   2.168  -1.597  0.00  0.00     0.000 A 
ATOM      6  C6  BNZ d   1      -0.836   1.169  -2.309  0.00  0.00     0.000 A 
ENDROOT
TORSDOF 0
ENDMDL
