MODEL 1
REMARK minimizedAffinity -3.61116815
REMARK minimizedRMSD -1
REMARK  0 active torsions:
REMARK  status: ('A' for Active; 'I' for Inactive)
ROOT
ATOM      1  C1  BNZ d   1      -0.823   0.232  -0.213  0.00  0.00     0.000 A 
ATOM      2  C2  BNZ d   1      -1.156   0.163   1.113  0.00  0.00     0.000 A 
ATOM      3  C3  BNZ d   1      -0.322  -0.439   2.014  0.00  0.00     0.000 A 
ATOM      4  C4  BNZ d   1       0.823  -1.006   1.581  0.00  0.00     0.000 A 
ATOM      5  C5  BNZ d   1       1.168  -0.952   0.246  0.00  0.00     0.000 A 
ATOM      6  C6  BNZ d   1       0.345  -0.312  -0.652  0.00  0.00     0.000 A 
ENDROOT
TORSDOF 0
ENDMDL
