MODEL 1
REMARK minimizedAffinity -3.8991127
REMARK minimizedRMSD -1
REMARK  0 active torsions:
REMARK  status: ('A' for Active; 'I' for Inactive)
ROOT
ATOM      1  C1  BNZ d   1       1.352  -0.472   0.327  0.00  0.00     0.000 A 
ATOM      2  C2  BNZ d   1       1.234  -0.750   1.662  0.00  0.00     0.000 A 
ATOM      3  C3  BNZ d   1       0.027  -0.639   2.296  0.00  0.00     0.000 A 
ATOM      4  C4  BNZ d   1      -1.049  -0.214   1.603  0.00  0.00     0.000 A 
ATOM      5  C5  BNZ d   1      -0.943   0.079   0.258  0.00  0.00     0.000 A 
ATOM      6  C6  BNZ d   1       0.264  -0.071  -0.385  0.00  0.00     0.000 A 
ENDROOT
TORSDOF 0
ENDMDL
