MODEL 1
REMARK minimizedAffinity -3.51661873
REMARK minimizedRMSD -1
REMARK  0 active torsions:
REMARK  status: ('A' for Active; 'I' for Inactive)
ROOT
ATOM      1  C1  BNZ d   1       1.261  -0.516   1.235  0.00  0.00     0.000 A 
ATOM      2  C2  BNZ d   1       1.182  -0.542  -0.132  0.00  0.00     0.000 A 
ATOM      3  C3  BNZ d   1      -0.008  -0.326  -0.768  0.00  0.00     0.000 A 
ATOM      4  C4  BNZ d   1      -1.124  -0.126  -0.038  0.00  0.00     0.000 A 
ATOM      5  C5  BNZ d   1      -1.062  -0.106   1.341  0.00  0.00     0.000 A 
ATOM      6  C6  BNZ d   1       0.144  -0.285   1.978  0.00  0.00     0.000 A 
ENDROOT
TORSDOF 0
ENDMDL
