MODEL 1
REMARK minimizedAffinity -3.25848722
REMARK minimizedRMSD -1
REMARK  0 active torsions:
REMARK  status: ('A' for Active; 'I' for Inactive)
ROOT
ATOM      1  C1  BNZ d   1      -0.753   0.142  -0.879  0.00  0.00     0.000 A 
ATOM      2  C2  BNZ d   1      -0.559   0.532   0.419  0.00  0.00     0.000 A 
ATOM      3  C3  BNZ d   1       0.551   0.133   1.111  0.00  0.00     0.000 A 
ATOM      4  C4  BNZ d   1       1.443  -0.687   0.517  0.00  0.00     0.000 A 
ATOM      5  C5  BNZ d   1       1.256  -1.096  -0.788  0.00  0.00     0.000 A 
ATOM      6  C6  BNZ d   1       0.158  -0.661  -1.494  0.00  0.00     0.000 A 
ENDROOT
TORSDOF 0
ENDMDL
