MODEL 1
REMARK minimizedAffinity -3.8635571
REMARK minimizedRMSD -1
REMARK  0 active torsions:
REMARK  status: ('A' for Active; 'I' for Inactive)
ROOT
ATOM      1  C1  BNZ d   1      -1.036  -0.489   0.962  0.00  0.00     0.000 A 
ATOM      2  C2  BNZ d   1      -0.838  -0.542  -0.392  0.00  0.00     0.000 A 
ATOM      3  C3  BNZ d   1       0.391  -0.845  -0.909  0.00  0.00     0.000 A 
ATOM      4  C4  BNZ d   1       1.428  -1.054  -0.072  0.00  0.00     0.000 A 
ATOM      5  C5  BNZ d   1       1.247  -0.995   1.295  0.00  0.00     0.000 A 
ATOM      6  C6  BNZ d   1      -0.001  -0.729   1.812  0.00  0.00     0.000 A 
ENDROOT
TORSDOF 0
ENDMDL
