MODEL 1
REMARK minimizedAffinity -1.70186496
REMARK minimizedRMSD -1
REMARK  0 active torsions:
REMARK  status: ('A' for Active; 'I' for Inactive)
ROOT
ATOM      1  C1  BNZ d   1      -1.314  -0.263   1.694  0.00  0.00     0.000 A 
ATOM      2  C2  BNZ d   1      -0.002  -0.424   2.052  0.00  0.00     0.000 A 
ATOM      3  C3  BNZ d   1       0.979  -0.489   1.102  0.00  0.00     0.000 A 
ATOM      4  C4  BNZ d   1       0.644  -0.433  -0.203  0.00  0.00     0.000 A 
ATOM      5  C5  BNZ d   1      -0.676  -0.281  -0.579  0.00  0.00     0.000 A 
ATOM      6  C6  BNZ d   1      -1.656  -0.176   0.380  0.00  0.00     0.000 A 
ENDROOT
TORSDOF 0
ENDMDL
