MODEL 1
REMARK minimizedAffinity 7.52049732
REMARK minimizedRMSD -1
REMARK  1 active torsions:
REMARK  status: ('A' for Active; 'I' for Inactive)
REMARK    1  A    between atoms: C1_2  and  C2_3 
ROOT
ATOM      1  C2  UNL d   1       3.645  -0.143  -5.982  0.00  0.00    -0.073 A 
ATOM      2  C3  UNL d   1       4.252  -1.403  -5.972  0.00  0.00    -0.002 A 
ATOM      3  C4  UNL d   1       3.473  -2.561  -5.962  0.00  0.00     0.004 A 
ATOM      4  C5  UNL d   1       2.081  -2.470  -5.968  0.00  0.00    -0.004 A 
ATOM      5  C6  UNL d   1       1.456  -1.219  -5.990  0.00  0.00    -0.075 A 
ATOM      6  C7  UNL d   1      -0.040  -1.104  -5.996  0.00  0.00     0.076 C 
ATOM      7  C8  UNL d   1       2.245  -0.061  -5.998  0.00  0.00     0.001 A 
ENDROOT
BRANCH   1   8
ATOM      8  C1  UNL d   1       4.483   1.110  -5.999  0.00  0.00     0.053 C 
ATOM      9  C   UNL d   1       5.967   0.805  -5.877  0.00  0.00     0.018 C 
ENDBRANCH   1   8
TORSDOF 1
ENDMDL
