MODEL 1
REMARK minimizedAffinity 17.5969028
REMARK minimizedRMSD -1
REMARK  1 active torsions:
REMARK  status: ('A' for Active; 'I' for Inactive)
REMARK    1  A    between atoms: C1_2  and  C2_3 
ROOT
ATOM      1  C2  UNL d   1       5.425   3.212   4.086  0.00  0.00    -0.073 A 
ATOM      2  C3  UNL d   1       5.943   4.034   5.092  0.00  0.00    -0.002 A 
ATOM      3  C4  UNL d   1       5.981   5.419   4.922  0.00  0.00     0.004 A 
ATOM      4  C5  UNL d   1       5.495   5.995   3.748  0.00  0.00    -0.004 A 
ATOM      5  C6  UNL d   1       4.963   5.190   2.735  0.00  0.00    -0.075 A 
ATOM      6  C7  UNL d   1       4.438   5.794   1.466  0.00  0.00     0.076 C 
ATOM      7  C8  UNL d   1       4.931   3.801   2.913  0.00  0.00     0.001 A 
ENDROOT
BRANCH   1   8
ATOM      8  C1  UNL d   1       5.377   1.717   4.268  0.00  0.00     0.053 C 
ATOM      9  C   UNL d   1       4.104   1.269   4.968  0.00  0.00     0.018 C 
ENDBRANCH   1   8
TORSDOF 1
ENDMDL
