MODEL 1
REMARK minimizedAffinity 13.5095959
REMARK minimizedRMSD -1
REMARK  1 active torsions:
REMARK  status: ('A' for Active; 'I' for Inactive)
REMARK    1  A    between atoms: C1_2  and  C2_3 
ROOT
ATOM      1  C2  UNL d   1       3.334  -2.569   5.330  0.00  0.00    -0.073 A 
ATOM      2  C3  UNL d   1       4.269  -1.542   5.497  0.00  0.00    -0.002 A 
ATOM      3  C4  UNL d   1       5.591  -1.839   5.833  0.00  0.00     0.004 A 
ATOM      4  C5  UNL d   1       5.992  -3.164   5.998  0.00  0.00    -0.004 A 
ATOM      5  C6  UNL d   1       5.075  -4.206   5.823  0.00  0.00    -0.075 A 
ATOM      6  C7  UNL d   1       5.490  -5.637   5.999  0.00  0.00     0.076 C 
ATOM      7  C8  UNL d   1       3.749  -3.899   5.489  0.00  0.00     0.001 A 
ENDROOT
BRANCH   1   8
ATOM      8  C1  UNL d   1       1.908  -2.254   4.961  0.00  0.00     0.053 C 
ATOM      9  C   UNL d   1       1.820  -1.171   3.897  0.00  0.00     0.018 C 
ENDBRANCH   1   8
TORSDOF 1
ENDMDL
