MODEL 1
REMARK minimizedAffinity 18.5143566
REMARK minimizedRMSD -1
REMARK  1 active torsions:
REMARK  status: ('A' for Active; 'I' for Inactive)
REMARK    1  A    between atoms: C1_2  and  C2_3 
ROOT
ATOM      1  C2  UNL d   1      -0.336  -1.145  -3.570  0.00  0.00    -0.073 A 
ATOM      2  C3  UNL d   1      -0.857  -1.719  -4.735  0.00  0.00    -0.002 A 
ATOM      3  C4  UNL d   1      -0.168  -1.612  -5.943  0.00  0.00     0.004 A 
ATOM      4  C5  UNL d   1       1.050  -0.936  -5.999  0.00  0.00    -0.004 A 
ATOM      5  C6  UNL d   1       1.594  -0.365  -4.843  0.00  0.00    -0.075 A 
ATOM      6  C7  UNL d   1       2.903   0.367  -4.886  0.00  0.00     0.076 C 
ATOM      7  C8  UNL d   1       0.894  -0.475  -3.634  0.00  0.00     0.001 A 
ENDROOT
BRANCH   1   8
ATOM      8  C1  UNL d   1      -1.073  -1.264  -2.261  0.00  0.00     0.053 C 
ATOM      9  C   UNL d   1      -0.756  -2.568  -1.545  0.00  0.00     0.018 C 
ENDBRANCH   1   8
TORSDOF 1
ENDMDL
