MODEL 1
REMARK minimizedAffinity 12.1516752
REMARK minimizedRMSD -1
REMARK  1 active torsions:
REMARK  status: ('A' for Active; 'I' for Inactive)
REMARK    1  A    between atoms: C1_2  and  C2_3 
ROOT
ATOM      1  C2  UNL d   1      -1.340  -3.767  -4.938  0.00  0.00    -0.073 A 
ATOM      2  C3  UNL d   1      -1.874  -3.376  -3.705  0.00  0.00    -0.002 A 
ATOM      3  C4  UNL d   1      -1.380  -2.248  -3.049  0.00  0.00     0.004 A 
ATOM      4  C5  UNL d   1      -0.354  -1.497  -3.620  0.00  0.00    -0.004 A 
ATOM      5  C6  UNL d   1       0.185  -1.864  -4.857  0.00  0.00    -0.075 A 
ATOM      6  C7  UNL d   1       1.291  -1.067  -5.484  0.00  0.00     0.076 C 
ATOM      7  C8  UNL d   1      -0.315  -3.000  -5.509  0.00  0.00     0.001 A 
ENDROOT
BRANCH   1   8
ATOM      8  C1  UNL d   1      -1.875  -4.980  -5.654  0.00  0.00     0.053 C 
ATOM      9  C   UNL d   1      -3.348  -4.835  -6.000  0.00  0.00     0.018 C 
ENDBRANCH   1   8
TORSDOF 1
ENDMDL
