MODEL 1
REMARK minimizedAffinity 8.94417763
REMARK minimizedRMSD -1
REMARK  1 active torsions:
REMARK  status: ('A' for Active; 'I' for Inactive)
REMARK    1  A    between atoms: C1_2  and  C2_3 
ROOT
ATOM      1  C2  UNL d   1       3.713   2.771   1.901  0.00  0.00    -0.073 A 
ATOM      2  C3  UNL d   1       4.064   1.968   2.992  0.00  0.00    -0.002 A 
ATOM      3  C4  UNL d   1       4.899   2.466   3.994  0.00  0.00     0.004 A 
ATOM      4  C5  UNL d   1       5.384   3.771   3.919  0.00  0.00    -0.004 A 
ATOM      5  C6  UNL d   1       5.035   4.593   2.842  0.00  0.00    -0.075 A 
ATOM      6  C7  UNL d   1       5.550   5.999   2.745  0.00  0.00     0.076 C 
ATOM      7  C8  UNL d   1       4.199   4.085   1.839  0.00  0.00     0.001 A 
ENDROOT
BRANCH   1   8
ATOM      8  C1  UNL d   1       2.807   2.240   0.820  0.00  0.00     0.053 C 
ATOM      9  C   UNL d   1       1.462   2.949   0.804  0.00  0.00     0.018 C 
ENDBRANCH   1   8
TORSDOF 1
ENDMDL
