MODEL 1
REMARK minimizedAffinity -1.27885795
REMARK minimizedRMSD -1
REMARK  1 active torsions:
REMARK  status: ('A' for Active; 'I' for Inactive)
REMARK    1  A    between atoms: C1_2  and  C2_3 
ROOT
ATOM      1  C2  UNL d   1       5.252   5.444  -3.405  0.00  0.00    -0.077 A 
ATOM      2  C3  UNL d   1       4.310   5.999  -4.282  0.00  0.00     0.002 A 
ATOM      3  C4  UNL d   1       4.121   5.453  -5.553  0.00  0.00     0.002 A 
ATOM      4  C5  UNL d   1       4.868   4.349  -5.957  0.00  0.00    -0.004 A 
ATOM      5  C6  UNL d   1       5.809   3.791  -5.093  0.00  0.00     0.002 A 
ATOM      6  C7  UNL d   1       6.000   4.335  -3.822  0.00  0.00     0.002 A 
ENDROOT
BRANCH   1   7
ATOM      7  C1  UNL d   1       5.422   6.000  -2.015  0.00  0.00     0.055 C 
ATOM      8  C   UNL d   1       5.998   4.957  -1.068  0.00  0.00     0.019 C 
ENDBRANCH   1   7
TORSDOF 1
ENDMDL
