MODEL 1
REMARK minimizedAffinity 19.4123077
REMARK minimizedRMSD -1
REMARK  1 active torsions:
REMARK  status: ('A' for Active; 'I' for Inactive)
REMARK    1  A    between atoms: C1_2  and  C2_3 
ROOT
ATOM      1  C2  UNL d   1      -3.217  -4.778  -5.041  0.00  0.00    -0.077 A 
ATOM      2  C3  UNL d   1      -3.773  -5.850  -5.753  0.00  0.00     0.002 A 
ATOM      3  C4  UNL d   1      -5.159  -5.998  -5.839  0.00  0.00     0.002 A 
ATOM      4  C5  UNL d   1      -6.000  -5.076  -5.219  0.00  0.00    -0.004 A 
ATOM      5  C6  UNL d   1      -5.456  -4.007  -4.507  0.00  0.00     0.002 A 
ATOM      6  C7  UNL d   1      -4.071  -3.858  -4.419  0.00  0.00     0.002 A 
ENDROOT
BRANCH   1   7
ATOM      7  C1  UNL d   1      -1.724  -4.589  -4.989  0.00  0.00     0.055 C 
ATOM      8  C   UNL d   1      -0.994  -5.778  -5.598  0.00  0.00     0.019 C 
ENDBRANCH   1   7
TORSDOF 1
ENDMDL
