MODEL 1
REMARK minimizedAffinity 13.5375872
REMARK minimizedRMSD -1
REMARK  1 active torsions:
REMARK  status: ('A' for Active; 'I' for Inactive)
REMARK    1  A    between atoms: C1_2  and  C2_3 
ROOT
ATOM      1  C2  UNL d   1       5.073  -3.108   5.098  0.00  0.00    -0.077 A 
ATOM      2  C3  UNL d   1       3.898  -2.540   5.609  0.00  0.00     0.002 A 
ATOM      3  C4  UNL d   1       3.018  -1.859   4.766  0.00  0.00     0.002 A 
ATOM      4  C5  UNL d   1       3.301  -1.744   3.407  0.00  0.00    -0.004 A 
ATOM      5  C6  UNL d   1       4.468  -2.304   2.889  0.00  0.00     0.002 A 
ATOM      6  C7  UNL d   1       5.350  -2.983   3.730  0.00  0.00     0.002 A 
ENDROOT
BRANCH   1   7
ATOM      7  C1  UNL d   1       6.000  -3.885   5.996  0.00  0.00     0.055 C 
ATOM      8  C   UNL d   1       5.654  -5.367   6.000  0.00  0.00     0.019 C 
ENDBRANCH   1   7
TORSDOF 1
ENDMDL
