MODEL 1
REMARK minimizedAffinity 1.07460892
REMARK minimizedRMSD -1
REMARK  1 active torsions:
REMARK  status: ('A' for Active; 'I' for Inactive)
REMARK    1  A    between atoms: C1_2  and  C2_3 
ROOT
ATOM      1  C2  UNL d   1      -1.779  -2.120  -1.641  0.00  0.00    -0.077 A 
ATOM      2  C3  UNL d   1      -1.216  -2.065  -2.924  0.00  0.00     0.002 A 
ATOM      3  C4  UNL d   1       0.160  -2.221  -3.099  0.00  0.00     0.002 A 
ATOM      4  C5  UNL d   1       0.984  -2.437  -1.997  0.00  0.00    -0.004 A 
ATOM      5  C6  UNL d   1       0.435  -2.491  -0.716  0.00  0.00     0.002 A 
ATOM      6  C7  UNL d   1      -0.941  -2.334  -0.539  0.00  0.00     0.002 A 
ENDROOT
BRANCH   1   7
ATOM      7  C1  UNL d   1      -3.269  -2.001  -1.455  0.00  0.00     0.055 C 
ATOM      8  C   UNL d   1      -3.774  -2.971  -0.397  0.00  0.00     0.019 C 
ENDBRANCH   1   7
TORSDOF 1
ENDMDL
