MODEL 1
REMARK minimizedAffinity 8.15562439
REMARK minimizedRMSD -1
REMARK  1 active torsions:
REMARK  status: ('A' for Active; 'I' for Inactive)
REMARK    1  A    between atoms: C1_2  and  C2_3 
ROOT
ATOM      1  C2  UNL d   1       1.052   5.245  -1.283  0.00  0.00    -0.077 A 
ATOM      2  C3  UNL d   1       0.066   5.891  -0.524  0.00  0.00     0.002 A 
ATOM      3  C4  UNL d   1      -0.200   5.481   0.784  0.00  0.00     0.002 A 
ATOM      4  C5  UNL d   1       0.519   4.428   1.346  0.00  0.00    -0.004 A 
ATOM      5  C6  UNL d   1       1.500   3.778   0.599  0.00  0.00     0.002 A 
ATOM      6  C7  UNL d   1       1.767   4.185  -0.709  0.00  0.00     0.002 A 
ENDROOT
BRANCH   1   7
ATOM      7  C1  UNL d   1       1.375   5.717  -2.676  0.00  0.00     0.055 C 
ATOM      8  C   UNL d   1       1.272   4.581  -3.683  0.00  0.00     0.019 C 
ENDBRANCH   1   7
TORSDOF 1
ENDMDL
