MODEL 1
REMARK minimizedAffinity 14.7973566
REMARK minimizedRMSD -1
REMARK  1 active torsions:
REMARK  status: ('A' for Active; 'I' for Inactive)
REMARK    1  A    between atoms: C1_2  and  C2_3 
ROOT
ATOM      1  C2  UNL d   1      -0.717  -2.156  -3.197  0.00  0.00    -0.077 A 
ATOM      2  C3  UNL d   1      -1.236  -1.490  -2.078  0.00  0.00     0.002 A 
ATOM      3  C4  UNL d   1      -0.692  -1.708  -0.811  0.00  0.00     0.002 A 
ATOM      4  C5  UNL d   1       0.375  -2.589  -0.652  0.00  0.00    -0.004 A 
ATOM      5  C6  UNL d   1       0.897  -3.258  -1.758  0.00  0.00     0.002 A 
ATOM      6  C7  UNL d   1       0.354  -3.042  -3.025  0.00  0.00     0.002 A 
ENDROOT
BRANCH   1   7
ATOM      7  C1  UNL d   1      -1.271  -1.884  -4.572  0.00  0.00     0.055 C 
ATOM      8  C   UNL d   1      -2.017  -3.093  -5.117  0.00  0.00     0.019 C 
ENDBRANCH   1   7
TORSDOF 1
ENDMDL
