MODEL 1
REMARK minimizedAffinity 11.1864681
REMARK minimizedRMSD -1
REMARK  1 active torsions:
REMARK  status: ('A' for Active; 'I' for Inactive)
REMARK    1  A    between atoms: C1_2  and  C2_3 
ROOT
ATOM      1  C2  UNL d   1       0.419  -2.848  -2.734  0.00  0.00    -0.077 A 
ATOM      2  C3  UNL d   1       0.563  -3.634  -1.582  0.00  0.00     0.002 A 
ATOM      3  C4  UNL d   1      -0.071  -3.268  -0.393  0.00  0.00     0.002 A 
ATOM      4  C5  UNL d   1      -0.855  -2.117  -0.346  0.00  0.00    -0.004 A 
ATOM      5  C6  UNL d   1      -1.002  -1.327  -1.485  0.00  0.00     0.002 A 
ATOM      6  C7  UNL d   1      -0.369  -1.692  -2.674  0.00  0.00     0.002 A 
ENDROOT
BRANCH   1   7
ATOM      7  C1  UNL d   1       1.061  -3.269  -4.030  0.00  0.00     0.055 C 
ATOM      8  C   UNL d   1       2.576  -3.136  -3.966  0.00  0.00     0.019 C 
ENDBRANCH   1   7
TORSDOF 1
ENDMDL
