MODEL 1
REMARK minimizedAffinity 5.86404943
REMARK minimizedRMSD -1
REMARK  1 active torsions:
REMARK  status: ('A' for Active; 'I' for Inactive)
REMARK    1  A    between atoms: C1_2  and  C2_3 
ROOT
ATOM      1  C2  UNL d   1       0.008  -3.965  -3.144  0.00  0.00    -0.077 A 
ATOM      2  C3  UNL d   1      -0.417  -2.640  -2.975  0.00  0.00     0.002 A 
ATOM      3  C4  UNL d   1      -0.600  -2.115  -1.694  0.00  0.00     0.002 A 
ATOM      4  C5  UNL d   1      -0.356  -2.907  -0.573  0.00  0.00    -0.004 A 
ATOM      5  C6  UNL d   1       0.066  -4.226  -0.731  0.00  0.00     0.002 A 
ATOM      6  C7  UNL d   1       0.248  -4.753  -2.011  0.00  0.00     0.002 A 
ENDROOT
BRANCH   1   7
ATOM      7  C1  UNL d   1       0.254  -4.517  -4.524  0.00  0.00     0.055 C 
ATOM      8  C   UNL d   1       1.736  -4.512  -4.867  0.00  0.00     0.019 C 
ENDBRANCH   1   7
TORSDOF 1
ENDMDL
