MODEL 1
REMARK minimizedAffinity 10.3478785
REMARK minimizedRMSD -1
REMARK  1 active torsions:
REMARK  status: ('A' for Active; 'I' for Inactive)
REMARK    1  A    between atoms: C1_2  and  C2_3 
ROOT
ATOM      1  C2  UNL d   1      -1.374  -2.757  -3.420  0.00  0.00    -0.077 A 
ATOM      2  C3  UNL d   1      -0.226  -3.526  -3.182  0.00  0.00     0.002 A 
ATOM      3  C4  UNL d   1       0.659  -3.175  -2.161  0.00  0.00     0.002 A 
ATOM      4  C5  UNL d   1       0.405  -2.058  -1.369  0.00  0.00    -0.004 A 
ATOM      5  C6  UNL d   1      -0.733  -1.286  -1.599  0.00  0.00     0.002 A 
ATOM      6  C7  UNL d   1      -1.619  -1.634  -2.620  0.00  0.00     0.002 A 
ENDROOT
BRANCH   1   7
ATOM      7  C1  UNL d   1      -2.356  -3.162  -4.488  0.00  0.00     0.055 C 
ATOM      8  C   UNL d   1      -2.067  -4.565  -5.003  0.00  0.00     0.019 C 
ENDBRANCH   1   7
TORSDOF 1
ENDMDL
