MODEL 1
REMARK minimizedAffinity 7.90953493
REMARK minimizedRMSD -1
REMARK  1 active torsions:
REMARK  status: ('A' for Active; 'I' for Inactive)
REMARK    1  A    between atoms: C1_2  and  C2_3 
ROOT
ATOM      1  C2  UNL d   1       0.534  -3.494  -2.670  0.00  0.00    -0.077 A 
ATOM      2  C3  UNL d   1      -0.455  -2.889  -3.458  0.00  0.00     0.002 A 
ATOM      3  C4  UNL d   1      -1.354  -1.984  -2.890  0.00  0.00     0.002 A 
ATOM      4  C5  UNL d   1      -1.271  -1.674  -1.535  0.00  0.00    -0.004 A 
ATOM      5  C6  UNL d   1      -0.292  -2.272  -0.742  0.00  0.00     0.002 A 
ATOM      6  C7  UNL d   1       0.607  -3.178  -1.308  0.00  0.00     0.002 A 
ENDROOT
BRANCH   1   7
ATOM      7  C1  UNL d   1       1.536  -4.432  -3.291  0.00  0.00     0.055 C 
ATOM      8  C   UNL d   1       2.380  -3.725  -4.341  0.00  0.00     0.019 C 
ENDBRANCH   1   7
TORSDOF 1
ENDMDL
