MODEL 1
REMARK minimizedAffinity 0.824157
REMARK minimizedRMSD -1
REMARK  1 active torsions:
REMARK  status: ('A' for Active; 'I' for Inactive)
REMARK    1  A    between atoms: C1_2  and  C2_3 
ROOT
ATOM      1  C2  UNL d   1      -0.435  -2.163  -3.160  0.00  0.00    -0.077 A 
ATOM      2  C3  UNL d   1      -1.413  -2.330  -4.151  0.00  0.00     0.002 A 
ATOM      3  C4  UNL d   1      -1.073  -2.867  -5.394  0.00  0.00     0.002 A 
ATOM      4  C5  UNL d   1       0.242  -3.246  -5.656  0.00  0.00    -0.004 A 
ATOM      5  C6  UNL d   1       1.222  -3.081  -4.678  0.00  0.00     0.002 A 
ATOM      6  C7  UNL d   1       0.885  -2.543  -3.435  0.00  0.00     0.002 A 
ENDROOT
BRANCH   1   7
ATOM      7  C1  UNL d   1      -0.808  -1.629  -1.802  0.00  0.00     0.055 C 
ATOM      8  C   UNL d   1      -0.162  -2.443  -0.691  0.00  0.00     0.019 C 
ENDBRANCH   1   7
TORSDOF 1
ENDMDL
