MODEL 1
REMARK minimizedAffinity -2.90451789
REMARK minimizedRMSD -1
REMARK  0 active torsions:
REMARK  status: ('A' for Active; 'I' for Inactive)
ROOT
ATOM      1  C1  DEN d   1       0.801   0.406  -1.843  0.00  0.00     0.130 A 
ATOM      2  C2  DEN d   1       1.785   0.784  -0.832  0.00  0.00    -0.031 A 
ATOM      3  C3  DEN d   1       1.215   0.480   0.496  0.00  0.00     0.027 A 
ATOM      4  C4  DEN d   1      -1.082  -0.537   1.082  0.00  0.00     0.027 A 
ATOM      5  C5  DEN d   1      -2.266  -1.010   0.561  0.00  0.00    -0.003 A 
ATOM      6  C6  DEN d   1      -2.522  -1.013  -0.785  0.00  0.00     0.001 A 
ATOM      7  C7  DEN d   1      -1.563  -0.574  -1.659  0.00  0.00     0.017 A 
ATOM      8  C8  DEN d   1      -0.370  -0.089  -1.141  0.00  0.00    -0.094 A 
ATOM      9  C9  DEN d   1      -0.125  -0.106   0.221  0.00  0.00    -0.072 A 
ENDROOT
TORSDOF 0
ENDMDL
