MODEL 1
REMARK minimizedAffinity -2.81085086
REMARK minimizedRMSD -1
REMARK  0 active torsions:
REMARK  status: ('A' for Active; 'I' for Inactive)
ROOT
ATOM      1  C1  DEN d   1       0.388   0.160   1.054  0.00  0.00     0.130 A 
ATOM      2  C2  DEN d   1       0.018  -0.224  -0.305  0.00  0.00    -0.031 A 
ATOM      3  C3  DEN d   1       0.951   0.439  -1.238  0.00  0.00     0.027 A 
ATOM      4  C4  DEN d   1       2.927   2.011  -0.710  0.00  0.00     0.027 A 
ATOM      5  C5  DEN d   1       3.624   2.638   0.298  0.00  0.00    -0.003 A 
ATOM      6  C6  DEN d   1       3.273   2.512   1.616  0.00  0.00     0.001 A 
ATOM      7  C7  DEN d   1       2.224   1.704   1.965  0.00  0.00     0.017 A 
ATOM      8  C8  DEN d   1       1.512   1.073   0.953  0.00  0.00    -0.094 A 
ATOM      9  C9  DEN d   1       1.890   1.204  -0.373  0.00  0.00    -0.072 A 
ENDROOT
TORSDOF 0
ENDMDL
