MODEL 1
REMARK minimizedAffinity -4.62207031
REMARK minimizedRMSD -1
REMARK  0 active torsions:
REMARK  status: ('A' for Active; 'I' for Inactive)
ROOT
ATOM      1  C1  DEN d   1      -1.600  -1.310   1.921  0.00  0.00     0.130 A 
ATOM      2  C2  DEN d   1      -2.901  -1.134   1.281  0.00  0.00    -0.031 A 
ATOM      3  C3  DEN d   1      -2.682  -0.481  -0.026  0.00  0.00     0.027 A 
ATOM      4  C4  DEN d   1      -0.467   0.266  -1.116  0.00  0.00     0.027 A 
ATOM      5  C5  DEN d   1       0.898   0.338  -0.949  0.00  0.00    -0.003 A 
ATOM      6  C6  DEN d   1       1.518  -0.100   0.191  0.00  0.00     0.001 A 
ATOM      7  C7  DEN d   1       0.776  -0.672   1.191  0.00  0.00     0.017 A 
ATOM      8  C8  DEN d   1      -0.602  -0.740   1.033  0.00  0.00    -0.094 A 
ATOM      9  C9  DEN d   1      -1.209  -0.303  -0.132  0.00  0.00    -0.072 A 
ENDROOT
TORSDOF 0
ENDMDL
