MODEL 1
REMARK minimizedAffinity -4.28581762
REMARK minimizedRMSD -1
REMARK  0 active torsions:
REMARK  status: ('A' for Active; 'I' for Inactive)
ROOT
ATOM      1  C1  DEN d   1      -2.087  -0.398   1.092  0.00  0.00     0.130 A 
ATOM      2  C2  DEN d   1      -2.941  -0.565  -0.082  0.00  0.00    -0.031 A 
ATOM      3  C3  DEN d   1      -2.108  -0.366  -1.284  0.00  0.00     0.027 A 
ATOM      4  C4  DEN d   1       0.408   0.178  -1.444  0.00  0.00     0.027 A 
ATOM      5  C5  DEN d   1       1.551   0.427  -0.716  0.00  0.00    -0.003 A 
ATOM      6  C6  DEN d   1       1.554   0.451   0.653  0.00  0.00     0.001 A 
ATOM      7  C7  DEN d   1       0.401   0.178   1.340  0.00  0.00     0.017 A 
ATOM      8  C8  DEN d   1      -0.757  -0.066   0.613  0.00  0.00    -0.094 A 
ATOM      9  C9  DEN d   1      -0.737  -0.098  -0.771  0.00  0.00    -0.072 A 
ENDROOT
TORSDOF 0
ENDMDL
