MODEL 1
REMARK minimizedAffinity -3.06060147
REMARK minimizedRMSD -1
REMARK  0 active torsions:
REMARK  status: ('A' for Active; 'I' for Inactive)
ROOT
ATOM      1  C1  DEN d   1      -0.728   1.258   0.406  0.00  0.00     0.130 A 
ATOM      2  C2  DEN d   1      -0.848   0.091  -0.463  0.00  0.00    -0.031 A 
ATOM      3  C3  DEN d   1       0.512  -0.419  -0.732  0.00  0.00     0.027 A 
ATOM      4  C4  DEN d   1       2.778   0.479   0.112  0.00  0.00     0.027 A 
ATOM      5  C5  DEN d   1       3.387   1.457   0.867  0.00  0.00    -0.003 A 
ATOM      6  C6  DEN d   1       2.675   2.449   1.488  0.00  0.00     0.001 A 
ATOM      7  C7  DEN d   1       1.308   2.459   1.402  0.00  0.00     0.017 A 
ATOM      8  C8  DEN d   1       0.688   1.481   0.637  0.00  0.00    -0.094 A 
ATOM      9  C9  DEN d   1       1.423   0.479   0.027  0.00  0.00    -0.072 A 
ENDROOT
TORSDOF 0
ENDMDL
