MODEL 1
REMARK minimizedAffinity -2.1553843
REMARK minimizedRMSD -1
REMARK  0 active torsions:
REMARK  status: ('A' for Active; 'I' for Inactive)
ROOT
ATOM      1  C1  DEN d   1      -2.639  -1.042   0.808  0.00  0.00     0.130 A 
ATOM      2  C2  DEN d   1      -3.414  -1.263  -0.409  0.00  0.00    -0.031 A 
ATOM      3  C3  DEN d   1      -2.544  -0.968  -1.565  0.00  0.00     0.027 A 
ATOM      4  C4  DEN d   1      -0.082  -0.200  -1.588  0.00  0.00     0.027 A 
ATOM      5  C5  DEN d   1       0.997   0.135  -0.799  0.00  0.00    -0.003 A 
ATOM      6  C6  DEN d   1       0.930   0.135   0.569  0.00  0.00     0.001 A 
ATOM      7  C7  DEN d   1      -0.228  -0.252   1.191  0.00  0.00     0.017 A 
ATOM      8  C8  DEN d   1      -1.322  -0.584   0.403  0.00  0.00    -0.094 A 
ATOM      9  C9  DEN d   1      -1.230  -0.589  -0.978  0.00  0.00    -0.072 A 
ENDROOT
TORSDOF 0
ENDMDL
