MODEL 1
REMARK minimizedAffinity -3.18325758
REMARK minimizedRMSD -1
REMARK  0 active torsions:
REMARK  status: ('A' for Active; 'I' for Inactive)
ROOT
ATOM      1  C1  DEN d   1       1.675   1.147  -0.414  0.00  0.00     0.130 A 
ATOM      2  C2  DEN d   1       2.934   0.561   0.040  0.00  0.00    -0.031 A 
ATOM      3  C3  DEN d   1       2.620  -0.474   1.045  0.00  0.00     0.027 A 
ATOM      4  C4  DEN d   1       0.319  -1.226   1.935  0.00  0.00     0.027 A 
ATOM      5  C5  DEN d   1      -1.040  -1.013   1.856  0.00  0.00    -0.003 A 
ATOM      6  C6  DEN d   1      -1.582  -0.049   1.047  0.00  0.00     0.001 A 
ATOM      7  C7  DEN d   1      -0.764   0.707   0.250  0.00  0.00     0.017 A 
ATOM      8  C8  DEN d   1       0.607   0.502   0.330  0.00  0.00    -0.094 A 
ATOM      9  C9  DEN d   1       1.135  -0.485   1.144  0.00  0.00    -0.072 A 
ENDROOT
TORSDOF 0
ENDMDL
