MODEL 1
REMARK minimizedAffinity -4.11819696
REMARK minimizedRMSD -1
REMARK  0 active torsions:
REMARK  status: ('A' for Active; 'I' for Inactive)
ROOT
ATOM      1  C1  DEN d   1       0.946   0.095  -1.225  0.00  0.00     0.130 A 
ATOM      2  C2  DEN d   1       1.910   0.034  -0.130  0.00  0.00    -0.031 A 
ATOM      3  C3  DEN d   1       1.174  -0.285   1.109  0.00  0.00     0.027 A 
ATOM      4  C4  DEN d   1      -1.352  -0.693   1.437  0.00  0.00     0.027 A 
ATOM      5  C5  DEN d   1      -2.573  -0.737   0.802  0.00  0.00    -0.003 A 
ATOM      6  C6  DEN d   1      -2.711  -0.475  -0.535  0.00  0.00     0.001 A 
ATOM      7  C7  DEN d   1      -1.602  -0.202  -1.291  0.00  0.00     0.017 A 
ATOM      8  C8  DEN d   1      -0.368  -0.149  -0.657  0.00  0.00    -0.094 A 
ATOM      9  C9  DEN d   1      -0.248  -0.428   0.694  0.00  0.00    -0.072 A 
ENDROOT
TORSDOF 0
ENDMDL
