MODEL 1
REMARK minimizedAffinity 0.887878299
REMARK minimizedRMSD -1
REMARK  0 active torsions:
REMARK  status: ('A' for Active; 'I' for Inactive)
ROOT
ATOM      1  C1  DEN d   1      -3.649   5.673   1.481  0.00  0.00     0.130 A 
ATOM      2  C2  DEN d   1      -4.863   5.840   0.686  0.00  0.00    -0.031 A 
ATOM      3  C3  DEN d   1      -6.000   5.995   1.615  0.00  0.00     0.027 A 
ATOM      4  C4  DEN d   1      -5.998   5.999   4.195  0.00  0.00     0.027 A 
ATOM      5  C5  DEN d   1      -5.208   5.879   5.317  0.00  0.00    -0.003 A 
ATOM      6  C6  DEN d   1      -3.860   5.650   5.240  0.00  0.00     0.001 A 
ATOM      7  C7  DEN d   1      -3.253   5.579   4.014  0.00  0.00     0.017 A 
ATOM      8  C8  DEN d   1      -4.043   5.691   2.878  0.00  0.00    -0.094 A 
ATOM      9  C9  DEN d   1      -5.403   5.935   2.977  0.00  0.00    -0.072 A 
ENDROOT
TORSDOF 0
ENDMDL
