MODEL 1
REMARK minimizedAffinity -5.29939365
REMARK minimizedRMSD -1
REMARK  0 active torsions:
REMARK  status: ('A' for Active; 'I' for Inactive)
ROOT
ATOM      1  C1  DEN d   1       4.272   4.615  -1.120  0.00  0.00     0.130 A 
ATOM      2  C2  DEN d   1       4.550   3.999  -2.415  0.00  0.00    -0.031 A 
ATOM      3  C3  DEN d   1       3.903   2.672  -2.438  0.00  0.00     0.027 A 
ATOM      4  C4  DEN d   1       2.501   1.518  -0.606  0.00  0.00     0.027 A 
ATOM      5  C5  DEN d   1       2.001   1.645   0.672  0.00  0.00    -0.003 A 
ATOM      6  C6  DEN d   1       2.249   2.746   1.447  0.00  0.00     0.001 A 
ATOM      7  C7  DEN d   1       2.981   3.785   0.936  0.00  0.00     0.017 A 
ATOM      8  C8  DEN d   1       3.494   3.662  -0.348  0.00  0.00    -0.094 A 
ATOM      9  C9  DEN d   1       3.222   2.546  -1.121  0.00  0.00    -0.072 A 
ENDROOT
TORSDOF 0
ENDMDL
