MODEL 1
REMARK minimizedAffinity -6.24756002
REMARK minimizedRMSD -1
REMARK  0 active torsions:
REMARK  status: ('A' for Active; 'I' for Inactive)
ROOT
ATOM      1  C1  DEN d   1       0.575   0.263   0.615  0.00  0.00     0.130 A 
ATOM      2  C2  DEN d   1       0.877   1.108  -0.538  0.00  0.00    -0.031 A 
ATOM      3  C3  DEN d   1      -0.259   1.022  -1.477  0.00  0.00     0.027 A 
ATOM      4  C4  DEN d   1      -2.448  -0.325  -1.258  0.00  0.00     0.027 A 
ATOM      5  C5  DEN d   1      -3.152  -1.200  -0.461  0.00  0.00    -0.003 A 
ATOM      6  C6  DEN d   1      -2.653  -1.672   0.724  0.00  0.00     0.001 A 
ATOM      7  C7  DEN d   1      -1.433  -1.235   1.169  0.00  0.00     0.017 A 
ATOM      8  C8  DEN d   1      -0.714  -0.358   0.367  0.00  0.00    -0.094 A 
ATOM      9  C9  DEN d   1      -1.241   0.116  -0.822  0.00  0.00    -0.072 A 
ENDROOT
TORSDOF 0
ENDMDL
