MODEL 1
REMARK minimizedAffinity -2.68890071
REMARK minimizedRMSD -1
REMARK  0 active torsions:
REMARK  status: ('A' for Active; 'I' for Inactive)
ROOT
ATOM      1  C1  DEN d   1      -1.869  -1.180   0.760  0.00  0.00     0.130 A 
ATOM      2  C2  DEN d   1      -3.107  -1.099  -0.011  0.00  0.00    -0.031 A 
ATOM      3  C3  DEN d   1      -2.846  -0.273  -1.207  0.00  0.00     0.027 A 
ATOM      4  C4  DEN d   1      -0.656   0.879  -1.937  0.00  0.00     0.027 A 
ATOM      5  C5  DEN d   1       0.660   1.106  -1.599  0.00  0.00    -0.003 A 
ATOM      6  C6  DEN d   1       1.211   0.619  -0.444  0.00  0.00     0.001 A 
ATOM      7  C7  DEN d   1       0.455  -0.158   0.394  0.00  0.00     0.017 A 
ATOM      8  C8  DEN d   1      -0.874  -0.385   0.064  0.00  0.00    -0.094 A 
ATOM      9  C9  DEN d   1      -1.410   0.106  -1.115  0.00  0.00    -0.072 A 
ENDROOT
TORSDOF 0
ENDMDL
