MODEL 1
REMARK minimizedAffinity -4.91885042
REMARK minimizedRMSD -1
REMARK  0 active torsions:
REMARK  status: ('A' for Active; 'I' for Inactive)
ROOT
ATOM      1  C1  DEN d   1      -1.342  -2.290   1.973  0.00  0.00     0.130 A 
ATOM      2  C2  DEN d   1      -2.467  -3.220   1.926  0.00  0.00    -0.031 A 
ATOM      3  C3  DEN d   1      -3.221  -2.962   0.683  0.00  0.00     0.027 A 
ATOM      4  C4  DEN d   1      -2.754  -1.225  -1.166  0.00  0.00     0.027 A 
ATOM      5  C5  DEN d   1      -1.918  -0.204  -1.563  0.00  0.00    -0.003 A 
ATOM      6  C6  DEN d   1      -0.861   0.212  -0.799  0.00  0.00     0.001 A 
ATOM      7  C7  DEN d   1      -0.584  -0.426   0.382  0.00  0.00     0.017 A 
ATOM      8  C8  DEN d   1      -1.426  -1.451   0.792  0.00  0.00    -0.094 A 
ATOM      9  C9  DEN d   1      -2.483  -1.865  -0.001  0.00  0.00    -0.072 A 
ENDROOT
TORSDOF 0
ENDMDL
