MODEL 1
REMARK minimizedAffinity -4.30722523
REMARK minimizedRMSD -1
REMARK  0 active torsions:
REMARK  status: ('A' for Active; 'I' for Inactive)
ROOT
ATOM      1  C1  DEN d   1      -2.323  -0.551  -1.758  0.00  0.00     0.130 A 
ATOM      2  C2  DEN d   1      -3.390  -0.483  -0.763  0.00  0.00    -0.031 A 
ATOM      3  C3  DEN d   1      -2.773  -0.212   0.550  0.00  0.00     0.027 A 
ATOM      4  C4  DEN d   1      -0.283   0.112   1.137  0.00  0.00     0.027 A 
ATOM      5  C5  DEN d   1       0.997   0.132   0.628  0.00  0.00    -0.003 A 
ATOM      6  C6  DEN d   1       1.261  -0.106  -0.695  0.00  0.00     0.001 A 
ATOM      7  C7  DEN d   1       0.225  -0.330  -1.563  0.00  0.00     0.017 A 
ATOM      8  C8  DEN d   1      -1.067  -0.359  -1.056  0.00  0.00    -0.094 A 
ATOM      9  C9  DEN d   1      -1.314  -0.104   0.282  0.00  0.00    -0.072 A 
ENDROOT
TORSDOF 0
ENDMDL
