MODEL 1
REMARK minimizedAffinity -5.09052658
REMARK minimizedRMSD -1
REMARK  0 active torsions:
REMARK  status: ('A' for Active; 'I' for Inactive)
ROOT
ATOM      1  C1  DEN d   1       0.340   0.452  -1.375  0.00  0.00     0.130 A 
ATOM      2  C2  DEN d   1       1.527   0.441  -0.525  0.00  0.00    -0.031 A 
ATOM      3  C3  DEN d   1       1.176  -0.234   0.740  0.00  0.00     0.027 A 
ATOM      4  C4  DEN d   1      -1.076  -1.263   1.460  0.00  0.00     0.027 A 
ATOM      5  C5  DEN d   1      -2.381  -1.486   1.080  0.00  0.00    -0.003 A 
ATOM      6  C6  DEN d   1      -2.876  -1.053  -0.122  0.00  0.00     0.001 A 
ATOM      7  C7  DEN d   1      -2.047  -0.412  -1.006  0.00  0.00     0.017 A 
ATOM      8  C8  DEN d   1      -0.733  -0.177  -0.626  0.00  0.00    -0.094 A 
ATOM      9  C9  DEN d   1      -0.248  -0.634   0.588  0.00  0.00    -0.072 A 
ENDROOT
TORSDOF 0
ENDMDL
