MODEL 1
REMARK minimizedAffinity -1.27662003
REMARK minimizedRMSD -1
REMARK  0 active torsions:
REMARK  status: ('A' for Active; 'I' for Inactive)
ROOT
ATOM      1  C1  DEN d   1      -1.970  -0.169  -0.899  0.00  0.00     0.130 A 
ATOM      2  C2  DEN d   1      -2.761  -1.183  -0.208  0.00  0.00    -0.031 A 
ATOM      3  C3  DEN d   1      -1.878  -1.875   0.752  0.00  0.00     0.027 A 
ATOM      4  C4  DEN d   1       0.623  -1.473   1.237  0.00  0.00     0.027 A 
ATOM      5  C5  DEN d   1       1.727  -0.726   0.892  0.00  0.00    -0.003 A 
ATOM      6  C6  DEN d   1       1.685   0.228  -0.090  0.00  0.00     0.001 A 
ATOM      7  C7  DEN d   1       0.503   0.492  -0.730  0.00  0.00     0.017 A 
ATOM      8  C8  DEN d   1      -0.613  -0.263  -0.393  0.00  0.00    -0.094 A 
ATOM      9  C9  DEN d   1      -0.553  -1.214   0.611  0.00  0.00    -0.072 A 
ENDROOT
TORSDOF 0
ENDMDL
