MODEL 1
REMARK minimizedAffinity -1.33748579
REMARK minimizedRMSD -1
REMARK  0 active torsions:
REMARK  status: ('A' for Active; 'I' for Inactive)
ROOT
ATOM      1  C1  DEN d   1      -1.602   2.296   0.171  0.00  0.00     0.130 A 
ATOM      2  C2  DEN d   1      -1.448   2.877   1.502  0.00  0.00    -0.031 A 
ATOM      3  C3  DEN d   1      -0.415   2.104   2.221  0.00  0.00     0.027 A 
ATOM      4  C4  DEN d   1       0.956   0.077   1.405  0.00  0.00     0.027 A 
ATOM      5  C5  DEN d   1       1.167  -0.784   0.351  0.00  0.00    -0.003 A 
ATOM      6  C6  DEN d   1       0.453  -0.701  -0.814  0.00  0.00     0.001 A 
ATOM      7  C7  DEN d   1      -0.477   0.293  -0.971  0.00  0.00     0.017 A 
ATOM      8  C8  DEN d   1      -0.701   1.160   0.090  0.00  0.00    -0.094 A 
ATOM      9  C9  DEN d   1       0.040   1.068   1.255  0.00  0.00    -0.072 A 
ENDROOT
TORSDOF 0
ENDMDL
