MODEL 1
REMARK minimizedAffinity -0.945309699
REMARK minimizedRMSD -1
REMARK  0 active torsions:
REMARK  status: ('A' for Active; 'I' for Inactive)
ROOT
ATOM      1  C1  DEN d   1      -1.104   2.234  -1.862  0.00  0.00     0.130 A 
ATOM      2  C2  DEN d   1      -0.295   1.533  -2.855  0.00  0.00    -0.031 A 
ATOM      3  C3  DEN d   1       0.666   0.673  -2.135  0.00  0.00     0.027 A 
ATOM      4  C4  DEN d   1       0.973   0.355   0.406  0.00  0.00     0.027 A 
ATOM      5  C5  DEN d   1       0.526   0.746   1.648  0.00  0.00    -0.003 A 
ATOM      6  C6  DEN d   1      -0.465   1.679   1.807  0.00  0.00     0.001 A 
ATOM      7  C7  DEN d   1      -1.073   2.218   0.704  0.00  0.00     0.017 A 
ATOM      8  C8  DEN d   1      -0.622   1.834  -0.552  0.00  0.00    -0.094 A 
ATOM      9  C9  DEN d   1       0.373   0.881  -0.692  0.00  0.00    -0.072 A 
ENDROOT
TORSDOF 0
ENDMDL
