MODEL 1
REMARK minimizedAffinity -3.91609621
REMARK minimizedRMSD -1
REMARK  0 active torsions:
REMARK  status: ('A' for Active; 'I' for Inactive)
ROOT
ATOM      1  C1  DEN d   1      -0.673   2.387  -1.683  0.00  0.00     0.130 A 
ATOM      2  C2  DEN d   1       0.334   1.500  -2.259  0.00  0.00    -0.031 A 
ATOM      3  C3  DEN d   1       1.033   0.822  -1.149  0.00  0.00     0.027 A 
ATOM      4  C4  DEN d   1       0.652   1.053   1.392  0.00  0.00     0.027 A 
ATOM      5  C5  DEN d   1      -0.086   1.694   2.362  0.00  0.00    -0.003 A 
ATOM      6  C6  DEN d   1      -1.040   2.628   2.056  0.00  0.00     0.001 A 
ATOM      7  C7  DEN d   1      -1.313   2.915   0.745  0.00  0.00     0.017 A 
ATOM      8  C8  DEN d   1      -0.568   2.278  -0.239  0.00  0.00    -0.094 A 
ATOM      9  C9  DEN d   1       0.383   1.328   0.090  0.00  0.00    -0.072 A 
ENDROOT
TORSDOF 0
ENDMDL
