MODEL 1
REMARK minimizedAffinity -3.69082475
REMARK minimizedRMSD -1
REMARK  0 active torsions:
REMARK  status: ('A' for Active; 'I' for Inactive)
ROOT
ATOM      1  C1  DEN d   1      -0.816   1.721  -1.105  0.00  0.00     0.130 A 
ATOM      2  C2  DEN d   1       0.147   0.774  -1.661  0.00  0.00    -0.031 A 
ATOM      3  C3  DEN d   1       0.737   0.013  -0.541  0.00  0.00     0.027 A 
ATOM      4  C4  DEN d   1       0.253   0.204   1.985  0.00  0.00     0.027 A 
ATOM      5  C5  DEN d   1      -0.480   0.875   2.940  0.00  0.00    -0.003 A 
ATOM      6  C6  DEN d   1      -1.343   1.889   2.619  0.00  0.00     0.001 A 
ATOM      7  C7  DEN d   1      -1.529   2.232   1.306  0.00  0.00     0.017 A 
ATOM      8  C8  DEN d   1      -0.789   1.566   0.338  0.00  0.00    -0.094 A 
ATOM      9  C9  DEN d   1       0.069   0.535   0.681  0.00  0.00    -0.072 A 
ENDROOT
TORSDOF 0
ENDMDL
