MODEL 1
REMARK minimizedAffinity 1.72551668
REMARK minimizedRMSD -1
REMARK  3 active torsions:
REMARK  status: ('A' for Active; 'I' for Inactive)
REMARK    1  A    between atoms: C3'_2  and  C2'_3 
REMARK    2  A    between atoms: C2'_3  and  C1'_4 
REMARK    3  A    between atoms: C1'_4  and  C1_5 
ROOT
ATOM      1  C1  N4B d   1      -1.457   0.861   2.615  0.00  0.00    -0.075 A 
ATOM      2  C2  N4B d   1      -0.505  -0.182   2.601  0.00  0.00     0.002 A 
ATOM      3  C3  N4B d   1       0.668  -0.032   1.903  0.00  0.00     0.002 A 
ATOM      4  C4  N4B d   1       0.902   1.140   1.199  0.00  0.00    -0.004 A 
ATOM      5  C5  N4B d   1      -0.012   2.153   1.238  0.00  0.00     0.002 A 
ATOM      6  C6  N4B d   1      -1.193   2.017   1.939  0.00  0.00     0.002 A 
ENDROOT
BRANCH   1   7
ATOM      7  C1' N4B d   1      -2.791   0.709   3.293  0.00  0.00     0.057 C 
BRANCH   7   8
ATOM      8  C2' N4B d   1      -3.178   2.036   3.939  0.00  0.00     0.009 C 
BRANCH   8   9
ATOM      9  C3' N4B d   1      -4.513   1.950   4.658  0.00  0.00     0.004 C 
ATOM     10  C4' N4B d   1      -4.495   2.621   5.999  0.00  0.00     0.003 C 
ENDBRANCH   8   9
ENDBRANCH   7   8
ENDBRANCH   1   7
TORSDOF 3
ENDMDL
