MODEL 1
REMARK minimizedAffinity 7.58502388
REMARK minimizedRMSD -1
REMARK  3 active torsions:
REMARK  status: ('A' for Active; 'I' for Inactive)
REMARK    1  A    between atoms: C3'_2  and  C2'_3 
REMARK    2  A    between atoms: C2'_3  and  C1'_4 
REMARK    3  A    between atoms: C1'_4  and  C1_5 
ROOT
ATOM      1  C1  N4B d   1       0.373   0.066   2.296  0.00  0.00    -0.075 A 
ATOM      2  C2  N4B d   1      -0.011   1.352   2.733  0.00  0.00     0.002 A 
ATOM      3  C3  N4B d   1      -0.076   2.391   1.837  0.00  0.00     0.002 A 
ATOM      4  C4  N4B d   1       0.257   2.173   0.509  0.00  0.00    -0.004 A 
ATOM      5  C5  N4B d   1       0.603   0.921   0.089  0.00  0.00     0.002 A 
ATOM      6  C6  N4B d   1       0.668  -0.133   0.978  0.00  0.00     0.002 A 
ENDROOT
BRANCH   1   7
ATOM      7  C1' N4B d   1       0.541  -1.082   3.254  0.00  0.00     0.057 C 
BRANCH   7   8
ATOM      8  C2' N4B d   1      -0.793  -1.808   3.404  0.00  0.00     0.009 C 
BRANCH   8   9
ATOM      9  C3' N4B d   1      -1.239  -2.451   2.103  0.00  0.00     0.004 C 
ATOM     10  C4' N4B d   1      -0.696  -3.838   1.924  0.00  0.00     0.003 C 
ENDBRANCH   8   9
ENDBRANCH   7   8
ENDBRANCH   1   7
TORSDOF 3
ENDMDL
