MODEL 1
REMARK minimizedAffinity 1.43329453
REMARK minimizedRMSD -1
REMARK  3 active torsions:
REMARK  status: ('A' for Active; 'I' for Inactive)
REMARK    1  A    between atoms: C3'_2  and  C2'_3 
REMARK    2  A    between atoms: C2'_3  and  C1'_4 
REMARK    3  A    between atoms: C1'_4  and  C1_5 
ROOT
ATOM      1  C1  N4B d   1      -4.057  -3.930  -1.125  0.00  0.00    -0.075 A 
ATOM      2  C2  N4B d   1      -3.719  -3.692  -2.475  0.00  0.00     0.002 A 
ATOM      3  C3  N4B d   1      -3.757  -2.414  -2.978  0.00  0.00     0.002 A 
ATOM      4  C4  N4B d   1      -4.147  -1.366  -2.158  0.00  0.00    -0.004 A 
ATOM      5  C5  N4B d   1      -4.448  -1.601  -0.848  0.00  0.00     0.002 A 
ATOM      6  C6  N4B d   1      -4.410  -2.879  -0.328  0.00  0.00     0.002 A 
ENDROOT
BRANCH   1   7
ATOM      7  C1' N4B d   1      -4.113  -5.320  -0.553  0.00  0.00     0.057 C 
BRANCH   7   8
ATOM      8  C2' N4B d   1      -2.763  -6.000  -0.757  0.00  0.00     0.009 C 
BRANCH   8   9
ATOM      9  C3' N4B d   1      -1.653  -5.301   0.010  0.00  0.00     0.004 C 
ATOM     10  C4' N4B d   1      -0.329  -5.992  -0.125  0.00  0.00     0.003 C 
ENDBRANCH   8   9
ENDBRANCH   7   8
ENDBRANCH   1   7
TORSDOF 3
ENDMDL
