MODEL 1
REMARK minimizedAffinity -1.02882099
REMARK minimizedRMSD -1
REMARK  3 active torsions:
REMARK  status: ('A' for Active; 'I' for Inactive)
REMARK    1  A    between atoms: C3'_2  and  C2'_3 
REMARK    2  A    between atoms: C2'_3  and  C1'_4 
REMARK    3  A    between atoms: C1'_4  and  C1_5 
ROOT
ATOM      1  C1  N4B d   1      -3.434   1.553   3.609  0.00  0.00    -0.075 A 
ATOM      2  C2  N4B d   1      -3.042   0.344   2.993  0.00  0.00     0.002 A 
ATOM      3  C3  N4B d   1      -1.906   0.303   2.222  0.00  0.00     0.002 A 
ATOM      4  C4  N4B d   1      -1.160   1.457   2.038  0.00  0.00    -0.004 A 
ATOM      5  C5  N4B d   1      -1.531   2.614   2.657  0.00  0.00     0.002 A 
ATOM      6  C6  N4B d   1      -2.668   2.669   3.438  0.00  0.00     0.002 A 
ENDROOT
BRANCH   1   7
ATOM      7  C1' N4B d   1      -4.714   1.667   4.391  0.00  0.00     0.057 C 
BRANCH   7   8
ATOM      8  C2' N4B d   1      -4.492   2.595   5.582  0.00  0.00     0.009 C 
BRANCH   8   9
ATOM      9  C3' N4B d   1      -5.772   3.300   5.999  0.00  0.00     0.004 C 
ATOM     10  C4' N4B d   1      -5.638   4.793   6.000  0.00  0.00     0.003 C 
ENDBRANCH   8   9
ENDBRANCH   7   8
ENDBRANCH   1   7
TORSDOF 3
ENDMDL
