MODEL 1
REMARK minimizedAffinity -4.80330133
REMARK minimizedRMSD -1
REMARK  3 active torsions:
REMARK  status: ('A' for Active; 'I' for Inactive)
REMARK    1  A    between atoms: C3'_2  and  C2'_3 
REMARK    2  A    between atoms: C2'_3  and  C1'_4 
REMARK    3  A    between atoms: C1'_4  and  C1_5 
ROOT
ATOM      1  C1  N4B d   1      -1.163   0.921   2.238  0.00  0.00    -0.075 A 
ATOM      2  C2  N4B d   1      -0.265  -0.146   2.014  0.00  0.00     0.002 A 
ATOM      3  C3  N4B d   1       0.935   0.086   1.389  0.00  0.00     0.002 A 
ATOM      4  C4  N4B d   1       1.250   1.368   0.962  0.00  0.00    -0.004 A 
ATOM      5  C5  N4B d   1       0.388   2.398   1.205  0.00  0.00     0.002 A 
ATOM      6  C6  N4B d   1      -0.820   2.180   1.836  0.00  0.00     0.002 A 
ENDROOT
BRANCH   1   7
ATOM      7  C1' N4B d   1      -2.523   0.701   2.841  0.00  0.00     0.057 C 
BRANCH   7   8
ATOM      8  C2' N4B d   1      -2.962   1.971   3.563  0.00  0.00     0.009 C 
BRANCH   8   9
ATOM      9  C3' N4B d   1      -4.425   1.917   3.971  0.00  0.00     0.004 C 
ATOM     10  C4' N4B d   1      -4.701   2.660   5.244  0.00  0.00     0.003 C 
ENDBRANCH   8   9
ENDBRANCH   7   8
ENDBRANCH   1   7
TORSDOF 3
ENDMDL
