MODEL 1
REMARK minimizedAffinity 3.64687514
REMARK minimizedRMSD -1
REMARK  3 active torsions:
REMARK  status: ('A' for Active; 'I' for Inactive)
REMARK    1  A    between atoms: C3'_2  and  C2'_3 
REMARK    2  A    between atoms: C2'_3  and  C1'_4 
REMARK    3  A    between atoms: C1'_4  and  C1_5 
ROOT
ATOM      1  C1  N4B d   1       0.570   1.004   0.833  0.00  0.00    -0.075 A 
ATOM      2  C2  N4B d   1       0.193  -0.217   1.435  0.00  0.00     0.002 A 
ATOM      3  C3  N4B d   1      -0.810  -0.238   2.373  0.00  0.00     0.002 A 
ATOM      4  C4  N4B d   1      -1.434   0.945   2.737  0.00  0.00    -0.004 A 
ATOM      5  C5  N4B d   1      -1.081   2.116   2.132  0.00  0.00     0.002 A 
ATOM      6  C6  N4B d   1      -0.078   2.152   1.185  0.00  0.00     0.002 A 
ENDROOT
BRANCH   1   7
ATOM      7  C1' N4B d   1       1.719   1.090  -0.135  0.00  0.00     0.057 C 
BRANCH   7   8
ATOM      8  C2' N4B d   1       2.543  -0.191  -0.049  0.00  0.00     0.009 C 
BRANCH   8   9
ATOM      9  C3' N4B d   1       3.394  -0.403  -1.290  0.00  0.00     0.004 C 
ATOM     10  C4' N4B d   1       3.366   0.772  -2.221  0.00  0.00     0.003 C 
ENDBRANCH   8   9
ENDBRANCH   7   8
ENDBRANCH   1   7
TORSDOF 3
ENDMDL
