MODEL 1
REMARK minimizedAffinity 0.750292182
REMARK minimizedRMSD -1
REMARK  3 active torsions:
REMARK  status: ('A' for Active; 'I' for Inactive)
REMARK    1  A    between atoms: C3'_2  and  C2'_3 
REMARK    2  A    between atoms: C2'_3  and  C1'_4 
REMARK    3  A    between atoms: C1'_4  and  C1_5 
ROOT
ATOM      1  C1  N4B d   1      -2.827   2.116   2.908  0.00  0.00    -0.075 A 
ATOM      2  C2  N4B d   1      -1.848   3.002   2.407  0.00  0.00     0.002 A 
ATOM      3  C3  N4B d   1      -0.798   2.517   1.666  0.00  0.00     0.002 A 
ATOM      4  C4  N4B d   1      -0.697   1.154   1.429  0.00  0.00    -0.004 A 
ATOM      5  C5  N4B d   1      -1.661   0.308   1.894  0.00  0.00     0.002 A 
ATOM      6  C6  N4B d   1      -2.724   0.782   2.637  0.00  0.00     0.002 A 
ENDROOT
BRANCH   1   7
ATOM      7  C1' N4B d   1      -3.946   2.588   3.795  0.00  0.00     0.057 C 
BRANCH   7   8
ATOM      8  C2' N4B d   1      -4.568   1.386   4.500  0.00  0.00     0.009 C 
BRANCH   8   9
ATOM      9  C3' N4B d   1      -5.209   1.772   5.822  0.00  0.00     0.004 C 
ATOM     10  C4' N4B d   1      -5.327   3.256   5.999  0.00  0.00     0.003 C 
ENDBRANCH   8   9
ENDBRANCH   7   8
ENDBRANCH   1   7
TORSDOF 3
ENDMDL
