MODEL 1
REMARK minimizedAffinity -3.33963776
REMARK minimizedRMSD -1
REMARK  3 active torsions:
REMARK  status: ('A' for Active; 'I' for Inactive)
REMARK    1  A    between atoms: C3'_2  and  C2'_3 
REMARK    2  A    between atoms: C2'_3  and  C1'_4 
REMARK    3  A    between atoms: C1'_4  and  C1_5 
ROOT
ATOM      1  C1  N4B d   1      -1.626   1.560   2.200  0.00  0.00    -0.075 A 
ATOM      2  C2  N4B d   1      -1.961   0.188   2.215  0.00  0.00     0.002 A 
ATOM      3  C3  N4B d   1      -1.171  -0.718   1.550  0.00  0.00     0.002 A 
ATOM      4  C4  N4B d   1      -0.058  -0.275   0.852  0.00  0.00    -0.004 A 
ATOM      5  C5  N4B d   1       0.272   1.048   0.864  0.00  0.00     0.002 A 
ATOM      6  C6  N4B d   1      -0.510   1.970   1.531  0.00  0.00     0.002 A 
ENDROOT
BRANCH   1   7
ATOM      7  C1' N4B d   1      -2.506   2.599   2.840  0.00  0.00     0.057 C 
BRANCH   7   8
ATOM      8  C2' N4B d   1      -3.477   1.912   3.797  0.00  0.00     0.009 C 
BRANCH   8   9
ATOM      9  C3' N4B d   1      -4.281   2.915   4.606  0.00  0.00     0.004 C 
ATOM     10  C4' N4B d   1      -4.589   2.430   5.991  0.00  0.00     0.003 C 
ENDBRANCH   8   9
ENDBRANCH   7   8
ENDBRANCH   1   7
TORSDOF 3
ENDMDL
