MODEL 1
REMARK minimizedAffinity -4.60001898
REMARK minimizedRMSD -1
REMARK  3 active torsions:
REMARK  status: ('A' for Active; 'I' for Inactive)
REMARK    1  A    between atoms: C3'_2  and  C2'_3 
REMARK    2  A    between atoms: C2'_3  and  C1'_4 
REMARK    3  A    between atoms: C1'_4  and  C1_5 
ROOT
ATOM      1  C1  N4B d   1      -1.401   1.210   1.851  0.00  0.00    -0.075 A 
ATOM      2  C2  N4B d   1      -0.201   1.333   1.115  0.00  0.00     0.002 A 
ATOM      3  C3  N4B d   1       0.594   0.232   0.910  0.00  0.00     0.002 A 
ATOM      4  C4  N4B d   1       0.221  -0.992   1.444  0.00  0.00    -0.004 A 
ATOM      5  C5  N4B d   1      -0.952  -1.107   2.131  0.00  0.00     0.002 A 
ATOM      6  C6  N4B d   1      -1.763  -0.010   2.342  0.00  0.00     0.002 A 
ENDROOT
BRANCH   1   7
ATOM      7  C1' N4B d   1      -2.259   2.402   2.174  0.00  0.00     0.057 C 
BRANCH   7   8
ATOM      8  C2' N4B d   1      -2.610   2.379   3.659  0.00  0.00     0.009 C 
BRANCH   8   9
ATOM      9  C3' N4B d   1      -4.110   2.306   3.887  0.00  0.00     0.004 C 
ATOM     10  C4' N4B d   1      -4.503   2.665   5.289  0.00  0.00     0.003 C 
ENDBRANCH   8   9
ENDBRANCH   7   8
ENDBRANCH   1   7
TORSDOF 3
ENDMDL
