MODEL 1
REMARK minimizedAffinity 10.5330486
REMARK minimizedRMSD -1
REMARK  1 active torsions:
REMARK  status: ('A' for Active; 'I' for Inactive)
REMARK    1  A    between atoms: C1_2  and  C2_3 
ROOT
ATOM      1  C2  UNL d   1       0.031   1.746   2.639  0.00  0.00    -0.073 A 
ATOM      2  C3  UNL d   1       1.024   2.580   3.166  0.00  0.00    -0.002 A 
ATOM      3  C4  UNL d   1       1.424   3.724   2.473  0.00  0.00     0.004 A 
ATOM      4  C5  UNL d   1       0.832   4.049   1.253  0.00  0.00    -0.004 A 
ATOM      5  C6  UNL d   1      -0.170   3.234   0.716  0.00  0.00    -0.075 A 
ATOM      6  C7  UNL d   1      -0.815   3.569  -0.597  0.00  0.00     0.076 C 
ATOM      7  C8  UNL d   1      -0.564   2.086   1.416  0.00  0.00     0.001 A 
ENDROOT
BRANCH   1   8
ATOM      8  C1  UNL d   1      -0.409   0.514   3.386  0.00  0.00     0.053 C 
ATOM      9  C   UNL d   1       0.764  -0.385   3.744  0.00  0.00     0.018 C 
ENDBRANCH   1   8
TORSDOF 1
ENDMDL
