MODEL 1
REMARK minimizedAffinity 6.10032797
REMARK minimizedRMSD -1
REMARK  1 active torsions:
REMARK  status: ('A' for Active; 'I' for Inactive)
REMARK    1  A    between atoms: C1_2  and  C2_3 
ROOT
ATOM      1  C2  UNL d   1      -0.589   3.227   0.392  0.00  0.00    -0.073 A 
ATOM      2  C3  UNL d   1      -1.715   2.703   1.036  0.00  0.00    -0.002 A 
ATOM      3  C4  UNL d   1      -1.612   2.186   2.327  0.00  0.00     0.004 A 
ATOM      4  C5  UNL d   1      -0.385   2.192   2.990  0.00  0.00    -0.004 A 
ATOM      5  C6  UNL d   1       0.750   2.722   2.368  0.00  0.00    -0.075 A 
ATOM      6  C7  UNL d   1       2.078   2.735   3.066  0.00  0.00     0.076 C 
ATOM      7  C8  UNL d   1       0.639   3.238   1.070  0.00  0.00     0.001 A 
ENDROOT
BRANCH   1   8
ATOM      8  C1  UNL d   1      -0.697   3.793  -1.001  0.00  0.00     0.053 C 
ATOM      9  C   UNL d   1      -0.634   5.312  -1.005  0.00  0.00     0.018 C 
ENDBRANCH   1   8
TORSDOF 1
ENDMDL
