MODEL 1
REMARK minimizedAffinity 5.49372244
REMARK minimizedRMSD -1
REMARK  1 active torsions:
REMARK  status: ('A' for Active; 'I' for Inactive)
REMARK    1  A    between atoms: C1_2  and  C2_3 
ROOT
ATOM      1  C2  UNL d   1      -3.473   0.400  -1.135  0.00  0.00    -0.073 A 
ATOM      2  C3  UNL d   1      -2.820  -0.820  -1.345  0.00  0.00    -0.002 A 
ATOM      3  C4  UNL d   1      -1.434  -0.859  -1.508  0.00  0.00     0.004 A 
ATOM      4  C5  UNL d   1      -0.688   0.319  -1.455  0.00  0.00    -0.004 A 
ATOM      5  C6  UNL d   1      -1.321   1.546  -1.234  0.00  0.00    -0.075 A 
ATOM      6  C7  UNL d   1      -0.533   2.821  -1.176  0.00  0.00     0.076 C 
ATOM      7  C8  UNL d   1      -2.713   1.577  -1.074  0.00  0.00     0.001 A 
ENDROOT
BRANCH   1   8
ATOM      8  C1  UNL d   1      -4.968   0.446  -0.952  0.00  0.00     0.053 C 
ATOM      9  C   UNL d   1      -5.357   0.818   0.470  0.00  0.00     0.018 C 
ENDBRANCH   1   8
TORSDOF 1
ENDMDL
