MODEL 1
REMARK minimizedAffinity 12.3746176
REMARK minimizedRMSD -1
REMARK  1 active torsions:
REMARK  status: ('A' for Active; 'I' for Inactive)
REMARK    1  A    between atoms: C1_2  and  C2_3 
ROOT
ATOM      1  C2  UNL d   1      -2.812  -0.412  -1.093  0.00  0.00    -0.073 A 
ATOM      2  C3  UNL d   1      -2.103  -1.430  -1.740  0.00  0.00    -0.002 A 
ATOM      3  C4  UNL d   1      -0.757  -1.254  -2.064  0.00  0.00     0.004 A 
ATOM      4  C5  UNL d   1      -0.105  -0.065  -1.739  0.00  0.00    -0.004 A 
ATOM      5  C6  UNL d   1      -0.795   0.960  -1.081  0.00  0.00    -0.075 A 
ATOM      6  C7  UNL d   1      -0.109   2.246  -0.726  0.00  0.00     0.076 C 
ATOM      7  C8  UNL d   1      -2.147   0.777  -0.762  0.00  0.00     0.001 A 
ENDROOT
BRANCH   1   8
ATOM      8  C1  UNL d   1      -4.264  -0.599  -0.736  0.00  0.00     0.053 C 
ATOM      9  C   UNL d   1      -4.644   0.163   0.524  0.00  0.00     0.018 C 
ENDBRANCH   1   8
TORSDOF 1
ENDMDL
