MODEL 1
REMARK minimizedAffinity 6.53727007
REMARK minimizedRMSD -1
REMARK  1 active torsions:
REMARK  status: ('A' for Active; 'I' for Inactive)
REMARK    1  A    between atoms: C1_2  and  C2_3 
ROOT
ATOM      1  C2  UNL d   1      -0.789   2.271   1.141  0.00  0.00    -0.073 A 
ATOM      2  C3  UNL d   1      -0.609   1.448   0.023  0.00  0.00    -0.002 A 
ATOM      3  C4  UNL d   1      -0.517   2.003  -1.254  0.00  0.00     0.004 A 
ATOM      4  C5  UNL d   1      -0.596   3.385  -1.425  0.00  0.00    -0.004 A 
ATOM      5  C6  UNL d   1      -0.764   4.225  -0.320  0.00  0.00    -0.075 A 
ATOM      6  C7  UNL d   1      -0.853   5.713  -0.488  0.00  0.00     0.076 C 
ATOM      7  C8  UNL d   1      -0.859   3.660   0.959  0.00  0.00     0.001 A 
ENDROOT
BRANCH   1   8
ATOM      8  C1  UNL d   1      -0.883   1.676   2.522  0.00  0.00     0.053 C 
ATOM      9  C   UNL d   1       0.468   1.198   3.030  0.00  0.00     0.018 C 
ENDBRANCH   1   8
TORSDOF 1
ENDMDL
