MODEL 1
REMARK minimizedAffinity 10.4139767
REMARK minimizedRMSD -1
REMARK  1 active torsions:
REMARK  status: ('A' for Active; 'I' for Inactive)
REMARK    1  A    between atoms: C1_2  and  C2_3 
ROOT
ATOM      1  C2  UNL d   1      -2.318  -1.027  -2.150  0.00  0.00    -0.073 A 
ATOM      2  C3  UNL d   1      -2.209  -1.579  -3.431  0.00  0.00    -0.002 A 
ATOM      3  C4  UNL d   1      -0.953  -1.837  -3.982  0.00  0.00     0.004 A 
ATOM      4  C5  UNL d   1       0.204  -1.554  -3.257  0.00  0.00    -0.004 A 
ATOM      5  C6  UNL d   1       0.115  -1.013  -1.970  0.00  0.00    -0.075 A 
ATOM      6  C7  UNL d   1       1.350  -0.700  -1.178  0.00  0.00     0.076 C 
ATOM      7  C8  UNL d   1      -1.149  -0.754  -1.424  0.00  0.00     0.001 A 
ENDROOT
BRANCH   1   8
ATOM      8  C1  UNL d   1      -3.672  -0.753  -1.547  0.00  0.00     0.053 C 
ATOM      9  C   UNL d   1      -4.010   0.730  -1.557  0.00  0.00     0.018 C 
ENDBRANCH   1   8
TORSDOF 1
ENDMDL
