MODEL 1
REMARK minimizedAffinity -1.92937803
REMARK minimizedRMSD -1
REMARK  1 active torsions:
REMARK  status: ('A' for Active; 'I' for Inactive)
REMARK    1  A    between atoms: C1_2  and  C2_3 
ROOT
ATOM      1  C2  UNL d   1      -0.950   1.350  -1.127  0.00  0.00    -0.073 A 
ATOM      2  C3  UNL d   1      -0.125   0.227  -1.259  0.00  0.00    -0.002 A 
ATOM      3  C4  UNL d   1      -0.676  -1.055  -1.267  0.00  0.00     0.004 A 
ATOM      4  C5  UNL d   1      -2.055  -1.227  -1.151  0.00  0.00    -0.004 A 
ATOM      5  C6  UNL d   1      -2.897  -0.117  -1.030  0.00  0.00    -0.075 A 
ATOM      6  C7  UNL d   1      -4.383  -0.285  -0.902  0.00  0.00     0.076 C 
ATOM      7  C8  UNL d   1      -2.336   1.167  -1.020  0.00  0.00     0.001 A 
ENDROOT
BRANCH   1   8
ATOM      8  C1  UNL d   1      -0.360   2.736  -1.124  0.00  0.00     0.053 C 
ATOM      9  C   UNL d   1       0.113   3.152   0.260  0.00  0.00     0.018 C 
ENDBRANCH   1   8
TORSDOF 1
ENDMDL
