MODEL 1
REMARK minimizedAffinity 5.39966822
REMARK minimizedRMSD -1
REMARK  1 active torsions:
REMARK  status: ('A' for Active; 'I' for Inactive)
REMARK    1  A    between atoms: C1_2  and  C2_3 
ROOT
ATOM      1  C2  UNL d   1      -0.601   1.249  -0.576  0.00  0.00    -0.073 A 
ATOM      2  C3  UNL d   1       0.459   0.407  -0.931  0.00  0.00    -0.002 A 
ATOM      3  C4  UNL d   1       0.206  -0.855  -1.471  0.00  0.00     0.004 A 
ATOM      4  C5  UNL d   1      -1.107  -1.285  -1.667  0.00  0.00    -0.004 A 
ATOM      5  C6  UNL d   1      -2.179  -0.453  -1.330  0.00  0.00    -0.075 A 
ATOM      6  C7  UNL d   1      -3.597  -0.900  -1.532  0.00  0.00     0.076 C 
ATOM      7  C8  UNL d   1      -1.917   0.812  -0.786  0.00  0.00     0.001 A 
ENDROOT
BRANCH   1   8
ATOM      8  C1  UNL d   1      -0.333   2.615   0.001  0.00  0.00     0.053 C 
ATOM      9  C   UNL d   1      -0.408   3.705  -1.056  0.00  0.00     0.018 C 
ENDBRANCH   1   8
TORSDOF 1
ENDMDL
