MODEL 1
REMARK minimizedAffinity -1.23176301
REMARK minimizedRMSD -1
REMARK  0 active torsions:
REMARK  status: ('A' for Active; 'I' for Inactive)
ROOT
ATOM      1  C   UNL d   1      -1.143  -1.168  -1.234  0.00  0.00     0.077 C 
ATOM      2  C1  UNL d   1       0.176  -0.787  -0.630  0.00  0.00    -0.074 A 
ATOM      3  C2  UNL d   1       0.255  -0.315   0.684  0.00  0.00    -0.005 A 
ATOM      4  C3  UNL d   1       1.490   0.026   1.236  0.00  0.00     0.006 A 
ATOM      5  C4  UNL d   1       2.656  -0.101   0.481  0.00  0.00    -0.005 A 
ATOM      6  C5  UNL d   1       2.597  -0.571  -0.835  0.00  0.00    -0.074 A 
ATOM      7  C6  UNL d   1       3.842  -0.723  -1.657  0.00  0.00     0.077 C 
ATOM      8  C7  UNL d   1       1.353  -0.919  -1.380  0.00  0.00    -0.001 A 
ENDROOT
TORSDOF 0
ENDMDL
