MODEL 1
REMARK minimizedAffinity 4.82496834
REMARK minimizedRMSD -1
REMARK  0 active torsions:
REMARK  status: ('A' for Active; 'I' for Inactive)
ROOT
ATOM      1  C   UNL d   1      -4.080   1.120  -0.182  0.00  0.00     0.077 C 
ATOM      2  C1  UNL d   1      -3.073   0.794   0.880  0.00  0.00    -0.074 A 
ATOM      3  C2  UNL d   1      -1.935   1.586   1.059  0.00  0.00    -0.005 A 
ATOM      4  C3  UNL d   1      -1.012   1.275   2.058  0.00  0.00     0.006 A 
ATOM      5  C4  UNL d   1      -1.217   0.171   2.886  0.00  0.00    -0.005 A 
ATOM      6  C5  UNL d   1      -2.351  -0.632   2.722  0.00  0.00    -0.074 A 
ATOM      7  C6  UNL d   1      -2.592  -1.816   3.610  0.00  0.00     0.077 C 
ATOM      8  C7  UNL d   1      -3.277  -0.309   1.721  0.00  0.00    -0.001 A 
ENDROOT
TORSDOF 0
ENDMDL
