MODEL 1
REMARK minimizedAffinity 0.774521053
REMARK minimizedRMSD -1
REMARK  0 active torsions:
REMARK  status: ('A' for Active; 'I' for Inactive)
ROOT
ATOM      1  C   UNL d   1       1.204  -0.776   0.670  0.00  0.00     0.077 C 
ATOM      2  C1  UNL d   1       0.125  -0.015   1.383  0.00  0.00    -0.074 A 
ATOM      3  C2  UNL d   1       0.385   0.637   2.592  0.00  0.00    -0.005 A 
ATOM      4  C3  UNL d   1      -0.625   1.349   3.239  0.00  0.00     0.006 A 
ATOM      5  C4  UNL d   1      -1.903   1.416   2.683  0.00  0.00    -0.005 A 
ATOM      6  C5  UNL d   1      -2.182   0.771   1.474  0.00  0.00    -0.074 A 
ATOM      7  C6  UNL d   1      -3.548   0.840   0.858  0.00  0.00     0.077 C 
ATOM      8  C7  UNL d   1      -1.159   0.063   0.827  0.00  0.00    -0.001 A 
ENDROOT
TORSDOF 0
ENDMDL
