MODEL 1
REMARK minimizedAffinity 6.7865057
REMARK minimizedRMSD -1
REMARK  0 active torsions:
REMARK  status: ('A' for Active; 'I' for Inactive)
ROOT
ATOM      1  C   UNL d   1      -3.258  -5.160  -5.606  0.00  0.00     0.077 C 
ATOM      2  C1  UNL d   1      -1.918  -4.723  -5.094  0.00  0.00    -0.074 A 
ATOM      3  C2  UNL d   1      -0.945  -5.661  -4.734  0.00  0.00    -0.005 A 
ATOM      4  C3  UNL d   1       0.301  -5.239  -4.268  0.00  0.00     0.006 A 
ATOM      5  C4  UNL d   1       0.585  -3.877  -4.157  0.00  0.00    -0.005 A 
ATOM      6  C5  UNL d   1      -0.375  -2.925  -4.513  0.00  0.00    -0.074 A 
ATOM      7  C6  UNL d   1      -0.082  -1.458  -4.410  0.00  0.00     0.077 C 
ATOM      8  C7  UNL d   1      -1.621  -3.357  -4.987  0.00  0.00    -0.001 A 
ENDROOT
TORSDOF 0
ENDMDL
