MODEL 1
REMARK minimizedAffinity 1.90077126
REMARK minimizedRMSD -1
REMARK  0 active torsions:
REMARK  status: ('A' for Active; 'I' for Inactive)
ROOT
ATOM      1  C   UNL d   1       0.870  -5.129  -5.979  0.00  0.00     0.077 C 
ATOM      2  C1  UNL d   1       0.019  -3.984  -5.515  0.00  0.00    -0.074 A 
ATOM      3  C2  UNL d   1      -1.258  -4.204  -4.989  0.00  0.00    -0.005 A 
ATOM      4  C3  UNL d   1      -2.034  -3.130  -4.553  0.00  0.00     0.006 A 
ATOM      5  C4  UNL d   1      -1.541  -1.827  -4.640  0.00  0.00    -0.005 A 
ATOM      6  C5  UNL d   1      -0.266  -1.588  -5.162  0.00  0.00    -0.074 A 
ATOM      7  C6  UNL d   1       0.282  -0.194  -5.253  0.00  0.00     0.077 C 
ATOM      8  C7  UNL d   1       0.510  -2.673  -5.591  0.00  0.00    -0.001 A 
ENDROOT
TORSDOF 0
ENDMDL
