MODEL 1
REMARK minimizedAffinity -1.82751703
REMARK minimizedRMSD -1
REMARK  2 active torsions:
REMARK  status: ('A' for Active; 'I' for Inactive)
REMARK    1  A    between atoms: C2'_3  and  C1'_4 
REMARK    2  A    between atoms: C1'_4  and  C1_5 
ROOT
ATOM      1  C1  I4B d   1      -0.179   0.439  -0.396  0.00  0.00    -0.075 A 
ATOM      2  C2  I4B d   1      -0.678  -0.021   0.797  0.00  0.00     0.003 A 
ATOM      3  C3  I4B d   1      -0.995  -1.392   0.956  0.00  0.00     0.002 A 
ATOM      4  C4  I4B d   1      -0.845  -2.252  -0.113  0.00  0.00    -0.004 A 
ATOM      5  C5  I4B d   1      -0.317  -1.789  -1.314  0.00  0.00     0.002 A 
ATOM      6  C6  I4B d   1       0.030  -0.437  -1.453  0.00  0.00     0.003 A 
ENDROOT
BRANCH   1   7
ATOM      7  C1' I4B d   1       0.114   1.899  -0.540  0.00  0.00     0.060 C 
BRANCH   7   8
ATOM      8  C2' I4B d   1       1.051   2.300   0.582  0.00  0.00    -0.013 C 
ATOM      9  C4' I4B d   1       2.300   2.946   0.043  0.00  0.00     0.013 C 
ATOM     10  C3' I4B d   1       0.309   3.231   1.494  0.00  0.00     0.013 C 
ENDBRANCH   7   8
ENDBRANCH   1   7
TORSDOF 2
ENDMDL
