MODEL 1
REMARK minimizedAffinity -3.11968827
REMARK minimizedRMSD -1
REMARK  2 active torsions:
REMARK  status: ('A' for Active; 'I' for Inactive)
REMARK    1  A    between atoms: C2'_3  and  C1'_4 
REMARK    2  A    between atoms: C1'_4  and  C1_5 
ROOT
ATOM      1  C1  I4B d   1       0.639   1.229   0.031  0.00  0.00    -0.075 A 
ATOM      2  C2  I4B d   1       0.079   2.481  -0.038  0.00  0.00     0.003 A 
ATOM      3  C3  I4B d   1       0.890   3.633   0.104  0.00  0.00     0.002 A 
ATOM      4  C4  I4B d   1       2.238   3.488   0.362  0.00  0.00    -0.004 A 
ATOM      5  C5  I4B d   1       2.807   2.219   0.409  0.00  0.00     0.002 A 
ATOM      6  C6  I4B d   1       2.006   1.082   0.231  0.00  0.00     0.003 A 
ENDROOT
BRANCH   1   7
ATOM      7  C1' I4B d   1      -0.252   0.034  -0.090  0.00  0.00     0.060 C 
BRANCH   7   8
ATOM      8  C2' I4B d   1      -0.485  -0.518   1.302  0.00  0.00    -0.013 C 
ATOM      9  C4' I4B d   1      -1.483   0.318   2.060  0.00  0.00     0.013 C 
ATOM     10  C3' I4B d   1      -0.957  -1.934   1.165  0.00  0.00     0.013 C 
ENDBRANCH   7   8
ENDBRANCH   1   7
TORSDOF 2
ENDMDL
