MODEL 1
REMARK minimizedAffinity -1.94126761
REMARK minimizedRMSD -1
REMARK  2 active torsions:
REMARK  status: ('A' for Active; 'I' for Inactive)
REMARK    1  A    between atoms: C2'_3  and  C1'_4 
REMARK    2  A    between atoms: C1'_4  and  C1_5 
ROOT
ATOM      1  C1  I4B d   1       0.102   0.209   0.168  0.00  0.00    -0.075 A 
ATOM      2  C2  I4B d   1      -0.389  -0.706  -0.730  0.00  0.00     0.003 A 
ATOM      3  C3  I4B d   1      -1.027  -1.884  -0.271  0.00  0.00     0.002 A 
ATOM      4  C4  I4B d   1      -1.107  -2.129   1.085  0.00  0.00    -0.004 A 
ATOM      5  C5  I4B d   1      -0.629  -1.190   1.994  0.00  0.00     0.002 A 
ATOM      6  C6  I4B d   1      -0.032  -0.008   1.533  0.00  0.00     0.003 A 
ENDROOT
BRANCH   1   7
ATOM      7  C1' I4B d   1       0.800   1.426  -0.352  0.00  0.00     0.060 C 
BRANCH   7   8
ATOM      8  C2' I4B d   1       0.993   2.383   0.807  0.00  0.00    -0.013 C 
ATOM      9  C4' I4B d   1       2.325   3.081   0.721  0.00  0.00     0.013 C 
ATOM     10  C3' I4B d   1      -0.137   3.369   0.786  0.00  0.00     0.013 C 
ENDBRANCH   7   8
ENDBRANCH   1   7
TORSDOF 2
ENDMDL
