MODEL 1
REMARK minimizedAffinity 2.06211853
REMARK minimizedRMSD -1
REMARK  2 active torsions:
REMARK  status: ('A' for Active; 'I' for Inactive)
REMARK    1  A    between atoms: C2'_3  and  C1'_4 
REMARK    2  A    between atoms: C1'_4  and  C1_5 
ROOT
ATOM      1  C1  I4B d   1       0.219   0.901   0.561  0.00  0.00    -0.075 A 
ATOM      2  C2  I4B d   1       0.201  -0.177  -0.289  0.00  0.00     0.003 A 
ATOM      3  C3  I4B d   1      -0.665  -1.268  -0.037  0.00  0.00     0.002 A 
ATOM      4  C4  I4B d   1      -1.455  -1.262   1.094  0.00  0.00    -0.004 A 
ATOM      5  C5  I4B d   1      -1.452  -0.158   1.942  0.00  0.00     0.002 A 
ATOM      6  C6  I4B d   1      -0.619   0.936   1.667  0.00  0.00     0.003 A 
ENDROOT
BRANCH   1   7
ATOM      7  C1' I4B d   1       1.171   2.022   0.283  0.00  0.00     0.060 C 
BRANCH   7   8
ATOM      8  C2' I4B d   1       0.923   3.109   1.308  0.00  0.00    -0.013 C 
ATOM      9  C4' I4B d   1       2.215   3.736   1.762  0.00  0.00     0.013 C 
ATOM     10  C3' I4B d   1       0.014   4.130   0.691  0.00  0.00     0.013 C 
ENDBRANCH   7   8
ENDBRANCH   1   7
TORSDOF 2
ENDMDL
