MODEL 1
REMARK minimizedAffinity 4.73612213
REMARK minimizedRMSD -1
REMARK  2 active torsions:
REMARK  status: ('A' for Active; 'I' for Inactive)
REMARK    1  A    between atoms: C2'_3  and  C1'_4 
REMARK    2  A    between atoms: C1'_4  and  C1_5 
ROOT
ATOM      1  C1  I4B d   1      -0.306  -0.381  -1.504  0.00  0.00    -0.075 A 
ATOM      2  C2  I4B d   1      -0.682   0.739  -0.805  0.00  0.00     0.003 A 
ATOM      3  C3  I4B d   1      -1.160   0.624   0.522  0.00  0.00     0.002 A 
ATOM      4  C4  I4B d   1      -1.293  -0.626   1.091  0.00  0.00    -0.004 A 
ATOM      5  C5  I4B d   1      -0.890  -1.759   0.389  0.00  0.00     0.002 A 
ATOM      6  C6  I4B d   1      -0.381  -1.635  -0.912  0.00  0.00     0.003 A 
ENDROOT
BRANCH   1   7
ATOM      7  C1' I4B d   1       0.164  -0.226  -2.916  0.00  0.00     0.060 C 
BRANCH   7   8
ATOM      8  C2' I4B d   1       1.677  -0.303  -2.915  0.00  0.00    -0.013 C 
ATOM      9  C4' I4B d   1       2.250   0.232  -1.630  0.00  0.00     0.013 C 
ATOM     10  C3' I4B d   1       2.068  -1.735  -3.127  0.00  0.00     0.013 C 
ENDBRANCH   7   8
ENDBRANCH   1   7
TORSDOF 2
ENDMDL
