MODEL 1
REMARK minimizedAffinity -6.63808107
REMARK minimizedRMSD -1
REMARK  2 active torsions:
REMARK  status: ('A' for Active; 'I' for Inactive)
REMARK    1  A    between atoms: C2'_3  and  C1'_4 
REMARK    2  A    between atoms: C1'_4  and  C1_5 
ROOT
ATOM      1  C1  I4B d   1       0.330  -0.161  -0.221  0.00  0.00    -0.075 A 
ATOM      2  C2  I4B d   1      -0.789  -0.468   0.514  0.00  0.00     0.003 A 
ATOM      3  C3  I4B d   1      -1.036  -1.803   0.913  0.00  0.00     0.002 A 
ATOM      4  C4  I4B d   1      -0.171  -2.803   0.515  0.00  0.00    -0.004 A 
ATOM      5  C5  I4B d   1       0.974  -2.487  -0.210  0.00  0.00     0.002 A 
ATOM      6  C6  I4B d   1       1.233  -1.157  -0.570  0.00  0.00     0.003 A 
ENDROOT
BRANCH   1   7
ATOM      7  C1' I4B d   1       0.543   1.255  -0.653  0.00  0.00     0.060 C 
BRANCH   7   8
ATOM      8  C2' I4B d   1       1.296   1.971   0.449  0.00  0.00    -0.013 C 
ATOM      9  C4' I4B d   1       2.750   2.141   0.095  0.00  0.00     0.013 C 
ATOM     10  C3' I4B d   1       0.635   3.298   0.674  0.00  0.00     0.013 C 
ENDBRANCH   7   8
ENDBRANCH   1   7
TORSDOF 2
ENDMDL
