MODEL 1
REMARK minimizedAffinity -2.18977332
REMARK minimizedRMSD -1
REMARK  2 active torsions:
REMARK  status: ('A' for Active; 'I' for Inactive)
REMARK    1  A    between atoms: C2'_3  and  C1'_4 
REMARK    2  A    between atoms: C1'_4  and  C1_5 
ROOT
ATOM      1  C1  I4B d   1      -0.254   0.851  -0.205  0.00  0.00    -0.075 A 
ATOM      2  C2  I4B d   1       0.169  -0.092  -1.108  0.00  0.00     0.003 A 
ATOM      3  C3  I4B d   1      -0.089  -1.465  -0.878  0.00  0.00     0.002 A 
ATOM      4  C4  I4B d   1      -0.724  -1.852   0.285  0.00  0.00    -0.004 A 
ATOM      5  C5  I4B d   1      -1.173  -0.892   1.188  0.00  0.00     0.002 A 
ATOM      6  C6  I4B d   1      -0.947   0.469   0.936  0.00  0.00     0.003 A 
ENDROOT
BRANCH   1   7
ATOM      7  C1' I4B d   1       0.064   2.290  -0.464  0.00  0.00     0.060 C 
BRANCH   7   8
ATOM      8  C2' I4B d   1       1.342   2.626   0.278  0.00  0.00    -0.013 C 
ATOM      9  C4' I4B d   1       2.552   2.401  -0.590  0.00  0.00     0.013 C 
ATOM     10  C3' I4B d   1       1.255   4.054   0.727  0.00  0.00     0.013 C 
ENDBRANCH   7   8
ENDBRANCH   1   7
TORSDOF 2
ENDMDL
