MODEL 1
REMARK minimizedAffinity -5.55960512
REMARK minimizedRMSD -1
REMARK  2 active torsions:
REMARK  status: ('A' for Active; 'I' for Inactive)
REMARK    1  A    between atoms: C2'_3  and  C1'_4 
REMARK    2  A    between atoms: C1'_4  and  C1_5 
ROOT
ATOM      1  C1  I4B d   1      -0.092   0.035  -0.356  0.00  0.00    -0.075 A 
ATOM      2  C2  I4B d   1       0.346  -1.214  -0.722  0.00  0.00     0.003 A 
ATOM      3  C3  I4B d   1       0.027  -2.342   0.072  0.00  0.00     0.002 A 
ATOM      4  C4  I4B d   1      -0.684  -2.170   1.242  0.00  0.00    -0.004 A 
ATOM      5  C5  I4B d   1      -1.147  -0.907   1.600  0.00  0.00     0.002 A 
ATOM      6  C6  I4B d   1      -0.860   0.201   0.789  0.00  0.00     0.003 A 
ENDROOT
BRANCH   1   7
ATOM      7  C1' I4B d   1       0.291   1.209  -1.200  0.00  0.00     0.060 C 
BRANCH   7   8
ATOM      8  C2' I4B d   1       1.158   2.124  -0.360  0.00  0.00    -0.013 C 
ATOM      9  C4' I4B d   1       2.404   2.528  -1.104  0.00  0.00     0.013 C 
ATOM     10  C3' I4B d   1       0.339   3.323   0.014  0.00  0.00     0.013 C 
ENDBRANCH   7   8
ENDBRANCH   1   7
TORSDOF 2
ENDMDL
