MODEL 1
REMARK minimizedAffinity -5.18321466
REMARK minimizedRMSD -1
REMARK  2 active torsions:
REMARK  status: ('A' for Active; 'I' for Inactive)
REMARK    1  A    between atoms: C2'_3  and  C1'_4 
REMARK    2  A    between atoms: C1'_4  and  C1_5 
ROOT
ATOM      1  C1  I4B d   1      -0.236   0.037  -0.035  0.00  0.00    -0.075 A 
ATOM      2  C2  I4B d   1      -0.584  -0.102   1.285  0.00  0.00     0.003 A 
ATOM      3  C3  I4B d   1      -0.944  -1.372   1.798  0.00  0.00     0.002 A 
ATOM      4  C4  I4B d   1      -0.992  -2.459   0.949  0.00  0.00    -0.004 A 
ATOM      5  C5  I4B d   1      -0.616  -2.321  -0.384  0.00  0.00     0.002 A 
ATOM      6  C6  I4B d   1      -0.224  -1.068  -0.877  0.00  0.00     0.003 A 
ENDROOT
BRANCH   1   7
ATOM      7  C1' I4B d   1       0.108   1.398  -0.551  0.00  0.00     0.060 C 
BRANCH   7   8
ATOM      8  C2' I4B d   1       1.059   2.044   0.435  0.00  0.00    -0.013 C 
ATOM      9  C4' I4B d   1       2.490   1.692   0.123  0.00  0.00     0.013 C 
ATOM     10  C3' I4B d   1       0.843   3.528   0.383  0.00  0.00     0.013 C 
ENDBRANCH   7   8
ENDBRANCH   1   7
TORSDOF 2
ENDMDL
