MODEL 1
REMARK minimizedAffinity 0.136073381
REMARK minimizedRMSD -1
REMARK  2 active torsions:
REMARK  status: ('A' for Active; 'I' for Inactive)
REMARK    1  A    between atoms: C2'_3  and  C1'_4 
REMARK    2  A    between atoms: C1'_4  and  C1_5 
ROOT
ATOM      1  C1  I4B d   1      -0.120   0.623   0.665  0.00  0.00    -0.075 A 
ATOM      2  C2  I4B d   1       0.260   0.921  -0.620  0.00  0.00     0.003 A 
ATOM      3  C3  I4B d   1       0.348  -0.103  -1.594  0.00  0.00     0.002 A 
ATOM      4  C4  I4B d   1       0.097  -1.410  -1.229  0.00  0.00    -0.004 A 
ATOM      5  C5  I4B d   1      -0.310  -1.708   0.068  0.00  0.00     0.002 A 
ATOM      6  C6  I4B d   1      -0.432  -0.683   1.018  0.00  0.00     0.003 A 
ENDROOT
BRANCH   1   7
ATOM      7  C1' I4B d   1      -0.170   1.725   1.675  0.00  0.00     0.060 C 
BRANCH   7   8
ATOM      8  C2' I4B d   1       0.364   2.983   1.022  0.00  0.00    -0.013 C 
ATOM      9  C4' I4B d   1      -0.642   4.102   1.091  0.00  0.00     0.013 C 
ATOM     10  C3' I4B d   1       1.640   3.358   1.714  0.00  0.00     0.013 C 
ENDBRANCH   7   8
ENDBRANCH   1   7
TORSDOF 2
ENDMDL
