MODEL 1
REMARK minimizedAffinity -3.64006352
REMARK minimizedRMSD -1
REMARK  2 active torsions:
REMARK  status: ('A' for Active; 'I' for Inactive)
REMARK    1  A    between atoms: C2'_3  and  C1'_4 
REMARK    2  A    between atoms: C1'_4  and  C1_5 
ROOT
ATOM      1  C1  I4B d   1       0.905   1.354  -0.838  0.00  0.00    -0.075 A 
ATOM      2  C2  I4B d   1       1.051   0.772  -2.072  0.00  0.00     0.003 A 
ATOM      3  C3  I4B d   1       0.269  -0.355  -2.426  0.00  0.00     0.002 A 
ATOM      4  C4  I4B d   1      -0.603  -0.893  -1.502  0.00  0.00    -0.004 A 
ATOM      5  C5  I4B d   1      -0.766  -0.288  -0.259  0.00  0.00     0.002 A 
ATOM      6  C6  I4B d   1      -0.017   0.851   0.071  0.00  0.00     0.003 A 
ENDROOT
BRANCH   1   7
ATOM      7  C1' I4B d   1       1.770   2.523  -0.486  0.00  0.00     0.060 C 
BRANCH   7   8
ATOM      8  C2' I4B d   1       1.219   3.147   0.780  0.00  0.00    -0.013 C 
ATOM      9  C4' I4B d   1       2.329   3.599   1.693  0.00  0.00     0.013 C 
ATOM     10  C3' I4B d   1       0.340   4.296   0.385  0.00  0.00     0.013 C 
ENDBRANCH   7   8
ENDBRANCH   1   7
TORSDOF 2
ENDMDL
