MODEL 1
REMARK minimizedAffinity -3.80770373
REMARK minimizedRMSD -1
REMARK  2 active torsions:
REMARK  status: ('A' for Active; 'I' for Inactive)
REMARK    1  A    between atoms: C2'_3  and  C1'_4 
REMARK    2  A    between atoms: C1'_4  and  C1_5 
ROOT
ATOM      1  C1  I4B d   1      -0.030   0.759  -0.064  0.00  0.00    -0.075 A 
ATOM      2  C2  I4B d   1       0.017   0.275  -1.348  0.00  0.00     0.003 A 
ATOM      3  C3  I4B d   1      -0.146  -1.110  -1.593  0.00  0.00     0.002 A 
ATOM      4  C4  I4B d   1      -0.302  -1.975  -0.529  0.00  0.00    -0.004 A 
ATOM      5  C5  I4B d   1      -0.372  -1.479   0.769  0.00  0.00     0.002 A 
ATOM      6  C6  I4B d   1      -0.248  -0.102   1.003  0.00  0.00     0.003 A 
ENDROOT
BRANCH   1   7
ATOM      7  C1' I4B d   1       0.178   2.223   0.162  0.00  0.00     0.060 C 
BRANCH   7   8
ATOM      8  C2' I4B d   1       1.623   2.432   0.570  0.00  0.00    -0.013 C 
ATOM      9  C4' I4B d   1       2.360   3.270  -0.441  0.00  0.00     0.013 C 
ATOM     10  C3' I4B d   1       1.632   3.081   1.922  0.00  0.00     0.013 C 
ENDBRANCH   7   8
ENDBRANCH   1   7
TORSDOF 2
ENDMDL
