MODEL 1
REMARK minimizedAffinity 6.52141666
REMARK minimizedRMSD -1
REMARK  1 active torsions:
REMARK  status: ('A' for Active; 'I' for Inactive)
REMARK    1  A    between atoms: C1_2  and  C2_3 
ROOT
ATOM      1  C2  UNL d   1       3.597   3.194   3.765  0.00  0.00    -0.081 A 
ATOM      2  C3  UNL d   1       4.088   2.853   5.032  0.00  0.00     0.006 A 
ATOM      3  C4  UNL d   1       4.876   3.754   5.752  0.00  0.00     0.002 A 
ATOM      4  C5  UNL d   1       5.180   5.012   5.222  0.00  0.00    -0.080 A 
ATOM      5  C6  UNL d   1       6.000   6.000   5.998  0.00  0.00     0.076 C 
ATOM      6  C7  UNL d   1       4.705   5.346   3.949  0.00  0.00     0.002 A 
ATOM      7  C8  UNL d   1       3.918   4.446   3.228  0.00  0.00     0.006 A 
ENDROOT
BRANCH   1   8
ATOM      8  C1  UNL d   1       2.694   2.250   3.013  0.00  0.00     0.054 C 
ATOM      9  C   UNL d   1       1.290   2.242   3.602  0.00  0.00     0.018 C 
ENDBRANCH   1   8
TORSDOF 1
ENDMDL
