MODEL 1
REMARK minimizedAffinity 7.59559393
REMARK minimizedRMSD -1
REMARK  1 active torsions:
REMARK  status: ('A' for Active; 'I' for Inactive)
REMARK    1  A    between atoms: C1_2  and  C2_3 
ROOT
ATOM      1  C2  UNL d   1       1.651   1.833   2.157  0.00  0.00    -0.081 A 
ATOM      2  C3  UNL d   1       2.654   1.987   1.192  0.00  0.00     0.006 A 
ATOM      3  C4  UNL d   1       2.743   1.102   0.115  0.00  0.00     0.002 A 
ATOM      4  C5  UNL d   1       1.826   0.053  -0.019  0.00  0.00    -0.080 A 
ATOM      5  C6  UNL d   1       1.891  -0.886  -1.186  0.00  0.00     0.076 C 
ATOM      6  C7  UNL d   1       0.835  -0.111   0.954  0.00  0.00     0.002 A 
ATOM      7  C8  UNL d   1       0.746   0.774   2.032  0.00  0.00     0.006 A 
ENDROOT
BRANCH   1   8
ATOM      8  C1  UNL d   1       1.513   2.825   3.284  0.00  0.00     0.054 C 
ATOM      9  C   UNL d   1       0.730   2.234   4.448  0.00  0.00     0.018 C 
ENDBRANCH   1   8
TORSDOF 1
ENDMDL
