MODEL 1
REMARK minimizedAffinity 9.30539322
REMARK minimizedRMSD -1
REMARK  1 active torsions:
REMARK  status: ('A' for Active; 'I' for Inactive)
REMARK    1  A    between atoms: C1_2  and  C2_3 
ROOT
ATOM      1  C2  UNL d   1       2.581   0.762  -0.621  0.00  0.00    -0.081 A 
ATOM      2  C3  UNL d   1       3.607   1.553  -1.153  0.00  0.00     0.006 A 
ATOM      3  C4  UNL d   1       4.059   2.683  -0.467  0.00  0.00     0.002 A 
ATOM      4  C5  UNL d   1       3.499   3.035   0.766  0.00  0.00    -0.080 A 
ATOM      5  C6  UNL d   1       3.996   4.228   1.527  0.00  0.00     0.076 C 
ATOM      6  C7  UNL d   1       2.463   2.255   1.290  0.00  0.00     0.002 A 
ATOM      7  C8  UNL d   1       2.010   1.126   0.604  0.00  0.00     0.006 A 
ENDROOT
BRANCH   1   8
ATOM      8  C1  UNL d   1       2.136  -0.493  -1.327  0.00  0.00     0.054 C 
ATOM      9  C   UNL d   1       2.752  -1.732  -0.694  0.00  0.00     0.018 C 
ENDBRANCH   1   8
TORSDOF 1
ENDMDL
