MODEL 1
REMARK minimizedAffinity 13.5457802
REMARK minimizedRMSD -1
REMARK  1 active torsions:
REMARK  status: ('A' for Active; 'I' for Inactive)
REMARK    1  A    between atoms: C1_2  and  C2_3 
ROOT
ATOM      1  C2  UNL d   1       4.486   0.064   0.474  0.00  0.00    -0.081 A 
ATOM      2  C3  UNL d   1       4.037   1.139  -0.303  0.00  0.00     0.006 A 
ATOM      3  C4  UNL d   1       2.728   1.162  -0.791  0.00  0.00     0.002 A 
ATOM      4  C5  UNL d   1       1.845   0.116  -0.504  0.00  0.00    -0.080 A 
ATOM      5  C6  UNL d   1       0.429   0.143  -0.997  0.00  0.00     0.076 C 
ATOM      6  C7  UNL d   1       2.298  -0.967   0.257  0.00  0.00     0.002 A 
ATOM      7  C8  UNL d   1       3.607  -0.991   0.745  0.00  0.00     0.006 A 
ENDROOT
BRANCH   1   8
ATOM      8  C1  UNL d   1       5.876   0.066   1.056  0.00  0.00     0.054 C 
ATOM      9  C   UNL d   1       5.992  -0.912   2.216  0.00  0.00     0.018 C 
ENDBRANCH   1   8
TORSDOF 1
ENDMDL
