MODEL 1
REMARK minimizedAffinity 22.208046
REMARK minimizedRMSD -1
REMARK  1 active torsions:
REMARK  status: ('A' for Active; 'I' for Inactive)
REMARK    1  A    between atoms: C1_2  and  C2_3 
ROOT
ATOM      1  C2  UNL d   1      -5.279   1.591  -5.541  0.00  0.00    -0.081 A 
ATOM      2  C3  UNL d   1      -5.998   2.751  -5.226  0.00  0.00     0.006 A 
ATOM      3  C4  UNL d   1      -5.383   4.003  -5.287  0.00  0.00     0.002 A 
ATOM      4  C5  UNL d   1      -4.043   4.118  -5.672  0.00  0.00    -0.080 A 
ATOM      5  C6  UNL d   1      -3.379   5.460  -5.771  0.00  0.00     0.076 C 
ATOM      6  C7  UNL d   1      -3.320   2.958  -5.970  0.00  0.00     0.002 A 
ATOM      7  C8  UNL d   1      -3.934   1.705  -5.908  0.00  0.00     0.006 A 
ENDROOT
BRANCH   1   8
ATOM      8  C1  UNL d   1      -5.957   0.245  -5.539  0.00  0.00     0.054 C 
ATOM      9  C   UNL d   1      -5.830  -0.437  -4.184  0.00  0.00     0.018 C 
ENDBRANCH   1   8
TORSDOF 1
ENDMDL
