MODEL 1
REMARK minimizedAffinity -4.44758129
REMARK minimizedRMSD -1
REMARK  1 active torsions:
REMARK  status: ('A' for Active; 'I' for Inactive)
REMARK    1  A    between atoms: C1_2  and  C2_3 
ROOT
ATOM      1  C2  UNL d   1       0.604   0.873  -0.943  0.00  0.00    -0.076 A 
ATOM      2  C3  UNL d   1       1.688   1.468  -1.611  0.00  0.00     0.004 A 
ATOM      3  C4  UNL d   1       1.995   1.127  -2.927  0.00  0.00    -0.003 A 
ATOM      4  C5  UNL d   1       1.222   0.186  -3.598  0.00  0.00     0.000 A 
ATOM      5  C6  UNL d   1       0.131  -0.401  -2.957  0.00  0.00     0.000 A 
ATOM      6  C7  UNL d   1      -0.202  -0.057  -1.636  0.00  0.00    -0.073 A 
ATOM      7  C8  UNL d   1      -1.385  -0.726  -0.991  0.00  0.00     0.078 C 
ENDROOT
BRANCH   1   8
ATOM      8  C1  UNL d   1       0.336   1.262   0.493  0.00  0.00     0.053 C 
ATOM      9  C   UNL d   1       1.268   0.562   1.470  0.00  0.00     0.018 C 
ENDBRANCH   1   8
TORSDOF 1
ENDMDL
