MODEL 1
REMARK minimizedAffinity -2.7279222
REMARK minimizedRMSD -1
REMARK  1 active torsions:
REMARK  status: ('A' for Active; 'I' for Inactive)
REMARK    1  A    between atoms: C1_2  and  C2_3 
ROOT
ATOM      1  C2  UNL d   1      -1.848  -0.081   1.611  0.00  0.00    -0.076 A 
ATOM      2  C3  UNL d   1      -1.909  -0.528   0.280  0.00  0.00     0.004 A 
ATOM      3  C4  UNL d   1      -0.891  -0.231  -0.624  0.00  0.00    -0.003 A 
ATOM      4  C5  UNL d   1       0.206   0.517  -0.212  0.00  0.00     0.000 A 
ATOM      5  C6  UNL d   1       0.292   0.954   1.110  0.00  0.00     0.000 A 
ATOM      6  C7  UNL d   1      -0.718   0.649   2.038  0.00  0.00    -0.073 A 
ATOM      7  C8  UNL d   1      -0.577   1.151   3.449  0.00  0.00     0.078 C 
ENDROOT
BRANCH   1   8
ATOM      8  C1  UNL d   1      -2.995  -0.411   2.539  0.00  0.00     0.053 C 
ATOM      9  C   UNL d   1      -2.902  -1.821   3.102  0.00  0.00     0.018 C 
ENDBRANCH   1   8
TORSDOF 1
ENDMDL
