MODEL 1
REMARK minimizedAffinity -4.34430838
REMARK minimizedRMSD -1
REMARK  1 active torsions:
REMARK  status: ('A' for Active; 'I' for Inactive)
REMARK    1  A    between atoms: C1_2  and  C2_3 
ROOT
ATOM      1  C2  UNL d   1      -0.584   0.307   1.113  0.00  0.00    -0.076 A 
ATOM      2  C3  UNL d   1       0.808   0.339   1.301  0.00  0.00     0.004 A 
ATOM      3  C4  UNL d   1       1.675  -0.168   0.335  0.00  0.00    -0.003 A 
ATOM      4  C5  UNL d   1       1.164  -0.714  -0.837  0.00  0.00     0.000 A 
ATOM      5  C6  UNL d   1      -0.215  -0.739  -1.049  0.00  0.00     0.000 A 
ATOM      6  C7  UNL d   1      -1.102  -0.217  -0.091  0.00  0.00    -0.073 A 
ATOM      7  C8  UNL d   1      -2.579  -0.275  -0.369  0.00  0.00     0.078 C 
ENDROOT
BRANCH   1   8
ATOM      8  C1  UNL d   1      -1.476   0.847   2.208  0.00  0.00     0.053 C 
ATOM      9  C   UNL d   1      -0.791   1.917   3.043  0.00  0.00     0.018 C 
ENDBRANCH   1   8
TORSDOF 1
ENDMDL
