MODEL 1
REMARK minimizedAffinity -2.30078936
REMARK minimizedRMSD -1
REMARK  1 active torsions:
REMARK  status: ('A' for Active; 'I' for Inactive)
REMARK    1  A    between atoms: C1_2  and  C2_3 
ROOT
ATOM      1  C2  UNL d   1      -0.276   0.809   1.388  0.00  0.00    -0.076 A 
ATOM      2  C3  UNL d   1      -1.329   0.594   0.481  0.00  0.00     0.004 A 
ATOM      3  C4  UNL d   1      -1.112  -0.069  -0.726  0.00  0.00    -0.003 A 
ATOM      4  C5  UNL d   1       0.160  -0.530  -1.045  0.00  0.00     0.000 A 
ATOM      5  C6  UNL d   1       1.212  -0.341  -0.149  0.00  0.00     0.000 A 
ATOM      6  C7  UNL d   1       1.008   0.311   1.079  0.00  0.00    -0.073 A 
ATOM      7  C8  UNL d   1       2.179   0.492   2.004  0.00  0.00     0.078 C 
ENDROOT
BRANCH   1   8
ATOM      8  C1  UNL d   1      -0.566   1.558   2.668  0.00  0.00     0.053 C 
ATOM      9  C   UNL d   1      -1.193   0.672   3.734  0.00  0.00     0.018 C 
ENDBRANCH   1   8
TORSDOF 1
ENDMDL
