MODEL 1
REMARK minimizedAffinity -4.78750944
REMARK minimizedRMSD -1
REMARK  1 active torsions:
REMARK  status: ('A' for Active; 'I' for Inactive)
REMARK    1  A    between atoms: C1_2  and  C2_3 
ROOT
ATOM      1  C2  UNL d   1      -0.380  -0.024   0.354  0.00  0.00    -0.076 A 
ATOM      2  C3  UNL d   1       0.550   0.451   1.296  0.00  0.00     0.004 A 
ATOM      3  C4  UNL d   1       0.135   0.919   2.541  0.00  0.00    -0.003 A 
ATOM      4  C5  UNL d   1      -1.217   0.920   2.866  0.00  0.00     0.000 A 
ATOM      5  C6  UNL d   1      -2.152   0.437   1.951  0.00  0.00     0.000 A 
ATOM      6  C7  UNL d   1      -1.749  -0.054   0.697  0.00  0.00    -0.073 A 
ATOM      7  C8  UNL d   1      -2.801  -0.558  -0.253  0.00  0.00     0.078 C 
ENDROOT
BRANCH   1   8
ATOM      8  C1  UNL d   1       0.126  -0.494  -0.991  0.00  0.00     0.053 C 
ATOM      9  C   UNL d   1       1.177  -1.586  -0.868  0.00  0.00     0.018 C 
ENDBRANCH   1   8
TORSDOF 1
ENDMDL
