MODEL 1
REMARK minimizedAffinity -3.71416783
REMARK minimizedRMSD -1
REMARK  1 active torsions:
REMARK  status: ('A' for Active; 'I' for Inactive)
REMARK    1  A    between atoms: C1_2  and  C2_3 
ROOT
ATOM      1  C2  UNL d   1      -1.658   0.418   2.173  0.00  0.00    -0.076 A 
ATOM      2  C3  UNL d   1      -1.040   1.294   3.083  0.00  0.00     0.004 A 
ATOM      3  C4  UNL d   1       0.136   1.964   2.747  0.00  0.00    -0.003 A 
ATOM      4  C5  UNL d   1       0.711   1.770   1.496  0.00  0.00     0.000 A 
ATOM      5  C6  UNL d   1       0.101   0.919   0.575  0.00  0.00     0.000 A 
ATOM      6  C7  UNL d   1      -1.093   0.249   0.892  0.00  0.00    -0.073 A 
ATOM      7  C8  UNL d   1      -1.704  -0.662  -0.138  0.00  0.00     0.078 C 
ENDROOT
BRANCH   1   8
ATOM      8  C1  UNL d   1      -2.917  -0.302   2.603  0.00  0.00     0.053 C 
ATOM      9  C   UNL d   1      -2.662  -1.306   3.716  0.00  0.00     0.018 C 
ENDBRANCH   1   8
TORSDOF 1
ENDMDL
