MODEL 1
REMARK minimizedAffinity 0.293480724
REMARK minimizedRMSD -1
REMARK  1 active torsions:
REMARK  status: ('A' for Active; 'I' for Inactive)
REMARK    1  A    between atoms: C1_2  and  C2_3 
ROOT
ATOM      1  C2  UNL d   1      -0.038  -0.356  -0.394  0.00  0.00    -0.076 A 
ATOM      2  C3  UNL d   1      -1.335   0.185  -0.429  0.00  0.00     0.004 A 
ATOM      3  C4  UNL d   1      -2.053   0.405   0.745  0.00  0.00    -0.003 A 
ATOM      4  C5  UNL d   1      -1.485   0.088   1.975  0.00  0.00     0.000 A 
ATOM      5  C6  UNL d   1      -0.192  -0.432   2.030  0.00  0.00     0.000 A 
ATOM      6  C7  UNL d   1       0.551  -0.645   0.856  0.00  0.00    -0.073 A 
ATOM      7  C8  UNL d   1       1.939  -1.214   0.974  0.00  0.00     0.078 C 
ENDROOT
BRANCH   1   8
ATOM      8  C1  UNL d   1       0.682  -0.598  -1.701  0.00  0.00     0.053 C 
ATOM      9  C   UNL d   1       0.678   0.627  -2.603  0.00  0.00     0.018 C 
ENDBRANCH   1   8
TORSDOF 1
ENDMDL
