MODEL 1
REMARK minimizedAffinity -2.36677027
REMARK minimizedRMSD -1
REMARK  1 active torsions:
REMARK  status: ('A' for Active; 'I' for Inactive)
REMARK    1  A    between atoms: C1_2  and  C2_3 
ROOT
ATOM      1  C2  UNL d   1      -0.968  -0.090   1.100  0.00  0.00    -0.076 A 
ATOM      2  C3  UNL d   1       0.097   0.680   0.600  0.00  0.00     0.004 A 
ATOM      3  C4  UNL d   1       0.486   1.861   1.230  0.00  0.00    -0.003 A 
ATOM      4  C5  UNL d   1      -0.183   2.291   2.370  0.00  0.00     0.000 A 
ATOM      5  C6  UNL d   1      -1.230   1.531   2.890  0.00  0.00     0.000 A 
ATOM      6  C7  UNL d   1      -1.624   0.330   2.277  0.00  0.00    -0.073 A 
ATOM      7  C8  UNL d   1      -2.764  -0.447   2.877  0.00  0.00     0.078 C 
ENDROOT
BRANCH   1   8
ATOM      8  C1  UNL d   1      -1.363  -1.347   0.359  0.00  0.00     0.053 C 
ATOM      9  C   UNL d   1      -0.164  -2.090  -0.209  0.00  0.00     0.018 C 
ENDBRANCH   1   8
TORSDOF 1
ENDMDL
