MODEL 1
REMARK minimizedAffinity -3.00661278
REMARK minimizedRMSD -1
REMARK  1 active torsions:
REMARK  status: ('A' for Active; 'I' for Inactive)
REMARK    1  A    between atoms: C1_2  and  C2_3 
ROOT
ATOM      1  C2  UNL d   1       0.550  -0.170  -3.198  0.00  0.00    -0.076 A 
ATOM      2  C3  UNL d   1      -0.549  -0.661  -3.923  0.00  0.00     0.004 A 
ATOM      3  C4  UNL d   1      -1.105   0.074  -4.969  0.00  0.00    -0.003 A 
ATOM      4  C5  UNL d   1      -0.571   1.313  -5.306  0.00  0.00     0.000 A 
ATOM      5  C6  UNL d   1       0.530   1.808  -4.608  0.00  0.00     0.000 A 
ATOM      6  C7  UNL d   1       1.113   1.072  -3.562  0.00  0.00    -0.073 A 
ATOM      7  C8  UNL d   1       2.295   1.657  -2.839  0.00  0.00     0.078 C 
ENDROOT
BRANCH   1   8
ATOM      8  C1  UNL d   1       1.094  -0.999  -2.056  0.00  0.00     0.053 C 
ATOM      9  C   UNL d   1       0.424  -0.675  -0.730  0.00  0.00     0.018 C 
ENDBRANCH   1   8
TORSDOF 1
ENDMDL
