MODEL 1
REMARK minimizedAffinity 12.0347986
REMARK minimizedRMSD -1
REMARK  0 active torsions:
REMARK  status: ('A' for Active; 'I' for Inactive)
ROOT
ATOM      1  C1  DEN d   1       1.932   2.790  -0.069  0.00  0.00     0.130 A 
ATOM      2  C2  DEN d   1       2.612   2.203  -1.220  0.00  0.00    -0.031 A 
ATOM      3  C3  DEN d   1       2.761   0.755  -0.973  0.00  0.00     0.027 A 
ATOM      4  C4  DEN d   1       2.006  -0.629   1.068  0.00  0.00     0.027 A 
ATOM      5  C5  DEN d   1       1.397  -0.569   2.302  0.00  0.00    -0.003 A 
ATOM      6  C6  DEN d   1       0.958   0.611   2.843  0.00  0.00     0.001 A 
ATOM      7  C7  DEN d   1       1.081   1.773   2.128  0.00  0.00     0.017 A 
ATOM      8  C8  DEN d   1       1.701   1.721   0.886  0.00  0.00    -0.094 A 
ATOM      9  C9  DEN d   1       2.127   0.517   0.351  0.00  0.00    -0.072 A 
ENDROOT
TORSDOF 0
ENDMDL
