MODEL 1
REMARK minimizedAffinity 2.63669872
REMARK minimizedRMSD -1
REMARK  0 active torsions:
REMARK  status: ('A' for Active; 'I' for Inactive)
ROOT
ATOM      1  C1  DEN d   1       1.512   0.776  -1.956  0.00  0.00     0.130 A 
ATOM      2  C2  DEN d   1       2.299   1.884  -1.422  0.00  0.00    -0.031 A 
ATOM      3  C3  DEN d   1       1.948   2.049   0.003  0.00  0.00     0.027 A 
ATOM      4  C4  DEN d   1       0.275   0.698   1.428  0.00  0.00     0.027 A 
ATOM      5  C5  DEN d   1      -0.638  -0.332   1.411  0.00  0.00    -0.003 A 
ATOM      6  C6  DEN d   1      -0.922  -1.038   0.272  0.00  0.00     0.001 A 
ATOM      7  C7  DEN d   1      -0.252  -0.751  -0.888  0.00  0.00     0.017 A 
ATOM      8  C8  DEN d   1       0.665   0.291  -0.881  0.00  0.00    -0.094 A 
ATOM      9  C9  DEN d   1       0.947   0.985   0.284  0.00  0.00    -0.072 A 
ENDROOT
TORSDOF 0
ENDMDL
