MODEL 1
REMARK minimizedAffinity 9.72613716
REMARK minimizedRMSD -1
REMARK  0 active torsions:
REMARK  status: ('A' for Active; 'I' for Inactive)
ROOT
ATOM      1  C1  DEN d   1       0.513  -2.516   4.689  0.00  0.00     0.130 A 
ATOM      2  C2  DEN d   1       1.922  -2.651   5.046  0.00  0.00    -0.031 A 
ATOM      3  C3  DEN d   1       2.645  -1.486   4.498  0.00  0.00     0.027 A 
ATOM      4  C4  DEN d   1       1.723   0.506   3.144  0.00  0.00     0.027 A 
ATOM      5  C5  DEN d   1       0.590   1.055   2.584  0.00  0.00    -0.003 A 
ATOM      6  C6  DEN d   1      -0.631   0.440   2.657  0.00  0.00     0.001 A 
ATOM      7  C7  DEN d   1      -0.758  -0.739   3.343  0.00  0.00     0.017 A 
ATOM      8  C8  DEN d   1       0.381  -1.302   3.904  0.00  0.00    -0.094 A 
ATOM      9  C9  DEN d   1       1.605  -0.659   3.830  0.00  0.00    -0.072 A 
ENDROOT
TORSDOF 0
ENDMDL
