MODEL 1
REMARK minimizedAffinity 6.6284008
REMARK minimizedRMSD -1
REMARK  0 active torsions:
REMARK  status: ('A' for Active; 'I' for Inactive)
ROOT
ATOM      1  C1  DEN d   1       1.493  -0.668   1.124  0.00  0.00     0.130 A 
ATOM      2  C2  DEN d   1       2.837  -0.118   1.285  0.00  0.00    -0.031 A 
ATOM      3  C3  DEN d   1       2.751   1.032   2.207  0.00  0.00     0.027 A 
ATOM      4  C4  DEN d   1       0.682   2.007   3.399  0.00  0.00     0.027 A 
ATOM      5  C5  DEN d   1      -0.680   1.884   3.563  0.00  0.00    -0.003 A 
ATOM      6  C6  DEN d   1      -1.412   0.931   2.906  0.00  0.00     0.001 A 
ATOM      7  C7  DEN d   1      -0.779   0.034   2.086  0.00  0.00     0.017 A 
ATOM      8  C8  DEN d   1       0.593   0.156   1.909  0.00  0.00    -0.094 A 
ATOM      9  C9  DEN d   1       1.317   1.119   2.593  0.00  0.00    -0.072 A 
ENDROOT
TORSDOF 0
ENDMDL
