MODEL 1
REMARK minimizedAffinity 4.59104395
REMARK minimizedRMSD -1
REMARK  0 active torsions:
REMARK  status: ('A' for Active; 'I' for Inactive)
ROOT
ATOM      1  C1  DEN d   1      -0.027  -4.907  -4.059  0.00  0.00     0.130 A 
ATOM      2  C2  DEN d   1      -0.658  -4.934  -2.742  0.00  0.00    -0.031 A 
ATOM      3  C3  DEN d   1      -0.950  -3.541  -2.347  0.00  0.00     0.027 A 
ATOM      4  C4  DEN d   1      -0.494  -1.358  -3.643  0.00  0.00     0.027 A 
ATOM      5  C5  DEN d   1       0.034  -0.829  -4.800  0.00  0.00    -0.003 A 
ATOM      6  C6  DEN d   1       0.605  -1.612  -5.767  0.00  0.00     0.001 A 
ATOM      7  C7  DEN d   1       0.620  -2.974  -5.616  0.00  0.00     0.017 A 
ATOM      8  C8  DEN d   1       0.096  -3.514  -4.449  0.00  0.00    -0.094 A 
ATOM      9  C9  DEN d   1      -0.487  -2.706  -3.489  0.00  0.00    -0.072 A 
ENDROOT
TORSDOF 0
ENDMDL
