MODEL 1
REMARK minimizedAffinity 8.47692776
REMARK minimizedRMSD -1
REMARK  0 active torsions:
REMARK  status: ('A' for Active; 'I' for Inactive)
ROOT
ATOM      1  C1  DEN d   1      -0.942  -3.695  -1.163  0.00  0.00     0.130 A 
ATOM      2  C2  DEN d   1      -1.251  -2.270  -1.085  0.00  0.00    -0.031 A 
ATOM      3  C3  DEN d   1      -1.735  -1.835  -2.411  0.00  0.00     0.027 A 
ATOM      4  C4  DEN d   1      -2.040  -3.223  -4.563  0.00  0.00     0.027 A 
ATOM      5  C5  DEN d   1      -1.899  -4.475  -5.121  0.00  0.00    -0.003 A 
ATOM      6  C6  DEN d   1      -1.401  -5.537  -4.414  0.00  0.00     0.001 A 
ATOM      7  C7  DEN d   1      -1.069  -5.379  -3.095  0.00  0.00     0.017 A 
ATOM      8  C8  DEN d   1      -1.201  -4.118  -2.527  0.00  0.00    -0.094 A 
ATOM      9  C9  DEN d   1      -1.718  -3.060  -3.255  0.00  0.00    -0.072 A 
ENDROOT
TORSDOF 0
ENDMDL
