MODEL 1
REMARK minimizedAffinity 9.97232342
REMARK minimizedRMSD -1
REMARK  0 active torsions:
REMARK  status: ('A' for Active; 'I' for Inactive)
ROOT
ATOM      1  C1  DEN d   1      -1.302  -5.407  -3.221  0.00  0.00     0.130 A 
ATOM      2  C2  DEN d   1      -1.492  -5.484  -4.666  0.00  0.00    -0.031 A 
ATOM      3  C3  DEN d   1      -1.766  -4.121  -5.164  0.00  0.00     0.027 A 
ATOM      4  C4  DEN d   1      -1.907  -1.910  -3.844  0.00  0.00     0.027 A 
ATOM      5  C5  DEN d   1      -1.828  -1.343  -2.591  0.00  0.00    -0.003 A 
ATOM      6  C6  DEN d   1      -1.603  -2.090  -1.465  0.00  0.00     0.001 A 
ATOM      7  C7  DEN d   1      -1.405  -3.441  -1.575  0.00  0.00     0.017 A 
ATOM      8  C8  DEN d   1      -1.491  -4.020  -2.834  0.00  0.00    -0.094 A 
ATOM      9  C9  DEN d   1      -1.707  -3.247  -3.962  0.00  0.00    -0.072 A 
ENDROOT
TORSDOF 0
ENDMDL
