MODEL 1
REMARK minimizedAffinity 6.8796792
REMARK minimizedRMSD -1
REMARK  1 active torsions:
REMARK  status: ('A' for Active; 'I' for Inactive)
REMARK    1  A    between atoms: C1_2  and  C2_3 
ROOT
ATOM      1  C2  UNL d   1       0.971   4.962  -4.517  0.00  0.00    -0.081 A 
ATOM      2  C3  UNL d   1       2.253   4.912  -3.955  0.00  0.00     0.006 A 
ATOM      3  C4  UNL d   1       2.564   3.955  -2.986  0.00  0.00     0.002 A 
ATOM      4  C5  UNL d   1       1.603   3.028  -2.570  0.00  0.00    -0.080 A 
ATOM      5  C6  UNL d   1       1.934   1.976  -1.553  0.00  0.00     0.076 C 
ATOM      6  C7  UNL d   1       0.317   3.089  -3.118  0.00  0.00     0.002 A 
ATOM      7  C8  UNL d   1       0.005   4.046  -4.086  0.00  0.00     0.006 A 
ENDROOT
BRANCH   1   8
ATOM      8  C1  UNL d   1       0.651   5.952  -5.608  0.00  0.00     0.054 C 
ATOM      9  C   UNL d   1      -0.821   5.896  -5.990  0.00  0.00     0.018 C 
ENDBRANCH   1   8
TORSDOF 1
ENDMDL
