MODEL 1
REMARK minimizedAffinity 2.1428616
REMARK minimizedRMSD -1
REMARK  1 active torsions:
REMARK  status: ('A' for Active; 'I' for Inactive)
REMARK    1  A    between atoms: C1_2  and  C2_3 
ROOT
ATOM      1  C2  UNL d   1      -5.993   2.772  -3.840  0.00  0.00    -0.081 A 
ATOM      2  C3  UNL d   1      -5.998   1.556  -3.147  0.00  0.00     0.006 A 
ATOM      3  C4  UNL d   1      -5.999   0.344  -3.842  0.00  0.00     0.002 A 
ATOM      4  C5  UNL d   1      -5.987   0.329  -5.241  0.00  0.00    -0.080 A 
ATOM      5  C6  UNL d   1      -5.957  -0.965  -5.999  0.00  0.00     0.076 C 
ATOM      6  C7  UNL d   1      -6.000   1.544  -5.934  0.00  0.00     0.002 A 
ATOM      7  C8  UNL d   1      -5.999   2.755  -5.239  0.00  0.00     0.006 A 
ENDROOT
BRANCH   1   8
ATOM      8  C1  UNL d   1      -5.927   4.080  -3.093  0.00  0.00     0.054 C 
ATOM      9  C   UNL d   1      -4.496   4.588  -2.993  0.00  0.00     0.018 C 
ENDBRANCH   1   8
TORSDOF 1
ENDMDL
