MODEL 1
REMARK minimizedAffinity 7.53362083
REMARK minimizedRMSD -1
REMARK  1 active torsions:
REMARK  status: ('A' for Active; 'I' for Inactive)
REMARK    1  A    between atoms: C1_2  and  C2_3 
ROOT
ATOM      1  C2  UNL d   1       0.775   3.856  -3.377  0.00  0.00    -0.081 A 
ATOM      2  C3  UNL d   1       0.957   3.810  -4.764  0.00  0.00     0.006 A 
ATOM      3  C4  UNL d   1       0.085   4.492  -5.616  0.00  0.00     0.002 A 
ATOM      4  C5  UNL d   1      -0.979   5.237  -5.095  0.00  0.00    -0.080 A 
ATOM      5  C6  UNL d   1      -1.904   5.998  -5.997  0.00  0.00     0.076 C 
ATOM      6  C7  UNL d   1      -1.171   5.269  -3.710  0.00  0.00     0.002 A 
ATOM      7  C8  UNL d   1      -0.300   4.586  -2.857  0.00  0.00     0.006 A 
ENDROOT
BRANCH   1   8
ATOM      8  C1  UNL d   1       1.751   3.175  -2.452  0.00  0.00     0.054 C 
ATOM      9  C   UNL d   1       1.136   1.939  -1.811  0.00  0.00     0.018 C 
ENDBRANCH   1   8
TORSDOF 1
ENDMDL
