MODEL 1
REMARK minimizedAffinity 13.6380053
REMARK minimizedRMSD -1
REMARK  1 active torsions:
REMARK  status: ('A' for Active; 'I' for Inactive)
REMARK    1  A    between atoms: C1_2  and  C2_3 
ROOT
ATOM      1  C2  UNL d   1       3.620   1.541  -1.867  0.00  0.00    -0.081 A 
ATOM      2  C3  UNL d   1       2.555   2.427  -2.074  0.00  0.00     0.006 A 
ATOM      3  C4  UNL d   1       1.515   2.513  -1.146  0.00  0.00     0.002 A 
ATOM      4  C5  UNL d   1       1.526   1.722   0.008  0.00  0.00    -0.080 A 
ATOM      5  C6  UNL d   1       0.431   1.826   1.028  0.00  0.00     0.076 C 
ATOM      6  C7  UNL d   1       2.581   0.824   0.206  0.00  0.00     0.002 A 
ATOM      7  C8  UNL d   1       3.621   0.737  -0.722  0.00  0.00     0.006 A 
ENDROOT
BRANCH   1   8
ATOM      8  C1  UNL d   1       4.775   1.492  -2.834  0.00  0.00     0.054 C 
ATOM      9  C   UNL d   1       5.998   2.202  -2.271  0.00  0.00     0.018 C 
ENDBRANCH   1   8
TORSDOF 1
ENDMDL
