MODEL 1
REMARK minimizedAffinity 8.63801098
REMARK minimizedRMSD -1
REMARK  1 active torsions:
REMARK  status: ('A' for Active; 'I' for Inactive)
REMARK    1  A    between atoms: C1_2  and  C2_3 
ROOT
ATOM      1  C2  UNL d   1      -1.490  -3.579   0.869  0.00  0.00    -0.081 A 
ATOM      2  C3  UNL d   1      -0.316  -3.279   1.572  0.00  0.00     0.006 A 
ATOM      3  C4  UNL d   1       0.901  -3.849   1.192  0.00  0.00     0.002 A 
ATOM      4  C5  UNL d   1       0.967  -4.722   0.101  0.00  0.00    -0.080 A 
ATOM      5  C6  UNL d   1       2.273  -5.317  -0.335  0.00  0.00     0.076 C 
ATOM      6  C7  UNL d   1      -0.209  -5.036  -0.590  0.00  0.00     0.002 A 
ATOM      7  C8  UNL d   1      -1.426  -4.466  -0.211  0.00  0.00     0.006 A 
ENDROOT
BRANCH   1   8
ATOM      8  C1  UNL d   1      -2.793  -2.915   1.235  0.00  0.00     0.054 C 
ATOM      9  C   UNL d   1      -3.643  -3.815   2.121  0.00  0.00     0.018 C 
ENDBRANCH   1   8
TORSDOF 1
ENDMDL
