MODEL 1
REMARK minimizedAffinity 4.95098114
REMARK minimizedRMSD -1
REMARK  1 active torsions:
REMARK  status: ('A' for Active; 'I' for Inactive)
REMARK    1  A    between atoms: C1_2  and  C2_3 
ROOT
ATOM      1  C2  UNL d   1       1.164   2.845  -2.744  0.00  0.00    -0.081 A 
ATOM      2  C3  UNL d   1       2.255   3.679  -3.016  0.00  0.00     0.006 A 
ATOM      3  C4  UNL d   1       2.177   4.640  -4.027  0.00  0.00     0.002 A 
ATOM      4  C5  UNL d   1       1.005   4.788  -4.776  0.00  0.00    -0.080 A 
ATOM      5  C6  UNL d   1       0.897   5.836  -5.844  0.00  0.00     0.076 C 
ATOM      6  C7  UNL d   1      -0.079   3.943  -4.515  0.00  0.00     0.002 A 
ATOM      7  C8  UNL d   1      -0.002   2.982  -3.505  0.00  0.00     0.006 A 
ENDROOT
BRANCH   1   8
ATOM      8  C1  UNL d   1       1.223   1.851  -1.611  0.00  0.00     0.054 C 
ATOM      9  C   UNL d   1       2.437   0.942  -1.736  0.00  0.00     0.018 C 
ENDBRANCH   1   8
TORSDOF 1
ENDMDL
