MODEL 1
REMARK minimizedAffinity 8.19659996
REMARK minimizedRMSD -1
REMARK  1 active torsions:
REMARK  status: ('A' for Active; 'I' for Inactive)
REMARK    1  A    between atoms: C1_2  and  C2_3 
ROOT
ATOM      1  C2  UNL d   1       1.040   3.460  -1.897  0.00  0.00    -0.081 A 
ATOM      2  C3  UNL d   1       2.059   3.404  -2.856  0.00  0.00     0.006 A 
ATOM      3  C4  UNL d   1       1.813   3.795  -4.174  0.00  0.00     0.002 A 
ATOM      4  C5  UNL d   1       0.547   4.257  -4.553  0.00  0.00    -0.080 A 
ATOM      5  C6  UNL d   1       0.278   4.709  -5.957  0.00  0.00     0.076 C 
ATOM      6  C7  UNL d   1      -0.475   4.296  -3.599  0.00  0.00     0.002 A 
ATOM      7  C8  UNL d   1      -0.230   3.904  -2.281  0.00  0.00     0.006 A 
ENDROOT
BRANCH   1   8
ATOM      8  C1  UNL d   1       1.320   3.099  -0.460  0.00  0.00     0.054 C 
ATOM      9  C   UNL d   1       1.833   4.300   0.322  0.00  0.00     0.018 C 
ENDBRANCH   1   8
TORSDOF 1
ENDMDL
