MODEL 1
REMARK minimizedAffinity 7.98984909
REMARK minimizedRMSD -1
REMARK  1 active torsions:
REMARK  status: ('A' for Active; 'I' for Inactive)
REMARK    1  A    between atoms: C1_2  and  C2_3 
ROOT
ATOM      1  C2  UNL d   1       1.212   2.912  -2.714  0.00  0.00    -0.081 A 
ATOM      2  C3  UNL d   1      -0.006   3.005  -3.397  0.00  0.00     0.006 A 
ATOM      3  C4  UNL d   1      -0.212   4.010  -4.345  0.00  0.00     0.002 A 
ATOM      4  C5  UNL d   1       0.799   4.934  -4.631  0.00  0.00    -0.080 A 
ATOM      5  C6  UNL d   1       0.602   5.999  -5.669  0.00  0.00     0.076 C 
ATOM      6  C7  UNL d   1       2.010   4.852  -3.936  0.00  0.00     0.002 A 
ATOM      7  C8  UNL d   1       2.216   3.848  -2.988  0.00  0.00     0.006 A 
ENDROOT
BRANCH   1   8
ATOM      8  C1  UNL d   1       1.461   1.791  -1.739  0.00  0.00     0.054 C 
ATOM      9  C   UNL d   1       1.066   2.190  -0.324  0.00  0.00     0.018 C 
ENDBRANCH   1   8
TORSDOF 1
ENDMDL
