MODEL 1
REMARK minimizedAffinity 11.4223413
REMARK minimizedRMSD -1
REMARK  1 active torsions:
REMARK  status: ('A' for Active; 'I' for Inactive)
REMARK    1  A    between atoms: C1_2  and  C2_3 
ROOT
ATOM      1  C2  UNL d   1       2.795   0.836   0.624  0.00  0.00    -0.081 A 
ATOM      2  C3  UNL d   1       1.861   1.846   0.882  0.00  0.00     0.006 A 
ATOM      3  C4  UNL d   1       1.208   2.493  -0.170  0.00  0.00     0.002 A 
ATOM      4  C5  UNL d   1       1.472   2.136  -1.496  0.00  0.00    -0.080 A 
ATOM      5  C6  UNL d   1       0.756   2.802  -2.634  0.00  0.00     0.076 C 
ATOM      6  C7  UNL d   1       2.419   1.139  -1.755  0.00  0.00     0.002 A 
ATOM      7  C8  UNL d   1       3.072   0.492  -0.704  0.00  0.00     0.006 A 
ENDROOT
BRANCH   1   8
ATOM      8  C1  UNL d   1       3.453   0.092   1.757  0.00  0.00     0.054 C 
ATOM      9  C   UNL d   1       3.772  -1.343   1.366  0.00  0.00     0.018 C 
ENDBRANCH   1   8
TORSDOF 1
ENDMDL
