MODEL 1
REMARK minimizedAffinity 4.21278095
REMARK minimizedRMSD -1
REMARK  1 active torsions:
REMARK  status: ('A' for Active; 'I' for Inactive)
REMARK    1  A    between atoms: C1_2  and  C2_3 
ROOT
ATOM      1  C2  UNL d   1       3.562   2.654  -3.854  0.00  0.00    -0.081 A 
ATOM      2  C3  UNL d   1       2.830   2.215  -2.744  0.00  0.00     0.006 A 
ATOM      3  C4  UNL d   1       1.631   2.840  -2.393  0.00  0.00     0.002 A 
ATOM      4  C5  UNL d   1       1.140   3.908  -3.151  0.00  0.00    -0.080 A 
ATOM      5  C6  UNL d   1      -0.162   4.569  -2.803  0.00  0.00     0.076 C 
ATOM      6  C7  UNL d   1       1.879   4.359  -4.250  0.00  0.00     0.002 A 
ATOM      7  C8  UNL d   1       3.079   3.735  -4.600  0.00  0.00     0.006 A 
ENDROOT
BRANCH   1   8
ATOM      8  C1  UNL d   1       4.822   1.941  -4.272  0.00  0.00     0.054 C 
ATOM      9  C   UNL d   1       4.705   1.396  -5.689  0.00  0.00     0.018 C 
ENDBRANCH   1   8
TORSDOF 1
ENDMDL
