MODEL 1
REMARK minimizedAffinity -1.23345995
REMARK minimizedRMSD -1
REMARK  1 active torsions:
REMARK  status: ('A' for Active; 'I' for Inactive)
REMARK    1  A    between atoms: C1_2  and  C2_3 
ROOT
ATOM      1  C2  UNL d   1       1.244   2.112  -2.422  0.00  0.00    -0.081 A 
ATOM      2  C3  UNL d   1       0.121   2.549  -3.134  0.00  0.00     0.006 A 
ATOM      3  C4  UNL d   1       0.237   3.561  -4.090  0.00  0.00     0.002 A 
ATOM      4  C5  UNL d   1       1.480   4.147  -4.356  0.00  0.00    -0.080 A 
ATOM      5  C6  UNL d   1       1.624   5.213  -5.401  0.00  0.00     0.076 C 
ATOM      6  C7  UNL d   1       2.599   3.723  -3.632  0.00  0.00     0.002 A 
ATOM      7  C8  UNL d   1       2.483   2.711  -2.675  0.00  0.00     0.006 A 
ENDROOT
BRANCH   1   8
ATOM      8  C1  UNL d   1       1.134   0.977  -1.437  0.00  0.00     0.054 C 
ATOM      9  C   UNL d   1       1.411   1.448  -0.016  0.00  0.00     0.018 C 
ENDBRANCH   1   8
TORSDOF 1
ENDMDL
