MODEL 1
REMARK minimizedAffinity 1.34395206
REMARK minimizedRMSD -1
REMARK  1 active torsions:
REMARK  status: ('A' for Active; 'I' for Inactive)
REMARK    1  A    between atoms: C1_2  and  C2_3 
ROOT
ATOM      1  C2  UNL d   1       1.476   3.721  -3.119  0.00  0.00    -0.081 A 
ATOM      2  C3  UNL d   1       1.968   2.761  -2.227  0.00  0.00     0.006 A 
ATOM      3  C4  UNL d   1       3.252   2.235  -2.389  0.00  0.00     0.002 A 
ATOM      4  C5  UNL d   1       4.068   2.666  -3.441  0.00  0.00    -0.080 A 
ATOM      5  C6  UNL d   1       5.459   2.132  -3.610  0.00  0.00     0.076 C 
ATOM      6  C7  UNL d   1       3.569   3.612  -4.343  0.00  0.00     0.002 A 
ATOM      7  C8  UNL d   1       2.285   4.137  -4.182  0.00  0.00     0.006 A 
ENDROOT
BRANCH   1   8
ATOM      8  C1  UNL d   1       0.116   4.336  -2.909  0.00  0.00     0.054 C 
ATOM      9  C   UNL d   1       0.177   5.483  -1.909  0.00  0.00     0.018 C 
ENDBRANCH   1   8
TORSDOF 1
ENDMDL
