MODEL 1
REMARK minimizedAffinity 11.346137
REMARK minimizedRMSD -1
REMARK  1 active torsions:
REMARK  status: ('A' for Active; 'I' for Inactive)
REMARK    1  A    between atoms: C1_2  and  C2_3 
ROOT
ATOM      1  C2  UNL d   1       0.253   3.681  -3.863  0.00  0.00    -0.081 A 
ATOM      2  C3  UNL d   1       1.586   3.920  -3.506  0.00  0.00     0.006 A 
ATOM      3  C4  UNL d   1       2.239   3.079  -2.603  0.00  0.00     0.002 A 
ATOM      4  C5  UNL d   1       1.574   1.981  -2.047  0.00  0.00    -0.080 A 
ATOM      5  C6  UNL d   1       2.274   1.052  -1.099  0.00  0.00     0.076 C 
ATOM      6  C7  UNL d   1       0.237   1.752  -2.389  0.00  0.00     0.002 A 
ATOM      7  C8  UNL d   1      -0.417   2.593  -3.292  0.00  0.00     0.006 A 
ENDROOT
BRANCH   1   8
ATOM      8  C1  UNL d   1      -0.434   4.548  -4.886  0.00  0.00     0.054 C 
ATOM      9  C   UNL d   1       0.524   4.964  -5.993  0.00  0.00     0.018 C 
ENDBRANCH   1   8
TORSDOF 1
ENDMDL
