MODEL 1
REMARK minimizedAffinity 16.5701923
REMARK minimizedRMSD -1
REMARK  1 active torsions:
REMARK  status: ('A' for Active; 'I' for Inactive)
REMARK    1  A    between atoms: C1_2  and  C2_3 
ROOT
ATOM      1  C2  UNL d   1      -5.917   0.046  -4.122  0.00  0.00    -0.081 A 
ATOM      2  C3  UNL d   1      -5.983   0.345  -2.755  0.00  0.00     0.006 A 
ATOM      3  C4  UNL d   1      -5.993   1.672  -2.321  0.00  0.00     0.002 A 
ATOM      4  C5  UNL d   1      -5.945   2.722  -3.245  0.00  0.00    -0.080 A 
ATOM      5  C6  UNL d   1      -5.986   4.152  -2.793  0.00  0.00     0.076 C 
ATOM      6  C7  UNL d   1      -5.861   2.423  -4.609  0.00  0.00     0.002 A 
ATOM      7  C8  UNL d   1      -5.851   1.096  -5.044  0.00  0.00     0.006 A 
ENDROOT
BRANCH   1   8
ATOM      8  C1  UNL d   1      -5.971  -1.384  -4.597  0.00  0.00     0.054 C 
ATOM      9  C   UNL d   1      -5.903  -2.358  -3.429  0.00  0.00     0.018 C 
ENDBRANCH   1   8
TORSDOF 1
ENDMDL
