MODEL 1
REMARK minimizedAffinity 8.15281487
REMARK minimizedRMSD -1
REMARK  1 active torsions:
REMARK  status: ('A' for Active; 'I' for Inactive)
REMARK    1  A    between atoms: C1_2  and  C2_3 
ROOT
ATOM      1  C2  UNL d   1       3.048   1.459   0.420  0.00  0.00    -0.081 A 
ATOM      2  C3  UNL d   1       1.654   1.322   0.408  0.00  0.00     0.006 A 
ATOM      3  C4  UNL d   1       0.924   1.608  -0.748  0.00  0.00     0.002 A 
ATOM      4  C5  UNL d   1       1.575   2.027  -1.913  0.00  0.00    -0.080 A 
ATOM      5  C6  UNL d   1       0.806   2.308  -3.170  0.00  0.00     0.076 C 
ATOM      6  C7  UNL d   1       2.965   2.181  -1.897  0.00  0.00     0.002 A 
ATOM      7  C8  UNL d   1       3.696   1.897  -0.741  0.00  0.00     0.006 A 
ENDROOT
BRANCH   1   8
ATOM      8  C1  UNL d   1       3.844   1.090   1.645  0.00  0.00     0.054 C 
ATOM      9  C   UNL d   1       3.789  -0.407   1.911  0.00  0.00     0.018 C 
ENDBRANCH   1   8
TORSDOF 1
ENDMDL
