MODEL 1
REMARK minimizedAffinity -3.98347855
REMARK minimizedRMSD -1
REMARK  0 active torsions:
REMARK  status: ('A' for Active; 'I' for Inactive)
ROOT
ATOM      1  C1  BNZ d   1      -1.154  -1.402   0.517  0.00  0.00     0.000 A 
ATOM      2  C2  BNZ d   1       0.017  -1.641   1.184  0.00  0.00     0.000 A 
ATOM      3  C3  BNZ d   1       1.175  -1.018   0.811  0.00  0.00     0.000 A 
ATOM      4  C4  BNZ d   1       1.169  -0.190  -0.253  0.00  0.00     0.000 A 
ATOM      5  C5  BNZ d   1      -0.002   0.054  -0.942  0.00  0.00     0.000 A 
ATOM      6  C6  BNZ d   1      -1.174  -0.544  -0.540  0.00  0.00     0.000 A 
ENDROOT
TORSDOF 0
ENDMDL
