MODEL 1
REMARK minimizedAffinity -0.223003566
REMARK minimizedRMSD -1
REMARK  0 active torsions:
REMARK  status: ('A' for Active; 'I' for Inactive)
ROOT
ATOM      1  C1  BNZ d   1       3.208   3.117   4.613  0.00  0.00     0.000 A 
ATOM      2  C2  BNZ d   1       4.376   3.814   4.775  0.00  0.00     0.000 A 
ATOM      3  C3  BNZ d   1       5.186   4.081   3.707  0.00  0.00     0.000 A 
ATOM      4  C4  BNZ d   1       4.848   3.617   2.486  0.00  0.00     0.000 A 
ATOM      5  C5  BNZ d   1       3.679   2.904   2.308  0.00  0.00     0.000 A 
ATOM      6  C6  BNZ d   1       2.847   2.671   3.379  0.00  0.00     0.000 A 
ENDROOT
TORSDOF 0
ENDMDL
