MODEL 1
REMARK minimizedAffinity -5.14154005
REMARK minimizedRMSD -1
REMARK  0 active torsions:
REMARK  status: ('A' for Active; 'I' for Inactive)
ROOT
ATOM      1  C1  BNZ d   1      -1.116  -1.506   1.102  0.00  0.00     0.000 A 
ATOM      2  C2  BNZ d   1      -2.074  -1.585   0.126  0.00  0.00     0.000 A 
ATOM      3  C3  BNZ d   1      -2.086  -0.700  -0.916  0.00  0.00     0.000 A 
ATOM      4  C4  BNZ d   1      -1.168   0.286  -0.959  0.00  0.00     0.000 A 
ATOM      5  C5  BNZ d   1      -0.202   0.385   0.023  0.00  0.00     0.000 A 
ATOM      6  C6  BNZ d   1      -0.168  -0.531   1.049  0.00  0.00     0.000 A 
ENDROOT
TORSDOF 0
ENDMDL
