MODEL 1
REMARK minimizedAffinity 2.47865295
REMARK minimizedRMSD -1
REMARK  0 active torsions:
REMARK  status: ('A' for Active; 'I' for Inactive)
ROOT
ATOM      1  C1  BNZ d   1       1.112  -1.219   1.716  0.00  0.00     0.000 A 
ATOM      2  C2  BNZ d   1       1.841  -0.130   2.114  0.00  0.00     0.000 A 
ATOM      3  C3  BNZ d   1       1.239   0.919   2.751  0.00  0.00     0.000 A 
ATOM      4  C4  BNZ d   1      -0.094   0.896   2.954  0.00  0.00     0.000 A 
ATOM      5  C5  BNZ d   1      -0.843  -0.191   2.550  0.00  0.00     0.000 A 
ATOM      6  C6  BNZ d   1      -0.229  -1.262   1.943  0.00  0.00     0.000 A 
ENDROOT
TORSDOF 0
ENDMDL
