MODEL 1
REMARK minimizedAffinity 2.15506172
REMARK minimizedRMSD -1
REMARK  0 active torsions:
REMARK  status: ('A' for Active; 'I' for Inactive)
ROOT
ATOM      1  C1  BNZ d   1      -1.136  -0.062  -2.234  0.00  0.00     0.000 A 
ATOM      2  C2  BNZ d   1      -1.578  -1.160  -1.544  0.00  0.00     0.000 A 
ATOM      3  C3  BNZ d   1      -2.784  -1.145  -0.902  0.00  0.00     0.000 A 
ATOM      4  C4  BNZ d   1      -3.529  -0.020  -0.916  0.00  0.00     0.000 A 
ATOM      5  C5  BNZ d   1      -3.093   1.098  -1.600  0.00  0.00     0.000 A 
ATOM      6  C6  BNZ d   1      -1.896   1.066  -2.278  0.00  0.00     0.000 A 
ENDROOT
TORSDOF 0
ENDMDL
