MODEL 1
REMARK minimizedAffinity 4.99432802
REMARK minimizedRMSD -1
REMARK  0 active torsions:
REMARK  status: ('A' for Active; 'I' for Inactive)
ROOT
ATOM      1  C1  BNZ d   1      -3.598  -2.106   4.206  0.00  0.00     0.000 A 
ATOM      2  C2  BNZ d   1      -4.543  -2.557   5.088  0.00  0.00     0.000 A 
ATOM      3  C3  BNZ d   1      -4.242  -3.531   5.999  0.00  0.00     0.000 A 
ATOM      4  C4  BNZ d   1      -3.010  -4.080   6.000  0.00  0.00     0.000 A 
ATOM      5  C5  BNZ d   1      -2.049  -3.642   5.111  0.00  0.00     0.000 A 
ATOM      6  C6  BNZ d   1      -2.344  -2.634   4.221  0.00  0.00     0.000 A 
ENDROOT
TORSDOF 0
ENDMDL
