MODEL 1
REMARK minimizedAffinity -4.74195862
REMARK minimizedRMSD -1
REMARK  0 active torsions:
REMARK  status: ('A' for Active; 'I' for Inactive)
ROOT
ATOM      1  C1  BNZ d   1      -1.098  -0.653  -1.334  0.00  0.00     0.000 A 
ATOM      2  C2  BNZ d   1      -1.844  -1.088  -0.271  0.00  0.00     0.000 A 
ATOM      3  C3  BNZ d   1      -2.999  -0.448   0.081  0.00  0.00     0.000 A 
ATOM      4  C4  BNZ d   1      -3.386   0.648  -0.603  0.00  0.00     0.000 A 
ATOM      5  C5  BNZ d   1      -2.639   1.104  -1.671  0.00  0.00     0.000 A 
ATOM      6  C6  BNZ d   1      -1.498   0.434  -2.048  0.00  0.00     0.000 A 
ENDROOT
TORSDOF 0
ENDMDL
