MODEL 1
REMARK minimizedAffinity -1.10948992
REMARK minimizedRMSD -1
REMARK  0 active torsions:
REMARK  status: ('A' for Active; 'I' for Inactive)
ROOT
ATOM      1  C1  BNZ d   1      -2.956  -2.349  -0.476  0.00  0.00     0.000 A 
ATOM      2  C2  BNZ d   1      -2.904  -3.602  -1.024  0.00  0.00     0.000 A 
ATOM      3  C3  BNZ d   1      -2.557  -4.685  -0.265  0.00  0.00     0.000 A 
ATOM      4  C4  BNZ d   1      -2.224  -4.507   1.030  0.00  0.00     0.000 A 
ATOM      5  C5  BNZ d   1      -2.263  -3.248   1.595  0.00  0.00     0.000 A 
ATOM      6  C6  BNZ d   1      -2.651  -2.166   0.838  0.00  0.00     0.000 A 
ENDROOT
TORSDOF 0
ENDMDL
