MODEL 1
REMARK minimizedAffinity -0.794182479
REMARK minimizedRMSD -1
REMARK  0 active torsions:
REMARK  status: ('A' for Active; 'I' for Inactive)
ROOT
ATOM      1  C1  BNZ d   1       0.253   0.224  -2.051  0.00  0.00     0.000 A 
ATOM      2  C2  BNZ d   1       0.202  -0.134  -3.372  0.00  0.00     0.000 A 
ATOM      3  C3  BNZ d   1      -0.900  -0.758  -3.887  0.00  0.00     0.000 A 
ATOM      4  C4  BNZ d   1      -1.932  -1.058  -3.072  0.00  0.00     0.000 A 
ATOM      5  C5  BNZ d   1      -1.893  -0.712  -1.737  0.00  0.00     0.000 A 
ATOM      6  C6  BNZ d   1      -0.798  -0.049  -1.231  0.00  0.00     0.000 A 
ENDROOT
TORSDOF 0
ENDMDL
