MODEL 1
REMARK minimizedAffinity 0.986139894
REMARK minimizedRMSD -1
REMARK  0 active torsions:
REMARK  status: ('A' for Active; 'I' for Inactive)
ROOT
ATOM      1  C1  BNZ d   1      -2.661   0.002   3.540  0.00  0.00     0.000 A 
ATOM      2  C2  BNZ d   1      -2.680  -1.362   3.666  0.00  0.00     0.000 A 
ATOM      3  C3  BNZ d   1      -2.781  -1.950   4.896  0.00  0.00     0.000 A 
ATOM      4  C4  BNZ d   1      -2.822  -1.176   5.999  0.00  0.00     0.000 A 
ATOM      5  C5  BNZ d   1      -2.794   0.200   5.890  0.00  0.00     0.000 A 
ATOM      6  C6  BNZ d   1      -2.731   0.789   4.648  0.00  0.00     0.000 A 
ENDROOT
TORSDOF 0
ENDMDL
