MODEL 1
REMARK minimizedAffinity 1.17421818
REMARK minimizedRMSD -1
REMARK  0 active torsions:
REMARK  status: ('A' for Active; 'I' for Inactive)
ROOT
ATOM      1  C1  BNZ d   1      -5.992   3.760   1.546  0.00  0.00     0.000 A 
ATOM      2  C2  BNZ d   1      -6.000   4.877   2.338  0.00  0.00     0.000 A 
ATOM      3  C3  BNZ d   1      -5.309   5.999   1.974  0.00  0.00     0.000 A 
ATOM      4  C4  BNZ d   1      -4.580   5.989   0.839  0.00  0.00     0.000 A 
ATOM      5  C5  BNZ d   1      -4.554   4.867   0.034  0.00  0.00     0.000 A 
ATOM      6  C6  BNZ d   1      -5.282   3.753   0.385  0.00  0.00     0.000 A 
ENDROOT
TORSDOF 0
ENDMDL
