MODEL 1
REMARK minimizedAffinity 2.57452369
REMARK minimizedRMSD -1
REMARK  0 active torsions:
REMARK  status: ('A' for Active; 'I' for Inactive)
ROOT
ATOM      1  C1  BNZ d   1      -4.495   4.881  -1.503  0.00  0.00     0.000 A 
ATOM      2  C2  BNZ d   1      -5.175   6.000  -1.102  0.00  0.00     0.000 A 
ATOM      3  C3  BNZ d   1      -5.902   5.999   0.055  0.00  0.00     0.000 A 
ATOM      4  C4  BNZ d   1      -5.981   4.870   0.788  0.00  0.00     0.000 A 
ATOM      5  C5  BNZ d   1      -5.309   3.730   0.392  0.00  0.00     0.000 A 
ATOM      6  C6  BNZ d   1      -4.546   3.746  -0.753  0.00  0.00     0.000 A 
ENDROOT
TORSDOF 0
ENDMDL
