MODEL 1
REMARK minimizedAffinity -1.9926579
REMARK minimizedRMSD -1
REMARK  0 active torsions:
REMARK  status: ('A' for Active; 'I' for Inactive)
ROOT
ATOM      1  C1  BNZ d   1      -5.998   3.916   1.749  0.00  0.00     0.000 A 
ATOM      2  C2  BNZ d   1      -5.999   3.905   3.119  0.00  0.00     0.000 A 
ATOM      3  C3  BNZ d   1      -5.470   4.947   3.827  0.00  0.00     0.000 A 
ATOM      4  C4  BNZ d   1      -4.905   5.978   3.167  0.00  0.00     0.000 A 
ATOM      5  C5  BNZ d   1      -4.888   6.000   1.787  0.00  0.00     0.000 A 
ATOM      6  C6  BNZ d   1      -5.457   4.968   1.077  0.00  0.00     0.000 A 
ENDROOT
TORSDOF 0
ENDMDL
