MODEL 1
REMARK minimizedAffinity -4.20791483
REMARK minimizedRMSD -1
REMARK  0 active torsions:
REMARK  status: ('A' for Active; 'I' for Inactive)
ROOT
ATOM      1  C1  BNZ d   1      -2.085  -1.186  -0.113  0.00  0.00     0.000 A 
ATOM      2  C2  BNZ d   1      -1.109  -1.286   0.842  0.00  0.00     0.000 A 
ATOM      3  C3  BNZ d   1       0.090  -0.648   0.688  0.00  0.00     0.000 A 
ATOM      4  C4  BNZ d   1       0.326   0.055  -0.438  0.00  0.00     0.000 A 
ATOM      5  C5  BNZ d   1      -0.644   0.159  -1.414  0.00  0.00     0.000 A 
ATOM      6  C6  BNZ d   1      -1.864  -0.453  -1.238  0.00  0.00     0.000 A 
ENDROOT
TORSDOF 0
ENDMDL
