MODEL 1
REMARK minimizedAffinity -4.05741405
REMARK minimizedRMSD -1
REMARK  0 active torsions:
REMARK  status: ('A' for Active; 'I' for Inactive)
ROOT
ATOM      1  C1  BNZ d   1      -1.172  -1.141   0.745  0.00  0.00     0.000 A 
ATOM      2  C2  BNZ d   1      -1.175  -0.463  -0.444  0.00  0.00     0.000 A 
ATOM      3  C3  BNZ d   1      -0.032   0.115  -0.923  0.00  0.00     0.000 A 
ATOM      4  C4  BNZ d   1       1.100   0.048  -0.194  0.00  0.00     0.000 A 
ATOM      5  C5  BNZ d   1       1.117  -0.624   1.011  0.00  0.00     0.000 A 
ATOM      6  C6  BNZ d   1      -0.025  -1.238   1.472  0.00  0.00     0.000 A 
ENDROOT
TORSDOF 0
ENDMDL
