MODEL 1
REMARK minimizedAffinity -2.6801033
REMARK minimizedRMSD -1
REMARK  0 active torsions:
REMARK  status: ('A' for Active; 'I' for Inactive)
ROOT
ATOM      1  C1  BNZ d   1       1.041  -1.150   1.466  0.00  0.00     0.000 A 
ATOM      2  C2  BNZ d   1       1.067   0.066   2.094  0.00  0.00     0.000 A 
ATOM      3  C3  BNZ d   1      -0.026   0.528   2.771  0.00  0.00     0.000 A 
ATOM      4  C4  BNZ d   1      -1.157  -0.208   2.786  0.00  0.00     0.000 A 
ATOM      5  C5  BNZ d   1      -1.202  -1.432   2.149  0.00  0.00     0.000 A 
ATOM      6  C6  BNZ d   1      -0.087  -1.911   1.501  0.00  0.00     0.000 A 
ENDROOT
TORSDOF 0
ENDMDL
