MODEL 1
REMARK minimizedAffinity -4.50699425
REMARK minimizedRMSD -1
REMARK  0 active torsions:
REMARK  status: ('A' for Active; 'I' for Inactive)
ROOT
ATOM      1  C1  BNZ d   1       1.518   1.192   0.748  0.00  0.00     0.000 A 
ATOM      2  C2  BNZ d   1       0.427   1.302  -0.072  0.00  0.00     0.000 A 
ATOM      3  C3  BNZ d   1      -0.082   0.205  -0.711  0.00  0.00     0.000 A 
ATOM      4  C4  BNZ d   1       0.525  -0.990  -0.561  0.00  0.00     0.000 A 
ATOM      5  C5  BNZ d   1       1.632  -1.114   0.255  0.00  0.00     0.000 A 
ATOM      6  C6  BNZ d   1       2.117  -0.016   0.927  0.00  0.00     0.000 A 
ENDROOT
TORSDOF 0
ENDMDL
