MODEL 1
REMARK minimizedAffinity -3.79118252
REMARK minimizedRMSD -1
REMARK  0 active torsions:
REMARK  status: ('A' for Active; 'I' for Inactive)
ROOT
ATOM      1  C1  BNZ d   1       1.733   1.334   1.065  0.00  0.00     0.000 A 
ATOM      2  C2  BNZ d   1       2.473   0.182   1.098  0.00  0.00     0.000 A 
ATOM      3  C3  BNZ d   1       2.120  -0.899   0.338  0.00  0.00     0.000 A 
ATOM      4  C4  BNZ d   1       1.007  -0.840  -0.421  0.00  0.00     0.000 A 
ATOM      5  C5  BNZ d   1       0.245   0.311  -0.458  0.00  0.00     0.000 A 
ATOM      6  C6  BNZ d   1       0.625   1.410   0.278  0.00  0.00     0.000 A 
ENDROOT
TORSDOF 0
ENDMDL
