MODEL 1
REMARK minimizedAffinity -0.592800021
REMARK minimizedRMSD -1
REMARK  0 active torsions:
REMARK  status: ('A' for Active; 'I' for Inactive)
ROOT
ATOM      1  C1  BNZ d   1      -1.167  -2.928  -3.931  0.00  0.00     0.000 A 
ATOM      2  C2  BNZ d   1      -1.188  -1.723  -3.279  0.00  0.00     0.000 A 
ATOM      3  C3  BNZ d   1      -1.235  -0.550  -3.979  0.00  0.00     0.000 A 
ATOM      4  C4  BNZ d   1      -1.222  -0.581  -5.327  0.00  0.00     0.000 A 
ATOM      5  C5  BNZ d   1      -1.191  -1.786  -5.999  0.00  0.00     0.000 A 
ATOM      6  C6  BNZ d   1      -1.183  -2.967  -5.291  0.00  0.00     0.000 A 
ENDROOT
TORSDOF 0
ENDMDL
