MODEL 1
REMARK minimizedAffinity -2.24323177
REMARK minimizedRMSD -1
REMARK  0 active torsions:
REMARK  status: ('A' for Active; 'I' for Inactive)
ROOT
ATOM      1  C1  BNZ d   1      -0.179   0.287  -0.092  0.00  0.00     0.000 A 
ATOM      2  C2  BNZ d   1       0.589  -0.453   0.767  0.00  0.00     0.000 A 
ATOM      3  C3  BNZ d   1       1.712   0.079   1.337  0.00  0.00     0.000 A 
ATOM      4  C4  BNZ d   1       2.087   1.334   1.017  0.00  0.00     0.000 A 
ATOM      5  C5  BNZ d   1       1.328   2.090   0.145  0.00  0.00     0.000 A 
ATOM      6  C6  BNZ d   1       0.177   1.565  -0.397  0.00  0.00     0.000 A 
ENDROOT
TORSDOF 0
ENDMDL
