MODEL 1
REMARK minimizedAffinity 0.955768287
REMARK minimizedRMSD -1
REMARK  0 active torsions:
REMARK  status: ('A' for Active; 'I' for Inactive)
ROOT
ATOM      1  C1  BNZ d   1      -3.421  -0.288   0.599  0.00  0.00     0.000 A 
ATOM      2  C2  BNZ d   1      -4.595   0.016   1.233  0.00  0.00     0.000 A 
ATOM      3  C3  BNZ d   1      -4.658   1.041   2.136  0.00  0.00     0.000 A 
ATOM      4  C4  BNZ d   1      -3.539   1.734   2.432  0.00  0.00     0.000 A 
ATOM      5  C5  BNZ d   1      -2.345   1.433   1.807  0.00  0.00     0.000 A 
ATOM      6  C6  BNZ d   1      -2.294   0.426   0.871  0.00  0.00     0.000 A 
ENDROOT
TORSDOF 0
ENDMDL
