MODEL 1
REMARK minimizedAffinity -3.80456877
REMARK minimizedRMSD -1
REMARK  0 active torsions:
REMARK  status: ('A' for Active; 'I' for Inactive)
ROOT
ATOM      1  C1  BNZ d   1       2.016  -1.913  -0.856  0.00  0.00     0.000 A 
ATOM      2  C2  BNZ d   1       2.922  -1.208  -0.108  0.00  0.00     0.000 A 
ATOM      3  C3  BNZ d   1       2.515  -0.188   0.706  0.00  0.00     0.000 A 
ATOM      4  C4  BNZ d   1       1.210   0.152   0.740  0.00  0.00     0.000 A 
ATOM      5  C5  BNZ d   1       0.286  -0.542  -0.016  0.00  0.00     0.000 A 
ATOM      6  C6  BNZ d   1       0.695  -1.593  -0.804  0.00  0.00     0.000 A 
ENDROOT
TORSDOF 0
ENDMDL
