MODEL 1
REMARK minimizedAffinity -2.0536468
REMARK minimizedRMSD -1
REMARK  0 active torsions:
REMARK  status: ('A' for Active; 'I' for Inactive)
ROOT
ATOM      1  C1  BNZ d   1      -0.048  -1.363  -0.699  0.00  0.00     0.000 A 
ATOM      2  C2  BNZ d   1       1.188  -1.488  -0.122  0.00  0.00     0.000 A 
ATOM      3  C3  BNZ d   1       1.806  -0.410   0.447  0.00  0.00     0.000 A 
ATOM      4  C4  BNZ d   1       1.208   0.798   0.403  0.00  0.00     0.000 A 
ATOM      5  C5  BNZ d   1      -0.034   0.942  -0.183  0.00  0.00     0.000 A 
ATOM      6  C6  BNZ d   1      -0.671  -0.153  -0.720  0.00  0.00     0.000 A 
ENDROOT
TORSDOF 0
ENDMDL
