MODEL 1
REMARK minimizedAffinity 4.15690327
REMARK minimizedRMSD -1
REMARK  1 active torsions:
REMARK  status: ('A' for Active; 'I' for Inactive)
REMARK    1  A    between atoms: C1_2  and  C2_3 
ROOT
ATOM      1  C2  UNL d   1       5.275   5.593   3.641  0.00  0.00    -0.073 A 
ATOM      2  C3  UNL d   1       3.945   5.997   3.478  0.00  0.00    -0.002 A 
ATOM      3  C4  UNL d   1       3.275   5.751   2.279  0.00  0.00     0.004 A 
ATOM      4  C5  UNL d   1       3.925   5.094   1.234  0.00  0.00    -0.004 A 
ATOM      5  C6  UNL d   1       5.250   4.671   1.382  0.00  0.00    -0.075 A 
ATOM      6  C7  UNL d   1       5.963   3.965   0.267  0.00  0.00     0.076 C 
ATOM      7  C8  UNL d   1       5.916   4.924   2.589  0.00  0.00     0.001 A 
ENDROOT
BRANCH   1   8
ATOM      8  C1  UNL d   1       5.999   5.850   4.937  0.00  0.00     0.053 C 
ATOM      9  C   UNL d   1       5.775   4.736   5.947  0.00  0.00     0.018 C 
ENDBRANCH   1   8
TORSDOF 1
ENDMDL
