MODEL 1
REMARK minimizedAffinity 1.1594404
REMARK minimizedRMSD -1
REMARK  1 active torsions:
REMARK  status: ('A' for Active; 'I' for Inactive)
REMARK    1  A    between atoms: C1_2  and  C2_3 
ROOT
ATOM      1  C2  UNL d   1      -1.074  -0.209  -0.235  0.00  0.00    -0.073 A 
ATOM      2  C3  UNL d   1      -1.787  -1.298  -0.749  0.00  0.00    -0.002 A 
ATOM      3  C4  UNL d   1      -2.841  -1.856  -0.024  0.00  0.00     0.004 A 
ATOM      4  C5  UNL d   1      -3.197  -1.327   1.217  0.00  0.00    -0.004 A 
ATOM      5  C6  UNL d   1      -2.504  -0.231   1.742  0.00  0.00    -0.075 A 
ATOM      6  C7  UNL d   1      -2.874   0.348   3.076  0.00  0.00     0.076 C 
ATOM      7  C8  UNL d   1      -1.445   0.321   1.009  0.00  0.00     0.001 A 
ENDROOT
BRANCH   1   8
ATOM      8  C1  UNL d   1       0.061   0.400  -1.016  0.00  0.00     0.053 C 
ATOM      9  C   UNL d   1       0.782  -0.630  -1.872  0.00  0.00     0.018 C 
ENDBRANCH   1   8
TORSDOF 1
ENDMDL
