MODEL 1
REMARK minimizedAffinity 3.49898744
REMARK minimizedRMSD -1
REMARK  1 active torsions:
REMARK  status: ('A' for Active; 'I' for Inactive)
REMARK    1  A    between atoms: C1_2  and  C2_3 
ROOT
ATOM      1  C2  UNL d   1       3.683  -4.890   4.308  0.00  0.00    -0.073 A 
ATOM      2  C3  UNL d   1       4.233  -5.973   5.005  0.00  0.00    -0.002 A 
ATOM      3  C4  UNL d   1       5.341  -5.789   5.832  0.00  0.00     0.004 A 
ATOM      4  C5  UNL d   1       5.907  -4.523   5.977  0.00  0.00    -0.004 A 
ATOM      5  C6  UNL d   1       5.365  -3.426   5.299  0.00  0.00    -0.075 A 
ATOM      6  C7  UNL d   1       5.963  -2.057   5.442  0.00  0.00     0.076 C 
ATOM      7  C8  UNL d   1       4.253  -3.619   4.468  0.00  0.00     0.001 A 
ENDROOT
BRANCH   1   8
ATOM      8  C1  UNL d   1       2.482  -5.082   3.419  0.00  0.00     0.053 C 
ATOM      9  C   UNL d   1       2.878  -5.327   1.971  0.00  0.00     0.018 C 
ENDBRANCH   1   8
TORSDOF 1
ENDMDL
