MODEL 1
REMARK minimizedAffinity 12.7095728
REMARK minimizedRMSD -1
REMARK  1 active torsions:
REMARK  status: ('A' for Active; 'I' for Inactive)
REMARK    1  A    between atoms: C1_2  and  C2_3 
ROOT
ATOM      1  C2  UNL d   1      -2.839   4.899   1.187  0.00  0.00    -0.073 A 
ATOM      2  C3  UNL d   1      -1.893   5.603   1.941  0.00  0.00    -0.002 A 
ATOM      3  C4  UNL d   1      -0.685   5.999   1.364  0.00  0.00     0.004 A 
ATOM      4  C5  UNL d   1      -0.415   5.702   0.028  0.00  0.00    -0.004 A 
ATOM      5  C6  UNL d   1      -1.353   5.010  -0.744  0.00  0.00    -0.075 A 
ATOM      6  C7  UNL d   1      -1.076   4.681  -2.182  0.00  0.00     0.076 C 
ATOM      7  C8  UNL d   1      -2.562   4.613  -0.157  0.00  0.00     0.001 A 
ENDROOT
BRANCH   1   8
ATOM      8  C1  UNL d   1      -4.147   4.475   1.804  0.00  0.00     0.053 C 
ATOM      9  C   UNL d   1      -4.750   5.570   2.670  0.00  0.00     0.018 C 
ENDBRANCH   1   8
TORSDOF 1
ENDMDL
