MODEL 1
REMARK minimizedAffinity 4.60724163
REMARK minimizedRMSD -1
REMARK  1 active torsions:
REMARK  status: ('A' for Active; 'I' for Inactive)
REMARK    1  A    between atoms: C1_2  and  C2_3 
ROOT
ATOM      1  C2  UNL d   1       5.286   5.195   3.413  0.00  0.00    -0.073 A 
ATOM      2  C3  UNL d   1       3.972   5.679   3.435  0.00  0.00    -0.002 A 
ATOM      3  C4  UNL d   1       3.320   6.000   2.244  0.00  0.00     0.004 A 
ATOM      4  C5  UNL d   1       3.970   5.835   1.021  0.00  0.00    -0.004 A 
ATOM      5  C6  UNL d   1       5.278   5.342   0.978  0.00  0.00    -0.075 A 
ATOM      6  C7  UNL d   1       5.992   5.161  -0.330  0.00  0.00     0.076 C 
ATOM      7  C8  UNL d   1       5.927   5.024   2.178  0.00  0.00     0.001 A 
ENDROOT
BRANCH   1   8
ATOM      8  C1  UNL d   1       5.992   4.841   4.696  0.00  0.00     0.053 C 
ATOM      9  C   UNL d   1       5.984   5.993   5.688  0.00  0.00     0.018 C 
ENDBRANCH   1   8
TORSDOF 1
ENDMDL
