MODEL 1
REMARK minimizedAffinity 16.6015739
REMARK minimizedRMSD -1
REMARK  1 active torsions:
REMARK  status: ('A' for Active; 'I' for Inactive)
REMARK    1  A    between atoms: C1_2  and  C2_3 
ROOT
ATOM      1  C2  UNL d   1      -1.427   2.976   3.319  0.00  0.00    -0.073 A 
ATOM      2  C3  UNL d   1      -1.886   3.705   2.216  0.00  0.00    -0.002 A 
ATOM      3  C4  UNL d   1      -2.174   5.065   2.341  0.00  0.00     0.004 A 
ATOM      4  C5  UNL d   1      -1.999   5.710   3.565  0.00  0.00    -0.004 A 
ATOM      5  C6  UNL d   1      -1.530   5.002   4.675  0.00  0.00    -0.075 A 
ATOM      6  C7  UNL d   1      -1.339   5.681   6.000  0.00  0.00     0.076 C 
ATOM      7  C8  UNL d   1      -1.246   3.636   4.543  0.00  0.00     0.001 A 
ENDROOT
BRANCH   1   8
ATOM      8  C1  UNL d   1      -1.108   1.509   3.189  0.00  0.00     0.053 C 
ATOM      9  C   UNL d   1      -0.361   1.201   1.901  0.00  0.00     0.018 C 
ENDBRANCH   1   8
TORSDOF 1
ENDMDL
