MODEL 1
REMARK minimizedAffinity 19.6653252
REMARK minimizedRMSD -1
REMARK  1 active torsions:
REMARK  status: ('A' for Active; 'I' for Inactive)
REMARK    1  A    between atoms: C1_2  and  C2_3 
ROOT
ATOM      1  C2  UNL d   1      -3.429   4.963   3.395  0.00  0.00    -0.073 A 
ATOM      2  C3  UNL d   1      -4.578   5.392   4.069  0.00  0.00    -0.002 A 
ATOM      3  C4  UNL d   1      -4.486   5.904   5.364  0.00  0.00     0.004 A 
ATOM      4  C5  UNL d   1      -3.245   5.999   5.995  0.00  0.00    -0.004 A 
ATOM      5  C6  UNL d   1      -2.084   5.587   5.333  0.00  0.00    -0.075 A 
ATOM      6  C7  UNL d   1      -0.742   5.681   5.997  0.00  0.00     0.076 C 
ATOM      7  C8  UNL d   1      -2.185   5.071   4.033  0.00  0.00     0.001 A 
ENDROOT
BRANCH   1   8
ATOM      8  C1  UNL d   1      -3.523   4.415   1.994  0.00  0.00     0.053 C 
ATOM      9  C   UNL d   1      -4.949   4.439   1.468  0.00  0.00     0.018 C 
ENDBRANCH   1   8
TORSDOF 1
ENDMDL
