MODEL 1
REMARK minimizedAffinity 9.43298244
REMARK minimizedRMSD -1
REMARK  1 active torsions:
REMARK  status: ('A' for Active; 'I' for Inactive)
REMARK    1  A    between atoms: C1_2  and  C2_3 
ROOT
ATOM      1  C2  UNL d   1      -0.849  -0.394  -0.434  0.00  0.00    -0.073 A 
ATOM      2  C3  UNL d   1      -1.975  -1.084  -0.898  0.00  0.00    -0.002 A 
ATOM      3  C4  UNL d   1      -3.081  -1.269  -0.068  0.00  0.00     0.004 A 
ATOM      4  C5  UNL d   1      -3.076  -0.761   1.231  0.00  0.00    -0.004 A 
ATOM      5  C6  UNL d   1      -1.965  -0.058   1.710  0.00  0.00    -0.075 A 
ATOM      6  C7  UNL d   1      -1.943   0.493   3.105  0.00  0.00     0.076 C 
ATOM      7  C8  UNL d   1      -0.857   0.121   0.870  0.00  0.00     0.001 A 
ENDROOT
BRANCH   1   8
ATOM      8  C1  UNL d   1       0.345  -0.187  -1.329  0.00  0.00     0.053 C 
ATOM      9  C   UNL d   1       0.568  -1.365  -2.265  0.00  0.00     0.018 C 
ENDBRANCH   1   8
TORSDOF 1
ENDMDL
