MODEL 1
REMARK minimizedAffinity 6.55347872
REMARK minimizedRMSD -1
REMARK  1 active torsions:
REMARK  status: ('A' for Active; 'I' for Inactive)
REMARK    1  A    between atoms: C1_2  and  C2_3 
ROOT
ATOM      1  C2  UNL d   1      -1.765   0.776  -0.418  0.00  0.00    -0.073 A 
ATOM      2  C3  UNL d   1      -2.619  -0.333  -0.441  0.00  0.00    -0.002 A 
ATOM      3  C4  UNL d   1      -3.136  -0.849   0.748  0.00  0.00     0.004 A 
ATOM      4  C5  UNL d   1      -2.811  -0.259   1.969  0.00  0.00    -0.004 A 
ATOM      5  C6  UNL d   1      -1.970   0.858   2.012  0.00  0.00    -0.075 A 
ATOM      6  C7  UNL d   1      -1.609   1.503   3.317  0.00  0.00     0.076 C 
ATOM      7  C8  UNL d   1      -1.452   1.368   0.814  0.00  0.00     0.001 A 
ENDROOT
BRANCH   1   8
ATOM      8  C1  UNL d   1      -1.210   1.341  -1.700  0.00  0.00     0.053 C 
ATOM      9  C   UNL d   1       0.126   0.715  -2.067  0.00  0.00     0.018 C 
ENDBRANCH   1   8
TORSDOF 1
ENDMDL
