MODEL 1
REMARK minimizedAffinity 12.7213917
REMARK minimizedRMSD -1
REMARK  1 active torsions:
REMARK  status: ('A' for Active; 'I' for Inactive)
REMARK    1  A    between atoms: C1_2  and  C2_3 
ROOT
ATOM      1  C2  UNL d   1      -2.530   0.189   0.856  0.00  0.00    -0.073 A 
ATOM      2  C3  UNL d   1      -1.869  -0.021   2.071  0.00  0.00    -0.002 A 
ATOM      3  C4  UNL d   1      -2.266   0.666   3.219  0.00  0.00     0.004 A 
ATOM      4  C5  UNL d   1      -3.332   1.564   3.165  0.00  0.00    -0.004 A 
ATOM      5  C6  UNL d   1      -4.014   1.779   1.963  0.00  0.00    -0.075 A 
ATOM      6  C7  UNL d   1      -5.161   2.743   1.888  0.00  0.00     0.076 C 
ATOM      7  C8  UNL d   1      -3.607   1.087   0.814  0.00  0.00     0.001 A 
ENDROOT
BRANCH   1   8
ATOM      8  C1  UNL d   1      -2.109  -0.555  -0.385  0.00  0.00     0.053 C 
ATOM      9  C   UNL d   1      -1.347   0.336  -1.353  0.00  0.00     0.018 C 
ENDBRANCH   1   8
TORSDOF 1
ENDMDL
