MODEL 1
REMARK minimizedAffinity 9.14865589
REMARK minimizedRMSD -1
REMARK  1 active torsions:
REMARK  status: ('A' for Active; 'I' for Inactive)
REMARK    1  A    between atoms: C1_2  and  C2_3 
ROOT
ATOM      1  C2  UNL d   1       4.043   4.471  -0.109  0.00  0.00    -0.073 A 
ATOM      2  C3  UNL d   1       5.036   5.154  -0.822  0.00  0.00    -0.002 A 
ATOM      3  C4  UNL d   1       5.992   5.914  -0.146  0.00  0.00     0.004 A 
ATOM      4  C5  UNL d   1       5.970   5.993   1.246  0.00  0.00    -0.004 A 
ATOM      5  C6  UNL d   1       4.994   5.308   1.976  0.00  0.00    -0.075 A 
ATOM      6  C7  UNL d   1       4.955   5.385   3.474  0.00  0.00     0.076 C 
ATOM      7  C8  UNL d   1       4.035   4.550   1.291  0.00  0.00     0.001 A 
ENDROOT
BRANCH   1   8
ATOM      8  C1  UNL d   1       3.012   3.644  -0.833  0.00  0.00     0.053 C 
ATOM      9  C   UNL d   1       3.193   3.702  -2.342  0.00  0.00     0.018 C 
ENDBRANCH   1   8
TORSDOF 1
ENDMDL
