MODEL 1
REMARK minimizedAffinity 10.5345097
REMARK minimizedRMSD -1
REMARK  1 active torsions:
REMARK  status: ('A' for Active; 'I' for Inactive)
REMARK    1  A    between atoms: C1_2  and  C2_3 
ROOT
ATOM      1  C2  UNL d   1       3.885   5.169  -0.511  0.00  0.00    -0.073 A 
ATOM      2  C3  UNL d   1       5.251   4.862  -0.524  0.00  0.00    -0.002 A 
ATOM      3  C4  UNL d   1       6.000   4.931   0.651  0.00  0.00     0.004 A 
ATOM      4  C5  UNL d   1       5.392   5.300   1.851  0.00  0.00    -0.004 A 
ATOM      5  C6  UNL d   1       4.026   5.599   1.886  0.00  0.00    -0.075 A 
ATOM      6  C7  UNL d   1       3.357   6.000   3.168  0.00  0.00     0.076 C 
ATOM      7  C8  UNL d   1       3.281   5.530   0.701  0.00  0.00     0.001 A 
ENDROOT
BRANCH   1   8
ATOM      8  C1  UNL d   1       3.071   5.090  -1.776  0.00  0.00     0.053 C 
ATOM      9  C   UNL d   1       3.329   3.801  -2.541  0.00  0.00     0.018 C 
ENDBRANCH   1   8
TORSDOF 1
ENDMDL
