MODEL 1
REMARK minimizedAffinity 9.41479206
REMARK minimizedRMSD -1
REMARK  2 active torsions:
REMARK  status: ('A' for Active; 'I' for Inactive)
REMARK    1  A    between atoms: C2'_3  and  C1'_4 
REMARK    2  A    between atoms: C1'_4  and  C1_5 
ROOT
ATOM      1  C1  I4B d   1      -1.872  -1.463  -0.119  0.00  0.00    -0.075 A 
ATOM      2  C2  I4B d   1      -0.599  -1.516  -0.630  0.00  0.00     0.003 A 
ATOM      3  C3  I4B d   1      -0.275  -0.804  -1.810  0.00  0.00     0.002 A 
ATOM      4  C4  I4B d   1      -1.259  -0.097  -2.469  0.00  0.00    -0.004 A 
ATOM      5  C5  I4B d   1      -2.544  -0.026  -1.937  0.00  0.00     0.002 A 
ATOM      6  C6  I4B d   1      -2.849  -0.703  -0.747  0.00  0.00     0.003 A 
ENDROOT
BRANCH   1   7
ATOM      7  C1' I4B d   1      -2.188  -2.255   1.111  0.00  0.00     0.060 C 
BRANCH   7   8
ATOM      8  C2' I4B d   1      -0.895  -2.852   1.627  0.00  0.00    -0.013 C 
ATOM      9  C4' I4B d   1      -0.770  -2.676   3.118  0.00  0.00     0.013 C 
ATOM     10  C3' I4B d   1      -0.871  -4.303   1.249  0.00  0.00     0.013 C 
ENDBRANCH   7   8
ENDBRANCH   1   7
TORSDOF 2
ENDMDL
