MODEL 1
REMARK minimizedAffinity 18.851757
REMARK minimizedRMSD -1
REMARK  2 active torsions:
REMARK  status: ('A' for Active; 'I' for Inactive)
REMARK    1  A    between atoms: C2'_3  and  C1'_4 
REMARK    2  A    between atoms: C1'_4  and  C1_5 
ROOT
ATOM      1  C1  I4B d   1      -2.998  -1.924   0.860  0.00  0.00    -0.075 A 
ATOM      2  C2  I4B d   1      -2.550  -2.970   1.629  0.00  0.00     0.003 A 
ATOM      3  C3  I4B d   1      -1.181  -3.330   1.613  0.00  0.00     0.002 A 
ATOM      4  C4  I4B d   1      -0.310  -2.656   0.781  0.00  0.00    -0.004 A 
ATOM      5  C5  I4B d   1      -0.762  -1.581   0.020  0.00  0.00     0.002 A 
ATOM      6  C6  I4B d   1      -2.112  -1.205   0.069  0.00  0.00     0.003 A 
ENDROOT
BRANCH   1   7
ATOM      7  C1' I4B d   1      -4.457  -1.592   0.876  0.00  0.00     0.060 C 
BRANCH   7   8
ATOM      8  C2' I4B d   1      -5.153  -2.590   1.779  0.00  0.00    -0.013 C 
ATOM      9  C4' I4B d   1      -5.994  -1.893   2.815  0.00  0.00     0.013 C 
ATOM     10  C3' I4B d   1      -5.990  -3.488   0.917  0.00  0.00     0.013 C 
ENDBRANCH   7   8
ENDBRANCH   1   7
TORSDOF 2
ENDMDL
