MODEL 1
REMARK minimizedAffinity 15.1431141
REMARK minimizedRMSD -1
REMARK  2 active torsions:
REMARK  status: ('A' for Active; 'I' for Inactive)
REMARK    1  A    between atoms: C2'_3  and  C1'_4 
REMARK    2  A    between atoms: C1'_4  and  C1_5 
ROOT
ATOM      1  C1  I4B d   1      -3.043  -1.457  -1.425  0.00  0.00    -0.075 A 
ATOM      2  C2  I4B d   1      -2.186  -2.458  -1.043  0.00  0.00     0.003 A 
ATOM      3  C3  I4B d   1      -1.354  -3.089  -2.001  0.00  0.00     0.002 A 
ATOM      4  C4  I4B d   1      -1.449  -2.723  -3.328  0.00  0.00    -0.004 A 
ATOM      5  C5  I4B d   1      -2.302  -1.692  -3.709  0.00  0.00     0.002 A 
ATOM      6  C6  I4B d   1      -3.095  -1.046  -2.750  0.00  0.00     0.003 A 
ENDROOT
BRANCH   1   7
ATOM      7  C1' I4B d   1      -3.930  -0.836  -0.393  0.00  0.00     0.060 C 
BRANCH   7   8
ATOM      8  C2' I4B d   1      -4.402  -1.933   0.539  0.00  0.00    -0.013 C 
ATOM      9  C4' I4B d   1      -3.709  -1.849   1.874  0.00  0.00     0.013 C 
ATOM     10  C3' I4B d   1      -5.888  -1.805   0.691  0.00  0.00     0.013 C 
ENDBRANCH   7   8
ENDBRANCH   1   7
TORSDOF 2
ENDMDL
