MODEL 1
REMARK minimizedAffinity 11.1936407
REMARK minimizedRMSD -1
REMARK  2 active torsions:
REMARK  status: ('A' for Active; 'I' for Inactive)
REMARK    1  A    between atoms: C2'_3  and  C1'_4 
REMARK    2  A    between atoms: C1'_4  and  C1_5 
ROOT
ATOM      1  C1  I4B d   1      -0.715  -0.576  -1.989  0.00  0.00    -0.075 A 
ATOM      2  C2  I4B d   1      -1.965  -0.379  -2.520  0.00  0.00     0.003 A 
ATOM      3  C3  I4B d   1      -3.107  -0.905  -1.870  0.00  0.00     0.002 A 
ATOM      4  C4  I4B d   1      -2.950  -1.660  -0.725  0.00  0.00    -0.004 A 
ATOM      5  C5  I4B d   1      -1.684  -1.840  -0.176  0.00  0.00     0.002 A 
ATOM      6  C6  I4B d   1      -0.560  -1.284  -0.804  0.00  0.00     0.003 A 
ENDROOT
BRANCH   1   7
ATOM      7  C1' I4B d   1       0.472  -0.034  -2.720  0.00  0.00     0.060 C 
BRANCH   7   8
ATOM      8  C2' I4B d   1       1.563   0.234  -1.704  0.00  0.00    -0.013 C 
ATOM      9  C4' I4B d   1       2.744  -0.676  -1.918  0.00  0.00     0.013 C 
ATOM     10  C3' I4B d   1       1.962   1.675  -1.822  0.00  0.00     0.013 C 
ENDBRANCH   7   8
ENDBRANCH   1   7
TORSDOF 2
ENDMDL
