MODEL 1
REMARK minimizedAffinity 23.0753307
REMARK minimizedRMSD -1
REMARK  2 active torsions:
REMARK  status: ('A' for Active; 'I' for Inactive)
REMARK    1  A    between atoms: C2'_3  and  C1'_4 
REMARK    2  A    between atoms: C1'_4  and  C1_5 
ROOT
ATOM      1  C1  I4B d   1      -1.885  -2.233   2.681  0.00  0.00    -0.075 A 
ATOM      2  C2  I4B d   1      -0.850  -3.129   2.581  0.00  0.00     0.003 A 
ATOM      3  C3  I4B d   1      -0.262  -3.400   1.322  0.00  0.00     0.002 A 
ATOM      4  C4  I4B d   1      -0.770  -2.795   0.190  0.00  0.00    -0.004 A 
ATOM      5  C5  I4B d   1      -1.804  -1.870   0.297  0.00  0.00     0.002 A 
ATOM      6  C6  I4B d   1      -2.357  -1.577   1.552  0.00  0.00     0.003 A 
ENDROOT
BRANCH   1   7
ATOM      7  C1' I4B d   1      -2.504  -1.995   4.022  0.00  0.00     0.060 C 
BRANCH   7   8
ATOM      8  C2' I4B d   1      -1.707  -0.911   4.718  0.00  0.00    -0.013 C 
ATOM      9  C4' I4B d   1      -2.612   0.057   5.434  0.00  0.00     0.013 C 
ATOM     10  C3' I4B d   1      -0.760  -1.574   5.673  0.00  0.00     0.013 C 
ENDBRANCH   7   8
ENDBRANCH   1   7
TORSDOF 2
ENDMDL
