MODEL 1
REMARK minimizedAffinity 18.3208332
REMARK minimizedRMSD -1
REMARK  2 active torsions:
REMARK  status: ('A' for Active; 'I' for Inactive)
REMARK    1  A    between atoms: C2'_3  and  C1'_4 
REMARK    2  A    between atoms: C1'_4  and  C1_5 
ROOT
ATOM      1  C1  I4B d   1      -5.081   5.349  -0.893  0.00  0.00    -0.075 A 
ATOM      2  C2  I4B d   1      -5.990   5.715   0.068  0.00  0.00     0.003 A 
ATOM      3  C3  I4B d   1      -5.968   5.097   1.342  0.00  0.00     0.002 A 
ATOM      4  C4  I4B d   1      -5.059   4.091   1.594  0.00  0.00    -0.004 A 
ATOM      5  C5  I4B d   1      -4.123   3.737   0.626  0.00  0.00     0.002 A 
ATOM      6  C6  I4B d   1      -4.125   4.379  -0.621  0.00  0.00     0.003 A 
ENDROOT
BRANCH   1   7
ATOM      7  C1' I4B d   1      -5.153   5.998  -2.238  0.00  0.00     0.060 C 
BRANCH   7   8
ATOM      8  C2' I4B d   1      -3.798   5.855  -2.900  0.00  0.00    -0.013 C 
ATOM      9  C4' I4B d   1      -3.162   4.533  -2.560  0.00  0.00     0.013 C 
ATOM     10  C3' I4B d   1      -3.987   6.000  -4.380  0.00  0.00     0.013 C 
ENDBRANCH   7   8
ENDBRANCH   1   7
TORSDOF 2
ENDMDL
