MODEL 1
REMARK minimizedAffinity 22.0142403
REMARK minimizedRMSD -1
REMARK  2 active torsions:
REMARK  status: ('A' for Active; 'I' for Inactive)
REMARK    1  A    between atoms: C2'_3  and  C1'_4 
REMARK    2  A    between atoms: C1'_4  and  C1_5 
ROOT
ATOM      1  C1  I4B d   1      -1.307  -2.783   4.331  0.00  0.00    -0.075 A 
ATOM      2  C2  I4B d   1      -2.129  -2.085   3.482  0.00  0.00     0.003 A 
ATOM      3  C3  I4B d   1      -2.360  -0.703   3.689  0.00  0.00     0.002 A 
ATOM      4  C4  I4B d   1      -1.793  -0.076   4.779  0.00  0.00    -0.004 A 
ATOM      5  C5  I4B d   1      -0.942  -0.780   5.626  0.00  0.00     0.002 A 
ATOM      6  C6  I4B d   1      -0.687  -2.139   5.394  0.00  0.00     0.003 A 
ENDROOT
BRANCH   1   7
ATOM      7  C1' I4B d   1      -1.112  -4.248   4.102  0.00  0.00     0.060 C 
BRANCH   7   8
ATOM      8  C2' I4B d   1      -1.967  -4.996   5.104  0.00  0.00    -0.013 C 
ATOM      9  C4' I4B d   1      -2.955  -5.898   4.413  0.00  0.00     0.013 C 
ATOM     10  C3' I4B d   1      -1.054  -5.779   6.000  0.00  0.00     0.013 C 
ENDBRANCH   7   8
ENDBRANCH   1   7
TORSDOF 2
ENDMDL
