MODEL 1
REMARK minimizedAffinity 10.0856304
REMARK minimizedRMSD -1
REMARK  2 active torsions:
REMARK  status: ('A' for Active; 'I' for Inactive)
REMARK    1  A    between atoms: C2'_3  and  C1'_4 
REMARK    2  A    between atoms: C1'_4  and  C1_5 
ROOT
ATOM      1  C1  I4B d   1      -1.017  -0.804  -1.732  0.00  0.00    -0.075 A 
ATOM      2  C2  I4B d   1      -0.936  -1.526  -0.568  0.00  0.00     0.003 A 
ATOM      3  C3  I4B d   1      -2.092  -1.736   0.223  0.00  0.00     0.002 A 
ATOM      4  C4  I4B d   1      -3.289  -1.167  -0.159  0.00  0.00    -0.004 A 
ATOM      5  C5  I4B d   1      -3.375  -0.454  -1.352  0.00  0.00     0.002 A 
ATOM      6  C6  I4B d   1      -2.234  -0.282  -2.150  0.00  0.00     0.003 A 
ENDROOT
BRANCH   1   7
ATOM      7  C1' I4B d   1       0.229  -0.574  -2.526  0.00  0.00     0.060 C 
BRANCH   7   8
ATOM      8  C2' I4B d   1       1.308  -0.099  -1.574  0.00  0.00    -0.013 C 
ATOM      9  C4' I4B d   1       2.643  -0.709  -1.914  0.00  0.00     0.013 C 
ATOM     10  C3' I4B d   1       1.363   1.398  -1.646  0.00  0.00     0.013 C 
ENDBRANCH   7   8
ENDBRANCH   1   7
TORSDOF 2
ENDMDL
