MODEL 1
REMARK minimizedAffinity 20.2931271
REMARK minimizedRMSD -1
REMARK  2 active torsions:
REMARK  status: ('A' for Active; 'I' for Inactive)
REMARK    1  A    between atoms: C2'_3  and  C1'_4 
REMARK    2  A    between atoms: C1'_4  and  C1_5 
ROOT
ATOM      1  C1  I4B d   1      -2.542  -0.368  -2.888  0.00  0.00    -0.075 A 
ATOM      2  C2  I4B d   1      -1.483  -1.241  -2.862  0.00  0.00     0.003 A 
ATOM      3  C3  I4B d   1      -1.209  -1.994  -1.696  0.00  0.00     0.002 A 
ATOM      4  C4  I4B d   1      -1.983  -1.808  -0.568  0.00  0.00    -0.004 A 
ATOM      5  C5  I4B d   1      -3.070  -0.939  -0.604  0.00  0.00     0.002 A 
ATOM      6  C6  I4B d   1      -3.359  -0.224  -1.774  0.00  0.00     0.003 A 
ENDROOT
BRANCH   1   7
ATOM      7  C1' I4B d   1      -2.783   0.436  -4.126  0.00  0.00     0.060 C 
BRANCH   7   8
ATOM      8  C2' I4B d   1      -2.434   1.879  -3.821  0.00  0.00    -0.013 C 
ATOM      9  C4' I4B d   1      -1.056   2.224  -4.321  0.00  0.00     0.013 C 
ATOM     10  C3' I4B d   1      -3.475   2.752  -4.457  0.00  0.00     0.013 C 
ENDBRANCH   7   8
ENDBRANCH   1   7
TORSDOF 2
ENDMDL
