MODEL 1
REMARK minimizedAffinity 12.2273941
REMARK minimizedRMSD -1
REMARK  2 active torsions:
REMARK  status: ('A' for Active; 'I' for Inactive)
REMARK    1  A    between atoms: C2'_3  and  C1'_4 
REMARK    2  A    between atoms: C1'_4  and  C1_5 
ROOT
ATOM      1  C1  I4B d   1       5.324   2.974  -1.158  0.00  0.00    -0.075 A 
ATOM      2  C2  I4B d   1       4.246   2.764  -0.335  0.00  0.00     0.003 A 
ATOM      3  C3  I4B d   1       3.661   3.847   0.363  0.00  0.00     0.002 A 
ATOM      4  C4  I4B d   1       4.213   5.107   0.250  0.00  0.00    -0.004 A 
ATOM      5  C5  I4B d   1       5.292   5.322  -0.602  0.00  0.00     0.002 A 
ATOM      6  C6  I4B d   1       5.844   4.252  -1.321  0.00  0.00     0.003 A 
ENDROOT
BRANCH   1   7
ATOM      7  C1' I4B d   1       5.938   1.802  -1.855  0.00  0.00     0.060 C 
BRANCH   7   8
ATOM      8  C2' I4B d   1       5.474   1.821  -3.298  0.00  0.00    -0.013 C 
ATOM      9  C4' I4B d   1       5.943   3.065  -4.005  0.00  0.00     0.013 C 
ATOM     10  C3' I4B d   1       5.998   0.586  -3.969  0.00  0.00     0.013 C 
ENDBRANCH   7   8
ENDBRANCH   1   7
TORSDOF 2
ENDMDL
