MODEL 1
REMARK minimizedAffinity 13.7021599
REMARK minimizedRMSD -1
REMARK  2 active torsions:
REMARK  status: ('A' for Active; 'I' for Inactive)
REMARK    1  A    between atoms: C2'_3  and  C1'_4 
REMARK    2  A    between atoms: C1'_4  and  C1_5 
ROOT
ATOM      1  C1  I4B d   1      -1.458  -2.272   2.859  0.00  0.00    -0.075 A 
ATOM      2  C2  I4B d   1      -2.521  -1.582   2.333  0.00  0.00     0.003 A 
ATOM      3  C3  I4B d   1      -2.889  -1.764   0.978  0.00  0.00     0.002 A 
ATOM      4  C4  I4B d   1      -2.140  -2.602   0.177  0.00  0.00    -0.004 A 
ATOM      5  C5  I4B d   1      -1.077  -3.318   0.718  0.00  0.00     0.002 A 
ATOM      6  C6  I4B d   1      -0.741  -3.163   2.070  0.00  0.00     0.003 A 
ENDROOT
BRANCH   1   7
ATOM      7  C1' I4B d   1      -1.077  -2.031   4.285  0.00  0.00     0.060 C 
BRANCH   7   8
ATOM      8  C2' I4B d   1      -2.276  -2.360   5.151  0.00  0.00    -0.013 C 
ATOM      9  C4' I4B d   1      -2.018  -3.577   6.000  0.00  0.00     0.013 C 
ATOM     10  C3' I4B d   1      -2.577  -1.162   6.000  0.00  0.00     0.013 C 
ENDBRANCH   7   8
ENDBRANCH   1   7
TORSDOF 2
ENDMDL
