MODEL 1
REMARK minimizedAffinity 7.62942696
REMARK minimizedRMSD -1
REMARK  2 active torsions:
REMARK  status: ('A' for Active; 'I' for Inactive)
REMARK    1  A    between atoms: C2'_3  and  C1'_4 
REMARK    2  A    between atoms: C1'_4  and  C1_5 
ROOT
ATOM      1  C1  I4B d   1      -1.204  -2.144   2.852  0.00  0.00    -0.075 A 
ATOM      2  C2  I4B d   1      -2.339  -1.517   2.401  0.00  0.00     0.003 A 
ATOM      3  C3  I4B d   1      -2.693  -1.582   1.032  0.00  0.00     0.002 A 
ATOM      4  C4  I4B d   1      -1.864  -2.238   0.145  0.00  0.00    -0.004 A 
ATOM      5  C5  I4B d   1      -0.726  -2.893   0.608  0.00  0.00     0.002 A 
ATOM      6  C6  I4B d   1      -0.400  -2.857   1.972  0.00  0.00     0.003 A 
ENDROOT
BRANCH   1   7
ATOM      7  C1' I4B d   1      -0.842  -2.027   4.298  0.00  0.00     0.060 C 
BRANCH   7   8
ATOM      8  C2' I4B d   1      -1.956  -2.656   5.111  0.00  0.00    -0.013 C 
ATOM      9  C4' I4B d   1      -1.433  -3.759   5.992  0.00  0.00     0.013 C 
ATOM     10  C3' I4B d   1      -2.604  -1.575   5.923  0.00  0.00     0.013 C 
ENDBRANCH   7   8
ENDBRANCH   1   7
TORSDOF 2
ENDMDL
