MODEL 1
REMARK minimizedAffinity 16.8374367
REMARK minimizedRMSD -1
REMARK  2 active torsions:
REMARK  status: ('A' for Active; 'I' for Inactive)
REMARK    1  A    between atoms: C2'_3  and  C1'_4 
REMARK    2  A    between atoms: C1'_4  and  C1_5 
ROOT
ATOM      1  C1  I4B d   1      -4.146   3.677  -4.947  0.00  0.00    -0.075 A 
ATOM      2  C2  I4B d   1      -5.283   3.979  -5.655  0.00  0.00     0.003 A 
ATOM      3  C3  I4B d   1      -5.997   5.170  -5.381  0.00  0.00     0.002 A 
ATOM      4  C4  I4B d   1      -5.571   6.000  -4.364  0.00  0.00    -0.004 A 
ATOM      5  C5  I4B d   1      -4.405   5.704  -3.663  0.00  0.00     0.002 A 
ATOM      6  C6  I4B d   1      -3.681   4.541  -3.965  0.00  0.00     0.003 A 
ENDROOT
BRANCH   1   7
ATOM      7  C1' I4B d   1      -3.434   2.394  -5.240  0.00  0.00     0.060 C 
BRANCH   7   8
ATOM      8  C2' I4B d   1      -2.371   2.197  -4.178  0.00  0.00    -0.013 C 
ATOM      9  C4' I4B d   1      -2.371   0.782  -3.663  0.00  0.00     0.013 C 
ATOM     10  C3' I4B d   1      -1.045   2.555  -4.779  0.00  0.00     0.013 C 
ENDBRANCH   7   8
ENDBRANCH   1   7
TORSDOF 2
ENDMDL
