MODEL 1
REMARK minimizedAffinity 10.0238657
REMARK minimizedRMSD -1
REMARK  2 active torsions:
REMARK  status: ('A' for Active; 'I' for Inactive)
REMARK    1  A    between atoms: C2'_3  and  C1'_4 
REMARK    2  A    between atoms: C1'_4  and  C1_5 
ROOT
ATOM      1  C1  I4B d   1      -2.244  -2.274   2.692  0.00  0.00    -0.075 A 
ATOM      2  C2  I4B d   1      -2.837  -1.969   1.493  0.00  0.00     0.003 A 
ATOM      3  C3  I4B d   1      -2.179  -2.268   0.275  0.00  0.00     0.002 A 
ATOM      4  C4  I4B d   1      -0.916  -2.823   0.303  0.00  0.00    -0.004 A 
ATOM      5  C5  I4B d   1      -0.326  -3.153   1.520  0.00  0.00     0.002 A 
ATOM      6  C6  I4B d   1      -0.998  -2.889   2.721  0.00  0.00     0.003 A 
ENDROOT
BRANCH   1   7
ATOM      7  C1' I4B d   1      -2.952  -1.915   3.959  0.00  0.00     0.060 C 
BRANCH   7   8
ATOM      8  C2' I4B d   1      -2.002  -1.094   4.808  0.00  0.00    -0.013 C 
ATOM      9  C4' I4B d   1      -2.634   0.206   5.231  0.00  0.00     0.013 C 
ATOM     10  C3' I4B d   1      -1.614  -1.919   5.998  0.00  0.00     0.013 C 
ENDBRANCH   7   8
ENDBRANCH   1   7
TORSDOF 2
ENDMDL
