MODEL 1
REMARK minimizedAffinity 6.49476051
REMARK minimizedRMSD -1
REMARK  2 active torsions:
REMARK  status: ('A' for Active; 'I' for Inactive)
REMARK    1  A    between atoms: C2'_3  and  C1'_4 
REMARK    2  A    between atoms: C1'_4  and  C1_5 
ROOT
ATOM      1  C1  I4B d   1      -2.043  -2.316   4.462  0.00  0.00    -0.075 A 
ATOM      2  C2  I4B d   1      -3.218  -2.467   5.157  0.00  0.00     0.003 A 
ATOM      3  C3  I4B d   1      -3.739  -1.394   5.918  0.00  0.00     0.002 A 
ATOM      4  C4  I4B d   1      -3.032  -0.211   5.999  0.00  0.00    -0.004 A 
ATOM      5  C5  I4B d   1      -1.853  -0.052   5.276  0.00  0.00     0.002 A 
ATOM      6  C6  I4B d   1      -1.362  -1.106   4.493  0.00  0.00     0.003 A 
ENDROOT
BRANCH   1   7
ATOM      7  C1' I4B d   1      -1.504  -3.481   3.695  0.00  0.00     0.060 C 
BRANCH   7   8
ATOM      8  C2' I4B d   1      -1.059  -2.979   2.336  0.00  0.00    -0.013 C 
ATOM      9  C4' I4B d   1      -0.454  -4.088   1.516  0.00  0.00     0.013 C 
ATOM     10  C3' I4B d   1      -2.252  -2.386   1.648  0.00  0.00     0.013 C 
ENDBRANCH   7   8
ENDBRANCH   1   7
TORSDOF 2
ENDMDL
