MODEL 1
REMARK minimizedAffinity 4.76814699
REMARK minimizedRMSD -1
REMARK  0 active torsions:
REMARK  status: ('A' for Active; 'I' for Inactive)
ROOT
ATOM      1  C1  BNZ d   1       5.921  -3.827   5.991  0.00  0.00     0.000 A 
ATOM      2  C2  BNZ d   1       4.698  -3.210   5.985  0.00  0.00     0.000 A 
ATOM      3  C3  BNZ d   1       3.544  -3.944   5.998  0.00  0.00     0.000 A 
ATOM      4  C4  BNZ d   1       3.615  -5.291   5.976  0.00  0.00     0.000 A 
ATOM      5  C5  BNZ d   1       4.840  -5.927   5.973  0.00  0.00     0.000 A 
ATOM      6  C6  BNZ d   1       5.999  -5.185   5.999  0.00  0.00     0.000 A 
ENDROOT
TORSDOF 0
ENDMDL
