MODEL 1
REMARK minimizedAffinity 5.71423054
REMARK minimizedRMSD -1
REMARK  0 active torsions:
REMARK  status: ('A' for Active; 'I' for Inactive)
ROOT
ATOM      1  C1  BNZ d   1       5.843  -3.737   6.000  0.00  0.00     0.000 A 
ATOM      2  C2  BNZ d   1       4.844  -4.312   5.261  0.00  0.00     0.000 A 
ATOM      3  C3  BNZ d   1       4.000  -3.545   4.508  0.00  0.00     0.000 A 
ATOM      4  C4  BNZ d   1       4.131  -2.203   4.526  0.00  0.00     0.000 A 
ATOM      5  C5  BNZ d   1       5.128  -1.607   5.273  0.00  0.00     0.000 A 
ATOM      6  C6  BNZ d   1       6.000  -2.386   5.999  0.00  0.00     0.000 A 
ENDROOT
TORSDOF 0
ENDMDL
