MODEL 1
REMARK minimizedAffinity 1.80838764
REMARK minimizedRMSD -1
REMARK  0 active torsions:
REMARK  status: ('A' for Active; 'I' for Inactive)
ROOT
ATOM      1  C1  BNZ d   1       5.981  -3.409   5.996  0.00  0.00     0.000 A 
ATOM      2  C2  BNZ d   1       5.998  -4.778   6.000  0.00  0.00     0.000 A 
ATOM      3  C3  BNZ d   1       4.969  -5.493   5.453  0.00  0.00     0.000 A 
ATOM      4  C4  BNZ d   1       3.907  -4.838   4.940  0.00  0.00     0.000 A 
ATOM      5  C5  BNZ d   1       3.870  -3.458   4.938  0.00  0.00     0.000 A 
ATOM      6  C6  BNZ d   1       4.926  -2.742   5.453  0.00  0.00     0.000 A 
ENDROOT
TORSDOF 0
ENDMDL
