MODEL 1
REMARK minimizedAffinity 3.32224011
REMARK minimizedRMSD -1
REMARK  0 active torsions:
REMARK  status: ('A' for Active; 'I' for Inactive)
ROOT
ATOM      1  C1  BNZ d   1      -3.911   1.083  -1.406  0.00  0.00     0.000 A 
ATOM      2  C2  BNZ d   1      -3.532   2.165  -2.154  0.00  0.00     0.000 A 
ATOM      3  C3  BNZ d   1      -2.506   2.071  -3.052  0.00  0.00     0.000 A 
ATOM      4  C4  BNZ d   1      -1.835   0.907  -3.172  0.00  0.00     0.000 A 
ATOM      5  C5  BNZ d   1      -2.199  -0.191  -2.418  0.00  0.00     0.000 A 
ATOM      6  C6  BNZ d   1      -3.257  -0.103  -1.543  0.00  0.00     0.000 A 
ENDROOT
TORSDOF 0
ENDMDL
