MODEL 1
REMARK minimizedAffinity 4.19361687
REMARK minimizedRMSD -1
REMARK  0 active torsions:
REMARK  status: ('A' for Active; 'I' for Inactive)
ROOT
ATOM      1  C1  BNZ d   1      -3.686   1.167   2.929  0.00  0.00     0.000 A 
ATOM      2  C2  BNZ d   1      -4.842   1.306   2.208  0.00  0.00     0.000 A 
ATOM      3  C3  BNZ d   1      -5.993   1.737   2.805  0.00  0.00     0.000 A 
ATOM      4  C4  BNZ d   1      -5.997   1.991   4.130  0.00  0.00     0.000 A 
ATOM      5  C5  BNZ d   1      -4.842   1.848   4.873  0.00  0.00     0.000 A 
ATOM      6  C6  BNZ d   1      -3.676   1.450   4.260  0.00  0.00     0.000 A 
ENDROOT
TORSDOF 0
ENDMDL
