MODEL 1
REMARK minimizedAffinity 7.47645426
REMARK minimizedRMSD -1
REMARK  0 active torsions:
REMARK  status: ('A' for Active; 'I' for Inactive)
ROOT
ATOM      1  C1  BNZ d   1      -5.800   1.445   2.292  0.00  0.00     0.000 A 
ATOM      2  C2  BNZ d   1      -4.542   1.146   1.840  0.00  0.00     0.000 A 
ATOM      3  C3  BNZ d   1      -3.475   1.140   2.693  0.00  0.00     0.000 A 
ATOM      4  C4  BNZ d   1      -3.659   1.470   3.988  0.00  0.00     0.000 A 
ATOM      5  C5  BNZ d   1      -4.919   1.783   4.457  0.00  0.00     0.000 A 
ATOM      6  C6  BNZ d   1      -5.998   1.750   3.603  0.00  0.00     0.000 A 
ENDROOT
TORSDOF 0
ENDMDL
