MODEL 1
REMARK minimizedAffinity 5.95537186
REMARK minimizedRMSD -1
REMARK  0 active torsions:
REMARK  status: ('A' for Active; 'I' for Inactive)
ROOT
ATOM      1  C1  BNZ d   1      -4.781   3.400   5.991  0.00  0.00     0.000 A 
ATOM      2  C2  BNZ d   1      -5.656   4.453   6.000  0.00  0.00     0.000 A 
ATOM      3  C3  BNZ d   1      -5.202   5.742   5.983  0.00  0.00     0.000 A 
ATOM      4  C4  BNZ d   1      -3.874   5.977   5.999  0.00  0.00     0.000 A 
ATOM      5  C5  BNZ d   1      -2.978   4.926   5.999  0.00  0.00     0.000 A 
ATOM      6  C6  BNZ d   1      -3.439   3.630   5.977  0.00  0.00     0.000 A 
ENDROOT
TORSDOF 0
ENDMDL
