MODEL 1
REMARK minimizedAffinity -0.231047705
REMARK minimizedRMSD -1
REMARK  0 active torsions:
REMARK  status: ('A' for Active; 'I' for Inactive)
ROOT
ATOM      1  C   UNL d   1       0.389  -2.707  -4.120  0.00  0.00     0.172 C 
ATOM      2  N   UNL d   1      -0.005  -1.456  -4.723  0.00  0.00    -0.070 N 
ATOM      3  C1  UNL d   1       0.689  -0.783  -5.692  0.00  0.00    -0.004 A 
ATOM      4  C2  UNL d   1      -0.015   0.361  -5.999  0.00  0.00    -0.047 A 
ATOM      5  C3  UNL d   1      -1.172   0.377  -5.185  0.00  0.00    -0.047 A 
ATOM      6  C4  UNL d   1      -1.141  -0.759  -4.404  0.00  0.00    -0.004 A 
ENDROOT
TORSDOF 0
ENDMDL
