MODEL 1
REMARK minimizedAffinity -3.11061287
REMARK minimizedRMSD -1
REMARK  0 active torsions:
REMARK  status: ('A' for Active; 'I' for Inactive)
ROOT
ATOM      1  C   UNL d   1      -1.812   0.196  -4.945  0.00  0.00     0.172 C 
ATOM      2  N   UNL d   1      -1.142  -0.924  -4.327  0.00  0.00    -0.070 N 
ATOM      3  C1  UNL d   1      -0.623  -2.007  -4.986  0.00  0.00    -0.004 A 
ATOM      4  C2  UNL d   1      -0.070  -2.849  -4.045  0.00  0.00    -0.047 A 
ATOM      5  C3  UNL d   1      -0.265  -2.252  -2.777  0.00  0.00    -0.047 A 
ATOM      6  C4  UNL d   1      -0.930  -1.062  -2.980  0.00  0.00    -0.004 A 
ENDROOT
TORSDOF 0
ENDMDL
