MODEL 1
REMARK minimizedAffinity 1.72940922
REMARK minimizedRMSD -1
REMARK  0 active torsions:
REMARK  status: ('A' for Active; 'I' for Inactive)
ROOT
ATOM      1  C   UNL d   1      -3.577   0.689   2.350  0.00  0.00     0.172 C 
ATOM      2  N   UNL d   1      -2.224   0.188   2.408  0.00  0.00    -0.070 N 
ATOM      3  C1  UNL d   1      -1.341   0.389   3.435  0.00  0.00    -0.004 A 
ATOM      4  C2  UNL d   1      -0.163  -0.248   3.110  0.00  0.00    -0.047 A 
ATOM      5  C3  UNL d   1      -0.343  -0.851   1.843  0.00  0.00    -0.047 A 
ATOM      6  C4  UNL d   1      -1.628  -0.566   1.431  0.00  0.00    -0.004 A 
ENDROOT
TORSDOF 0
ENDMDL
