MODEL 1
REMARK minimizedAffinity -0.666173637
REMARK minimizedRMSD -1
REMARK  0 active torsions:
REMARK  status: ('A' for Active; 'I' for Inactive)
ROOT
ATOM      1  C   UNL d   1      -0.021  -1.884  -2.679  0.00  0.00     0.172 C 
ATOM      2  N   UNL d   1      -0.469  -1.200  -3.869  0.00  0.00    -0.070 N 
ATOM      3  C1  UNL d   1      -0.246  -1.608  -5.156  0.00  0.00    -0.004 A 
ATOM      4  C2  UNL d   1      -0.832  -0.688  -5.998  0.00  0.00    -0.047 A 
ATOM      5  C3  UNL d   1      -1.427   0.309  -5.189  0.00  0.00    -0.047 A 
ATOM      6  C4  UNL d   1      -1.187  -0.033  -3.874  0.00  0.00    -0.004 A 
ENDROOT
TORSDOF 0
ENDMDL
