MODEL 1
REMARK minimizedAffinity -2.79421043
REMARK minimizedRMSD -1
REMARK  0 active torsions:
REMARK  status: ('A' for Active; 'I' for Inactive)
ROOT
ATOM      1  C   UNL d   1       2.404  -0.021  -5.884  0.00  0.00     0.172 C 
ATOM      2  N   UNL d   1       1.136   0.294  -5.267  0.00  0.00    -0.070 N 
ATOM      3  C1  UNL d   1       0.964   0.767  -3.994  0.00  0.00    -0.004 A 
ATOM      4  C2  UNL d   1      -0.388   0.939  -3.788  0.00  0.00    -0.047 A 
ATOM      5  C3  UNL d   1      -1.051   0.555  -4.977  0.00  0.00    -0.047 A 
ATOM      6  C4  UNL d   1      -0.083   0.160  -5.877  0.00  0.00    -0.004 A 
ENDROOT
TORSDOF 0
ENDMDL
