MODEL 1
REMARK minimizedAffinity -2.06584263
REMARK minimizedRMSD -1
REMARK  0 active torsions:
REMARK  status: ('A' for Active; 'I' for Inactive)
ROOT
ATOM      1  C   UNL d   1      -1.169  -1.049  -0.558  0.00  0.00     0.172 C 
ATOM      2  N   UNL d   1      -2.017  -0.526   0.487  0.00  0.00    -0.070 N 
ATOM      3  C1  UNL d   1      -3.229   0.084   0.302  0.00  0.00    -0.004 A 
ATOM      4  C2  UNL d   1      -3.718   0.436   1.541  0.00  0.00    -0.047 A 
ATOM      5  C3  UNL d   1      -2.767   0.025   2.504  0.00  0.00    -0.047 A 
ATOM      6  C4  UNL d   1      -1.724  -0.568   1.825  0.00  0.00    -0.004 A 
ENDROOT
TORSDOF 0
ENDMDL
