MODEL 1
REMARK minimizedAffinity 2.05179214
REMARK minimizedRMSD -1
REMARK  0 active torsions:
REMARK  status: ('A' for Active; 'I' for Inactive)
ROOT
ATOM      1  C   UNL d   1       0.372  -2.260  -3.221  0.00  0.00     0.172 C 
ATOM      2  N   UNL d   1      -0.223  -1.304  -4.125  0.00  0.00    -0.070 N 
ATOM      3  C1  UNL d   1      -1.094  -0.307  -3.773  0.00  0.00    -0.004 A 
ATOM      4  C2  UNL d   1      -1.428   0.384  -4.917  0.00  0.00    -0.047 A 
ATOM      5  C3  UNL d   1      -0.735  -0.218  -5.994  0.00  0.00    -0.047 A 
ATOM      6  C4  UNL d   1       0.003  -1.261  -5.475  0.00  0.00    -0.004 A 
ENDROOT
TORSDOF 0
ENDMDL
