MODEL 1
REMARK minimizedAffinity 0.112701818
REMARK minimizedRMSD -1
REMARK  0 active torsions:
REMARK  status: ('A' for Active; 'I' for Inactive)
ROOT
ATOM      1  C   UNL d   1      -4.347   1.383   1.396  0.00  0.00     0.172 C 
ATOM      2  N   UNL d   1      -3.173   0.568   1.601  0.00  0.00    -0.070 N 
ATOM      3  C1  UNL d   1      -2.633  -0.299   0.689  0.00  0.00    -0.004 A 
ATOM      4  C2  UNL d   1      -1.524  -0.881   1.264  0.00  0.00    -0.047 A 
ATOM      5  C3  UNL d   1      -1.393  -0.346   2.567  0.00  0.00    -0.047 A 
ATOM      6  C4  UNL d   1      -2.426   0.548   2.750  0.00  0.00    -0.004 A 
ENDROOT
TORSDOF 0
ENDMDL
