MODEL 1
REMARK minimizedAffinity -2.00756454
REMARK minimizedRMSD -1
REMARK  0 active torsions:
REMARK  status: ('A' for Active; 'I' for Inactive)
ROOT
ATOM      1  C   UNL d   1       0.377  -2.105  -3.075  0.00  0.00     0.172 C 
ATOM      2  N   UNL d   1       0.009  -1.175  -4.117  0.00  0.00    -0.070 N 
ATOM      3  C1  UNL d   1       0.709  -0.954  -5.273  0.00  0.00    -0.004 A 
ATOM      4  C2  UNL d   1       0.032   0.001  -6.000  0.00  0.00    -0.047 A 
ATOM      5  C3  UNL d   1      -1.114   0.367  -5.255  0.00  0.00    -0.047 A 
ATOM      6  C4  UNL d   1      -1.104  -0.377  -4.094  0.00  0.00    -0.004 A 
ENDROOT
TORSDOF 0
ENDMDL
