MODEL 1
REMARK minimizedAffinity -3.37663579
REMARK minimizedRMSD -1
REMARK  0 active torsions:
REMARK  status: ('A' for Active; 'I' for Inactive)
ROOT
ATOM      1  C   UNL d   1      -0.891  -1.653  -0.488  0.00  0.00     0.172 C 
ATOM      2  N   UNL d   1      -1.867  -0.628  -0.204  0.00  0.00    -0.070 N 
ATOM      3  C1  UNL d   1      -3.225  -0.804  -0.174  0.00  0.00    -0.004 A 
ATOM      4  C2  UNL d   1      -3.801   0.410   0.133  0.00  0.00    -0.047 A 
ATOM      5  C3  UNL d   1      -2.754   1.348   0.292  0.00  0.00    -0.047 A 
ATOM      6  C4  UNL d   1      -1.567   0.679   0.078  0.00  0.00    -0.004 A 
ENDROOT
TORSDOF 0
ENDMDL
