MODEL 1
REMARK minimizedAffinity -1.5564872
REMARK minimizedRMSD -1
REMARK  0 active torsions:
REMARK  status: ('A' for Active; 'I' for Inactive)
ROOT
ATOM      1  C2' OXE d   1      -0.243  -1.598   0.047  0.00  0.00     0.078 C 
ATOM      2  C1' OXE d   1       2.199  -0.423   0.777  0.00  0.00     0.078 C 
ATOM      3  C1  OXE d   1       0.987   0.470   0.691  0.00  0.00    -0.078 A 
ATOM      4  C2  OXE d   1      -0.195  -0.105   0.288  0.00  0.00    -0.078 A 
ATOM      5  C3  OXE d   1      -1.355   0.662   0.245  0.00  0.00     0.003 A 
ATOM      6  C4  OXE d   1      -1.300   2.045   0.460  0.00  0.00    -0.002 A 
ATOM      7  C5  OXE d   1      -0.099   2.657   0.833  0.00  0.00    -0.002 A 
ATOM      8  C6  OXE d   1       1.042   1.879   0.994  0.00  0.00     0.003 A 
ENDROOT
TORSDOF 0
ENDMDL
