MODEL 1
REMARK minimizedAffinity -0.359072
REMARK minimizedRMSD -1
REMARK  0 active torsions:
REMARK  status: ('A' for Active; 'I' for Inactive)
ROOT
ATOM      1  C2' OXE d   1      -2.092  -3.767   0.124  0.00  0.00     0.078 C 
ATOM      2  C1' OXE d   1       0.135  -2.097   0.487  0.00  0.00     0.078 C 
ATOM      3  C1  OXE d   1      -0.180  -2.554  -0.916  0.00  0.00    -0.078 A 
ATOM      4  C2  OXE d   1      -1.244  -3.409  -1.078  0.00  0.00    -0.078 A 
ATOM      5  C3  OXE d   1      -1.611  -3.817  -2.357  0.00  0.00     0.003 A 
ATOM      6  C4  OXE d   1      -0.815  -3.490  -3.461  0.00  0.00    -0.002 A 
ATOM      7  C5  OXE d   1       0.296  -2.653  -3.313  0.00  0.00    -0.002 A 
ATOM      8  C6  OXE d   1       0.602  -2.143  -2.056  0.00  0.00     0.003 A 
ENDROOT
TORSDOF 0
ENDMDL
