MODEL 1
REMARK minimizedAffinity -5.81193924
REMARK minimizedRMSD -1
REMARK  0 active torsions:
REMARK  status: ('A' for Active; 'I' for Inactive)
ROOT
ATOM      1  C2' OXE d   1      -2.102   0.280   1.298  0.00  0.00     0.078 C 
ATOM      2  C1' OXE d   1      -0.008  -1.175   0.123  0.00  0.00     0.078 C 
ATOM      3  C1  OXE d   1       0.088   0.330   0.112  0.00  0.00    -0.078 A 
ATOM      4  C2  OXE d   1      -0.963   1.035   0.648  0.00  0.00    -0.078 A 
ATOM      5  C3  OXE d   1      -0.899   2.424   0.713  0.00  0.00     0.003 A 
ATOM      6  C4  OXE d   1       0.153   3.115   0.100  0.00  0.00    -0.002 A 
ATOM      7  C5  OXE d   1       1.214   2.418  -0.486  0.00  0.00    -0.002 A 
ATOM      8  C6  OXE d   1       1.218   1.028  -0.451  0.00  0.00     0.003 A 
ENDROOT
TORSDOF 0
ENDMDL
