MODEL 1
REMARK minimizedAffinity -3.26710224
REMARK minimizedRMSD -1
REMARK  0 active torsions:
REMARK  status: ('A' for Active; 'I' for Inactive)
ROOT
ATOM      1  C2' OXE d   1       1.233  -1.876   0.730  0.00  0.00     0.078 C 
ATOM      2  C1' OXE d   1      -0.253   0.086  -0.619  0.00  0.00     0.078 C 
ATOM      3  C1  OXE d   1      -0.322  -1.329  -1.137  0.00  0.00    -0.078 A 
ATOM      4  C2  OXE d   1       0.445  -2.274  -0.499  0.00  0.00    -0.078 A 
ATOM      5  C3  OXE d   1       0.376  -3.604  -0.902  0.00  0.00     0.003 A 
ATOM      6  C4  OXE d   1      -0.348  -3.962  -2.046  0.00  0.00    -0.002 A 
ATOM      7  C5  OXE d   1      -1.105  -3.008  -2.734  0.00  0.00    -0.002 A 
ATOM      8  C6  OXE d   1      -1.136  -1.698  -2.269  0.00  0.00     0.003 A 
ENDROOT
TORSDOF 0
ENDMDL
