MODEL 1
REMARK minimizedAffinity -1.76043725
REMARK minimizedRMSD -1
REMARK  0 active torsions:
REMARK  status: ('A' for Active; 'I' for Inactive)
ROOT
ATOM      1  C2' OXE d   1       0.994  -1.031   0.322  0.00  0.00     0.078 C 
ATOM      2  C1' OXE d   1       3.032   0.868   0.673  0.00  0.00     0.078 C 
ATOM      3  C1  OXE d   1       1.604   1.349   0.736  0.00  0.00    -0.078 A 
ATOM      4  C2  OXE d   1       0.614   0.421   0.517  0.00  0.00    -0.078 A 
ATOM      5  C3  OXE d   1      -0.721   0.801   0.619  0.00  0.00     0.003 A 
ATOM      6  C4  OXE d   1      -1.064   2.148   0.790  0.00  0.00    -0.002 A 
ATOM      7  C5  OXE d   1      -0.071   3.115   0.975  0.00  0.00    -0.002 A 
ATOM      8  C6  OXE d   1       1.264   2.726   0.994  0.00  0.00     0.003 A 
ENDROOT
TORSDOF 0
ENDMDL
