MODEL 1
REMARK minimizedAffinity -1.11329126
REMARK minimizedRMSD -1
REMARK  0 active torsions:
REMARK  status: ('A' for Active; 'I' for Inactive)
ROOT
ATOM      1  C2' OXE d   1       0.597   3.118  -0.146  0.00  0.00     0.078 C 
ATOM      2  C1' OXE d   1       2.952   1.592  -0.214  0.00  0.00     0.078 C 
ATOM      3  C1  OXE d   1       1.637   0.855  -0.196  0.00  0.00    -0.078 A 
ATOM      4  C2  OXE d   1       0.491   1.608  -0.116  0.00  0.00    -0.078 A 
ATOM      5  C3  OXE d   1      -0.751   0.980  -0.152  0.00  0.00     0.003 A 
ATOM      6  C4  OXE d   1      -0.840  -0.417  -0.114  0.00  0.00    -0.002 A 
ATOM      7  C5  OXE d   1       0.316  -1.203  -0.156  0.00  0.00    -0.002 A 
ATOM      8  C6  OXE d   1       1.558  -0.585  -0.240  0.00  0.00     0.003 A 
ENDROOT
TORSDOF 0
ENDMDL
