MODEL 1
REMARK minimizedAffinity -0.270223945
REMARK minimizedRMSD -1
REMARK  0 active torsions:
REMARK  status: ('A' for Active; 'I' for Inactive)
ROOT
ATOM      1  C2' OXE d   1      -2.086   0.128   0.382  0.00  0.00     0.078 C 
ATOM      2  C1' OXE d   1      -0.593  -2.225   0.037  0.00  0.00     0.078 C 
ATOM      3  C1  OXE d   1       0.154  -0.915   0.061  0.00  0.00    -0.078 A 
ATOM      4  C2  OXE d   1      -0.589   0.235   0.183  0.00  0.00    -0.078 A 
ATOM      5  C3  OXE d   1       0.054   1.466   0.266  0.00  0.00     0.003 A 
ATOM      6  C4  OXE d   1       1.438   1.557   0.071  0.00  0.00    -0.002 A 
ATOM      7  C5  OXE d   1       2.209   0.402  -0.095  0.00  0.00    -0.002 A 
ATOM      8  C6  OXE d   1       1.589  -0.842  -0.060  0.00  0.00     0.003 A 
ENDROOT
TORSDOF 0
ENDMDL
