MODEL 1
REMARK minimizedAffinity -6.05052805
REMARK minimizedRMSD -1
REMARK  0 active torsions:
REMARK  status: ('A' for Active; 'I' for Inactive)
ROOT
ATOM      1  C2' OXE d   1      -0.055  -0.687   0.356  0.00  0.00     0.078 C 
ATOM      2  C1' OXE d   1      -1.404   1.747  -0.012  0.00  0.00     0.078 C 
ATOM      3  C1  OXE d   1       0.071   1.800   0.297  0.00  0.00    -0.078 A 
ATOM      4  C2  OXE d   1       0.713   0.606   0.522  0.00  0.00    -0.078 A 
ATOM      5  C3  OXE d   1       2.085   0.595   0.756  0.00  0.00     0.003 A 
ATOM      6  C4  OXE d   1       2.787   1.796   0.918  0.00  0.00    -0.002 A 
ATOM      7  C5  OXE d   1       2.143   3.024   0.732  0.00  0.00    -0.002 A 
ATOM      8  C6  OXE d   1       0.798   3.043   0.380  0.00  0.00     0.003 A 
ENDROOT
TORSDOF 0
ENDMDL
