MODEL 1
REMARK minimizedAffinity -1.44169867
REMARK minimizedRMSD -1
REMARK  0 active torsions:
REMARK  status: ('A' for Active; 'I' for Inactive)
ROOT
ATOM      1  C2' OXE d   1       2.810   1.571   0.012  0.00  0.00     0.078 C 
ATOM      2  C1' OXE d   1       0.835   3.220   1.133  0.00  0.00     0.078 C 
ATOM      3  C1  OXE d   1       0.478   1.780   0.864  0.00  0.00    -0.078 A 
ATOM      4  C2  OXE d   1       1.436   0.992   0.272  0.00  0.00    -0.078 A 
ATOM      5  C3  OXE d   1       1.178  -0.358   0.052  0.00  0.00     0.003 A 
ATOM      6  C4  OXE d   1      -0.099  -0.883   0.286  0.00  0.00    -0.002 A 
ATOM      7  C5  OXE d   1      -1.101  -0.088   0.852  0.00  0.00    -0.002 A 
ATOM      8  C6  OXE d   1      -0.816   1.232   1.186  0.00  0.00     0.003 A 
ENDROOT
TORSDOF 0
ENDMDL
