MODEL 1
REMARK minimizedAffinity -5.08694363
REMARK minimizedRMSD -1
REMARK  0 active torsions:
REMARK  status: ('A' for Active; 'I' for Inactive)
ROOT
ATOM      1  C2' OXE d   1       0.180   3.050  -0.057  0.00  0.00     0.078 C 
ATOM      2  C1' OXE d   1       2.508   1.509  -0.345  0.00  0.00     0.078 C 
ATOM      3  C1  OXE d   1       1.213   0.784  -0.080  0.00  0.00    -0.078 A 
ATOM      4  C2  OXE d   1       0.086   1.549   0.106  0.00  0.00    -0.078 A 
ATOM      5  C3  OXE d   1      -1.144   0.928   0.299  0.00  0.00     0.003 A 
ATOM      6  C4  OXE d   1      -1.221  -0.461   0.459  0.00  0.00    -0.002 A 
ATOM      7  C5  OXE d   1      -0.079  -1.256   0.313  0.00  0.00    -0.002 A 
ATOM      8  C6  OXE d   1       1.135  -0.654   0.002  0.00  0.00     0.003 A 
ENDROOT
TORSDOF 0
ENDMDL
