MODEL 1
REMARK minimizedAffinity -4.68329144
REMARK minimizedRMSD -1
REMARK  0 active torsions:
REMARK  status: ('A' for Active; 'I' for Inactive)
ROOT
ATOM      1  C2' OXE d   1       2.225   1.034  -0.444  0.00  0.00     0.078 C 
ATOM      2  C1' OXE d   1       0.635  -1.221   0.076  0.00  0.00     0.078 C 
ATOM      3  C1  OXE d   1      -0.006   0.137   0.208  0.00  0.00    -0.078 A 
ATOM      4  C2  OXE d   1       0.791   1.236  -0.003  0.00  0.00    -0.078 A 
ATOM      5  C3  OXE d   1       0.236   2.512   0.053  0.00  0.00     0.003 A 
ATOM      6  C4  OXE d   1      -1.088   2.691   0.472  0.00  0.00    -0.002 A 
ATOM      7  C5  OXE d   1      -1.906   1.586   0.730  0.00  0.00    -0.002 A 
ATOM      8  C6  OXE d   1      -1.394   0.304   0.562  0.00  0.00     0.003 A 
ENDROOT
TORSDOF 0
ENDMDL
