MODEL 1
REMARK minimizedAffinity -4.25040674
REMARK minimizedRMSD -1
REMARK  0 active torsions:
REMARK  status: ('A' for Active; 'I' for Inactive)
ROOT
ATOM      1  C2' OXE d   1      -0.165  -0.959   0.017  0.00  0.00     0.078 C 
ATOM      2  C1' OXE d   1      -2.086   0.430   1.522  0.00  0.00     0.078 C 
ATOM      3  C1  OXE d   1      -0.928   1.217   0.962  0.00  0.00    -0.078 A 
ATOM      4  C2  OXE d   1       0.032   0.521   0.267  0.00  0.00    -0.078 A 
ATOM      5  C3  OXE d   1       1.093   1.207  -0.317  0.00  0.00     0.003 A 
ATOM      6  C4  OXE d   1       1.274   2.574  -0.073  0.00  0.00    -0.002 A 
ATOM      7  C5  OXE d   1       0.329   3.294   0.666  0.00  0.00    -0.002 A 
ATOM      8  C6  OXE d   1      -0.797   2.640   1.153  0.00  0.00     0.003 A 
ENDROOT
TORSDOF 0
ENDMDL
