MODEL 1
REMARK minimizedAffinity -5.6655035
REMARK minimizedRMSD -1
REMARK  0 active torsions:
REMARK  status: ('A' for Active; 'I' for Inactive)
ROOT
ATOM      1  C2' OXE d   1       0.345  -1.115   0.237  0.00  0.00     0.078 C 
ATOM      2  C1' OXE d   1       2.465   0.711   0.018  0.00  0.00     0.078 C 
ATOM      3  C1  OXE d   1       1.064   1.265   0.090  0.00  0.00    -0.078 A 
ATOM      4  C2  OXE d   1       0.030   0.363   0.150  0.00  0.00    -0.078 A 
ATOM      5  C3  OXE d   1      -1.278   0.821   0.274  0.00  0.00     0.003 A 
ATOM      6  C4  OXE d   1      -1.562   2.189   0.183  0.00  0.00    -0.002 A 
ATOM      7  C5  OXE d   1      -0.526   3.123   0.081  0.00  0.00    -0.002 A 
ATOM      8  C6  OXE d   1       0.793   2.681   0.077  0.00  0.00     0.003 A 
ENDROOT
TORSDOF 0
ENDMDL
