MODEL 1
REMARK minimizedAffinity -4.12147856
REMARK minimizedRMSD -1
REMARK  0 active torsions:
REMARK  status: ('A' for Active; 'I' for Inactive)
ROOT
ATOM      1  C2' OXE d   1      -0.170  -0.987  -0.225  0.00  0.00     0.078 C 
ATOM      2  C1' OXE d   1      -2.061   0.007   1.596  0.00  0.00     0.078 C 
ATOM      3  C1  OXE d   1      -1.184   1.003   0.878  0.00  0.00    -0.078 A 
ATOM      4  C2  OXE d   1      -0.230   0.505   0.024  0.00  0.00    -0.078 A 
ATOM      5  C3  OXE d   1       0.568   1.382  -0.704  0.00  0.00     0.003 A 
ATOM      6  C4  OXE d   1       0.513   2.760  -0.460  0.00  0.00    -0.002 A 
ATOM      7  C5  OXE d   1      -0.425   3.285   0.435  0.00  0.00    -0.002 A 
ATOM      8  C6  OXE d   1      -1.308   2.425   1.080  0.00  0.00     0.003 A 
ENDROOT
TORSDOF 0
ENDMDL
