MODEL 1
REMARK minimizedAffinity -3.94227767
REMARK minimizedRMSD -1
REMARK  0 active torsions:
REMARK  status: ('A' for Active; 'I' for Inactive)
ROOT
ATOM      1  C2' OXE d   1      -1.716   0.141   1.087  0.00  0.00     0.078 C 
ATOM      2  C1' OXE d   1       0.692  -1.130   0.406  0.00  0.00     0.078 C 
ATOM      3  C1  OXE d   1       0.617   0.368   0.245  0.00  0.00    -0.078 A 
ATOM      4  C2  OXE d   1      -0.580   0.976   0.537  0.00  0.00    -0.078 A 
ATOM      5  C3  OXE d   1      -0.687   2.362   0.458  0.00  0.00     0.003 A 
ATOM      6  C4  OXE d   1       0.366   3.125  -0.062  0.00  0.00    -0.002 A 
ATOM      7  C5  OXE d   1       1.581   2.521  -0.402  0.00  0.00    -0.002 A 
ATOM      8  C6  OXE d   1       1.737   1.152  -0.215  0.00  0.00     0.003 A 
ENDROOT
TORSDOF 0
ENDMDL
