MODEL 1
REMARK minimizedAffinity -1.51243401
REMARK minimizedRMSD -1
REMARK  0 active torsions:
REMARK  status: ('A' for Active; 'I' for Inactive)
ROOT
ATOM      1  C2' OXE d   1       1.778   1.323  -1.112  0.00  0.00     0.078 C 
ATOM      2  C1' OXE d   1       0.863   3.552   0.328  0.00  0.00     0.078 C 
ATOM      3  C1  OXE d   1       0.057   2.279   0.414  0.00  0.00    -0.078 A 
ATOM      4  C2  OXE d   1       0.487   1.207  -0.331  0.00  0.00    -0.078 A 
ATOM      5  C3  OXE d   1      -0.188  -0.007  -0.245  0.00  0.00     0.003 A 
ATOM      6  C4  OXE d   1      -1.387  -0.102   0.472  0.00  0.00    -0.002 A 
ATOM      7  C5  OXE d   1      -1.864   0.989   1.206  0.00  0.00    -0.002 A 
ATOM      8  C6  OXE d   1      -1.132   2.172   1.222  0.00  0.00     0.003 A 
ENDROOT
TORSDOF 0
ENDMDL
