MODEL 1
REMARK minimizedAffinity -4.27863073
REMARK minimizedRMSD -1
REMARK  0 active torsions:
REMARK  status: ('A' for Active; 'I' for Inactive)
ROOT
ATOM      1  C2' OXE d   1       0.314   3.134  -0.019  0.00  0.00     0.078 C 
ATOM      2  C1' OXE d   1       2.531   1.429  -0.255  0.00  0.00     0.078 C 
ATOM      3  C1  OXE d   1       1.251   0.847   0.288  0.00  0.00    -0.078 A 
ATOM      4  C2  OXE d   1       0.184   1.699   0.444  0.00  0.00    -0.078 A 
ATOM      5  C3  OXE d   1      -1.037   1.202   0.890  0.00  0.00     0.003 A 
ATOM      6  C4  OXE d   1      -1.145  -0.125   1.326  0.00  0.00    -0.002 A 
ATOM      7  C5  OXE d   1      -0.060  -1.000   1.213  0.00  0.00    -0.002 A 
ATOM      8  C6  OXE d   1       1.130  -0.542   0.657  0.00  0.00     0.003 A 
ENDROOT
TORSDOF 0
ENDMDL
