MODEL 1
REMARK minimizedAffinity 5.80498934
REMARK minimizedRMSD -1
REMARK  0 active torsions:
REMARK  status: ('A' for Active; 'I' for Inactive)
ROOT
ATOM      1  C   UNL d   1      -1.091  -2.550   4.043  0.00  0.00     0.077 C 
ATOM      2  C1  UNL d   1      -1.288  -2.958   2.613  0.00  0.00    -0.074 A 
ATOM      3  C2  UNL d   1      -0.571  -4.026   2.065  0.00  0.00    -0.005 A 
ATOM      4  C3  UNL d   1      -0.772  -4.400   0.737  0.00  0.00     0.006 A 
ATOM      5  C4  UNL d   1      -1.690  -3.710  -0.057  0.00  0.00    -0.005 A 
ATOM      6  C5  UNL d   1      -2.416  -2.640   0.474  0.00  0.00    -0.074 A 
ATOM      7  C6  UNL d   1      -3.414  -1.894  -0.362  0.00  0.00     0.077 C 
ATOM      8  C7  UNL d   1      -2.214  -2.275   1.812  0.00  0.00    -0.001 A 
ENDROOT
TORSDOF 0
ENDMDL
