MODEL 1
REMARK minimizedAffinity 4.66644716
REMARK minimizedRMSD -1
REMARK  0 active torsions:
REMARK  status: ('A' for Active; 'I' for Inactive)
ROOT
ATOM      1  C   UNL d   1      -5.416  -2.432   0.157  0.00  0.00     0.077 C 
ATOM      2  C1  UNL d   1      -3.938  -2.477  -0.095  0.00  0.00    -0.074 A 
ATOM      3  C2  UNL d   1      -3.322  -1.536  -0.926  0.00  0.00    -0.005 A 
ATOM      4  C3  UNL d   1      -1.945  -1.584  -1.144  0.00  0.00     0.006 A 
ATOM      5  C4  UNL d   1      -1.172  -2.573  -0.534  0.00  0.00    -0.005 A 
ATOM      6  C5  UNL d   1      -1.770  -3.522   0.301  0.00  0.00    -0.074 A 
ATOM      7  C6  UNL d   1      -0.952  -4.585   0.972  0.00  0.00     0.077 C 
ATOM      8  C7  UNL d   1      -3.154  -3.462   0.520  0.00  0.00    -0.001 A 
ENDROOT
TORSDOF 0
ENDMDL
