MODEL 1
REMARK minimizedAffinity 18.9654369
REMARK minimizedRMSD -1
REMARK  0 active torsions:
REMARK  status: ('A' for Active; 'I' for Inactive)
ROOT
ATOM      1  C   UNL d   1      -1.143  -0.124  -3.304  0.00  0.00     0.077 C 
ATOM      2  C1  UNL d   1      -1.770  -1.032  -2.288  0.00  0.00    -0.074 A 
ATOM      3  C2  UNL d   1      -3.110  -0.882  -1.920  0.00  0.00    -0.005 A 
ATOM      4  C3  UNL d   1      -3.682  -1.741  -0.981  0.00  0.00     0.006 A 
ATOM      5  C4  UNL d   1      -2.920  -2.756  -0.401  0.00  0.00    -0.005 A 
ATOM      6  C5  UNL d   1      -1.578  -2.922  -0.758  0.00  0.00    -0.074 A 
ATOM      7  C6  UNL d   1      -0.748  -4.014  -0.152  0.00  0.00     0.077 C 
ATOM      8  C7  UNL d   1      -1.013  -2.060  -1.707  0.00  0.00    -0.001 A 
ENDROOT
TORSDOF 0
ENDMDL
