MODEL 1
REMARK minimizedAffinity 10.1449757
REMARK minimizedRMSD -1
REMARK  0 active torsions:
REMARK  status: ('A' for Active; 'I' for Inactive)
ROOT
ATOM      1  C   UNL d   1       0.401  -6.000   0.757  0.00  0.00     0.077 C 
ATOM      2  C1  UNL d   1      -0.230  -4.715   0.310  0.00  0.00    -0.074 A 
ATOM      3  C2  UNL d   1       0.523  -3.734  -0.343  0.00  0.00    -0.005 A 
ATOM      4  C3  UNL d   1      -0.080  -2.548  -0.762  0.00  0.00     0.006 A 
ATOM      5  C4  UNL d   1      -1.439  -2.331  -0.533  0.00  0.00    -0.005 A 
ATOM      6  C5  UNL d   1      -2.208  -3.301   0.117  0.00  0.00    -0.074 A 
ATOM      7  C6  UNL d   1      -3.672  -3.088   0.362  0.00  0.00     0.077 C 
ATOM      8  C7  UNL d   1      -1.597  -4.493   0.529  0.00  0.00    -0.001 A 
ENDROOT
TORSDOF 0
ENDMDL
