MODEL 1
REMARK minimizedAffinity 0.38872835
REMARK minimizedRMSD -1
REMARK  0 active torsions:
REMARK  status: ('A' for Active; 'I' for Inactive)
ROOT
ATOM      1  C   UNL d   1      -3.536  -2.578   0.219  0.00  0.00     0.077 C 
ATOM      2  C1  UNL d   1      -2.070  -2.893   0.246  0.00  0.00    -0.074 A 
ATOM      3  C2  UNL d   1      -1.568  -4.037  -0.384  0.00  0.00    -0.005 A 
ATOM      4  C3  UNL d   1      -0.201  -4.312  -0.358  0.00  0.00     0.006 A 
ATOM      5  C4  UNL d   1       0.677  -3.448   0.297  0.00  0.00    -0.005 A 
ATOM      6  C5  UNL d   1       0.194  -2.299   0.932  0.00  0.00    -0.074 A 
ATOM      7  C6  UNL d   1       1.126  -1.355   1.632  0.00  0.00     0.077 C 
ATOM      8  C7  UNL d   1      -1.180  -2.026   0.895  0.00  0.00    -0.001 A 
ENDROOT
TORSDOF 0
ENDMDL
