MODEL 1
REMARK minimizedAffinity 7.12445879
REMARK minimizedRMSD -1
REMARK  0 active torsions:
REMARK  status: ('A' for Active; 'I' for Inactive)
ROOT
ATOM      1  C   UNL d   1       1.047  -2.007   5.926  0.00  0.00     0.077 C 
ATOM      2  C1  UNL d   1       1.927  -2.000   4.711  0.00  0.00    -0.074 A 
ATOM      3  C2  UNL d   1       1.443  -1.557   3.476  0.00  0.00    -0.005 A 
ATOM      4  C3  UNL d   1       2.276  -1.547   2.357  0.00  0.00     0.006 A 
ATOM      5  C4  UNL d   1       3.599  -1.978   2.462  0.00  0.00    -0.005 A 
ATOM      6  C5  UNL d   1       4.101  -2.422   3.689  0.00  0.00    -0.074 A 
ATOM      7  C6  UNL d   1       5.523  -2.880   3.821  0.00  0.00     0.077 C 
ATOM      8  C7  UNL d   1       3.260  -2.423   4.810  0.00  0.00    -0.001 A 
ENDROOT
TORSDOF 0
ENDMDL
