MODEL 1
REMARK minimizedAffinity 3.27776623
REMARK minimizedRMSD -1
REMARK  0 active torsions:
REMARK  status: ('A' for Active; 'I' for Inactive)
ROOT
ATOM      1  C   UNL d   1      -4.093   1.592  -0.490  0.00  0.00     0.077 C 
ATOM      2  C1  UNL d   1      -3.380   0.682  -1.445  0.00  0.00    -0.074 A 
ATOM      3  C2  UNL d   1      -1.987   0.707  -1.558  0.00  0.00    -0.005 A 
ATOM      4  C3  UNL d   1      -1.337  -0.152  -2.444  0.00  0.00     0.006 A 
ATOM      5  C4  UNL d   1      -2.073  -1.044  -3.225  0.00  0.00    -0.005 A 
ATOM      6  C5  UNL d   1      -3.467  -1.084  -3.125  0.00  0.00    -0.074 A 
ATOM      7  C6  UNL d   1      -4.273  -2.043  -3.950  0.00  0.00     0.077 C 
ATOM      8  C7  UNL d   1      -4.113  -0.222  -2.228  0.00  0.00    -0.001 A 
ENDROOT
TORSDOF 0
ENDMDL
