MODEL 1
REMARK minimizedAffinity -5.04593897
REMARK minimizedRMSD -1
REMARK  3 active torsions:
REMARK  status: ('A' for Active; 'I' for Inactive)
REMARK    1  A    between atoms: C3'_2  and  C2'_3 
REMARK    2  A    between atoms: C2'_3  and  C1'_4 
REMARK    3  A    between atoms: C1'_4  and  C1_5 
ROOT
ATOM      1  C1  N4B d   1       0.079  -0.243   0.082  0.00  0.00    -0.075 A 
ATOM      2  C2  N4B d   1      -0.537  -1.260   0.845  0.00  0.00     0.002 A 
ATOM      3  C3  N4B d   1       0.193  -2.347   1.257  0.00  0.00     0.002 A 
ATOM      4  C4  N4B d   1       1.531  -2.449   0.904  0.00  0.00    -0.004 A 
ATOM      5  C5  N4B d   1       2.124  -1.450   0.188  0.00  0.00     0.002 A 
ATOM      6  C6  N4B d   1       1.403  -0.350  -0.229  0.00  0.00     0.002 A 
ENDROOT
BRANCH   1   7
ATOM      7  C1' N4B d   1      -0.700   0.922  -0.464  0.00  0.00     0.057 C 
BRANCH   7   8
ATOM      8  C2' N4B d   1      -0.851   0.760  -1.974  0.00  0.00     0.009 C 
BRANCH   8   9
ATOM      9  C3' N4B d   1      -2.132   1.394  -2.488  0.00  0.00     0.004 C 
ATOM     10  C4' N4B d   1      -2.886   0.501  -3.427  0.00  0.00     0.003 C 
ENDBRANCH   8   9
ENDBRANCH   7   8
ENDBRANCH   1   7
TORSDOF 3
ENDMDL
