MODEL 1
REMARK minimizedAffinity -6.13676167
REMARK minimizedRMSD -1
REMARK  3 active torsions:
REMARK  status: ('A' for Active; 'I' for Inactive)
REMARK    1  A    between atoms: C3'_2  and  C2'_3 
REMARK    2  A    between atoms: C2'_3  and  C1'_4 
REMARK    3  A    between atoms: C1'_4  and  C1_5 
ROOT
ATOM      1  C1  N4B d   1       0.690  -0.938   0.458  0.00  0.00    -0.075 A 
ATOM      2  C2  N4B d   1       1.547  -2.052   0.326  0.00  0.00     0.002 A 
ATOM      3  C3  N4B d   1       1.576  -3.016   1.304  0.00  0.00     0.002 A 
ATOM      4  C4  N4B d   1       0.774  -2.878   2.427  0.00  0.00    -0.004 A 
ATOM      5  C5  N4B d   1      -0.070  -1.812   2.534  0.00  0.00     0.002 A 
ATOM      6  C6  N4B d   1      -0.113  -0.838   1.557  0.00  0.00     0.002 A 
ENDROOT
BRANCH   1   7
ATOM      7  C1' N4B d   1       0.686   0.184  -0.544  0.00  0.00     0.057 C 
BRANCH   7   8
ATOM      8  C2' N4B d   1      -0.716   0.782  -0.621  0.00  0.00     0.009 C 
BRANCH   8   9
ATOM      9  C3' N4B d   1      -1.534   0.167  -1.744  0.00  0.00     0.004 C 
ATOM     10  C4' N4B d   1      -1.909   1.162  -2.801  0.00  0.00     0.003 C 
ENDBRANCH   8   9
ENDBRANCH   7   8
ENDBRANCH   1   7
TORSDOF 3
ENDMDL
