MODEL 1
REMARK minimizedAffinity -6.6115489
REMARK minimizedRMSD -1
REMARK  3 active torsions:
REMARK  status: ('A' for Active; 'I' for Inactive)
REMARK    1  A    between atoms: C3'_2  and  C2'_3 
REMARK    2  A    between atoms: C2'_3  and  C1'_4 
REMARK    3  A    between atoms: C1'_4  and  C1_5 
ROOT
ATOM      1  C1  N4B d   1       0.733  -0.813   0.314  0.00  0.00    -0.075 A 
ATOM      2  C2  N4B d   1       1.619  -1.887   0.082  0.00  0.00     0.002 A 
ATOM      3  C3  N4B d   1       1.642  -2.957   0.943  0.00  0.00     0.002 A 
ATOM      4  C4  N4B d   1       0.806  -2.965   2.049  0.00  0.00    -0.004 A 
ATOM      5  C5  N4B d   1      -0.066  -1.935   2.253  0.00  0.00     0.002 A 
ATOM      6  C6  N4B d   1      -0.103  -0.855   1.393  0.00  0.00     0.002 A 
ENDROOT
BRANCH   1   7
ATOM      7  C1' N4B d   1       0.732   0.418  -0.551  0.00  0.00     0.057 C 
BRANCH   7   8
ATOM      8  C2' N4B d   1      -0.681   0.993  -0.603  0.00  0.00     0.009 C 
BRANCH   8   9
ATOM      9  C3' N4B d   1      -1.457   0.487  -1.806  0.00  0.00     0.004 C 
ATOM     10  C4' N4B d   1      -2.589   1.392  -2.190  0.00  0.00     0.003 C 
ENDBRANCH   8   9
ENDBRANCH   7   8
ENDBRANCH   1   7
TORSDOF 3
ENDMDL
