MODEL 1
REMARK minimizedAffinity -4.2968688
REMARK minimizedRMSD -1
REMARK  3 active torsions:
REMARK  status: ('A' for Active; 'I' for Inactive)
REMARK    1  A    between atoms: C3'_2  and  C2'_3 
REMARK    2  A    between atoms: C2'_3  and  C1'_4 
REMARK    3  A    between atoms: C1'_4  and  C1_5 
ROOT
ATOM      1  C1  N4B d   1       0.153  -0.609  -0.079  0.00  0.00    -0.075 A 
ATOM      2  C2  N4B d   1       1.401  -0.433  -0.717  0.00  0.00     0.002 A 
ATOM      3  C3  N4B d   1       2.458  -1.247  -0.392  0.00  0.00     0.002 A 
ATOM      4  C4  N4B d   1       2.298  -2.227   0.576  0.00  0.00    -0.004 A 
ATOM      5  C5  N4B d   1       1.082  -2.407   1.168  0.00  0.00     0.002 A 
ATOM      6  C6  N4B d   1       0.010  -1.599   0.849  0.00  0.00     0.002 A 
ENDROOT
BRANCH   1   7
ATOM      7  C1' N4B d   1      -1.008   0.312  -0.338  0.00  0.00     0.057 C 
BRANCH   7   8
ATOM      8  C2' N4B d   1      -1.512   0.094  -1.762  0.00  0.00     0.009 C 
BRANCH   8   9
ATOM      9  C3' N4B d   1      -2.594   1.090  -2.141  0.00  0.00     0.004 C 
ATOM     10  C4' N4B d   1      -2.606   1.406  -3.607  0.00  0.00     0.003 C 
ENDBRANCH   8   9
ENDBRANCH   7   8
ENDBRANCH   1   7
TORSDOF 3
ENDMDL
