MODEL 1
REMARK minimizedAffinity -5.00416088
REMARK minimizedRMSD -1
REMARK  3 active torsions:
REMARK  status: ('A' for Active; 'I' for Inactive)
REMARK    1  A    between atoms: C3'_2  and  C2'_3 
REMARK    2  A    between atoms: C2'_3  and  C1'_4 
REMARK    3  A    between atoms: C1'_4  and  C1_5 
ROOT
ATOM      1  C1  N4B d   1       0.146  -0.632   0.304  0.00  0.00    -0.075 A 
ATOM      2  C2  N4B d   1       1.341  -1.375   0.193  0.00  0.00     0.002 A 
ATOM      3  C3  N4B d   1       1.511  -2.518   0.935  0.00  0.00     0.002 A 
ATOM      4  C4  N4B d   1       0.511  -2.925   1.806  0.00  0.00    -0.004 A 
ATOM      5  C5  N4B d   1      -0.651  -2.216   1.888  0.00  0.00     0.002 A 
ATOM      6  C6  N4B d   1      -0.837  -1.068   1.145  0.00  0.00     0.002 A 
ENDROOT
BRANCH   1   7
ATOM      7  C1' N4B d   1      -0.051   0.670  -0.423  0.00  0.00     0.057 C 
BRANCH   7   8
ATOM      8  C2' N4B d   1      -1.519   0.809  -0.813  0.00  0.00     0.009 C 
BRANCH   8   9
ATOM      9  C3' N4B d   1      -1.683   1.317  -2.236  0.00  0.00     0.004 C 
ATOM     10  C4' N4B d   1      -3.009   0.951  -2.834  0.00  0.00     0.003 C 
ENDBRANCH   8   9
ENDBRANCH   7   8
ENDBRANCH   1   7
TORSDOF 3
ENDMDL
