MODEL 1
REMARK minimizedAffinity -1.22431731
REMARK minimizedRMSD -1
REMARK  3 active torsions:
REMARK  status: ('A' for Active; 'I' for Inactive)
REMARK    1  A    between atoms: C3'_2  and  C2'_3 
REMARK    2  A    between atoms: C2'_3  and  C1'_4 
REMARK    3  A    between atoms: C1'_4  and  C1_5 
ROOT
ATOM      1  C1  N4B d   1      -0.955   0.540  -0.231  0.00  0.00    -0.075 A 
ATOM      2  C2  N4B d   1       0.396   0.741  -0.592  0.00  0.00     0.002 A 
ATOM      3  C3  N4B d   1       1.346  -0.186  -0.240  0.00  0.00     0.002 A 
ATOM      4  C4  N4B d   1       0.974  -1.308   0.486  0.00  0.00    -0.004 A 
ATOM      5  C5  N4B d   1      -0.336  -1.507   0.810  0.00  0.00     0.002 A 
ATOM      6  C6  N4B d   1      -1.302  -0.586   0.459  0.00  0.00     0.002 A 
ENDROOT
BRANCH   1   7
ATOM      7  C1' N4B d   1      -2.015   1.567  -0.518  0.00  0.00     0.057 C 
BRANCH   7   8
ATOM      8  C2' N4B d   1      -2.744   1.188  -1.804  0.00  0.00     0.009 C 
BRANCH   8   9
ATOM      9  C3' N4B d   1      -2.223   1.962  -3.002  0.00  0.00     0.004 C 
ATOM     10  C4' N4B d   1      -1.369   3.132  -2.612  0.00  0.00     0.003 C 
ENDBRANCH   8   9
ENDBRANCH   7   8
ENDBRANCH   1   7
TORSDOF 3
ENDMDL
