MODEL 1
REMARK minimizedAffinity -6.19978189
REMARK minimizedRMSD -1
REMARK  1 active torsions:
REMARK  status: ('A' for Active; 'I' for Inactive)
REMARK    1  A    between atoms: C1_2  and  C2_3 
ROOT
ATOM      1  C2  UNL d   1      -0.455   0.257  -0.657  0.00  0.00    -0.076 A 
ATOM      2  C3  UNL d   1      -1.040   1.327  -1.357  0.00  0.00     0.004 A 
ATOM      3  C4  UNL d   1      -1.852   2.253  -0.705  0.00  0.00    -0.003 A 
ATOM      4  C5  UNL d   1      -2.092   2.124   0.659  0.00  0.00     0.000 A 
ATOM      5  C6  UNL d   1      -1.506   1.079   1.373  0.00  0.00     0.000 A 
ATOM      6  C7  UNL d   1      -0.671   0.147   0.733  0.00  0.00    -0.073 A 
ATOM      7  C8  UNL d   1      -0.070  -0.964   1.550  0.00  0.00     0.078 C 
ENDROOT
BRANCH   1   8
ATOM      8  C1  UNL d   1       0.395  -0.731  -1.424  0.00  0.00     0.053 C 
ATOM      9  C   UNL d   1      -0.066  -0.903  -2.863  0.00  0.00     0.018 C 
ENDBRANCH   1   8
TORSDOF 1
ENDMDL
