MODEL 1
REMARK minimizedAffinity -2.90727949
REMARK minimizedRMSD -1
REMARK  1 active torsions:
REMARK  status: ('A' for Active; 'I' for Inactive)
REMARK    1  A    between atoms: C1_2  and  C2_3 
ROOT
ATOM      1  C2  UNL d   1      -0.546   0.856   0.357  0.00  0.00    -0.076 A 
ATOM      2  C3  UNL d   1      -0.305  -0.320   1.088  0.00  0.00     0.004 A 
ATOM      3  C4  UNL d   1       0.620  -1.264   0.645  0.00  0.00    -0.003 A 
ATOM      4  C5  UNL d   1       1.321  -1.046  -0.536  0.00  0.00     0.000 A 
ATOM      5  C6  UNL d   1       1.107   0.124  -1.265  0.00  0.00     0.000 A 
ATOM      6  C7  UNL d   1       0.190   1.093  -0.824  0.00  0.00    -0.073 A 
ATOM      7  C8  UNL d   1      -0.005   2.333  -1.653  0.00  0.00     0.078 C 
ENDROOT
BRANCH   1   8
ATOM      8  C1  UNL d   1      -1.581   1.830   0.872  0.00  0.00     0.053 C 
ATOM      9  C   UNL d   1      -1.528   1.991   2.384  0.00  0.00     0.018 C 
ENDBRANCH   1   8
TORSDOF 1
ENDMDL
