MODEL 1
REMARK minimizedAffinity -1.83275163
REMARK minimizedRMSD -1
REMARK  1 active torsions:
REMARK  status: ('A' for Active; 'I' for Inactive)
REMARK    1  A    between atoms: C1_2  and  C2_3 
ROOT
ATOM      1  C2  UNL d   1       0.171   0.175   0.083  0.00  0.00    -0.076 A 
ATOM      2  C3  UNL d   1      -0.407  -0.218   1.302  0.00  0.00     0.004 A 
ATOM      3  C4  UNL d   1      -1.173   0.672   2.053  0.00  0.00    -0.003 A 
ATOM      4  C5  UNL d   1      -1.373   1.970   1.597  0.00  0.00     0.000 A 
ATOM      5  C6  UNL d   1      -0.821   2.373   0.381  0.00  0.00     0.000 A 
ATOM      6  C7  UNL d   1      -0.060   1.483  -0.396  0.00  0.00    -0.073 A 
ATOM      7  C8  UNL d   1       0.517   1.971  -1.697  0.00  0.00     0.078 C 
ENDROOT
BRANCH   1   8
ATOM      8  C1  UNL d   1       1.014  -0.825  -0.675  0.00  0.00     0.053 C 
ATOM      9  C   UNL d   1       0.307  -2.158  -0.864  0.00  0.00     0.018 C 
ENDBRANCH   1   8
TORSDOF 1
ENDMDL
