MODEL 1
REMARK minimizedAffinity -3.06648397
REMARK minimizedRMSD -1
REMARK  1 active torsions:
REMARK  status: ('A' for Active; 'I' for Inactive)
REMARK    1  A    between atoms: C1_2  and  C2_3 
ROOT
ATOM      1  C2  UNL d   1       0.582   0.116  -0.089  0.00  0.00    -0.076 A 
ATOM      2  C3  UNL d   1       0.107  -0.520   1.071  0.00  0.00     0.004 A 
ATOM      3  C4  UNL d   1      -0.618   0.186   2.030  0.00  0.00    -0.003 A 
ATOM      4  C5  UNL d   1      -0.880   1.538   1.844  0.00  0.00     0.000 A 
ATOM      5  C6  UNL d   1      -0.432   2.181   0.690  0.00  0.00     0.000 A 
ATOM      6  C7  UNL d   1       0.287   1.480  -0.294  0.00  0.00    -0.073 A 
ATOM      7  C8  UNL d   1       0.751   2.225  -1.515  0.00  0.00     0.078 C 
ENDROOT
BRANCH   1   8
ATOM      8  C1  UNL d   1       1.387  -0.694  -1.081  0.00  0.00     0.053 C 
ATOM      9  C   UNL d   1       0.994  -2.163  -1.087  0.00  0.00     0.018 C 
ENDBRANCH   1   8
TORSDOF 1
ENDMDL
