MODEL 1
REMARK minimizedAffinity 0.020552922
REMARK minimizedRMSD -1
REMARK  1 active torsions:
REMARK  status: ('A' for Active; 'I' for Inactive)
REMARK    1  A    between atoms: C1_2  and  C2_3 
ROOT
ATOM      1  C2  UNL d   1       0.017   0.154   0.299  0.00  0.00    -0.076 A 
ATOM      2  C3  UNL d   1       1.203   0.117   1.053  0.00  0.00     0.004 A 
ATOM      3  C4  UNL d   1       1.201  -0.340   2.370  0.00  0.00    -0.003 A 
ATOM      4  C5  UNL d   1       0.014  -0.768   2.954  0.00  0.00     0.000 A 
ATOM      5  C6  UNL d   1      -1.168  -0.755   2.214  0.00  0.00     0.000 A 
ATOM      6  C7  UNL d   1      -1.181  -0.313   0.880  0.00  0.00    -0.073 A 
ATOM      7  C8  UNL d   1      -2.486  -0.314   0.131  0.00  0.00     0.078 C 
ENDROOT
BRANCH   1   8
ATOM      8  C1  UNL d   1       0.075   0.685  -1.116  0.00  0.00     0.053 C 
ATOM      9  C   UNL d   1       0.638   2.097  -1.185  0.00  0.00     0.018 C 
ENDBRANCH   1   8
TORSDOF 1
ENDMDL
