MODEL 1
REMARK minimizedAffinity -3.56064391
REMARK minimizedRMSD -1
REMARK  1 active torsions:
REMARK  status: ('A' for Active; 'I' for Inactive)
REMARK    1  A    between atoms: C1_2  and  C2_3 
ROOT
ATOM      1  C2  UNL d   1       0.396  -0.924  -0.358  0.00  0.00    -0.076 A 
ATOM      2  C3  UNL d   1       0.309  -2.304  -0.608  0.00  0.00     0.004 A 
ATOM      3  C4  UNL d   1       0.083  -2.786  -1.896  0.00  0.00    -0.003 A 
ATOM      4  C5  UNL d   1      -0.057  -1.896  -2.955  0.00  0.00     0.000 A 
ATOM      5  C6  UNL d   1       0.044  -0.524  -2.728  0.00  0.00     0.000 A 
ATOM      6  C7  UNL d   1       0.287  -0.022  -1.438  0.00  0.00    -0.073 A 
ATOM      7  C8  UNL d   1       0.381   1.468  -1.249  0.00  0.00     0.078 C 
ENDROOT
BRANCH   1   8
ATOM      8  C1  UNL d   1       0.615  -0.458   1.064  0.00  0.00     0.053 C 
ATOM      9  C   UNL d   1      -0.691  -0.206   1.802  0.00  0.00     0.018 C 
ENDBRANCH   1   8
TORSDOF 1
ENDMDL
