MODEL 1
REMARK minimizedAffinity -6.4844594
REMARK minimizedRMSD -1
REMARK  1 active torsions:
REMARK  status: ('A' for Active; 'I' for Inactive)
REMARK    1  A    between atoms: C1_2  and  C2_3 
ROOT
ATOM      1  C2  UNL d   1      -0.330   0.456   0.076  0.00  0.00    -0.076 A 
ATOM      2  C3  UNL d   1      -1.030   1.442  -0.642  0.00  0.00     0.004 A 
ATOM      3  C4  UNL d   1      -1.832   2.374   0.014  0.00  0.00    -0.003 A 
ATOM      4  C5  UNL d   1      -1.946   2.336   1.400  0.00  0.00     0.000 A 
ATOM      5  C6  UNL d   1      -1.245   1.377   2.129  0.00  0.00     0.000 A 
ATOM      6  C7  UNL d   1      -0.420   0.440   1.484  0.00  0.00    -0.073 A 
ATOM      7  C8  UNL d   1       0.308  -0.577   2.320  0.00  0.00     0.078 C 
ENDROOT
BRANCH   1   8
ATOM      8  C1  UNL d   1       0.503  -0.545  -0.692  0.00  0.00     0.053 C 
ATOM      9  C   UNL d   1       1.822   0.040  -1.172  0.00  0.00     0.018 C 
ENDBRANCH   1   8
TORSDOF 1
ENDMDL
