MODEL 1
REMARK minimizedAffinity -6.47341347
REMARK minimizedRMSD -1
REMARK  1 active torsions:
REMARK  status: ('A' for Active; 'I' for Inactive)
REMARK    1  A    between atoms: C1_2  and  C2_3 
ROOT
ATOM      1  C2  UNL d   1      -0.060   1.161  -0.241  0.00  0.00    -0.076 A 
ATOM      2  C3  UNL d   1      -0.046  -0.008   0.539  0.00  0.00     0.004 A 
ATOM      3  C4  UNL d   1      -0.927  -0.168   1.607  0.00  0.00    -0.003 A 
ATOM      4  C5  UNL d   1      -1.837   0.838   1.913  0.00  0.00     0.000 A 
ATOM      5  C6  UNL d   1      -1.876   1.997   1.139  0.00  0.00     0.000 A 
ATOM      6  C7  UNL d   1      -1.007   2.168   0.048  0.00  0.00    -0.073 A 
ATOM      7  C8  UNL d   1      -1.089   3.441  -0.749  0.00  0.00     0.078 C 
ENDROOT
BRANCH   1   8
ATOM      8  C1  UNL d   1       0.937   1.290  -1.371  0.00  0.00     0.053 C 
ATOM      9  C   UNL d   1       1.963   0.168  -1.373  0.00  0.00     0.018 C 
ENDBRANCH   1   8
TORSDOF 1
ENDMDL
