MODEL 1
REMARK minimizedAffinity -5.67287731
REMARK minimizedRMSD -1
REMARK  1 active torsions:
REMARK  status: ('A' for Active; 'I' for Inactive)
REMARK    1  A    between atoms: C1_2  and  C2_3 
ROOT
ATOM      1  C2  UNL d   1      -0.049   0.359   0.365  0.00  0.00    -0.076 A 
ATOM      2  C3  UNL d   1       1.029   0.235  -0.529  0.00  0.00     0.004 A 
ATOM      3  C4  UNL d   1       1.257   1.194  -1.515  0.00  0.00    -0.003 A 
ATOM      4  C5  UNL d   1       0.412   2.293  -1.621  0.00  0.00     0.000 A 
ATOM      5  C6  UNL d   1      -0.652   2.441  -0.732  0.00  0.00     0.000 A 
ATOM      6  C7  UNL d   1      -0.886   1.492   0.278  0.00  0.00    -0.073 A 
ATOM      7  C8  UNL d   1      -2.051   1.699   1.207  0.00  0.00     0.078 C 
ENDROOT
BRANCH   1   8
ATOM      8  C1  UNL d   1      -0.263  -0.726   1.396  0.00  0.00     0.053 C 
ATOM      9  C   UNL d   1       1.012  -1.071   2.152  0.00  0.00     0.018 C 
ENDBRANCH   1   8
TORSDOF 1
ENDMDL
