MODEL 1
REMARK minimizedAffinity -3.79462457
REMARK minimizedRMSD -1
REMARK  1 active torsions:
REMARK  status: ('A' for Active; 'I' for Inactive)
REMARK    1  A    between atoms: C1_2  and  C2_3 
ROOT
ATOM      1  C2  UNL d   1       0.010   0.143   0.229  0.00  0.00    -0.076 A 
ATOM      2  C3  UNL d   1       0.263  -0.538   1.432  0.00  0.00     0.004 A 
ATOM      3  C4  UNL d   1      -0.382  -0.171   2.613  0.00  0.00    -0.003 A 
ATOM      4  C5  UNL d   1      -1.290   0.882   2.609  0.00  0.00     0.000 A 
ATOM      5  C6  UNL d   1      -1.565   1.557   1.420  0.00  0.00     0.000 A 
ATOM      6  C7  UNL d   1      -0.936   1.190   0.218  0.00  0.00    -0.073 A 
ATOM      7  C8  UNL d   1      -1.267   1.956  -1.033  0.00  0.00     0.078 C 
ENDROOT
BRANCH   1   8
ATOM      8  C1  UNL d   1       0.759  -0.281  -1.014  0.00  0.00     0.053 C 
ATOM      9  C   UNL d   1       0.488  -1.729  -1.392  0.00  0.00     0.018 C 
ENDBRANCH   1   8
TORSDOF 1
ENDMDL
