MODEL 1
REMARK minimizedAffinity -5.50699091
REMARK minimizedRMSD -1
REMARK  1 active torsions:
REMARK  status: ('A' for Active; 'I' for Inactive)
REMARK    1  A    between atoms: C1_2  and  C2_3 
ROOT
ATOM      1  C2  UNL d   1       0.134   0.505  -0.177  0.00  0.00    -0.076 A 
ATOM      2  C3  UNL d   1      -0.357  -0.257   0.897  0.00  0.00     0.004 A 
ATOM      3  C4  UNL d   1      -0.931   0.356   2.009  0.00  0.00    -0.003 A 
ATOM      4  C5  UNL d   1      -1.023   1.743   2.065  0.00  0.00     0.000 A 
ATOM      5  C6  UNL d   1      -0.556   2.514   1.001  0.00  0.00     0.000 A 
ATOM      6  C7  UNL d   1       0.010   1.910  -0.135  0.00  0.00    -0.073 A 
ATOM      7  C8  UNL d   1       0.503   2.791  -1.250  0.00  0.00     0.078 C 
ENDROOT
BRANCH   1   8
ATOM      8  C1  UNL d   1       0.771  -0.215  -1.345  0.00  0.00     0.053 C 
ATOM      9  C   UNL d   1       0.780  -1.725  -1.163  0.00  0.00     0.018 C 
ENDBRANCH   1   8
TORSDOF 1
ENDMDL
