MODEL 1
REMARK minimizedAffinity -3.40994191
REMARK minimizedRMSD -1
REMARK  1 active torsions:
REMARK  status: ('A' for Active; 'I' for Inactive)
REMARK    1  A    between atoms: C1_2  and  C2_3 
ROOT
ATOM      1  C2  UNL d   1       0.457  -1.374  -0.372  0.00  0.00    -0.076 A 
ATOM      2  C3  UNL d   1       0.454  -2.766  -0.570  0.00  0.00     0.004 A 
ATOM      3  C4  UNL d   1       0.037  -3.318  -1.780  0.00  0.00    -0.003 A 
ATOM      4  C5  UNL d   1      -0.382  -2.486  -2.813  0.00  0.00     0.000 A 
ATOM      5  C6  UNL d   1      -0.368  -1.103  -2.640  0.00  0.00     0.000 A 
ATOM      6  C7  UNL d   1       0.064  -0.530  -1.432  0.00  0.00    -0.073 A 
ATOM      7  C8  UNL d   1       0.052   0.969  -1.299  0.00  0.00     0.078 C 
ENDROOT
BRANCH   1   8
ATOM      8  C1  UNL d   1       0.894  -0.835   0.971  0.00  0.00     0.053 C 
ATOM      9  C   UNL d   1      -0.266  -0.685   1.944  0.00  0.00     0.018 C 
ENDBRANCH   1   8
TORSDOF 1
ENDMDL
