MODEL 1
REMARK minimizedAffinity -3.24852824
REMARK minimizedRMSD -1
REMARK  1 active torsions:
REMARK  status: ('A' for Active; 'I' for Inactive)
REMARK    1  A    between atoms: C1_2  and  C2_3 
ROOT
ATOM      1  C2  UNL d   1      -0.838   1.308   0.156  0.00  0.00    -0.076 A 
ATOM      2  C3  UNL d   1      -0.116   0.107   0.262  0.00  0.00     0.004 A 
ATOM      3  C4  UNL d   1       0.151  -0.462   1.507  0.00  0.00    -0.003 A 
ATOM      4  C5  UNL d   1      -0.301   0.161   2.665  0.00  0.00     0.000 A 
ATOM      5  C6  UNL d   1      -1.034   1.344   2.577  0.00  0.00     0.000 A 
ATOM      6  C7  UNL d   1      -1.326   1.922   1.329  0.00  0.00    -0.073 A 
ATOM      7  C8  UNL d   1      -2.116   3.201   1.293  0.00  0.00     0.078 C 
ENDROOT
BRANCH   1   8
ATOM      8  C1  UNL d   1      -1.074   1.892  -1.219  0.00  0.00     0.053 C 
ATOM      9  C   UNL d   1       0.024   1.523  -2.205  0.00  0.00     0.018 C 
ENDBRANCH   1   8
TORSDOF 1
ENDMDL
