MODEL 1
REMARK minimizedAffinity 1.23031533
REMARK minimizedRMSD -1
REMARK  1 active torsions:
REMARK  status: ('A' for Active; 'I' for Inactive)
REMARK    1  A    between atoms: C1_2  and  C2_3 
ROOT
ATOM      1  C2  UNL d   1      -3.044   2.058  -2.339  0.00  0.00    -0.076 A 
ATOM      2  C3  UNL d   1      -2.314   3.257  -2.270  0.00  0.00     0.004 A 
ATOM      3  C4  UNL d   1      -2.577   4.308  -3.147  0.00  0.00    -0.003 A 
ATOM      4  C5  UNL d   1      -3.575   4.177  -4.106  0.00  0.00     0.000 A 
ATOM      5  C6  UNL d   1      -4.321   3.001  -4.177  0.00  0.00     0.000 A 
ATOM      6  C7  UNL d   1      -4.080   1.938  -3.290  0.00  0.00    -0.073 A 
ATOM      7  C8  UNL d   1      -4.911   0.691  -3.415  0.00  0.00     0.078 C 
ENDROOT
BRANCH   1   8
ATOM      8  C1  UNL d   1      -2.696   0.942  -1.379  0.00  0.00     0.053 C 
ATOM      9  C   UNL d   1      -1.366   1.170  -0.678  0.00  0.00     0.018 C 
ENDBRANCH   1   8
TORSDOF 1
ENDMDL
