MODEL 1
REMARK minimizedAffinity 4.05735493
REMARK minimizedRMSD -1
REMARK  0 active torsions:
REMARK  status: ('A' for Active; 'I' for Inactive)
ROOT
ATOM      1  O1  BZF d   1      -4.144  -1.878  -3.866  0.00  0.00    -0.204 OA
ATOM      2  C2  BZF d   1      -4.385  -1.714  -2.515  0.00  0.00     0.174 A 
ATOM      3  C3  BZF d   1      -4.323  -0.411  -2.173  0.00  0.00    -0.012 A 
ATOM      4  C3A BZF d   1      -4.116   0.292  -3.402  0.00  0.00    -0.107 A 
ATOM      5  C4  BZF d   1      -3.986   1.614  -3.716  0.00  0.00     0.055 A 
ATOM      6  C5  BZF d   1      -3.720   1.964  -5.002  0.00  0.00    -0.016 A 
ATOM      7  C6  BZF d   1      -3.571   1.019  -5.996  0.00  0.00     0.022 A 
ATOM      8  C7  BZF d   1      -3.696  -0.305  -5.733  0.00  0.00     0.029 A 
ATOM      9  C7A BZF d   1      -3.998  -0.660  -4.441  0.00  0.00     0.058 A 
ENDROOT
TORSDOF 0
ENDMDL
