MODEL 1
REMARK minimizedAffinity 11.273345
REMARK minimizedRMSD -1
REMARK  0 active torsions:
REMARK  status: ('A' for Active; 'I' for Inactive)
ROOT
ATOM      1  O1  BZF d   1       1.717  -2.312   2.262  0.00  0.00    -0.204 OA
ATOM      2  C2  BZF d   1       1.474  -1.690   1.053  0.00  0.00     0.174 A 
ATOM      3  C3  BZF d   1       2.377  -2.074   0.127  0.00  0.00    -0.012 A 
ATOM      4  C3A BZF d   1       3.182  -3.064   0.775  0.00  0.00    -0.107 A 
ATOM      5  C4  BZF d   1       4.236  -3.830   0.367  0.00  0.00     0.055 A 
ATOM      6  C5  BZF d   1       4.845  -4.648   1.266  0.00  0.00    -0.016 A 
ATOM      7  C6  BZF d   1       4.429  -4.720   2.579  0.00  0.00     0.022 A 
ATOM      8  C7  BZF d   1       3.384  -3.983   3.029  0.00  0.00     0.029 A 
ATOM      9  C7A BZF d   1       2.746  -3.181   2.115  0.00  0.00     0.058 A 
ENDROOT
TORSDOF 0
ENDMDL
