MODEL 1
REMARK minimizedAffinity -1.11279976
REMARK minimizedRMSD -1
REMARK  0 active torsions:
REMARK  status: ('A' for Active; 'I' for Inactive)
ROOT
ATOM      1  O1  BZF d   1      -2.915  -1.405  -2.567  0.00  0.00    -0.204 OA
ATOM      2  C2  BZF d   1      -3.892  -1.147  -1.625  0.00  0.00     0.174 A 
ATOM      3  C3  BZF d   1      -4.894  -0.422  -2.162  0.00  0.00    -0.012 A 
ATOM      4  C3A BZF d   1      -4.564  -0.292  -3.548  0.00  0.00    -0.107 A 
ATOM      5  C4  BZF d   1      -5.181   0.309  -4.608  0.00  0.00     0.055 A 
ATOM      6  C5  BZF d   1      -4.560   0.317  -5.816  0.00  0.00    -0.016 A 
ATOM      7  C6  BZF d   1      -3.321  -0.261  -5.999  0.00  0.00     0.022 A 
ATOM      8  C7  BZF d   1      -2.672  -0.873  -4.979  0.00  0.00     0.029 A 
ATOM      9  C7A BZF d   1      -3.312  -0.912  -3.765  0.00  0.00     0.058 A 
ENDROOT
TORSDOF 0
ENDMDL
