MODEL 1
REMARK minimizedAffinity -0.309494168
REMARK minimizedRMSD -1
REMARK  0 active torsions:
REMARK  status: ('A' for Active; 'I' for Inactive)
ROOT
ATOM      1  O1  BZF d   1      -5.297  -1.557  -3.556  0.00  0.00    -0.204 OA
ATOM      2  C2  BZF d   1      -4.132  -2.077  -3.027  0.00  0.00     0.174 A 
ATOM      3  C3  BZF d   1      -3.052  -1.478  -3.569  0.00  0.00    -0.012 A 
ATOM      4  C3A BZF d   1      -3.576  -0.460  -4.426  0.00  0.00    -0.107 A 
ATOM      5  C4  BZF d   1      -2.998   0.482  -5.228  0.00  0.00     0.055 A 
ATOM      6  C5  BZF d   1      -3.793   1.277  -5.992  0.00  0.00    -0.016 A 
ATOM      7  C6  BZF d   1      -5.167   1.154  -5.982  0.00  0.00     0.022 A 
ATOM      8  C7  BZF d   1      -5.786   0.238  -5.199  0.00  0.00     0.029 A 
ATOM      9  C7A BZF d   1      -4.988  -0.545  -4.401  0.00  0.00     0.058 A 
ENDROOT
TORSDOF 0
ENDMDL
