MODEL 1
REMARK minimizedAffinity -0.177771255
REMARK minimizedRMSD -1
REMARK  0 active torsions:
REMARK  status: ('A' for Active; 'I' for Inactive)
ROOT
ATOM      1  O1  BZF d   1      -1.984   0.078  -5.210  0.00  0.00    -0.204 OA
ATOM      2  C2  BZF d   1      -2.336   1.169  -5.981  0.00  0.00     0.174 A 
ATOM      3  C3  BZF d   1      -3.674   1.331  -6.000  0.00  0.00    -0.012 A 
ATOM      4  C3A BZF d   1      -4.186   0.331  -5.114  0.00  0.00    -0.107 A 
ATOM      5  C4  BZF d   1      -5.445  -0.003  -4.702  0.00  0.00     0.055 A 
ATOM      6  C5  BZF d   1      -5.610  -1.078  -3.888  0.00  0.00    -0.016 A 
ATOM      7  C6  BZF d   1      -4.541  -1.844  -3.470  0.00  0.00     0.022 A 
ATOM      8  C7  BZF d   1      -3.273  -1.548  -3.848  0.00  0.00     0.029 A 
ATOM      9  C7A BZF d   1      -3.100  -0.442  -4.644  0.00  0.00     0.058 A 
ENDROOT
TORSDOF 0
ENDMDL
