MODEL 1
REMARK minimizedAffinity 3.36610031
REMARK minimizedRMSD -1
REMARK  0 active torsions:
REMARK  status: ('A' for Active; 'I' for Inactive)
ROOT
ATOM      1  O1  BZF d   1       5.637  -3.950   2.118  0.00  0.00    -0.204 OA
ATOM      2  C2  BZF d   1       4.866  -4.937   1.535  0.00  0.00     0.174 A 
ATOM      3  C3  BZF d   1       4.211  -5.650   2.474  0.00  0.00    -0.012 A 
ATOM      4  C3A BZF d   1       4.525  -5.014   3.717  0.00  0.00    -0.107 A 
ATOM      5  C4  BZF d   1       4.161  -5.251   5.012  0.00  0.00     0.055 A 
ATOM      6  C5  BZF d   1       4.701  -4.490   5.999  0.00  0.00    -0.016 A 
ATOM      7  C6  BZF d   1       5.611  -3.489   5.730  0.00  0.00     0.022 A 
ATOM      8  C7  BZF d   1       5.999  -3.213   4.461  0.00  0.00     0.029 A 
ATOM      9  C7A BZF d   1       5.430  -3.958   3.457  0.00  0.00     0.058 A 
ENDROOT
TORSDOF 0
ENDMDL
