MODEL 1
REMARK minimizedAffinity 0.667898357
REMARK minimizedRMSD -1
REMARK  0 active torsions:
REMARK  status: ('A' for Active; 'I' for Inactive)
ROOT
ATOM      1  O1  BZF d   1      -3.612   2.662  -4.330  0.00  0.00    -0.204 OA
ATOM      2  C2  BZF d   1      -3.200   3.151  -3.105  0.00  0.00     0.174 A 
ATOM      3  C3  BZF d   1      -3.254   2.187  -2.163  0.00  0.00    -0.012 A 
ATOM      4  C3A BZF d   1      -3.641   0.999  -2.861  0.00  0.00    -0.107 A 
ATOM      5  C4  BZF d   1      -3.848  -0.293  -2.472  0.00  0.00     0.055 A 
ATOM      6  C5  BZF d   1      -4.291  -1.196  -3.386  0.00  0.00    -0.016 A 
ATOM      7  C6  BZF d   1      -4.541  -0.840  -4.695  0.00  0.00     0.022 A 
ATOM      8  C7  BZF d   1      -4.345   0.429  -5.130  0.00  0.00     0.029 A 
ATOM      9  C7A BZF d   1      -3.866   1.336  -4.216  0.00  0.00     0.058 A 
ENDROOT
TORSDOF 0
ENDMDL
