MODEL 1
REMARK minimizedAffinity 0.902250886
REMARK minimizedRMSD -1
REMARK  0 active torsions:
REMARK  status: ('A' for Active; 'I' for Inactive)
ROOT
ATOM      1  O1  BZF d   1       3.074  -0.180  -0.282  0.00  0.00    -0.204 OA
ATOM      2  C2  BZF d   1       4.364   0.290  -0.441  0.00  0.00     0.174 A 
ATOM      3  C3  BZF d   1       5.258  -0.589   0.054  0.00  0.00    -0.012 A 
ATOM      4  C3A BZF d   1       4.484  -1.718   0.471  0.00  0.00    -0.107 A 
ATOM      5  C4  BZF d   1       4.806  -2.922   1.030  0.00  0.00     0.055 A 
ATOM      6  C5  BZF d   1       3.808  -3.773   1.384  0.00  0.00    -0.016 A 
ATOM      7  C6  BZF d   1       2.479  -3.452   1.199  0.00  0.00     0.022 A 
ATOM      8  C7  BZF d   1       2.111  -2.271   0.644  0.00  0.00     0.029 A 
ATOM      9  C7A BZF d   1       3.119  -1.423   0.254  0.00  0.00     0.058 A 
ENDROOT
TORSDOF 0
ENDMDL
