MODEL 1
REMARK minimizedAffinity -0.868757069
REMARK minimizedRMSD -1
REMARK  0 active torsions:
REMARK  status: ('A' for Active; 'I' for Inactive)
ROOT
ATOM      1  O1  BZF d   1      -5.651   0.441  -3.673  0.00  0.00    -0.204 OA
ATOM      2  C2  BZF d   1      -5.999   1.355  -4.649  0.00  0.00     0.174 A 
ATOM      3  C3  BZF d   1      -5.066   1.393  -5.622  0.00  0.00    -0.012 A 
ATOM      4  C3A BZF d   1      -4.120   0.377  -5.277  0.00  0.00    -0.107 A 
ATOM      5  C4  BZF d   1      -2.975  -0.079  -5.865  0.00  0.00     0.055 A 
ATOM      6  C5  BZF d   1      -2.243  -1.034  -5.234  0.00  0.00    -0.016 A 
ATOM      7  C6  BZF d   1      -2.623  -1.551  -4.013  0.00  0.00     0.022 A 
ATOM      8  C7  BZF d   1      -3.753  -1.134  -3.393  0.00  0.00     0.029 A 
ATOM      9  C7A BZF d   1      -4.513  -0.193  -4.044  0.00  0.00     0.058 A 
ENDROOT
TORSDOF 0
ENDMDL
