MODEL 1
REMARK minimizedAffinity 0.456799656
REMARK minimizedRMSD -1
REMARK  0 active torsions:
REMARK  status: ('A' for Active; 'I' for Inactive)
ROOT
ATOM      1  O1  BZF d   1       2.201  -2.005   2.108  0.00  0.00    -0.204 OA
ATOM      2  C2  BZF d   1       1.885  -1.765   0.785  0.00  0.00     0.174 A 
ATOM      3  C3  BZF d   1       2.749  -2.398  -0.035  0.00  0.00    -0.012 A 
ATOM      4  C3A BZF d   1       3.606  -3.151   0.828  0.00  0.00    -0.107 A 
ATOM      5  C4  BZF d   1       4.655  -3.996   0.606  0.00  0.00     0.055 A 
ATOM      6  C5  BZF d   1       5.326  -4.511   1.670  0.00  0.00    -0.016 A 
ATOM      7  C6  BZF d   1       4.977  -4.198   2.968  0.00  0.00     0.022 A 
ATOM      8  C7  BZF d   1       3.940  -3.368   3.239  0.00  0.00     0.029 A 
ATOM      9  C7A BZF d   1       3.240  -2.873   2.166  0.00  0.00     0.058 A 
ENDROOT
TORSDOF 0
ENDMDL
