MODEL 1
REMARK minimizedAffinity 4.09086466
REMARK minimizedRMSD -1
REMARK  0 active torsions:
REMARK  status: ('A' for Active; 'I' for Inactive)
ROOT
ATOM      1  O1  BZF d   1      -3.591   1.233  -2.147  0.00  0.00    -0.204 OA
ATOM      2  C2  BZF d   1      -3.719   2.578  -2.437  0.00  0.00     0.174 A 
ATOM      3  C3  BZF d   1      -3.471   2.812  -3.742  0.00  0.00    -0.012 A 
ATOM      4  C3A BZF d   1      -3.260   1.521  -4.322  0.00  0.00    -0.107 A 
ATOM      5  C4  BZF d   1      -2.986   1.095  -5.590  0.00  0.00     0.055 A 
ATOM      6  C5  BZF d   1      -2.765  -0.228  -5.809  0.00  0.00    -0.016 A 
ATOM      7  C6  BZF d   1      -2.804  -1.150  -4.784  0.00  0.00     0.022 A 
ATOM      8  C7  BZF d   1      -3.076  -0.776  -3.510  0.00  0.00     0.029 A 
ATOM      9  C7A BZF d   1      -3.333   0.555  -3.291  0.00  0.00     0.058 A 
ENDROOT
TORSDOF 0
ENDMDL
