MODEL 1
REMARK minimizedAffinity -2.14090466
REMARK minimizedRMSD -1
REMARK  0 active torsions:
REMARK  status: ('A' for Active; 'I' for Inactive)
ROOT
ATOM      1  O1  BZF d   1       4.338  -2.538   0.512  0.00  0.00    -0.204 OA
ATOM      2  C2  BZF d   1       2.984  -2.801   0.428  0.00  0.00     0.174 A 
ATOM      3  C3  BZF d   1       2.285  -1.661   0.256  0.00  0.00    -0.012 A 
ATOM      4  C3A BZF d   1       3.269  -0.630   0.138  0.00  0.00    -0.107 A 
ATOM      5  C4  BZF d   1       3.197   0.719  -0.063  0.00  0.00     0.055 A 
ATOM      6  C5  BZF d   1       4.342   1.451  -0.055  0.00  0.00    -0.016 A 
ATOM      7  C6  BZF d   1       5.574   0.868   0.155  0.00  0.00     0.022 A 
ATOM      8  C7  BZF d   1       5.697  -0.467   0.354  0.00  0.00     0.029 A 
ATOM      9  C7A BZF d   1       4.545  -1.214   0.314  0.00  0.00     0.058 A 
ENDROOT
TORSDOF 0
ENDMDL
