MODEL 1
REMARK minimizedAffinity -5.17133045
REMARK minimizedRMSD -1
REMARK  2 active torsions:
REMARK  status: ('A' for Active; 'I' for Inactive)
REMARK    1  A    between atoms: C2'_3  and  C1'_4 
REMARK    2  A    between atoms: C1'_4  and  C1_5 
ROOT
ATOM      1  C1  I4B d   1      -0.526  -0.018   0.582  0.00  0.00    -0.075 A 
ATOM      2  C2  I4B d   1       0.594  -0.479  -0.065  0.00  0.00     0.003 A 
ATOM      3  C3  I4B d   1       1.299  -1.598   0.441  0.00  0.00     0.002 A 
ATOM      4  C4  I4B d   1       0.882  -2.190   1.616  0.00  0.00    -0.004 A 
ATOM      5  C5  I4B d   1      -0.267  -1.735   2.257  0.00  0.00     0.002 A 
ATOM      6  C6  I4B d   1      -0.982  -0.650   1.731  0.00  0.00     0.003 A 
ENDROOT
BRANCH   1   7
ATOM      7  C1' I4B d   1      -1.227   1.187   0.039  0.00  0.00     0.060 C 
BRANCH   7   8
ATOM      8  C2' I4B d   1      -1.494   0.947  -1.434  0.00  0.00    -0.013 C 
ATOM      9  C4' I4B d   1      -2.881   0.405  -1.655  0.00  0.00     0.013 C 
ATOM     10  C3' I4B d   1      -1.297   2.246  -2.157  0.00  0.00     0.013 C 
ENDBRANCH   7   8
ENDBRANCH   1   7
TORSDOF 2
ENDMDL
