MODEL 1
REMARK minimizedAffinity -3.18479013
REMARK minimizedRMSD -1
REMARK  2 active torsions:
REMARK  status: ('A' for Active; 'I' for Inactive)
REMARK    1  A    between atoms: C2'_3  and  C1'_4 
REMARK    2  A    between atoms: C1'_4  and  C1_5 
ROOT
ATOM      1  C1  I4B d   1      -0.335   0.976  -0.602  0.00  0.00    -0.075 A 
ATOM      2  C2  I4B d   1       1.021   0.768  -0.649  0.00  0.00     0.003 A 
ATOM      3  C3  I4B d   1       1.592  -0.362  -0.015  0.00  0.00     0.002 A 
ATOM      4  C4  I4B d   1       0.781  -1.226   0.693  0.00  0.00    -0.004 A 
ATOM      5  C5  I4B d   1      -0.596  -1.026   0.721  0.00  0.00     0.002 A 
ATOM      6  C6  I4B d   1      -1.160   0.075   0.059  0.00  0.00     0.003 A 
ENDROOT
BRANCH   1   7
ATOM      7  C1' I4B d   1      -0.900   2.197  -1.254  0.00  0.00     0.060 C 
BRANCH   7   8
ATOM      8  C2' I4B d   1      -1.562   1.771  -2.549  0.00  0.00    -0.013 C 
ATOM      9  C4' I4B d   1      -3.018   2.155  -2.568  0.00  0.00     0.013 C 
ATOM     10  C3' I4B d   1      -0.818   2.412  -3.682  0.00  0.00     0.013 C 
ENDBRANCH   7   8
ENDBRANCH   1   7
TORSDOF 2
ENDMDL
