MODEL 1
REMARK minimizedAffinity -2.87534165
REMARK minimizedRMSD -1
REMARK  2 active torsions:
REMARK  status: ('A' for Active; 'I' for Inactive)
REMARK    1  A    between atoms: C2'_3  and  C1'_4 
REMARK    2  A    between atoms: C1'_4  and  C1_5 
ROOT
ATOM      1  C1  I4B d   1      -0.267   0.175  -0.051  0.00  0.00    -0.075 A 
ATOM      2  C2  I4B d   1      -0.827  -0.803   0.732  0.00  0.00     0.003 A 
ATOM      3  C3  I4B d   1      -0.038  -1.885   1.192  0.00  0.00     0.002 A 
ATOM      4  C4  I4B d   1       1.284  -1.975   0.806  0.00  0.00    -0.004 A 
ATOM      5  C5  I4B d   1       1.855  -0.970   0.031  0.00  0.00     0.002 A 
ATOM      6  C6  I4B d   1       1.078   0.119  -0.390  0.00  0.00     0.003 A 
ENDROOT
BRANCH   1   7
ATOM      7  C1' I4B d   1      -1.138   1.287  -0.547  0.00  0.00     0.060 C 
BRANCH   7   8
ATOM      8  C2' I4B d   1      -1.379   1.066  -2.026  0.00  0.00    -0.013 C 
ATOM      9  C4' I4B d   1      -2.768   0.540  -2.279  0.00  0.00     0.013 C 
ATOM     10  C3' I4B d   1      -1.157   2.370  -2.732  0.00  0.00     0.013 C 
ENDBRANCH   7   8
ENDBRANCH   1   7
TORSDOF 2
ENDMDL
