MODEL 1
REMARK minimizedAffinity -2.60112166
REMARK minimizedRMSD -1
REMARK  2 active torsions:
REMARK  status: ('A' for Active; 'I' for Inactive)
REMARK    1  A    between atoms: C2'_3  and  C1'_4 
REMARK    2  A    between atoms: C1'_4  and  C1_5 
ROOT
ATOM      1  C1  I4B d   1       0.366  -0.628   0.103  0.00  0.00    -0.075 A 
ATOM      2  C2  I4B d   1      -0.607  -0.717   1.067  0.00  0.00     0.003 A 
ATOM      3  C3  I4B d   1      -1.670   0.218   1.096  0.00  0.00     0.002 A 
ATOM      4  C4  I4B d   1      -1.694   1.249   0.179  0.00  0.00    -0.004 A 
ATOM      5  C5  I4B d   1      -0.719   1.325  -0.811  0.00  0.00     0.002 A 
ATOM      6  C6  I4B d   1       0.311   0.374  -0.858  0.00  0.00     0.003 A 
ENDROOT
BRANCH   1   7
ATOM      7  C1' I4B d   1       1.492  -1.612   0.121  0.00  0.00     0.060 C 
BRANCH   7   8
ATOM      8  C2' I4B d   1       1.708  -2.047   1.557  0.00  0.00    -0.013 C 
ATOM      9  C4' I4B d   1       1.773  -3.547   1.668  0.00  0.00     0.013 C 
ATOM     10  C3' I4B d   1       2.975  -1.412   2.047  0.00  0.00     0.013 C 
ENDBRANCH   7   8
ENDBRANCH   1   7
TORSDOF 2
ENDMDL
