MODEL 1
REMARK minimizedAffinity -3.78998137
REMARK minimizedRMSD -1
REMARK  2 active torsions:
REMARK  status: ('A' for Active; 'I' for Inactive)
REMARK    1  A    between atoms: C2'_3  and  C1'_4 
REMARK    2  A    between atoms: C1'_4  and  C1_5 
ROOT
ATOM      1  C1  I4B d   1      -0.422   0.539  -0.124  0.00  0.00    -0.075 A 
ATOM      2  C2  I4B d   1      -0.671  -0.586   0.622  0.00  0.00     0.003 A 
ATOM      3  C3  I4B d   1       0.380  -1.482   0.932  0.00  0.00     0.002 A 
ATOM      4  C4  I4B d   1       1.646  -1.243   0.438  0.00  0.00    -0.004 A 
ATOM      5  C5  I4B d   1       1.901  -0.090  -0.299  0.00  0.00     0.002 A 
ATOM      6  C6  I4B d   1       0.863   0.814  -0.572  0.00  0.00     0.003 A 
ENDROOT
BRANCH   1   7
ATOM      7  C1' I4B d   1      -1.562   1.447  -0.462  0.00  0.00     0.060 C 
BRANCH   7   8
ATOM      8  C2' I4B d   1      -1.718   1.461  -1.969  0.00  0.00    -0.013 C 
ATOM      9  C4' I4B d   1      -3.020   0.832  -2.388  0.00  0.00     0.013 C 
ATOM     10  C3' I4B d   1      -1.631   2.885  -2.431  0.00  0.00     0.013 C 
ENDBRANCH   7   8
ENDBRANCH   1   7
TORSDOF 2
ENDMDL
