MODEL 1
REMARK minimizedAffinity -4.99275589
REMARK minimizedRMSD -1
REMARK  2 active torsions:
REMARK  status: ('A' for Active; 'I' for Inactive)
REMARK    1  A    between atoms: C2'_3  and  C1'_4 
REMARK    2  A    between atoms: C1'_4  and  C1_5 
ROOT
ATOM      1  C1  I4B d   1      -1.198   1.490  -1.106  0.00  0.00    -0.075 A 
ATOM      2  C2  I4B d   1      -0.592   2.362  -1.976  0.00  0.00     0.003 A 
ATOM      3  C3  I4B d   1      -1.255   2.765  -3.160  0.00  0.00     0.002 A 
ATOM      4  C4  I4B d   1      -2.494   2.235  -3.459  0.00  0.00    -0.004 A 
ATOM      5  C5  I4B d   1      -3.117   1.369  -2.565  0.00  0.00     0.002 A 
ATOM      6  C6  I4B d   1      -2.471   1.003  -1.375  0.00  0.00     0.003 A 
ENDROOT
BRANCH   1   7
ATOM      7  C1' I4B d   1      -0.456   1.060   0.119  0.00  0.00     0.060 C 
BRANCH   7   8
ATOM      8  C2' I4B d   1       0.303  -0.208  -0.215  0.00  0.00    -0.013 C 
ATOM      9  C4' I4B d   1       1.790   0.028  -0.206  0.00  0.00     0.013 C 
ATOM     10  C3' I4B d   1      -0.085  -1.257   0.783  0.00  0.00     0.013 C 
ENDBRANCH   7   8
ENDBRANCH   1   7
TORSDOF 2
ENDMDL
