MODEL 1
REMARK minimizedAffinity -5.77810192
REMARK minimizedRMSD -1
REMARK  2 active torsions:
REMARK  status: ('A' for Active; 'I' for Inactive)
REMARK    1  A    between atoms: C2'_3  and  C1'_4 
REMARK    2  A    between atoms: C1'_4  and  C1_5 
ROOT
ATOM      1  C1  I4B d   1      -0.235  -0.024   0.115  0.00  0.00    -0.075 A 
ATOM      2  C2  I4B d   1       1.117   0.082  -0.099  0.00  0.00     0.003 A 
ATOM      3  C3  I4B d   1       1.943  -1.066  -0.018  0.00  0.00     0.002 A 
ATOM      4  C4  I4B d   1       1.386  -2.280   0.328  0.00  0.00    -0.004 A 
ATOM      5  C5  I4B d   1       0.012  -2.389   0.522  0.00  0.00     0.002 A 
ATOM      6  C6  I4B d   1      -0.806  -1.257   0.402  0.00  0.00     0.003 A 
ENDROOT
BRANCH   1   7
ATOM      7  C1' I4B d   1      -1.073   1.214   0.053  0.00  0.00     0.060 C 
BRANCH   7   8
ATOM      8  C2' I4B d   1      -1.549   1.385  -1.375  0.00  0.00    -0.013 C 
ATOM      9  C4' I4B d   1      -3.046   1.250  -1.471  0.00  0.00     0.013 C 
ATOM     10  C3' I4B d   1      -1.094   2.731  -1.857  0.00  0.00     0.013 C 
ENDBRANCH   7   8
ENDBRANCH   1   7
TORSDOF 2
ENDMDL
