MODEL 1
REMARK minimizedAffinity -1.66787994
REMARK minimizedRMSD -1
REMARK  2 active torsions:
REMARK  status: ('A' for Active; 'I' for Inactive)
REMARK    1  A    between atoms: C2'_3  and  C1'_4 
REMARK    2  A    between atoms: C1'_4  and  C1_5 
ROOT
ATOM      1  C1  I4B d   1      -0.471   1.141  -1.093  0.00  0.00    -0.075 A 
ATOM      2  C2  I4B d   1      -1.275   0.180  -0.531  0.00  0.00     0.003 A 
ATOM      3  C3  I4B d   1      -0.705  -0.877   0.218  0.00  0.00     0.002 A 
ATOM      4  C4  I4B d   1       0.667  -0.963   0.338  0.00  0.00    -0.004 A 
ATOM      5  C5  I4B d   1       1.479   0.024  -0.213  0.00  0.00     0.002 A 
ATOM      6  C6  I4B d   1       0.906   1.090  -0.922  0.00  0.00     0.003 A 
ENDROOT
BRANCH   1   7
ATOM      7  C1' I4B d   1      -1.104   2.225  -1.905  0.00  0.00     0.060 C 
BRANCH   7   8
ATOM      8  C2' I4B d   1      -1.543   1.624  -3.225  0.00  0.00    -0.013 C 
ATOM      9  C4' I4B d   1      -3.043   1.530  -3.310  0.00  0.00     0.013 C 
ATOM     10  C3' I4B d   1      -0.990   2.477  -4.328  0.00  0.00     0.013 C 
ENDBRANCH   7   8
ENDBRANCH   1   7
TORSDOF 2
ENDMDL
