MODEL 1
REMARK minimizedAffinity -3.71312976
REMARK minimizedRMSD -1
REMARK  0 active torsions:
REMARK  status: ('A' for Active; 'I' for Inactive)
ROOT
ATOM      1  C   UNL d   1      -0.944   1.015   2.711  0.00  0.00     0.078 C 
ATOM      2  C1  UNL d   1       0.043   0.462   1.727  0.00  0.00    -0.077 A 
ATOM      3  C2  UNL d   1      -0.358   0.073   0.443  0.00  0.00    -0.001 A 
ATOM      4  C3  UNL d   1       0.570  -0.450  -0.459  0.00  0.00     0.003 A 
ATOM      5  C4  UNL d   1       1.905  -0.590  -0.086  0.00  0.00    -0.005 A 
ATOM      6  C5  UNL d   1       2.314  -0.208   1.191  0.00  0.00     0.003 A 
ATOM      7  C6  UNL d   1       1.387   0.315   2.094  0.00  0.00    -0.001 A 
ENDROOT
TORSDOF 0
ENDMDL
