MODEL 1
REMARK minimizedAffinity -2.85701275
REMARK minimizedRMSD -1
REMARK  0 active torsions:
REMARK  status: ('A' for Active; 'I' for Inactive)
ROOT
ATOM      1  C   UNL d   1       2.127   0.295  -0.466  0.00  0.00     0.078 C 
ATOM      2  C1  UNL d   1       0.953   0.148   0.455  0.00  0.00    -0.077 A 
ATOM      3  C2  UNL d   1       1.098  -0.428   1.723  0.00  0.00    -0.001 A 
ATOM      4  C3  UNL d   1      -0.006  -0.567   2.566  0.00  0.00     0.003 A 
ATOM      5  C4  UNL d   1      -1.263  -0.135   2.149  0.00  0.00    -0.005 A 
ATOM      6  C5  UNL d   1      -1.418   0.437   0.888  0.00  0.00     0.003 A 
ATOM      7  C6  UNL d   1      -0.315   0.577   0.044  0.00  0.00    -0.001 A 
ENDROOT
TORSDOF 0
ENDMDL
