MODEL 1
REMARK minimizedAffinity 1.14625263
REMARK minimizedRMSD -1
REMARK  0 active torsions:
REMARK  status: ('A' for Active; 'I' for Inactive)
ROOT
ATOM      1  C   UNL d   1      -0.376  -0.799   3.907  0.00  0.00     0.078 C 
ATOM      2  C1  UNL d   1      -0.583  -0.506   2.451  0.00  0.00    -0.077 A 
ATOM      3  C2  UNL d   1       0.485  -0.553   1.547  0.00  0.00    -0.001 A 
ATOM      4  C3  UNL d   1       0.279  -0.268   0.196  0.00  0.00     0.003 A 
ATOM      5  C4  UNL d   1      -0.994   0.067  -0.262  0.00  0.00    -0.005 A 
ATOM      6  C5  UNL d   1      -2.062   0.118   0.631  0.00  0.00     0.003 A 
ATOM      7  C6  UNL d   1      -1.858  -0.166   1.982  0.00  0.00    -0.001 A 
ENDROOT
TORSDOF 0
ENDMDL
