MODEL 1
REMARK minimizedAffinity -2.56279016
REMARK minimizedRMSD -1
REMARK  0 active torsions:
REMARK  status: ('A' for Active; 'I' for Inactive)
ROOT
ATOM      1  C   UNL d   1      -0.003  -1.277   4.260  0.00  0.00     0.078 C 
ATOM      2  C1  UNL d   1      -0.657  -0.704   3.039  0.00  0.00    -0.077 A 
ATOM      3  C2  UNL d   1      -1.968  -0.214   3.085  0.00  0.00    -0.001 A 
ATOM      4  C3  UNL d   1      -2.567   0.308   1.937  0.00  0.00     0.003 A 
ATOM      5  C4  UNL d   1      -1.863   0.344   0.735  0.00  0.00    -0.005 A 
ATOM      6  C5  UNL d   1      -0.559  -0.143   0.679  0.00  0.00     0.003 A 
ATOM      7  C6  UNL d   1       0.042  -0.665   1.825  0.00  0.00    -0.001 A 
ENDROOT
TORSDOF 0
ENDMDL
