MODEL 1
REMARK minimizedAffinity -4.86871243
REMARK minimizedRMSD -1
REMARK  0 active torsions:
REMARK  status: ('A' for Active; 'I' for Inactive)
ROOT
ATOM      1  C   UNL d   1       1.930  -0.383   1.432  0.00  0.00     0.078 C 
ATOM      2  C1  UNL d   1       0.439  -0.349   1.583  0.00  0.00    -0.077 A 
ATOM      3  C2  UNL d   1      -0.402  -0.621   0.497  0.00  0.00    -0.001 A 
ATOM      4  C3  UNL d   1      -1.789  -0.577   0.650  0.00  0.00     0.003 A 
ATOM      5  C4  UNL d   1      -2.347  -0.259   1.886  0.00  0.00    -0.005 A 
ATOM      6  C5  UNL d   1      -1.518   0.016   2.972  0.00  0.00     0.003 A 
ATOM      7  C6  UNL d   1      -0.131  -0.028   2.821  0.00  0.00    -0.001 A 
ENDROOT
TORSDOF 0
ENDMDL
