MODEL 1
REMARK minimizedAffinity -2.923316
REMARK minimizedRMSD -1
REMARK  0 active torsions:
REMARK  status: ('A' for Active; 'I' for Inactive)
ROOT
ATOM      1  C   UNL d   1       0.318  -1.265   4.472  0.00  0.00     0.078 C 
ATOM      2  C1  UNL d   1      -0.202  -0.747   3.164  0.00  0.00    -0.077 A 
ATOM      3  C2  UNL d   1      -1.532  -0.330   3.032  0.00  0.00    -0.001 A 
ATOM      4  C3  UNL d   1      -2.005   0.141   1.806  0.00  0.00     0.003 A 
ATOM      5  C4  UNL d   1      -1.156   0.198   0.703  0.00  0.00    -0.005 A 
ATOM      6  C5  UNL d   1       0.169  -0.217   0.825  0.00  0.00     0.003 A 
ATOM      7  C6  UNL d   1       0.644  -0.688   2.050  0.00  0.00    -0.001 A 
ENDROOT
TORSDOF 0
ENDMDL
