MODEL 1
REMARK minimizedAffinity 0.515832961
REMARK minimizedRMSD -1
REMARK  0 active torsions:
REMARK  status: ('A' for Active; 'I' for Inactive)
ROOT
ATOM      1  C   UNL d   1       5.994  -0.584   0.263  0.00  0.00     0.078 C 
ATOM      2  C1  UNL d   1       5.029   0.041  -0.700  0.00  0.00    -0.077 A 
ATOM      3  C2  UNL d   1       5.216  -0.071  -2.083  0.00  0.00    -0.001 A 
ATOM      4  C3  UNL d   1       4.315   0.524  -2.968  0.00  0.00     0.003 A 
ATOM      5  C4  UNL d   1       3.221   1.235  -2.479  0.00  0.00    -0.005 A 
ATOM      6  C5  UNL d   1       3.028   1.353  -1.105  0.00  0.00     0.003 A 
ATOM      7  C6  UNL d   1       3.928   0.760  -0.218  0.00  0.00    -0.001 A 
ENDROOT
TORSDOF 0
ENDMDL
