MODEL 1
REMARK minimizedAffinity -2.5816257
REMARK minimizedRMSD -1
REMARK  0 active torsions:
REMARK  status: ('A' for Active; 'I' for Inactive)
ROOT
ATOM      1  C   UNL d   1       0.033  -0.573   4.538  0.00  0.00     0.078 C 
ATOM      2  C1  UNL d   1      -0.504  -0.371   3.152  0.00  0.00    -0.077 A 
ATOM      3  C2  UNL d   1      -1.834   0.012   2.943  0.00  0.00    -0.001 A 
ATOM      4  C3  UNL d   1      -2.322   0.188   1.647  0.00  0.00     0.003 A 
ATOM      5  C4  UNL d   1      -1.487  -0.019   0.550  0.00  0.00    -0.005 A 
ATOM      6  C5  UNL d   1      -0.162  -0.402   0.749  0.00  0.00     0.003 A 
ATOM      7  C6  UNL d   1       0.328  -0.578   2.044  0.00  0.00    -0.001 A 
ENDROOT
TORSDOF 0
ENDMDL
