MODEL 1
REMARK minimizedAffinity -1.55218863
REMARK minimizedRMSD -1
REMARK  0 active torsions:
REMARK  status: ('A' for Active; 'I' for Inactive)
ROOT
ATOM      1  C   UNL d   1       1.975  -0.485   0.675  0.00  0.00     0.078 C 
ATOM      2  C1  UNL d   1       0.475  -0.480   0.670  0.00  0.00    -0.077 A 
ATOM      3  C2  UNL d   1      -0.249  -0.215   1.839  0.00  0.00    -0.001 A 
ATOM      4  C3  UNL d   1      -1.644  -0.223   1.823  0.00  0.00     0.003 A 
ATOM      5  C4  UNL d   1      -2.328  -0.496   0.639  0.00  0.00    -0.005 A 
ATOM      6  C5  UNL d   1      -1.616  -0.762  -0.528  0.00  0.00     0.003 A 
ATOM      7  C6  UNL d   1      -0.221  -0.755  -0.513  0.00  0.00    -0.001 A 
ENDROOT
TORSDOF 0
ENDMDL
