MODEL 1
REMARK minimizedAffinity 10.4158049
REMARK minimizedRMSD -1
REMARK  0 active torsions:
REMARK  status: ('A' for Active; 'I' for Inactive)
ROOT
ATOM      1  C   UNL d   1       3.154  -5.342   3.936  0.00  0.00     0.078 C 
ATOM      2  C1  UNL d   1       2.303  -5.449   2.706  0.00  0.00    -0.077 A 
ATOM      3  C2  UNL d   1       0.918  -5.633   2.801  0.00  0.00    -0.001 A 
ATOM      4  C3  UNL d   1       0.140  -5.740   1.647  0.00  0.00     0.003 A 
ATOM      5  C4  UNL d   1       0.738  -5.667   0.390  0.00  0.00    -0.005 A 
ATOM      6  C5  UNL d   1       2.116  -5.487   0.286  0.00  0.00     0.003 A 
ATOM      7  C6  UNL d   1       2.895  -5.379   1.439  0.00  0.00    -0.001 A 
ENDROOT
TORSDOF 0
ENDMDL
