MODEL 1
REMARK minimizedAffinity -1.67897403
REMARK minimizedRMSD -1
REMARK  0 active torsions:
REMARK  status: ('A' for Active; 'I' for Inactive)
ROOT
ATOM      1  C   UNL d   1       4.839   5.352   1.810  0.00  0.00     0.078 C 
ATOM      2  C1  UNL d   1       4.202   5.424   0.454  0.00  0.00    -0.077 A 
ATOM      3  C2  UNL d   1       2.892   4.972   0.248  0.00  0.00    -0.001 A 
ATOM      4  C3  UNL d   1       2.316   5.036  -1.022  0.00  0.00     0.003 A 
ATOM      5  C4  UNL d   1       3.041   5.549  -2.095  0.00  0.00    -0.005 A 
ATOM      6  C5  UNL d   1       4.345   5.999  -1.900  0.00  0.00     0.003 A 
ATOM      7  C6  UNL d   1       4.924   5.936  -0.631  0.00  0.00    -0.001 A 
ENDROOT
TORSDOF 0
ENDMDL
