MODEL 1
REMARK minimizedAffinity -1.09595561
REMARK minimizedRMSD -1
REMARK  0 active torsions:
REMARK  status: ('A' for Active; 'I' for Inactive)
ROOT
ATOM      1  C   UNL d   1       4.086   4.439  -3.461  0.00  0.00     0.078 C 
ATOM      2  C1  UNL d   1       4.507   3.120  -4.038  0.00  0.00    -0.077 A 
ATOM      3  C2  UNL d   1       5.618   3.025  -4.885  0.00  0.00    -0.001 A 
ATOM      4  C3  UNL d   1       5.992   1.792  -5.422  0.00  0.00     0.003 A 
ATOM      5  C4  UNL d   1       5.260   0.646  -5.119  0.00  0.00    -0.005 A 
ATOM      6  C5  UNL d   1       4.152   0.731  -4.279  0.00  0.00     0.003 A 
ATOM      7  C6  UNL d   1       3.776   1.963  -3.741  0.00  0.00    -0.001 A 
ENDROOT
TORSDOF 0
ENDMDL
