MODEL 1
REMARK minimizedAffinity -0.147161514
REMARK minimizedRMSD -1
REMARK  0 active torsions:
REMARK  status: ('A' for Active; 'I' for Inactive)
ROOT
ATOM      1  C   UNL d   1       1.768  -0.321  -1.712  0.00  0.00     0.078 C 
ATOM      2  C1  UNL d   1       1.391   0.633  -0.618  0.00  0.00    -0.077 A 
ATOM      3  C2  UNL d   1       2.248   0.862   0.466  0.00  0.00    -0.001 A 
ATOM      4  C3  UNL d   1       1.881   1.745   1.482  0.00  0.00     0.003 A 
ATOM      5  C4  UNL d   1       0.655   2.406   1.426  0.00  0.00    -0.005 A 
ATOM      6  C5  UNL d   1      -0.205   2.183   0.353  0.00  0.00     0.003 A 
ATOM      7  C6  UNL d   1       0.161   1.300  -0.664  0.00  0.00    -0.001 A 
ENDROOT
TORSDOF 0
ENDMDL
