MODEL 1
REMARK minimizedAffinity -2.27814889
REMARK minimizedRMSD -1
REMARK  0 active torsions:
REMARK  status: ('A' for Active; 'I' for Inactive)
ROOT
ATOM      1  C   UNL d   1      -0.398   0.415  -0.789  0.00  0.00     0.078 C 
ATOM      2  C1  UNL d   1       0.771  -0.506  -0.975  0.00  0.00    -0.077 A 
ATOM      3  C2  UNL d   1       1.662  -0.334  -2.041  0.00  0.00    -0.001 A 
ATOM      4  C3  UNL d   1       2.740  -1.205  -2.207  0.00  0.00     0.003 A 
ATOM      5  C4  UNL d   1       2.937  -2.254  -1.311  0.00  0.00    -0.005 A 
ATOM      6  C5  UNL d   1       2.054  -2.434  -0.249  0.00  0.00     0.003 A 
ATOM      7  C6  UNL d   1       0.975  -1.565  -0.081  0.00  0.00    -0.001 A 
ENDROOT
TORSDOF 0
ENDMDL
