MODEL 1
REMARK minimizedAffinity 5.26383114
REMARK minimizedRMSD -1
REMARK  0 active torsions:
REMARK  status: ('A' for Active; 'I' for Inactive)
ROOT
ATOM      1  C   UNL d   1       1.506   1.576  -2.484  0.00  0.00     0.078 C 
ATOM      2  C1  UNL d   1       1.585   0.197  -1.900  0.00  0.00    -0.077 A 
ATOM      3  C2  UNL d   1       2.737  -0.239  -1.234  0.00  0.00    -0.001 A 
ATOM      4  C3  UNL d   1       2.799  -1.529  -0.703  0.00  0.00     0.003 A 
ATOM      5  C4  UNL d   1       1.714  -2.393  -0.834  0.00  0.00    -0.005 A 
ATOM      6  C5  UNL d   1       0.564  -1.968  -1.497  0.00  0.00     0.003 A 
ATOM      7  C6  UNL d   1       0.500  -0.679  -2.028  0.00  0.00    -0.001 A 
ENDROOT
TORSDOF 0
ENDMDL
