MODEL 1
REMARK minimizedAffinity 5.56802654
REMARK minimizedRMSD -1
REMARK  0 active torsions:
REMARK  status: ('A' for Active; 'I' for Inactive)
ROOT
ATOM      1  C   UNL d   1       1.790  -3.235   0.618  0.00  0.00     0.078 C 
ATOM      2  C1  UNL d   1       2.800  -2.553   1.491  0.00  0.00    -0.077 A 
ATOM      3  C2  UNL d   1       2.907  -1.157   1.516  0.00  0.00    -0.001 A 
ATOM      4  C3  UNL d   1       3.859  -0.536   2.326  0.00  0.00     0.003 A 
ATOM      5  C4  UNL d   1       4.712  -1.303   3.116  0.00  0.00    -0.005 A 
ATOM      6  C5  UNL d   1       4.615  -2.693   3.096  0.00  0.00     0.003 A 
ATOM      7  C6  UNL d   1       3.664  -3.316   2.287  0.00  0.00    -0.001 A 
ENDROOT
TORSDOF 0
ENDMDL
