MODEL 1
REMARK minimizedAffinity 9.35830879
REMARK minimizedRMSD -1
REMARK  0 active torsions:
REMARK  status: ('A' for Active; 'I' for Inactive)
ROOT
ATOM      1  C   UNL d   1       2.486   2.220   1.735  0.00  0.00     0.078 C 
ATOM      2  C1  UNL d   1       1.246   2.328   0.898  0.00  0.00    -0.077 A 
ATOM      3  C2  UNL d   1       1.267   2.016  -0.467  0.00  0.00    -0.001 A 
ATOM      4  C3  UNL d   1       0.108   2.130  -1.235  0.00  0.00     0.003 A 
ATOM      5  C4  UNL d   1      -1.081   2.557  -0.648  0.00  0.00    -0.005 A 
ATOM      6  C5  UNL d   1      -1.112   2.872   0.709  0.00  0.00     0.003 A 
ATOM      7  C6  UNL d   1       0.047   2.759   1.479  0.00  0.00    -0.001 A 
ENDROOT
TORSDOF 0
ENDMDL
