MODEL 1
REMARK minimizedAffinity 6.96531343
REMARK minimizedRMSD -1
REMARK  0 active torsions:
REMARK  status: ('A' for Active; 'I' for Inactive)
ROOT
ATOM      1  C   UNL d   1      -1.336  -0.204  -0.793  0.00  0.00     0.078 C 
ATOM      2  C1  UNL d   1       0.088  -0.615  -1.017  0.00  0.00    -0.077 A 
ATOM      3  C2  UNL d   1       0.582  -1.817  -0.495  0.00  0.00    -0.001 A 
ATOM      4  C3  UNL d   1       1.913  -2.183  -0.704  0.00  0.00     0.003 A 
ATOM      5  C4  UNL d   1       2.761  -1.352  -1.434  0.00  0.00    -0.005 A 
ATOM      6  C5  UNL d   1       2.278  -0.154  -1.956  0.00  0.00     0.003 A 
ATOM      7  C6  UNL d   1       0.948   0.214  -1.748  0.00  0.00    -0.001 A 
ENDROOT
TORSDOF 0
ENDMDL
