MODEL 1
REMARK minimizedAffinity 5.72164869
REMARK minimizedRMSD -1
REMARK  0 active torsions:
REMARK  status: ('A' for Active; 'I' for Inactive)
ROOT
ATOM      1  C   UNL d   1       2.651   0.699  -1.880  0.00  0.00     0.078 C 
ATOM      2  C1  UNL d   1       1.654   1.166  -0.862  0.00  0.00    -0.077 A 
ATOM      3  C2  UNL d   1       0.303   1.322  -1.194  0.00  0.00    -0.001 A 
ATOM      4  C3  UNL d   1      -0.612   1.767  -0.239  0.00  0.00     0.003 A 
ATOM      5  C4  UNL d   1      -0.186   2.060   1.055  0.00  0.00    -0.005 A 
ATOM      6  C5  UNL d   1       1.157   1.910   1.395  0.00  0.00     0.003 A 
ATOM      7  C6  UNL d   1       2.074   1.465   0.441  0.00  0.00    -0.001 A 
ENDROOT
TORSDOF 0
ENDMDL
