MODEL 1
REMARK minimizedAffinity 5.68652391
REMARK minimizedRMSD -1
REMARK  0 active torsions:
REMARK  status: ('A' for Active; 'I' for Inactive)
ROOT
ATOM      1  C   UNL d   1      -1.509  -1.064  -0.831  0.00  0.00     0.078 C 
ATOM      2  C1  UNL d   1      -0.099  -1.376  -1.234  0.00  0.00    -0.077 A 
ATOM      3  C2  UNL d   1       0.964  -1.191  -0.342  0.00  0.00    -0.001 A 
ATOM      4  C3  UNL d   1       2.272  -1.477  -0.735  0.00  0.00     0.003 A 
ATOM      5  C4  UNL d   1       2.530  -1.947  -2.021  0.00  0.00    -0.005 A 
ATOM      6  C5  UNL d   1       1.479  -2.131  -2.917  0.00  0.00     0.003 A 
ATOM      7  C6  UNL d   1       0.170  -1.847  -2.526  0.00  0.00    -0.001 A 
ENDROOT
TORSDOF 0
ENDMDL
