MODEL 1
REMARK minimizedAffinity 7.04605055
REMARK minimizedRMSD -1
REMARK  0 active torsions:
REMARK  status: ('A' for Active; 'I' for Inactive)
ROOT
ATOM      1  C   UNL d   1      -6.000  -1.110  -0.626  0.00  0.00     0.078 C 
ATOM      2  C1  UNL d   1      -4.684  -1.140   0.092  0.00  0.00    -0.077 A 
ATOM      3  C2  UNL d   1      -4.607  -1.508   1.441  0.00  0.00    -0.001 A 
ATOM      4  C3  UNL d   1      -3.377  -1.521   2.100  0.00  0.00     0.003 A 
ATOM      5  C4  UNL d   1      -2.214  -1.167   1.419  0.00  0.00    -0.005 A 
ATOM      6  C5  UNL d   1      -2.281  -0.797   0.077  0.00  0.00     0.003 A 
ATOM      7  C6  UNL d   1      -3.510  -0.783  -0.584  0.00  0.00    -0.001 A 
ENDROOT
TORSDOF 0
ENDMDL
