MODEL 1
REMARK minimizedAffinity 2.54548192
REMARK minimizedRMSD -1
REMARK  0 active torsions:
REMARK  status: ('A' for Active; 'I' for Inactive)
ROOT
ATOM      1  C   UNL d   1       2.501  -2.495  -1.046  0.00  0.00     0.078 C 
ATOM      2  C1  UNL d   1       2.331  -1.127  -1.635  0.00  0.00    -0.077 A 
ATOM      3  C2  UNL d   1       3.068  -0.728  -2.757  0.00  0.00    -0.001 A 
ATOM      4  C3  UNL d   1       2.907   0.553  -3.288  0.00  0.00     0.003 A 
ATOM      5  C4  UNL d   1       2.010   1.445  -2.704  0.00  0.00    -0.005 A 
ATOM      6  C5  UNL d   1       1.274   1.058  -1.587  0.00  0.00     0.003 A 
ATOM      7  C6  UNL d   1       1.434  -0.222  -1.054  0.00  0.00    -0.001 A 
ENDROOT
TORSDOF 0
ENDMDL
