MODEL 1
REMARK minimizedAffinity 2.08547878
REMARK minimizedRMSD -1
REMARK  0 active torsions:
REMARK  status: ('A' for Active; 'I' for Inactive)
ROOT
ATOM      1  C   UNL d   1       0.284   1.157  -1.054  0.00  0.00     0.078 C 
ATOM      2  C1  UNL d   1       0.986  -0.166  -0.978  0.00  0.00    -0.077 A 
ATOM      3  C2  UNL d   1       1.150  -0.826   0.246  0.00  0.00    -0.001 A 
ATOM      4  C3  UNL d   1       1.814  -2.052   0.303  0.00  0.00     0.003 A 
ATOM      5  C4  UNL d   1       2.320  -2.629  -0.861  0.00  0.00    -0.005 A 
ATOM      6  C5  UNL d   1       2.164  -1.978  -2.083  0.00  0.00     0.003 A 
ATOM      7  C6  UNL d   1       1.500  -0.752  -2.142  0.00  0.00    -0.001 A 
ENDROOT
TORSDOF 0
ENDMDL
