MODEL 1
REMARK minimizedAffinity -0.58750838
REMARK minimizedRMSD -1
REMARK  0 active torsions:
REMARK  status: ('A' for Active; 'I' for Inactive)
ROOT
ATOM      1  C   UNL d   1       1.339   1.989  -2.733  0.00  0.00     0.078 C 
ATOM      2  C1  UNL d   1       2.231   0.888  -2.242  0.00  0.00    -0.077 A 
ATOM      3  C2  UNL d   1       3.601   1.104  -2.044  0.00  0.00    -0.001 A 
ATOM      4  C3  UNL d   1       4.421   0.068  -1.596  0.00  0.00     0.003 A 
ATOM      5  C4  UNL d   1       3.882  -1.192  -1.343  0.00  0.00    -0.005 A 
ATOM      6  C5  UNL d   1       2.521  -1.417  -1.539  0.00  0.00     0.003 A 
ATOM      7  C6  UNL d   1       1.699  -0.382  -1.987  0.00  0.00    -0.001 A 
ENDROOT
TORSDOF 0
ENDMDL
