MODEL 1
REMARK minimizedAffinity 2.489043
REMARK minimizedRMSD -1
REMARK  0 active torsions:
REMARK  status: ('A' for Active; 'I' for Inactive)
ROOT
ATOM      1  C   UNL d   1       1.858  -4.468   0.597  0.00  0.00     0.078 C 
ATOM      2  C1  UNL d   1       1.900  -3.332  -0.380  0.00  0.00    -0.077 A 
ATOM      3  C2  UNL d   1       0.749  -2.929  -1.067  0.00  0.00    -0.001 A 
ATOM      4  C3  UNL d   1       0.805  -1.876  -1.982  0.00  0.00     0.003 A 
ATOM      5  C4  UNL d   1       2.010  -1.218  -2.218  0.00  0.00    -0.005 A 
ATOM      6  C5  UNL d   1       3.162  -1.613  -1.541  0.00  0.00     0.003 A 
ATOM      7  C6  UNL d   1       3.108  -2.666  -0.626  0.00  0.00    -0.001 A 
ENDROOT
TORSDOF 0
ENDMDL
