MODEL 1
REMARK minimizedAffinity -3.7237649
REMARK minimizedRMSD -1
REMARK  0 active torsions:
REMARK  status: ('A' for Active; 'I' for Inactive)
ROOT
ATOM      1  C   UNL d   1       1.895  -4.002   0.749  0.00  0.00     0.078 C 
ATOM      2  C1  UNL d   1       1.935  -2.799  -0.144  0.00  0.00    -0.077 A 
ATOM      3  C2  UNL d   1       3.154  -2.245  -0.555  0.00  0.00    -0.001 A 
ATOM      4  C3  UNL d   1       3.177  -1.119  -1.379  0.00  0.00     0.003 A 
ATOM      5  C4  UNL d   1       1.983  -0.536  -1.799  0.00  0.00    -0.005 A 
ATOM      6  C5  UNL d   1       0.765  -1.078  -1.394  0.00  0.00     0.003 A 
ATOM      7  C6  UNL d   1       0.741  -2.204  -0.570  0.00  0.00    -0.001 A 
ENDROOT
TORSDOF 0
ENDMDL
