MODEL 1
REMARK minimizedAffinity 4.46511507
REMARK minimizedRMSD -1
REMARK  0 active torsions:
REMARK  status: ('A' for Active; 'I' for Inactive)
ROOT
ATOM      1  C1  DEN d   1       0.832  -2.218  -2.335  0.00  0.00     0.130 A 
ATOM      2  C2  DEN d   1       1.023  -2.504  -3.754  0.00  0.00    -0.031 A 
ATOM      3  C3  DEN d   1       2.340  -1.970  -4.155  0.00  0.00     0.027 A 
ATOM      4  C4  DEN d   1       4.096  -0.740  -2.721  0.00  0.00     0.027 A 
ATOM      5  C5  DEN d   1       4.378  -0.256  -1.463  0.00  0.00    -0.003 A 
ATOM      6  C6  DEN d   1       3.491  -0.360  -0.424  0.00  0.00     0.001 A 
ATOM      7  C7  DEN d   1       2.297  -1.003  -0.614  0.00  0.00     0.017 A 
ATOM      8  C8  DEN d   1       2.002  -1.488  -1.881  0.00  0.00    -0.094 A 
ATOM      9  C9  DEN d   1       2.918  -1.384  -2.915  0.00  0.00    -0.072 A 
ENDROOT
TORSDOF 0
ENDMDL
