MODEL 1
REMARK minimizedAffinity -2.20272279
REMARK minimizedRMSD -1
REMARK  0 active torsions:
REMARK  status: ('A' for Active; 'I' for Inactive)
ROOT
ATOM      1  C1  DEN d   1       0.026  -0.413   1.924  0.00  0.00     0.130 A 
ATOM      2  C2  DEN d   1      -0.709   0.843   2.048  0.00  0.00    -0.031 A 
ATOM      3  C3  DEN d   1      -0.717   1.500   0.726  0.00  0.00     0.027 A 
ATOM      4  C4  DEN d   1       0.326   0.696  -1.492  0.00  0.00     0.027 A 
ATOM      5  C5  DEN d   1       1.060  -0.305  -2.090  0.00  0.00    -0.003 A 
ATOM      6  C6  DEN d   1       1.525  -1.386  -1.390  0.00  0.00     0.001 A 
ATOM      7  C7  DEN d   1       1.223  -1.515  -0.060  0.00  0.00     0.017 A 
ATOM      8  C8  DEN d   1       0.491  -0.507   0.551  0.00  0.00    -0.094 A 
ATOM      9  C9  DEN d   1       0.019   0.573  -0.176  0.00  0.00    -0.072 A 
ENDROOT
TORSDOF 0
ENDMDL
