MODEL 1
REMARK minimizedAffinity 8.50746059
REMARK minimizedRMSD -1
REMARK  0 active torsions:
REMARK  status: ('A' for Active; 'I' for Inactive)
ROOT
ATOM      1  C1  DEN d   1       3.638  -0.057  -2.201  0.00  0.00     0.130 A 
ATOM      2  C2  DEN d   1       3.171  -0.838  -1.059  0.00  0.00    -0.031 A 
ATOM      3  C3  DEN d   1       1.933  -0.211  -0.553  0.00  0.00     0.027 A 
ATOM      4  C4  DEN d   1       0.699   1.878  -1.426  0.00  0.00     0.027 A 
ATOM      5  C5  DEN d   1       0.721   2.884  -2.367  0.00  0.00    -0.003 A 
ATOM      6  C6  DEN d   1       1.726   2.998  -3.290  0.00  0.00     0.001 A 
ATOM      7  C7  DEN d   1       2.729   2.065  -3.321  0.00  0.00     0.017 A 
ATOM      8  C8  DEN d   1       2.718   1.053  -2.370  0.00  0.00    -0.094 A 
ATOM      9  C9  DEN d   1       1.686   0.947  -1.453  0.00  0.00    -0.072 A 
ENDROOT
TORSDOF 0
ENDMDL
