MODEL 1
REMARK minimizedAffinity 7.75375509
REMARK minimizedRMSD -1
REMARK  0 active torsions:
REMARK  status: ('A' for Active; 'I' for Inactive)
ROOT
ATOM      1  C1  DEN d   1       1.450   0.737  -2.250  0.00  0.00     0.130 A 
ATOM      2  C2  DEN d   1       2.786   1.304  -2.092  0.00  0.00    -0.031 A 
ATOM      3  C3  DEN d   1       2.874   1.897  -0.742  0.00  0.00     0.027 A 
ATOM      4  C4  DEN d   1       1.082   1.985   1.111  0.00  0.00     0.027 A 
ATOM      5  C5  DEN d   1      -0.212   1.646   1.438  0.00  0.00    -0.003 A 
ATOM      6  C6  DEN d   1      -1.047   1.015   0.554  0.00  0.00     0.001 A 
ATOM      7  C7  DEN d   1      -0.583   0.664  -0.686  0.00  0.00     0.017 A 
ATOM      8  C8  DEN d   1       0.719   1.009  -1.025  0.00  0.00    -0.094 A 
ATOM      9  C9  DEN d   1       1.551   1.635  -0.113  0.00  0.00    -0.072 A 
ENDROOT
TORSDOF 0
ENDMDL
