MODEL 1
REMARK minimizedAffinity 7.21444368
REMARK minimizedRMSD -1
REMARK  0 active torsions:
REMARK  status: ('A' for Active; 'I' for Inactive)
ROOT
ATOM      1  C1  DEN d   1      -0.049  -0.176  -0.660  0.00  0.00     0.130 A 
ATOM      2  C2  DEN d   1      -1.262   0.599  -0.416  0.00  0.00    -0.031 A 
ATOM      3  C3  DEN d   1      -1.140   1.879  -1.144  0.00  0.00     0.027 A 
ATOM      4  C4  DEN d   1       0.797   2.727  -2.621  0.00  0.00     0.027 A 
ATOM      5  C5  DEN d   1       2.047   2.426  -3.115  0.00  0.00    -0.003 A 
ATOM      6  C6  DEN d   1       2.695   1.260  -2.801  0.00  0.00     0.001 A 
ATOM      7  C7  DEN d   1       2.076   0.333  -2.005  0.00  0.00     0.017 A 
ATOM      8  C8  DEN d   1       0.819   0.633  -1.497  0.00  0.00    -0.094 A 
ATOM      9  C9  DEN d   1       0.175   1.811  -1.836  0.00  0.00    -0.072 A 
ENDROOT
TORSDOF 0
ENDMDL
