MODEL 1
REMARK minimizedAffinity 4.03294706
REMARK minimizedRMSD -1
REMARK  0 active torsions:
REMARK  status: ('A' for Active; 'I' for Inactive)
ROOT
ATOM      1  C1  DEN d   1       2.803   1.702  -3.339  0.00  0.00     0.130 A 
ATOM      2  C2  DEN d   1       1.962   2.881  -3.527  0.00  0.00    -0.031 A 
ATOM      3  C3  DEN d   1       0.865   2.820  -2.541  0.00  0.00     0.027 A 
ATOM      4  C4  DEN d   1       0.391   1.028  -0.748  0.00  0.00     0.027 A 
ATOM      5  C5  DEN d   1       0.821  -0.167  -0.214  0.00  0.00    -0.003 A 
ATOM      6  C6  DEN d   1       1.913  -0.834  -0.702  0.00  0.00     0.001 A 
ATOM      7  C7  DEN d   1       2.640  -0.288  -1.727  0.00  0.00     0.017 A 
ATOM      8  C8  DEN d   1       2.208   0.913  -2.276  0.00  0.00    -0.094 A 
ATOM      9  C9  DEN d   1       1.108   1.578  -1.760  0.00  0.00    -0.072 A 
ENDROOT
TORSDOF 0
ENDMDL
