MODEL 1
REMARK minimizedAffinity 1.33188975
REMARK minimizedRMSD -1
REMARK  0 active torsions:
REMARK  status: ('A' for Active; 'I' for Inactive)
ROOT
ATOM      1  C1  DEN d   1       1.525  -0.063  -1.039  0.00  0.00     0.130 A 
ATOM      2  C2  DEN d   1       2.735  -0.843  -1.282  0.00  0.00    -0.031 A 
ATOM      3  C3  DEN d   1       2.346  -2.262  -1.405  0.00  0.00     0.027 A 
ATOM      4  C4  DEN d   1      -0.001  -3.321  -1.246  0.00  0.00     0.027 A 
ATOM      5  C5  DEN d   1      -1.338  -3.062  -1.038  0.00  0.00    -0.003 A 
ATOM      6  C6  DEN d   1      -1.806  -1.800  -0.784  0.00  0.00     0.001 A 
ATOM      7  C7  DEN d   1      -0.935  -0.742  -0.777  0.00  0.00     0.017 A 
ATOM      8  C8  DEN d   1       0.415  -0.996  -0.978  0.00  0.00    -0.094 A 
ATOM      9  C9  DEN d   1       0.867  -2.278  -1.245  0.00  0.00    -0.072 A 
ENDROOT
TORSDOF 0
ENDMDL
