MODEL 1
REMARK minimizedAffinity 12.2358122
REMARK minimizedRMSD -1
REMARK  0 active torsions:
REMARK  status: ('A' for Active; 'I' for Inactive)
ROOT
ATOM      1  C1  DEN d   1       1.443  -1.144  -1.566  0.00  0.00     0.130 A 
ATOM      2  C2  DEN d   1       2.118   0.151  -1.570  0.00  0.00    -0.031 A 
ATOM      3  C3  DEN d   1       1.151   1.172  -1.118  0.00  0.00     0.027 A 
ATOM      4  C4  DEN d   1      -1.312   0.873  -0.411  0.00  0.00     0.027 A 
ATOM      5  C5  DEN d   1      -2.332  -0.039  -0.254  0.00  0.00    -0.003 A 
ATOM      6  C6  DEN d   1      -2.176  -1.367  -0.553  0.00  0.00     0.001 A 
ATOM      7  C7  DEN d   1      -0.960  -1.828  -0.983  0.00  0.00     0.017 A 
ATOM      8  C8  DEN d   1       0.071  -0.913  -1.150  0.00  0.00    -0.094 A 
ATOM      9  C9  DEN d   1      -0.102   0.423  -0.830  0.00  0.00    -0.072 A 
ENDROOT
TORSDOF 0
ENDMDL
