MODEL 1
REMARK minimizedAffinity 6.42948294
REMARK minimizedRMSD -1
REMARK  0 active torsions:
REMARK  status: ('A' for Active; 'I' for Inactive)
ROOT
ATOM      1  C1  DEN d   1       2.495   0.417  -1.195  0.00  0.00     0.130 A 
ATOM      2  C2  DEN d   1       2.339  -0.987  -1.566  0.00  0.00    -0.031 A 
ATOM      3  C3  DEN d   1       1.886  -1.040  -2.971  0.00  0.00     0.027 A 
ATOM      4  C4  DEN d   1       1.420   0.903  -4.601  0.00  0.00     0.027 A 
ATOM      5  C5  DEN d   1       1.401   2.274  -4.737  0.00  0.00    -0.003 A 
ATOM      6  C6  DEN d   1       1.710   3.115  -3.702  0.00  0.00     0.001 A 
ATOM      7  C7  DEN d   1       2.095   2.593  -2.495  0.00  0.00     0.017 A 
ATOM      8  C8  DEN d   1       2.110   1.212  -2.347  0.00  0.00    -0.094 A 
ATOM      9  C9  DEN d   1       1.806   0.379  -3.410  0.00  0.00    -0.072 A 
ENDROOT
TORSDOF 0
ENDMDL
