MODEL 1
REMARK minimizedAffinity 6.65784073
REMARK minimizedRMSD -1
REMARK  0 active torsions:
REMARK  status: ('A' for Active; 'I' for Inactive)
ROOT
ATOM      1  C1  DEN d   1       0.014   2.294   0.650  0.00  0.00     0.130 A 
ATOM      2  C2  DEN d   1      -1.247   1.560   0.598  0.00  0.00    -0.031 A 
ATOM      3  C3  DEN d   1      -1.056   0.384  -0.275  0.00  0.00     0.027 A 
ATOM      4  C4  DEN d   1       1.061  -0.369  -1.541  0.00  0.00     0.027 A 
ATOM      5  C5  DEN d   1       2.375  -0.060  -1.814  0.00  0.00    -0.003 A 
ATOM      6  C6  DEN d   1       2.980   1.063  -1.316  0.00  0.00     0.001 A 
ATOM      7  C7  DEN d   1       2.282   1.896  -0.482  0.00  0.00     0.017 A 
ATOM      8  C8  DEN d   1       0.954   1.596  -0.208  0.00  0.00    -0.094 A 
ATOM      9  C9  DEN d   1       0.365   0.449  -0.712  0.00  0.00    -0.072 A 
ENDROOT
TORSDOF 0
ENDMDL
