MODEL 1
REMARK minimizedAffinity 6.04729509
REMARK minimizedRMSD -1
REMARK  0 active torsions:
REMARK  status: ('A' for Active; 'I' for Inactive)
ROOT
ATOM      1  C1  DEN d   1       1.681  -1.738  -1.793  0.00  0.00     0.130 A 
ATOM      2  C2  DEN d   1       2.285  -0.414  -1.673  0.00  0.00    -0.031 A 
ATOM      3  C3  DEN d   1       1.266   0.504  -1.125  0.00  0.00     0.027 A 
ATOM      4  C4  DEN d   1      -1.172   0.006  -0.448  0.00  0.00     0.027 A 
ATOM      5  C5  DEN d   1      -2.140  -0.971  -0.379  0.00  0.00    -0.003 A 
ATOM      6  C6  DEN d   1      -1.915  -2.254  -0.804  0.00  0.00     0.001 A 
ATOM      7  C7  DEN d   1      -0.678  -2.605  -1.276  0.00  0.00     0.017 A 
ATOM      8  C8  DEN d   1       0.301  -1.624  -1.356  0.00  0.00    -0.094 A 
ATOM      9  C9  DEN d   1       0.058  -0.336  -0.910  0.00  0.00    -0.072 A 
ENDROOT
TORSDOF 0
ENDMDL
