MODEL 1
REMARK minimizedAffinity 3.95147872
REMARK minimizedRMSD -1
REMARK  0 active torsions:
REMARK  status: ('A' for Active; 'I' for Inactive)
ROOT
ATOM      1  C1  DEN d   1       1.366   0.022  -1.022  0.00  0.00     0.130 A 
ATOM      2  C2  DEN d   1       2.498  -0.878  -1.221  0.00  0.00    -0.031 A 
ATOM      3  C3  DEN d   1       1.981  -2.261  -1.256  0.00  0.00     0.027 A 
ATOM      4  C4  DEN d   1      -0.450  -3.090  -1.027  0.00  0.00     0.027 A 
ATOM      5  C5  DEN d   1      -1.756  -2.699  -0.832  0.00  0.00    -0.003 A 
ATOM      6  C6  DEN d   1      -2.106  -1.386  -0.654  0.00  0.00     0.001 A 
ATOM      7  C7  DEN d   1      -1.144  -0.413  -0.713  0.00  0.00     0.017 A 
ATOM      8  C8  DEN d   1       0.176  -0.801  -0.902  0.00  0.00    -0.094 A 
ATOM      9  C9  DEN d   1       0.508  -2.132  -1.092  0.00  0.00    -0.072 A 
ENDROOT
TORSDOF 0
ENDMDL
