MODEL 1
REMARK minimizedAffinity 6.04839611
REMARK minimizedRMSD -1
REMARK  0 active torsions:
REMARK  status: ('A' for Active; 'I' for Inactive)
ROOT
ATOM      1  C1  DEN d   1       3.277  -1.096  -0.766  0.00  0.00     0.130 A 
ATOM      2  C2  DEN d   1       2.652  -0.163  -1.699  0.00  0.00    -0.031 A 
ATOM      3  C3  DEN d   1       1.212  -0.483  -1.769  0.00  0.00     0.027 A 
ATOM      4  C4  DEN d   1      -0.105  -2.319  -0.526  0.00  0.00     0.027 A 
ATOM      5  C5  DEN d   1      -0.004  -3.365   0.364  0.00  0.00    -0.003 A 
ATOM      6  C6  DEN d   1       1.193  -3.747   0.910  0.00  0.00     0.001 A 
ATOM      7  C7  DEN d   1       2.331  -3.049   0.605  0.00  0.00     0.017 A 
ATOM      8  C8  DEN d   1       2.239  -1.997  -0.298  0.00  0.00    -0.094 A 
ATOM      9  C9  DEN d   1       1.017  -1.619  -0.829  0.00  0.00    -0.072 A 
ENDROOT
TORSDOF 0
ENDMDL
