MODEL 1
REMARK minimizedAffinity 4.40540314
REMARK minimizedRMSD -1
REMARK  0 active torsions:
REMARK  status: ('A' for Active; 'I' for Inactive)
ROOT
ATOM      1  C1  DEN d   1       2.824   1.215  -3.906  0.00  0.00     0.130 A 
ATOM      2  C2  DEN d   1       1.889   2.335  -3.858  0.00  0.00    -0.031 A 
ATOM      3  C3  DEN d   1       1.035   2.165  -2.665  0.00  0.00     0.027 A 
ATOM      4  C4  DEN d   1       1.073   0.289  -0.896  0.00  0.00     0.027 A 
ATOM      5  C5  DEN d   1       1.684  -0.887  -0.520  0.00  0.00    -0.003 A 
ATOM      6  C6  DEN d   1       2.686  -1.458  -1.258  0.00  0.00     0.001 A 
ATOM      7  C7  DEN d   1       3.139  -0.830  -2.388  0.00  0.00     0.017 A 
ATOM      8  C8  DEN d   1       2.523   0.352  -2.778  0.00  0.00    -0.094 A 
ATOM      9  C9  DEN d   1       1.520   0.920  -2.011  0.00  0.00    -0.072 A 
ENDROOT
TORSDOF 0
ENDMDL
