MODEL 1
REMARK minimizedAffinity 4.69589996
REMARK minimizedRMSD -1
REMARK  0 active torsions:
REMARK  status: ('A' for Active; 'I' for Inactive)
ROOT
ATOM      1  C1  DEN d   1       0.580  -0.072  -0.796  0.00  0.00     0.130 A 
ATOM      2  C2  DEN d   1       1.466  -1.232  -0.778  0.00  0.00    -0.031 A 
ATOM      3  C3  DEN d   1       2.584  -0.968  -1.707  0.00  0.00     0.027 A 
ATOM      4  C4  DEN d   1       3.028   1.116  -3.160  0.00  0.00     0.027 A 
ATOM      5  C5  DEN d   1       2.548   2.355  -3.521  0.00  0.00    -0.003 A 
ATOM      6  C6  DEN d   1       1.371   2.855  -3.029  0.00  0.00     0.001 A 
ATOM      7  C7  DEN d   1       0.656   2.129  -2.113  0.00  0.00     0.017 A 
ATOM      8  C8  DEN d   1       1.130   0.875  -1.750  0.00  0.00    -0.094 A 
ATOM      9  C9  DEN d   1       2.328   0.393  -2.249  0.00  0.00    -0.072 A 
ENDROOT
TORSDOF 0
ENDMDL
