MODEL 1
REMARK minimizedAffinity 0.32749334
REMARK minimizedRMSD -1
REMARK  0 active torsions:
REMARK  status: ('A' for Active; 'I' for Inactive)
ROOT
ATOM      1  C   UNL d   1       0.875  -0.005  -1.872  0.00  0.00     0.020 A 
ATOM      2  C1  UNL d   1       0.030   1.085  -1.666  0.00  0.00     0.020 A 
ATOM      3  C2  UNL d   1      -0.881   1.072  -0.608  0.00  0.00     0.034 A 
ATOM      4  C3  UNL d   1      -0.950  -0.034   0.248  0.00  0.00     0.017 A 
ATOM      5  C4  UNL d   1      -0.102  -1.127   0.040  0.00  0.00     0.017 A 
ATOM      6  C5  UNL d   1       0.809  -1.109  -1.021  0.00  0.00     0.034 A 
ATOM      7 Cl   UNL d   1      -0.129  -2.527   1.053  0.00  0.00    -0.070 Cl
ATOM      8 Cl1  UNL d   1      -2.100   0.018   1.536  0.00  0.00    -0.070 Cl
ENDROOT
TORSDOF 0
ENDMDL
