MODEL 1
REMARK minimizedAffinity -3.33912635
REMARK minimizedRMSD -1
REMARK  0 active torsions:
REMARK  status: ('A' for Active; 'I' for Inactive)
ROOT
ATOM      1  C   UNL d   1      -1.226   0.033   0.674  0.00  0.00     0.020 A 
ATOM      2  C1  UNL d   1      -0.393   1.061   1.114  0.00  0.00     0.020 A 
ATOM      3  C2  UNL d   1       0.716   1.435   0.352  0.00  0.00     0.034 A 
ATOM      4  C3  UNL d   1       0.994   0.781  -0.854  0.00  0.00     0.017 A 
ATOM      5  C4  UNL d   1       0.157  -0.250  -1.295  0.00  0.00     0.017 A 
ATOM      6  C5  UNL d   1      -0.952  -0.621  -0.528  0.00  0.00     0.034 A 
ATOM      7 Cl   UNL d   1       0.437  -1.103  -2.771  0.00  0.00    -0.070 Cl
ATOM      8 Cl1  UNL d   1       2.382   1.296  -1.745  0.00  0.00    -0.070 Cl
ENDROOT
TORSDOF 0
ENDMDL
