MODEL 1
REMARK minimizedAffinity -4.02740192
REMARK minimizedRMSD -1
REMARK  0 active torsions:
REMARK  status: ('A' for Active; 'I' for Inactive)
ROOT
ATOM      1  C   UNL d   1       2.011  -2.340  -2.688  0.00  0.00     0.020 A 
ATOM      2  C1  UNL d   1       1.275  -3.032  -1.727  0.00  0.00     0.020 A 
ATOM      3  C2  UNL d   1       0.518  -2.329  -0.788  0.00  0.00     0.034 A 
ATOM      4  C3  UNL d   1       0.495  -0.930  -0.807  0.00  0.00     0.017 A 
ATOM      5  C4  UNL d   1       1.234  -0.236  -1.772  0.00  0.00     0.017 A 
ATOM      6  C5  UNL d   1       1.991  -0.944  -2.710  0.00  0.00     0.034 A 
ATOM      7 Cl   UNL d   1       1.255   1.490  -1.858  0.00  0.00    -0.070 Cl
ATOM      8 Cl1  UNL d   1      -0.464  -0.126   0.385  0.00  0.00    -0.070 Cl
ENDROOT
TORSDOF 0
ENDMDL
