MODEL 1
REMARK minimizedAffinity -3.65433002
REMARK minimizedRMSD -1
REMARK  0 active torsions:
REMARK  status: ('A' for Active; 'I' for Inactive)
ROOT
ATOM      1  C   UNL d   1       2.344  -2.150  -2.667  0.00  0.00     0.020 A 
ATOM      2  C1  UNL d   1       1.526  -2.979  -1.900  0.00  0.00     0.020 A 
ATOM      3  C2  UNL d   1       0.570  -2.421  -1.048  0.00  0.00     0.034 A 
ATOM      4  C3  UNL d   1       0.432  -1.031  -0.959  0.00  0.00     0.017 A 
ATOM      5  C4  UNL d   1       1.254  -0.201  -1.729  0.00  0.00     0.017 A 
ATOM      6  C5  UNL d   1       2.208  -0.764  -2.581  0.00  0.00     0.034 A 
ATOM      7 Cl   UNL d   1       1.141   1.523  -1.674  0.00  0.00    -0.070 Cl
ATOM      8 Cl1  UNL d   1      -0.771  -0.411   0.116  0.00  0.00    -0.070 Cl
ENDROOT
TORSDOF 0
ENDMDL
