MODEL 1
REMARK minimizedAffinity -0.609921455
REMARK minimizedRMSD -1
REMARK  0 active torsions:
REMARK  status: ('A' for Active; 'I' for Inactive)
ROOT
ATOM      1  C   UNL d   1       0.084   1.034   0.089  0.00  0.00     0.020 A 
ATOM      2  C1  UNL d   1      -0.122  -0.337  -0.063  0.00  0.00     0.020 A 
ATOM      3  C2  UNL d   1      -1.328  -0.911   0.344  0.00  0.00     0.034 A 
ATOM      4  C3  UNL d   1      -2.333  -0.114   0.906  0.00  0.00     0.017 A 
ATOM      5  C4  UNL d   1      -2.125   1.261   1.058  0.00  0.00     0.017 A 
ATOM      6  C5  UNL d   1      -0.916   1.831   0.648  0.00  0.00     0.034 A 
ATOM      7 Cl   UNL d   1      -3.318   2.309   1.742  0.00  0.00    -0.070 Cl
ATOM      8 Cl1  UNL d   1      -3.799  -0.891   1.387  0.00  0.00    -0.070 Cl
ENDROOT
TORSDOF 0
ENDMDL
