MODEL 1
REMARK minimizedAffinity -3.13379192
REMARK minimizedRMSD -1
REMARK  0 active torsions:
REMARK  status: ('A' for Active; 'I' for Inactive)
ROOT
ATOM      1  C   UNL d   1       1.729   0.556  -2.185  0.00  0.00     0.020 A 
ATOM      2  C1  UNL d   1       1.587   1.224  -0.970  0.00  0.00     0.020 A 
ATOM      3  C2  UNL d   1       0.806   0.667   0.046  0.00  0.00     0.034 A 
ATOM      4  C3  UNL d   1       0.165  -0.562  -0.152  0.00  0.00     0.017 A 
ATOM      5  C4  UNL d   1       0.309  -1.231  -1.373  0.00  0.00     0.017 A 
ATOM      6  C5  UNL d   1       1.092  -0.669  -2.386  0.00  0.00     0.034 A 
ATOM      7 Cl   UNL d   1      -0.451  -2.751  -1.692  0.00  0.00    -0.070 Cl
ATOM      8 Cl1  UNL d   1      -0.784  -1.192   1.147  0.00  0.00    -0.070 Cl
ENDROOT
TORSDOF 0
ENDMDL
