MODEL 1
REMARK minimizedAffinity -4.80914974
REMARK minimizedRMSD -1
REMARK  0 active torsions:
REMARK  status: ('A' for Active; 'I' for Inactive)
ROOT
ATOM      1  C   UNL d   1       1.766   0.107  -2.411  0.00  0.00     0.020 A 
ATOM      2  C1  UNL d   1       0.592  -0.642  -2.475  0.00  0.00     0.020 A 
ATOM      3  C2  UNL d   1      -0.321  -0.601  -1.419  0.00  0.00     0.034 A 
ATOM      4  C3  UNL d   1      -0.062   0.191  -0.294  0.00  0.00     0.017 A 
ATOM      5  C4  UNL d   1       1.117   0.942  -0.231  0.00  0.00     0.017 A 
ATOM      6  C5  UNL d   1       2.028   0.897  -1.291  0.00  0.00     0.034 A 
ATOM      7 Cl   UNL d   1       1.507   1.943   1.124  0.00  0.00    -0.070 Cl
ATOM      8 Cl1  UNL d   1      -1.235   0.194   0.974  0.00  0.00    -0.070 Cl
ENDROOT
TORSDOF 0
ENDMDL
