MODEL 1
REMARK minimizedAffinity -0.582371533
REMARK minimizedRMSD -1
REMARK  0 active torsions:
REMARK  status: ('A' for Active; 'I' for Inactive)
ROOT
ATOM      1  C   UNL d   1       0.672   1.854  -1.349  0.00  0.00     0.020 A 
ATOM      2  C1  UNL d   1       1.204   0.939  -2.256  0.00  0.00     0.020 A 
ATOM      3  C2  UNL d   1       1.244  -0.420  -1.934  0.00  0.00     0.034 A 
ATOM      4  C3  UNL d   1       0.751  -0.866  -0.703  0.00  0.00     0.017 A 
ATOM      5  C4  UNL d   1       0.217   0.054   0.207  0.00  0.00     0.017 A 
ATOM      6  C5  UNL d   1       0.179   1.413  -0.121  0.00  0.00     0.034 A 
ATOM      7 Cl   UNL d   1      -0.411  -0.421   1.745  0.00  0.00    -0.070 Cl
ATOM      8 Cl1  UNL d   1       0.832  -2.560  -0.371  0.00  0.00    -0.070 Cl
ENDROOT
TORSDOF 0
ENDMDL
