MODEL 1
REMARK minimizedAffinity -1.29626048
REMARK minimizedRMSD -1
REMARK  0 active torsions:
REMARK  status: ('A' for Active; 'I' for Inactive)
ROOT
ATOM      1  C   UNL d   1      -0.328   1.421   1.128  0.00  0.00     0.020 A 
ATOM      2  C1  UNL d   1      -1.210   0.341   1.127  0.00  0.00     0.020 A 
ATOM      3  C2  UNL d   1      -0.992  -0.737   0.267  0.00  0.00     0.034 A 
ATOM      4  C3  UNL d   1       0.111  -0.738  -0.595  0.00  0.00     0.017 A 
ATOM      5  C4  UNL d   1       0.995   0.347  -0.593  0.00  0.00     0.017 A 
ATOM      6  C5  UNL d   1       0.772   1.424   0.270  0.00  0.00     0.034 A 
ATOM      7 Cl   UNL d   1       2.377   0.417  -1.629  0.00  0.00    -0.070 Cl
ATOM      8 Cl1  UNL d   1       0.319  -2.105  -1.631  0.00  0.00    -0.070 Cl
ENDROOT
TORSDOF 0
ENDMDL
