MODEL 1
REMARK minimizedAffinity -3.82499099
REMARK minimizedRMSD -1
REMARK  0 active torsions:
REMARK  status: ('A' for Active; 'I' for Inactive)
ROOT
ATOM      1  C   UNL d   1       1.187   0.710  -2.295  0.00  0.00     0.020 A 
ATOM      2  C1  UNL d   1       0.702   1.667  -1.404  0.00  0.00     0.020 A 
ATOM      3  C2  UNL d   1       0.063   1.266  -0.228  0.00  0.00     0.034 A 
ATOM      4  C3  UNL d   1      -0.092  -0.095   0.059  0.00  0.00     0.017 A 
ATOM      5  C4  UNL d   1       0.395  -1.054  -0.836  0.00  0.00     0.017 A 
ATOM      6  C5  UNL d   1       1.034  -0.647  -2.011  0.00  0.00     0.034 A 
ATOM      7 Cl   UNL d   1       0.241  -2.752  -0.550  0.00  0.00    -0.070 Cl
ATOM      8 Cl1  UNL d   1      -0.892  -0.519   1.531  0.00  0.00    -0.070 Cl
ENDROOT
TORSDOF 0
ENDMDL
