MODEL 1
REMARK minimizedAffinity -2.14898205
REMARK minimizedRMSD -1
REMARK  0 active torsions:
REMARK  status: ('A' for Active; 'I' for Inactive)
ROOT
ATOM      1  C   UNL d   1      -0.686   1.523   0.412  0.00  0.00     0.020 A 
ATOM      2  C1  UNL d   1      -1.341   0.374   0.854  0.00  0.00     0.020 A 
ATOM      3  C2  UNL d   1      -0.886  -0.885   0.456  0.00  0.00     0.034 A 
ATOM      4  C3  UNL d   1       0.226  -0.999  -0.386  0.00  0.00     0.017 A 
ATOM      5  C4  UNL d   1       0.882   0.155  -0.829  0.00  0.00     0.017 A 
ATOM      6  C5  UNL d   1       0.423   1.414  -0.428  0.00  0.00     0.034 A 
ATOM      7 Cl   UNL d   1       2.261   0.095  -1.869  0.00  0.00    -0.070 Cl
ATOM      8 Cl1  UNL d   1       0.733  -2.587  -0.838  0.00  0.00    -0.070 Cl
ENDROOT
TORSDOF 0
ENDMDL
