MODEL 1
REMARK minimizedAffinity -3.34454823
REMARK minimizedRMSD -1
REMARK  0 active torsions:
REMARK  status: ('A' for Active; 'I' for Inactive)
ROOT
ATOM      1  C   UNL d   1       1.283  -2.249  -2.202  0.00  0.00     0.020 A 
ATOM      2  C1  UNL d   1       1.909  -1.093  -2.667  0.00  0.00     0.020 A 
ATOM      3  C2  UNL d   1       1.663   0.132  -2.045  0.00  0.00     0.034 A 
ATOM      4  C3  UNL d   1       0.788   0.205  -0.955  0.00  0.00     0.017 A 
ATOM      5  C4  UNL d   1       0.160  -0.955  -0.489  0.00  0.00     0.017 A 
ATOM      6  C5  UNL d   1       0.411  -2.180  -1.115  0.00  0.00     0.034 A 
ATOM      7 Cl   UNL d   1      -0.932  -0.944   0.851  0.00  0.00    -0.070 Cl
ATOM      8 Cl1  UNL d   1       0.530   1.754  -0.234  0.00  0.00    -0.070 Cl
ENDROOT
TORSDOF 0
ENDMDL
