MODEL 1
REMARK minimizedAffinity -3.31632638
REMARK minimizedRMSD -1
REMARK  0 active torsions:
REMARK  status: ('A' for Active; 'I' for Inactive)
ROOT
ATOM      1  C   UNL d   1       1.013  -0.479  -2.947  0.00  0.00     0.020 A 
ATOM      2  C1  UNL d   1       1.914   0.572  -2.783  0.00  0.00     0.020 A 
ATOM      3  C2  UNL d   1       1.933   1.296  -1.589  0.00  0.00     0.034 A 
ATOM      4  C3  UNL d   1       1.048   0.970  -0.554  0.00  0.00     0.017 A 
ATOM      5  C4  UNL d   1       0.144  -0.085  -0.720  0.00  0.00     0.017 A 
ATOM      6  C5  UNL d   1       0.129  -0.807  -1.917  0.00  0.00     0.034 A 
ATOM      7 Cl   UNL d   1      -0.978  -0.546   0.511  0.00  0.00    -0.070 Cl
ATOM      8 Cl1  UNL d   1       1.127   1.907   0.895  0.00  0.00    -0.070 Cl
ENDROOT
TORSDOF 0
ENDMDL
