MODEL 1
REMARK minimizedAffinity -2.38831973
REMARK minimizedRMSD -1
REMARK  0 active torsions:
REMARK  status: ('A' for Active; 'I' for Inactive)
ROOT
ATOM      1  C   UNL d   1      -3.976  -0.315   2.033  0.00  0.00     0.020 A 
ATOM      2  C1  UNL d   1      -3.804   0.747   1.146  0.00  0.00     0.020 A 
ATOM      3  C2  UNL d   1      -2.561   0.960   0.545  0.00  0.00     0.034 A 
ATOM      4  C3  UNL d   1      -1.486   0.110   0.831  0.00  0.00     0.017 A 
ATOM      5  C4  UNL d   1      -1.660  -0.955   1.721  0.00  0.00     0.017 A 
ATOM      6  C5  UNL d   1      -2.906  -1.164   2.320  0.00  0.00     0.034 A 
ATOM      7 Cl   UNL d   1      -0.381  -2.045   2.123  0.00  0.00    -0.070 Cl
ATOM      8 Cl1  UNL d   1       0.022   0.433   0.051  0.00  0.00    -0.070 Cl
ENDROOT
TORSDOF 0
ENDMDL
