MODEL 1
REMARK minimizedAffinity -2.77730536
REMARK minimizedRMSD -1
REMARK  0 active torsions:
REMARK  status: ('A' for Active; 'I' for Inactive)
ROOT
ATOM      1  C   UNL d   1       0.817  -1.291  -2.135  0.00  0.00     0.020 A 
ATOM      2  C1  UNL d   1       1.534  -0.163  -2.530  0.00  0.00     0.020 A 
ATOM      3  C2  UNL d   1       1.584   0.959  -1.699  0.00  0.00     0.034 A 
ATOM      4  C3  UNL d   1       0.917   0.953  -0.469  0.00  0.00     0.017 A 
ATOM      5  C4  UNL d   1       0.198  -0.180  -0.073  0.00  0.00     0.017 A 
ATOM      6  C5  UNL d   1       0.151  -1.300  -0.909  0.00  0.00     0.034 A 
ATOM      7 Cl   UNL d   1      -0.651  -0.262   1.430  0.00  0.00    -0.070 Cl
ATOM      8 Cl1  UNL d   1       1.023   2.374   0.508  0.00  0.00    -0.070 Cl
ENDROOT
TORSDOF 0
ENDMDL
