MODEL 1
REMARK minimizedAffinity -5.33798695
REMARK minimizedRMSD -1
REMARK  1 active torsions:
REMARK  status: ('A' for Active; 'I' for Inactive)
REMARK    1  A    between atoms: C1_2  and  C2_3 
ROOT
ATOM      1  C2  UNL d   1      -0.357   0.080   0.453  0.00  0.00    -0.076 A 
ATOM      2  C3  UNL d   1       0.679  -0.809   0.116  0.00  0.00     0.004 A 
ATOM      3  C4  UNL d   1       0.608  -2.157   0.462  0.00  0.00    -0.003 A 
ATOM      4  C5  UNL d   1      -0.500  -2.639   1.151  0.00  0.00     0.000 A 
ATOM      5  C6  UNL d   1      -1.544  -1.775   1.477  0.00  0.00     0.000 A 
ATOM      6  C7  UNL d   1      -1.496  -0.416   1.121  0.00  0.00    -0.073 A 
ATOM      7  C8  UNL d   1      -2.648   0.472   1.504  0.00  0.00     0.078 C 
ENDROOT
BRANCH   1   8
ATOM      8  C1  UNL d   1      -0.212   1.536   0.075  0.00  0.00     0.053 C 
ATOM      9  C   UNL d   1       0.802   1.752  -1.038  0.00  0.00     0.018 C 
ENDBRANCH   1   8
TORSDOF 1
ENDMDL
