MODEL 1
REMARK minimizedAffinity -1.49951255
REMARK minimizedRMSD -1
REMARK  1 active torsions:
REMARK  status: ('A' for Active; 'I' for Inactive)
REMARK    1  A    between atoms: C1_2  and  C2_3 
ROOT
ATOM      1  C2  UNL d   1       0.708   0.118   0.032  0.00  0.00    -0.076 A 
ATOM      2  C3  UNL d   1      -0.695   0.056   0.072  0.00  0.00     0.004 A 
ATOM      3  C4  UNL d   1      -1.350  -1.034   0.643  0.00  0.00    -0.003 A 
ATOM      4  C5  UNL d   1      -0.611  -2.080   1.184  0.00  0.00     0.000 A 
ATOM      5  C6  UNL d   1       0.782  -2.028   1.169  0.00  0.00     0.000 A 
ATOM      6  C7  UNL d   1       1.458  -0.928   0.612  0.00  0.00    -0.073 A 
ATOM      7  C8  UNL d   1       2.962  -0.927   0.617  0.00  0.00     0.078 C 
ENDROOT
BRANCH   1   8
ATOM      8  C1  UNL d   1       1.363   1.313  -0.624  0.00  0.00     0.053 C 
ATOM      9  C   UNL d   1       0.873   1.537  -2.046  0.00  0.00     0.018 C 
ENDBRANCH   1   8
TORSDOF 1
ENDMDL
