MODEL 1
REMARK minimizedAffinity -4.95632839
REMARK minimizedRMSD -1
REMARK  1 active torsions:
REMARK  status: ('A' for Active; 'I' for Inactive)
REMARK    1  A    between atoms: C1_2  and  C2_3 
ROOT
ATOM      1  C2  UNL d   1      -0.729  -0.078   0.423  0.00  0.00    -0.076 A 
ATOM      2  C3  UNL d   1      -0.029  -1.192  -0.073  0.00  0.00     0.004 A 
ATOM      3  C4  UNL d   1      -0.489  -2.488   0.155  0.00  0.00    -0.003 A 
ATOM      4  C5  UNL d   1      -1.657  -2.691   0.882  0.00  0.00     0.000 A 
ATOM      5  C6  UNL d   1      -2.373  -1.597   1.367  0.00  0.00     0.000 A 
ATOM      6  C7  UNL d   1      -1.932  -0.284   1.132  0.00  0.00    -0.073 A 
ATOM      7  C8  UNL d   1      -2.740   0.859   1.683  0.00  0.00     0.078 C 
ENDROOT
BRANCH   1   8
ATOM      8  C1  UNL d   1      -0.167   1.302   0.168  0.00  0.00     0.053 C 
ATOM      9  C   UNL d   1       0.534   1.406  -1.177  0.00  0.00     0.018 C 
ENDBRANCH   1   8
TORSDOF 1
ENDMDL
