MODEL 1
REMARK minimizedAffinity -0.585362434
REMARK minimizedRMSD -1
REMARK  1 active torsions:
REMARK  status: ('A' for Active; 'I' for Inactive)
REMARK    1  A    between atoms: C1_2  and  C2_3 
ROOT
ATOM      1  C2  UNL d   1       0.548   0.257  -0.757  0.00  0.00    -0.076 A 
ATOM      2  C3  UNL d   1       0.436  -0.509  -1.930  0.00  0.00     0.004 A 
ATOM      3  C4  UNL d   1       0.418   0.098  -3.185  0.00  0.00    -0.003 A 
ATOM      4  C5  UNL d   1       0.513   1.482  -3.287  0.00  0.00     0.000 A 
ATOM      5  C6  UNL d   1       0.643   2.256  -2.134  0.00  0.00     0.000 A 
ATOM      6  C7  UNL d   1       0.679   1.658  -0.863  0.00  0.00    -0.073 A 
ATOM      7  C8  UNL d   1       0.815   2.542   0.347  0.00  0.00     0.078 C 
ENDROOT
BRANCH   1   8
ATOM      8  C1  UNL d   1       0.535  -0.455   0.577  0.00  0.00     0.053 C 
ATOM      9  C   UNL d   1       0.815  -1.944   0.445  0.00  0.00     0.018 C 
ENDBRANCH   1   8
TORSDOF 1
ENDMDL
