MODEL 1
REMARK minimizedAffinity -2.18868828
REMARK minimizedRMSD -1
REMARK  1 active torsions:
REMARK  status: ('A' for Active; 'I' for Inactive)
REMARK    1  A    between atoms: C1_2  and  C2_3 
ROOT
ATOM      1  C2  UNL d   1       0.942   0.908  -0.598  0.00  0.00    -0.076 A 
ATOM      2  C3  UNL d   1       1.675  -0.267  -0.840  0.00  0.00     0.004 A 
ATOM      3  C4  UNL d   1       1.410  -1.437  -0.130  0.00  0.00    -0.003 A 
ATOM      4  C5  UNL d   1       0.407  -1.451   0.833  0.00  0.00     0.000 A 
ATOM      5  C6  UNL d   1      -0.342  -0.299   1.074  0.00  0.00     0.000 A 
ATOM      6  C7  UNL d   1      -0.098   0.884   0.355  0.00  0.00    -0.073 A 
ATOM      7  C8  UNL d   1      -0.932   2.098   0.660  0.00  0.00     0.078 C 
ENDROOT
BRANCH   1   8
ATOM      8  C1  UNL d   1       1.293   2.154  -1.380  0.00  0.00     0.053 C 
ATOM      9  C   UNL d   1       0.964   2.025  -2.859  0.00  0.00     0.018 C 
ENDBRANCH   1   8
TORSDOF 1
ENDMDL
