MODEL 1
REMARK minimizedAffinity 16.3559189
REMARK minimizedRMSD -1
REMARK  1 active torsions:
REMARK  status: ('A' for Active; 'I' for Inactive)
REMARK    1  A    between atoms: C1_2  and  C2_3 
ROOT
ATOM      1  C2  UNL d   1      -0.092  -2.756   3.281  0.00  0.00    -0.076 A 
ATOM      2  C3  UNL d   1      -1.330  -2.200   3.649  0.00  0.00     0.004 A 
ATOM      3  C4  UNL d   1      -1.834  -2.363   4.938  0.00  0.00    -0.003 A 
ATOM      4  C5  UNL d   1      -1.108  -3.083   5.881  0.00  0.00     0.000 A 
ATOM      5  C6  UNL d   1       0.130  -3.626   5.538  0.00  0.00     0.000 A 
ATOM      6  C7  UNL d   1       0.660  -3.457   4.247  0.00  0.00    -0.073 A 
ATOM      7  C8  UNL d   1       1.997  -4.069   3.931  0.00  0.00     0.078 C 
ENDROOT
BRANCH   1   8
ATOM      8  C1  UNL d   1       0.391  -2.569   1.860  0.00  0.00     0.053 C 
ATOM      9  C   UNL d   1      -0.476  -1.600   1.072  0.00  0.00     0.018 C 
ENDBRANCH   1   8
TORSDOF 1
ENDMDL
