MODEL 1
REMARK minimizedAffinity -1.09670329
REMARK minimizedRMSD -1
REMARK  1 active torsions:
REMARK  status: ('A' for Active; 'I' for Inactive)
REMARK    1  A    between atoms: C1_2  and  C2_3 
ROOT
ATOM      1  C2  UNL d   1       0.983   1.741  -1.774  0.00  0.00    -0.076 A 
ATOM      2  C3  UNL d   1       0.921   1.703  -0.370  0.00  0.00     0.004 A 
ATOM      3  C4  UNL d   1       0.332   0.628   0.293  0.00  0.00    -0.003 A 
ATOM      4  C5  UNL d   1      -0.203  -0.428  -0.437  0.00  0.00     0.000 A 
ATOM      5  C6  UNL d   1      -0.135  -0.415  -1.829  0.00  0.00     0.000 A 
ATOM      6  C7  UNL d   1       0.469   0.654  -2.513  0.00  0.00    -0.073 A 
ATOM      7  C8  UNL d   1       0.510   0.618  -4.016  0.00  0.00     0.078 C 
ENDROOT
BRANCH   1   8
ATOM      8  C1  UNL d   1       1.608   2.946  -2.439  0.00  0.00     0.053 C 
ATOM      9  C   UNL d   1       0.600   3.762  -3.233  0.00  0.00     0.018 C 
ENDBRANCH   1   8
TORSDOF 1
ENDMDL
