MODEL 1
REMARK minimizedAffinity -4.08827639
REMARK minimizedRMSD -1
REMARK  1 active torsions:
REMARK  status: ('A' for Active; 'I' for Inactive)
REMARK    1  A    between atoms: C1_2  and  C2_3 
ROOT
ATOM      1  C2  UNL d   1      -0.585  -0.208   0.415  0.00  0.00    -0.076 A 
ATOM      2  C3  UNL d   1      -1.434   0.776   0.950  0.00  0.00     0.004 A 
ATOM      3  C4  UNL d   1      -2.287   0.487   2.014  0.00  0.00    -0.003 A 
ATOM      4  C5  UNL d   1      -2.304  -0.792   2.561  0.00  0.00     0.000 A 
ATOM      5  C6  UNL d   1      -1.456  -1.776   2.054  0.00  0.00     0.000 A 
ATOM      6  C7  UNL d   1      -0.578  -1.496   0.992  0.00  0.00    -0.073 A 
ATOM      7  C8  UNL d   1       0.310  -2.597   0.481  0.00  0.00     0.078 C 
ENDROOT
BRANCH   1   8
ATOM      8  C1  UNL d   1       0.298   0.157  -0.757  0.00  0.00     0.053 C 
ATOM      9  C   UNL d   1       1.029   1.474  -0.548  0.00  0.00     0.018 C 
ENDBRANCH   1   8
TORSDOF 1
ENDMDL
