MODEL 1
REMARK minimizedAffinity -1.88043749
REMARK minimizedRMSD -1
REMARK  1 active torsions:
REMARK  status: ('A' for Active; 'I' for Inactive)
REMARK    1  A    between atoms: C1_2  and  C2_3 
ROOT
ATOM      1  C2  UNL d   1       1.280   1.456  -1.887  0.00  0.00    -0.076 A 
ATOM      2  C3  UNL d   1       0.021   1.428  -2.513  0.00  0.00     0.004 A 
ATOM      3  C4  UNL d   1      -0.102   1.638  -3.885  0.00  0.00    -0.003 A 
ATOM      4  C5  UNL d   1       1.031   1.878  -4.654  0.00  0.00     0.000 A 
ATOM      5  C6  UNL d   1       2.289   1.893  -4.053  0.00  0.00     0.000 A 
ATOM      6  C7  UNL d   1       2.433   1.667  -2.673  0.00  0.00    -0.073 A 
ATOM      7  C8  UNL d   1       3.813   1.700  -2.076  0.00  0.00     0.078 C 
ENDROOT
BRANCH   1   8
ATOM      8  C1  UNL d   1       1.350   1.249  -0.391  0.00  0.00     0.053 C 
ATOM      9  C   UNL d   1       0.661  -0.032   0.053  0.00  0.00     0.018 C 
ENDBRANCH   1   8
TORSDOF 1
ENDMDL
