MODEL 1
REMARK minimizedAffinity -0.0183894821
REMARK minimizedRMSD -1
REMARK  1 active torsions:
REMARK  status: ('A' for Active; 'I' for Inactive)
REMARK    1  A    between atoms: C1_2  and  C2_3 
ROOT
ATOM      1  C2  UNL d   1       1.106   0.816  -1.060  0.00  0.00    -0.076 A 
ATOM      2  C3  UNL d   1       1.620  -0.457  -1.361  0.00  0.00     0.004 A 
ATOM      3  C4  UNL d   1       1.378  -1.544  -0.523  0.00  0.00    -0.003 A 
ATOM      4  C5  UNL d   1       0.618  -1.376   0.629  0.00  0.00     0.000 A 
ATOM      5  C6  UNL d   1       0.086  -0.123   0.934  0.00  0.00     0.000 A 
ATOM      6  C7  UNL d   1       0.307   0.980   0.091  0.00  0.00    -0.073 A 
ATOM      7  C8  UNL d   1      -0.286   2.309   0.471  0.00  0.00     0.078 C 
ENDROOT
BRANCH   1   8
ATOM      8  C1  UNL d   1       1.424   1.964  -1.992  0.00  0.00     0.053 C 
ATOM      9  C   UNL d   1       0.694   1.854  -3.322  0.00  0.00     0.018 C 
ENDBRANCH   1   8
TORSDOF 1
ENDMDL
