MODEL 1
REMARK minimizedAffinity -3.62331629
REMARK minimizedRMSD -1
REMARK  0 active torsions:
REMARK  status: ('A' for Active; 'I' for Inactive)
ROOT
ATOM      1  C   UNL d   1      -1.362  -0.279  -0.317  0.00  0.00     0.077 C 
ATOM      2  C1  UNL d   1       0.023  -0.181   0.250  0.00  0.00    -0.074 A 
ATOM      3  C2  UNL d   1       0.652   1.059   0.399  0.00  0.00    -0.005 A 
ATOM      4  C3  UNL d   1       1.937   1.135   0.937  0.00  0.00     0.006 A 
ATOM      5  C4  UNL d   1       2.604  -0.026   1.330  0.00  0.00    -0.005 A 
ATOM      6  C5  UNL d   1       1.991  -1.274   1.189  0.00  0.00    -0.074 A 
ATOM      7  C6  UNL d   1       2.690  -2.531   1.615  0.00  0.00     0.077 C 
ATOM      8  C7  UNL d   1       0.697  -1.342   0.654  0.00  0.00    -0.001 A 
ENDROOT
TORSDOF 0
ENDMDL
