MODEL 1
REMARK minimizedAffinity -4.79214382
REMARK minimizedRMSD -1
REMARK  0 active torsions:
REMARK  status: ('A' for Active; 'I' for Inactive)
ROOT
ATOM      1  C   UNL d   1      -1.534  -2.247   1.500  0.00  0.00     0.077 C 
ATOM      2  C1  UNL d   1      -0.570  -1.154   1.145  0.00  0.00    -0.074 A 
ATOM      3  C2  UNL d   1      -1.026   0.091   0.699  0.00  0.00    -0.005 A 
ATOM      4  C3  UNL d   1      -0.118   1.101   0.382  0.00  0.00     0.006 A 
ATOM      5  C4  UNL d   1       1.254   0.876   0.507  0.00  0.00    -0.005 A 
ATOM      6  C5  UNL d   1       1.729  -0.361   0.952  0.00  0.00    -0.074 A 
ATOM      7  C6  UNL d   1       3.200  -0.616   1.101  0.00  0.00     0.077 C 
ATOM      8  C7  UNL d   1       0.810  -1.369   1.275  0.00  0.00    -0.001 A 
ENDROOT
TORSDOF 0
ENDMDL
