MODEL 1
REMARK minimizedAffinity -3.02980351
REMARK minimizedRMSD -1
REMARK  0 active torsions:
REMARK  status: ('A' for Active; 'I' for Inactive)
ROOT
ATOM      1  C   UNL d   1      -1.090  -0.108  -2.186  0.00  0.00     0.077 C 
ATOM      2  C1  UNL d   1      -0.347  -0.320  -0.901  0.00  0.00    -0.074 A 
ATOM      3  C2  UNL d   1      -1.029  -0.410   0.317  0.00  0.00    -0.005 A 
ATOM      4  C3  UNL d   1      -0.326  -0.617   1.503  0.00  0.00     0.006 A 
ATOM      5  C4  UNL d   1       1.064  -0.737   1.484  0.00  0.00    -0.005 A 
ATOM      6  C5  UNL d   1       1.763  -0.650   0.276  0.00  0.00    -0.074 A 
ATOM      7  C6  UNL d   1       3.257  -0.786   0.237  0.00  0.00     0.077 C 
ATOM      8  C7  UNL d   1       1.049  -0.449  -0.913  0.00  0.00    -0.001 A 
ENDROOT
TORSDOF 0
ENDMDL
