MODEL 1
REMARK minimizedAffinity -3.1771369
REMARK minimizedRMSD -1
REMARK  0 active torsions:
REMARK  status: ('A' for Active; 'I' for Inactive)
ROOT
ATOM      1  C   UNL d   1       1.631  -2.214   2.898  0.00  0.00     0.077 C 
ATOM      2  C1  UNL d   1       1.431  -1.035   1.993  0.00  0.00    -0.074 A 
ATOM      3  C2  UNL d   1       2.428  -0.066   1.844  0.00  0.00    -0.005 A 
ATOM      4  C3  UNL d   1       2.231   1.020   0.991  0.00  0.00     0.006 A 
ATOM      5  C4  UNL d   1       1.037   1.149   0.281  0.00  0.00    -0.005 A 
ATOM      6  C5  UNL d   1       0.029   0.189   0.417  0.00  0.00    -0.074 A 
ATOM      7  C6  UNL d   1      -1.257   0.307  -0.347  0.00  0.00     0.077 C 
ATOM      8  C7  UNL d   1       0.237  -0.903   1.270  0.00  0.00    -0.001 A 
ENDROOT
TORSDOF 0
ENDMDL
