MODEL 1
REMARK minimizedAffinity -1.90957499
REMARK minimizedRMSD -1
REMARK  0 active torsions:
REMARK  status: ('A' for Active; 'I' for Inactive)
ROOT
ATOM      1  C   UNL d   1      -3.867   2.562  -3.225  0.00  0.00     0.077 C 
ATOM      2  C1  UNL d   1      -3.227   1.283  -2.774  0.00  0.00    -0.074 A 
ATOM      3  C2  UNL d   1      -3.243   0.145  -3.588  0.00  0.00    -0.005 A 
ATOM      4  C3  UNL d   1      -2.636  -1.035  -3.159  0.00  0.00     0.006 A 
ATOM      5  C4  UNL d   1      -2.007  -1.089  -1.915  0.00  0.00    -0.005 A 
ATOM      6  C5  UNL d   1      -1.980   0.038  -1.088  0.00  0.00    -0.074 A 
ATOM      7  C6  UNL d   1      -1.301  -0.001   0.249  0.00  0.00     0.077 C 
ATOM      8  C7  UNL d   1      -2.587   1.222  -1.529  0.00  0.00    -0.001 A 
ENDROOT
TORSDOF 0
ENDMDL
