MODEL 1
REMARK minimizedAffinity -2.48150134
REMARK minimizedRMSD -1
REMARK  0 active torsions:
REMARK  status: ('A' for Active; 'I' for Inactive)
ROOT
ATOM      1  C   UNL d   1      -0.306   2.577   0.345  0.00  0.00     0.077 C 
ATOM      2  C1  UNL d   1       0.027   1.131   0.567  0.00  0.00    -0.074 A 
ATOM      3  C2  UNL d   1      -0.983   0.171   0.683  0.00  0.00    -0.005 A 
ATOM      4  C3  UNL d   1      -0.658  -1.171   0.879  0.00  0.00     0.006 A 
ATOM      5  C4  UNL d   1       0.678  -1.566   0.961  0.00  0.00    -0.005 A 
ATOM      6  C5  UNL d   1       1.702  -0.620   0.846  0.00  0.00    -0.074 A 
ATOM      7  C6  UNL d   1       3.143  -1.028   0.922  0.00  0.00     0.077 C 
ATOM      8  C7  UNL d   1       1.367   0.726   0.642  0.00  0.00    -0.001 A 
ENDROOT
TORSDOF 0
ENDMDL
