MODEL 1
REMARK minimizedAffinity -3.54662895
REMARK minimizedRMSD -1
REMARK  0 active torsions:
REMARK  status: ('A' for Active; 'I' for Inactive)
ROOT
ATOM      1  C   UNL d   1      -3.794   2.410  -3.610  0.00  0.00     0.077 C 
ATOM      2  C1  UNL d   1      -3.278   1.118  -3.049  0.00  0.00    -0.074 A 
ATOM      3  C2  UNL d   1      -3.559  -0.100  -3.675  0.00  0.00    -0.005 A 
ATOM      4  C3  UNL d   1      -3.065  -1.293  -3.147  0.00  0.00     0.006 A 
ATOM      5  C4  UNL d   1      -2.286  -1.279  -1.989  0.00  0.00    -0.005 A 
ATOM      6  C5  UNL d   1      -1.994  -0.071  -1.350  0.00  0.00    -0.074 A 
ATOM      7  C6  UNL d   1      -1.150  -0.037  -0.110  0.00  0.00     0.077 C 
ATOM      8  C7  UNL d   1      -2.488   1.124  -1.891  0.00  0.00    -0.001 A 
ENDROOT
TORSDOF 0
ENDMDL
