MODEL 1
REMARK minimizedAffinity -5.96562862
REMARK minimizedRMSD -1
REMARK  0 active torsions:
REMARK  status: ('A' for Active; 'I' for Inactive)
ROOT
ATOM      1  C   UNL d   1       0.701  -3.256   2.197  0.00  0.00     0.077 C 
ATOM      2  C1  UNL d   1       1.399  -2.003   1.757  0.00  0.00    -0.074 A 
ATOM      3  C2  UNL d   1       2.779  -1.851   1.926  0.00  0.00    -0.005 A 
ATOM      4  C3  UNL d   1       3.415  -0.685   1.503  0.00  0.00     0.006 A 
ATOM      5  C4  UNL d   1       2.680   0.340   0.907  0.00  0.00    -0.005 A 
ATOM      6  C5  UNL d   1       1.299   0.206   0.728  0.00  0.00    -0.074 A 
ATOM      7  C6  UNL d   1       0.495   1.294   0.080  0.00  0.00     0.077 C 
ATOM      8  C7  UNL d   1       0.668  -0.972   1.150  0.00  0.00    -0.001 A 
ENDROOT
TORSDOF 0
ENDMDL
