MODEL 1
REMARK minimizedAffinity -5.44377613
REMARK minimizedRMSD -1
REMARK  0 active torsions:
REMARK  status: ('A' for Active; 'I' for Inactive)
ROOT
ATOM      1  C   UNL d   1       3.422  -0.530   0.995  0.00  0.00     0.077 C 
ATOM      2  C1  UNL d   1       2.054   0.054   0.801  0.00  0.00    -0.074 A 
ATOM      3  C2  UNL d   1       1.890   1.359   0.326  0.00  0.00    -0.005 A 
ATOM      4  C3  UNL d   1       0.611   1.885   0.142  0.00  0.00     0.006 A 
ATOM      5  C4  UNL d   1      -0.515   1.112   0.429  0.00  0.00    -0.005 A 
ATOM      6  C5  UNL d   1      -0.370  -0.195   0.904  0.00  0.00    -0.074 A 
ATOM      7  C6  UNL d   1      -1.570  -1.042   1.209  0.00  0.00     0.077 C 
ATOM      8  C7  UNL d   1       0.918  -0.719   1.080  0.00  0.00    -0.001 A 
ENDROOT
TORSDOF 0
ENDMDL
