MODEL 1
REMARK minimizedAffinity -3.09529972
REMARK minimizedRMSD -1
REMARK  0 active torsions:
REMARK  status: ('A' for Active; 'I' for Inactive)
ROOT
ATOM      1  C   UNL d   1      -0.808  -0.096  -0.135  0.00  0.00     0.077 C 
ATOM      2  C1  UNL d   1      -1.638  -0.153  -1.383  0.00  0.00    -0.074 A 
ATOM      3  C2  UNL d   1      -2.013  -1.379  -1.941  0.00  0.00    -0.005 A 
ATOM      4  C3  UNL d   1      -2.793  -1.417  -3.096  0.00  0.00     0.006 A 
ATOM      5  C4  UNL d   1      -3.206  -0.231  -3.704  0.00  0.00    -0.005 A 
ATOM      6  C5  UNL d   1      -2.842   1.005  -3.160  0.00  0.00    -0.074 A 
ATOM      7  C6  UNL d   1      -3.286   2.289  -3.795  0.00  0.00     0.077 C 
ATOM      8  C7  UNL d   1      -2.063   1.034  -1.995  0.00  0.00    -0.001 A 
ENDROOT
TORSDOF 0
ENDMDL
