MODEL 1
REMARK minimizedAffinity 0.596565664
REMARK minimizedRMSD -1
REMARK  0 active torsions:
REMARK  status: ('A' for Active; 'I' for Inactive)
ROOT
ATOM      1  N1  IND d   1      -2.050   2.534   1.533  0.00  0.00    -0.196 N 
ATOM      2  C2  IND d   1      -2.178   2.645   0.176  0.00  0.00     0.054 A 
ATOM      3  C3  IND d   1      -2.691   1.507  -0.343  0.00  0.00    -0.031 A 
ATOM      4  C4  IND d   1      -3.487  -0.625   0.860  0.00  0.00     0.051 A 
ATOM      5  C5  IND d   1      -3.537  -1.211   2.094  0.00  0.00    -0.031 A 
ATOM      6  C6  IND d   1      -3.088  -0.565   3.227  0.00  0.00     0.015 A 
ATOM      7  C7  IND d   1      -2.579   0.702   3.170  0.00  0.00    -0.016 A 
ATOM      8  C8  IND d   1      -2.520   1.297   1.917  0.00  0.00    -0.047 A 
ATOM      9  C9  IND d   1      -2.936   0.630   0.758  0.00  0.00    -0.096 A 
ATOM     10  HN1 IND d   1      -1.730   3.135   2.057  0.00  0.00     0.298 HD
ENDROOT
TORSDOF 0
ENDMDL
