MODEL 1
REMARK minimizedAffinity -4.57514238
REMARK minimizedRMSD -1
REMARK  0 active torsions:
REMARK  status: ('A' for Active; 'I' for Inactive)
ROOT
ATOM      1  N1  IND d   1      -2.649   2.731   1.483  0.00  0.00    -0.196 N 
ATOM      2  C2  IND d   1      -2.599   2.742   0.117  0.00  0.00     0.054 A 
ATOM      3  C3  IND d   1      -2.574   1.478  -0.363  0.00  0.00    -0.031 A 
ATOM      4  C4  IND d   1      -2.710  -0.757   0.908  0.00  0.00     0.051 A 
ATOM      5  C5  IND d   1      -2.732  -1.278   2.171  0.00  0.00    -0.031 A 
ATOM      6  C6  IND d   1      -2.730  -0.473   3.292  0.00  0.00     0.015 A 
ATOM      7  C7  IND d   1      -2.717   0.889   3.191  0.00  0.00    -0.016 A 
ATOM      8  C8  IND d   1      -2.688   1.422   1.910  0.00  0.00    -0.047 A 
ATOM      9  C9  IND d   1      -2.647   0.610   0.769  0.00  0.00    -0.096 A 
ATOM     10  HN1 IND d   1      -2.656   3.426   1.990  0.00  0.00     0.298 HD
ENDROOT
TORSDOF 0
ENDMDL
