MODEL 1
REMARK minimizedAffinity 11.6664782
REMARK minimizedRMSD -1
REMARK  0 active torsions:
REMARK  status: ('A' for Active; 'I' for Inactive)
ROOT
ATOM      1  N1  IND d   1      -3.934  -1.266   0.673  0.00  0.00    -0.196 N 
ATOM      2  C2  IND d   1      -3.005  -0.587  -0.065  0.00  0.00     0.054 A 
ATOM      3  C3  IND d   1      -2.094  -0.004   0.746  0.00  0.00    -0.031 A 
ATOM      4  C4  IND d   1      -1.876  -0.119   3.309  0.00  0.00     0.051 A 
ATOM      5  C5  IND d   1      -2.511  -0.590   4.424  0.00  0.00    -0.031 A 
ATOM      6  C6  IND d   1      -3.675  -1.327   4.344  0.00  0.00     0.015 A 
ATOM      7  C7  IND d   1      -4.243  -1.632   3.139  0.00  0.00    -0.016 A 
ATOM      8  C8  IND d   1      -3.605  -1.150   2.005  0.00  0.00    -0.047 A 
ATOM      9  C9  IND d   1      -2.447  -0.365   2.083  0.00  0.00    -0.096 A 
ATOM     10  HN1 IND d   1      -4.610  -1.693   0.357  0.00  0.00     0.298 HD
ENDROOT
TORSDOF 0
ENDMDL
