MODEL 1
REMARK minimizedAffinity 0.773598909
REMARK minimizedRMSD -1
REMARK  0 active torsions:
REMARK  status: ('A' for Active; 'I' for Inactive)
ROOT
ATOM      1  N1  IND d   1      -2.318   3.385   1.244  0.00  0.00    -0.196 N 
ATOM      2  C2  IND d   1      -3.021   4.296   0.506  0.00  0.00     0.054 A 
ATOM      3  C3  IND d   1      -3.846   3.664  -0.359  0.00  0.00    -0.031 A 
ATOM      4  C4  IND d   1      -4.277   1.144  -0.663  0.00  0.00     0.051 A 
ATOM      5  C5  IND d   1      -3.845  -0.081  -0.240  0.00  0.00    -0.031 A 
ATOM      6  C6  IND d   1      -2.863  -0.217   0.720  0.00  0.00     0.015 A 
ATOM      7  C7  IND d   1      -2.283   0.873   1.304  0.00  0.00    -0.016 A 
ATOM      8  C8  IND d   1      -2.715   2.119   0.872  0.00  0.00    -0.047 A 
ATOM      9  C9  IND d   1      -3.680   2.263  -0.132  0.00  0.00    -0.096 A 
ATOM     10  HN1 IND d   1      -1.727   3.572   1.840  0.00  0.00     0.298 HD
ENDROOT
TORSDOF 0
ENDMDL
