MODEL 1
REMARK minimizedAffinity -3.15254426
REMARK minimizedRMSD -1
REMARK  0 active torsions:
REMARK  status: ('A' for Active; 'I' for Inactive)
ROOT
ATOM      1  N1  IND d   1      -2.459   2.527   1.858  0.00  0.00    -0.196 N 
ATOM      2  C2  IND d   1      -2.311   2.648   0.505  0.00  0.00     0.054 A 
ATOM      3  C3  IND d   1      -2.212   1.427  -0.068  0.00  0.00    -0.031 A 
ATOM      4  C4  IND d   1      -2.369  -0.904   1.012  0.00  0.00     0.051 A 
ATOM      5  C5  IND d   1      -2.465  -1.525   2.226  0.00  0.00    -0.031 A 
ATOM      6  C6  IND d   1      -2.568  -0.812   3.403  0.00  0.00     0.015 A 
ATOM      7  C7  IND d   1      -2.592   0.554   3.409  0.00  0.00    -0.016 A 
ATOM      8  C8  IND d   1      -2.487   1.188   2.179  0.00  0.00    -0.047 A 
ATOM      9  C9  IND d   1      -2.339   0.470   0.985  0.00  0.00    -0.096 A 
ATOM     10  HN1 IND d   1      -2.523   3.178   2.416  0.00  0.00     0.298 HD
ENDROOT
TORSDOF 0
ENDMDL
