MODEL 1
REMARK minimizedAffinity 0.977344334
REMARK minimizedRMSD -1
REMARK  0 active torsions:
REMARK  status: ('A' for Active; 'I' for Inactive)
ROOT
ATOM      1  N1  IND d   1      -2.741   3.817   1.411  0.00  0.00    -0.196 N 
ATOM      2  C2  IND d   1      -3.361   4.390   0.335  0.00  0.00     0.054 A 
ATOM      3  C3  IND d   1      -3.843   3.437  -0.493  0.00  0.00    -0.031 A 
ATOM      4  C4  IND d   1      -3.817   0.876  -0.229  0.00  0.00     0.051 A 
ATOM      5  C5  IND d   1      -3.331  -0.120   0.572  0.00  0.00    -0.031 A 
ATOM      6  C6  IND d   1      -2.612   0.152   1.717  0.00  0.00     0.015 A 
ATOM      7  C7  IND d   1      -2.360   1.435   2.113  0.00  0.00    -0.016 A 
ATOM      8  C8  IND d   1      -2.845   2.448   1.299  0.00  0.00    -0.047 A 
ATOM      9  C9  IND d   1      -3.539   2.179   0.112  0.00  0.00    -0.096 A 
ATOM     10  HN1 IND d   1      -2.351   4.241   2.049  0.00  0.00     0.298 HD
ENDROOT
TORSDOF 0
ENDMDL
