MODEL 1
REMARK minimizedAffinity 6.09268808
REMARK minimizedRMSD -1
REMARK  0 active torsions:
REMARK  status: ('A' for Active; 'I' for Inactive)
ROOT
ATOM      1  N1  IND d   1       4.874   4.780   3.405  0.00  0.00    -0.196 N 
ATOM      2  C2  IND d   1       5.499   5.486   4.396  0.00  0.00     0.054 A 
ATOM      3  C3  IND d   1       6.000   4.645   5.328  0.00  0.00    -0.031 A 
ATOM      4  C4  IND d   1       6.000   2.071   5.379  0.00  0.00     0.051 A 
ATOM      5  C5  IND d   1       5.517   0.981   4.711  0.00  0.00    -0.031 A 
ATOM      6  C6  IND d   1       4.783   1.103   3.549  0.00  0.00     0.015 A 
ATOM      7  C7  IND d   1       4.513   2.326   3.003  0.00  0.00    -0.016 A 
ATOM      8  C8  IND d   1       4.995   3.436   3.682  0.00  0.00    -0.047 A 
ATOM      9  C9  IND d   1       5.704   3.320   4.885  0.00  0.00    -0.096 A 
ATOM     10  HN1 IND d   1       4.473   5.119   2.724  0.00  0.00     0.298 HD
ENDROOT
TORSDOF 0
ENDMDL
