MODEL 1
REMARK minimizedAffinity 5.21994781
REMARK minimizedRMSD -1
REMARK  0 active torsions:
REMARK  status: ('A' for Active; 'I' for Inactive)
ROOT
ATOM      1  N1  IND d   1       4.528   1.598   2.255  0.00  0.00    -0.196 N 
ATOM      2  C2  IND d   1       4.576   2.926   2.579  0.00  0.00     0.054 A 
ATOM      3  C3  IND d   1       5.042   3.086   3.838  0.00  0.00    -0.031 A 
ATOM      4  C4  IND d   1       5.882   1.317   5.508  0.00  0.00     0.051 A 
ATOM      5  C5  IND d   1       5.999  -0.034   5.679  0.00  0.00    -0.031 A 
ATOM      6  C6  IND d   1       5.627  -0.928   4.695  0.00  0.00     0.015 A 
ATOM      7  C7  IND d   1       5.132  -0.502   3.495  0.00  0.00    -0.016 A 
ATOM      8  C8  IND d   1       5.005   0.869   3.322  0.00  0.00    -0.047 A 
ATOM      9  C9  IND d   1       5.342   1.780   4.332  0.00  0.00    -0.096 A 
ATOM     10  HN1 IND d   1       4.248   1.274   1.509  0.00  0.00     0.298 HD
ENDROOT
TORSDOF 0
ENDMDL
