MODEL 1
REMARK minimizedAffinity 7.95419359
REMARK minimizedRMSD -1
REMARK  0 active torsions:
REMARK  status: ('A' for Active; 'I' for Inactive)
ROOT
ATOM      1  N1  IND d   1       4.808   2.984   3.370  0.00  0.00    -0.196 N 
ATOM      2  C2  IND d   1       4.110   3.026   2.195  0.00  0.00     0.054 A 
ATOM      3  C3  IND d   1       3.982   1.783   1.679  0.00  0.00    -0.031 A 
ATOM      4  C4  IND d   1       4.751  -0.476   2.646  0.00  0.00     0.051 A 
ATOM      5  C5  IND d   1       5.461  -1.019   3.679  0.00  0.00    -0.031 A 
ATOM      6  C6  IND d   1       5.999  -0.241   4.684  0.00  0.00     0.015 A 
ATOM      7  C7  IND d   1       5.836   1.115   4.699  0.00  0.00    -0.016 A 
ATOM      8  C8  IND d   1       5.120   1.672   3.647  0.00  0.00    -0.047 A 
ATOM      9  C9  IND d   1       4.609   0.891   2.603  0.00  0.00    -0.096 A 
ATOM     10  HN1 IND d   1       5.016   3.664   3.854  0.00  0.00     0.298 HD
ENDROOT
TORSDOF 0
ENDMDL
