MODEL 1
REMARK minimizedAffinity 3.3925364
REMARK minimizedRMSD -1
REMARK  0 active torsions:
REMARK  status: ('A' for Active; 'I' for Inactive)
ROOT
ATOM      1  N1  IND d   1       6.000   1.185   4.258  0.00  0.00    -0.196 N 
ATOM      2  C2  IND d   1       5.019   1.993   3.753  0.00  0.00     0.054 A 
ATOM      3  C3  IND d   1       3.827   1.356   3.777  0.00  0.00    -0.031 A 
ATOM      4  C4  IND d   1       3.235  -0.975   4.696  0.00  0.00     0.051 A 
ATOM      5  C5  IND d   1       3.803  -2.100   5.224  0.00  0.00    -0.031 A 
ATOM      6  C6  IND d   1       5.159  -2.189   5.464  0.00  0.00     0.015 A 
ATOM      7  C7  IND d   1       6.000  -1.146   5.195  0.00  0.00    -0.016 A 
ATOM      8  C8  IND d   1       5.428  -0.004   4.652  0.00  0.00    -0.047 A 
ATOM      9  C9  IND d   1       4.059   0.076   4.366  0.00  0.00    -0.096 A 
ATOM     10  HN1 IND d   1       6.833   1.387   4.319  0.00  0.00     0.298 HD
ENDROOT
TORSDOF 0
ENDMDL
