MODEL 1
REMARK minimizedAffinity -1.78967488
REMARK minimizedRMSD -1
REMARK  0 active torsions:
REMARK  status: ('A' for Active; 'I' for Inactive)
ROOT
ATOM      1  N1  IND d   1       5.357   1.946   3.785  0.00  0.00    -0.196 N 
ATOM      2  C2  IND d   1       5.999   1.595   4.939  0.00  0.00     0.054 A 
ATOM      3  C3  IND d   1       5.513   0.425   5.411  0.00  0.00    -0.031 A 
ATOM      4  C4  IND d   1       3.734  -1.134   4.396  0.00  0.00     0.051 A 
ATOM      5  C5  IND d   1       2.837  -1.221   3.368  0.00  0.00    -0.031 A 
ATOM      6  C6  IND d   1       2.735  -0.238   2.406  0.00  0.00     0.015 A 
ATOM      7  C7  IND d   1       3.536   0.868   2.429  0.00  0.00    -0.016 A 
ATOM      8  C8  IND d   1       4.443   0.963   3.476  0.00  0.00    -0.047 A 
ATOM      9  C9  IND d   1       4.522  -0.011   4.479  0.00  0.00    -0.096 A 
ATOM     10  HN1 IND d   1       5.499   2.661   3.329  0.00  0.00     0.298 HD
ENDROOT
TORSDOF 0
ENDMDL
