MODEL 1
REMARK minimizedAffinity -0.639903367
REMARK minimizedRMSD -1
REMARK  0 active torsions:
REMARK  status: ('A' for Active; 'I' for Inactive)
ROOT
ATOM      1  N1  IND d   1       3.670  -0.190   1.808  0.00  0.00    -0.196 N 
ATOM      2  C2  IND d   1       2.659  -1.067   2.086  0.00  0.00     0.054 A 
ATOM      3  C3  IND d   1       2.705  -1.442   3.384  0.00  0.00    -0.031 A 
ATOM      4  C4  IND d   1       4.291  -0.664   5.256  0.00  0.00     0.051 A 
ATOM      5  C5  IND d   1       5.400   0.103   5.479  0.00  0.00    -0.031 A 
ATOM      6  C6  IND d   1       6.000   0.828   4.469  0.00  0.00     0.015 A 
ATOM      7  C7  IND d   1       5.504   0.822   3.197  0.00  0.00    -0.016 A 
ATOM      8  C8  IND d   1       4.382   0.039   2.965  0.00  0.00    -0.047 A 
ATOM      9  C9  IND d   1       3.794  -0.732   3.976  0.00  0.00    -0.096 A 
ATOM     10  HN1 IND d   1       3.834   0.160   1.040  0.00  0.00     0.298 HD
ENDROOT
TORSDOF 0
ENDMDL
