MODEL 1
REMARK minimizedAffinity 12.5646086
REMARK minimizedRMSD -1
REMARK  0 active torsions:
REMARK  status: ('A' for Active; 'I' for Inactive)
ROOT
ATOM      1  N1  IND d   1       4.132   3.412   2.630  0.00  0.00    -0.196 N 
ATOM      2  C2  IND d   1       3.546   2.916   1.500  0.00  0.00     0.054 A 
ATOM      3  C3  IND d   1       3.784   1.589   1.390  0.00  0.00    -0.031 A 
ATOM      4  C4  IND d   1       5.025   0.012   3.002  0.00  0.00     0.051 A 
ATOM      5  C5  IND d   1       5.764   0.010   4.151  0.00  0.00    -0.031 A 
ATOM      6  C6  IND d   1       5.999   1.165   4.869  0.00  0.00     0.015 A 
ATOM      7  C7  IND d   1       5.492   2.368   4.467  0.00  0.00    -0.016 A 
ATOM      8  C8  IND d   1       4.747   2.375   3.297  0.00  0.00    -0.047 A 
ATOM      9  C9  IND d   1       4.541   1.213   2.542  0.00  0.00    -0.096 A 
ATOM     10  HN1 IND d   1       4.118   4.234   2.883  0.00  0.00     0.298 HD
ENDROOT
TORSDOF 0
ENDMDL
