MODEL 1
REMARK minimizedAffinity 2.38164449
REMARK minimizedRMSD -1
REMARK  0 active torsions:
REMARK  status: ('A' for Active; 'I' for Inactive)
ROOT
ATOM      1  N1  IND d   1       4.885   3.836   2.998  0.00  0.00    -0.196 N 
ATOM      2  C2  IND d   1       4.176   3.729   1.834  0.00  0.00     0.054 A 
ATOM      3  C3  IND d   1       4.003   2.428   1.507  0.00  0.00    -0.031 A 
ATOM      4  C4  IND d   1       4.710   0.311   2.790  0.00  0.00     0.051 A 
ATOM      5  C5  IND d   1       5.414  -0.098   3.887  0.00  0.00    -0.031 A 
ATOM      6  C6  IND d   1       5.987   0.801   4.763  0.00  0.00     0.015 A 
ATOM      7  C7  IND d   1       5.867   2.149   4.580  0.00  0.00    -0.016 A 
ATOM      8  C8  IND d   1       5.159   2.569   3.463  0.00  0.00    -0.047 A 
ATOM      9  C9  IND d   1       4.611   1.661   2.547  0.00  0.00    -0.096 A 
ATOM     10  HN1 IND d   1       5.120   4.572   3.376  0.00  0.00     0.298 HD
ENDROOT
TORSDOF 0
ENDMDL
