MODEL 1
REMARK minimizedAffinity 2.20109963
REMARK minimizedRMSD -1
REMARK  0 active torsions:
REMARK  status: ('A' for Active; 'I' for Inactive)
ROOT
ATOM      1  N1  IND d   1       4.671   3.345   2.792  0.00  0.00    -0.196 N 
ATOM      2  C2  IND d   1       3.647   3.045   1.938  0.00  0.00     0.054 A 
ATOM      3  C3  IND d   1       3.282   1.750   2.077  0.00  0.00    -0.031 A 
ATOM      4  C4  IND d   1       4.162  -0.029   3.716  0.00  0.00     0.051 A 
ATOM      5  C5  IND d   1       5.122  -0.238   4.667  0.00  0.00    -0.031 A 
ATOM      6  C6  IND d   1       5.996   0.758   5.051  0.00  0.00     0.015 A 
ATOM      7  C7  IND d   1       5.936   2.009   4.504  0.00  0.00    -0.016 A 
ATOM      8  C8  IND d   1       4.967   2.222   3.534  0.00  0.00    -0.047 A 
ATOM      9  C9  IND d   1       4.105   1.203   3.109  0.00  0.00    -0.096 A 
ATOM     10  HN1 IND d   1       5.065   4.107   2.856  0.00  0.00     0.298 HD
ENDROOT
TORSDOF 0
ENDMDL
