MODEL 1
REMARK minimizedAffinity -1.81737995
REMARK minimizedRMSD -1
REMARK  0 active torsions:
REMARK  status: ('A' for Active; 'I' for Inactive)
ROOT
ATOM      1  N1  IND d   1       5.658   1.441   4.026  0.00  0.00    -0.196 N 
ATOM      2  C2  IND d   1       5.999   1.081   5.300  0.00  0.00     0.054 A 
ATOM      3  C3  IND d   1       5.314  -0.023   5.675  0.00  0.00    -0.031 A 
ATOM      4  C4  IND d   1       3.662  -1.462   4.323  0.00  0.00     0.051 A 
ATOM      5  C5  IND d   1       3.008  -1.510   3.124  0.00  0.00    -0.031 A 
ATOM      6  C6  IND d   1       3.209  -0.560   2.144  0.00  0.00     0.015 A 
ATOM      7  C7  IND d   1       4.085   0.473   2.323  0.00  0.00    -0.016 A 
ATOM      8  C8  IND d   1       4.747   0.529   3.541  0.00  0.00    -0.047 A 
ATOM      9  C9  IND d   1       4.515  -0.408   4.556  0.00  0.00    -0.096 A 
ATOM     10  HN1 IND d   1       5.962   2.123   3.600  0.00  0.00     0.298 HD
ENDROOT
TORSDOF 0
ENDMDL
