MODEL 1
REMARK minimizedAffinity 0.622583151
REMARK minimizedRMSD -1
REMARK  0 active torsions:
REMARK  status: ('A' for Active; 'I' for Inactive)
ROOT
ATOM      1  N1  IND d   1      -0.191  -1.833  -2.222  0.00  0.00    -0.196 N 
ATOM      2  C2  IND d   1       1.014  -1.746  -2.861  0.00  0.00     0.054 A 
ATOM      3  C3  IND d   1       1.957  -2.435  -2.181  0.00  0.00    -0.031 A 
ATOM      4  C4  IND d   1       1.723  -3.864  -0.052  0.00  0.00     0.051 A 
ATOM      5  C5  IND d   1       0.824  -4.216   0.915  0.00  0.00    -0.031 A 
ATOM      6  C6  IND d   1      -0.487  -3.786   0.883  0.00  0.00     0.015 A 
ATOM      7  C7  IND d   1      -0.952  -2.993  -0.127  0.00  0.00    -0.016 A 
ATOM      8  C8  IND d   1      -0.040  -2.627  -1.107  0.00  0.00    -0.047 A 
ATOM      9  C9  IND d   1       1.302  -3.026  -1.057  0.00  0.00    -0.096 A 
ATOM     10  HN1 IND d   1      -0.921  -1.455  -2.475  0.00  0.00     0.298 HD
ENDROOT
TORSDOF 0
ENDMDL
