MODEL 1
REMARK minimizedAffinity -0.81226331
REMARK minimizedRMSD -1
REMARK  0 active torsions:
REMARK  status: ('A' for Active; 'I' for Inactive)
ROOT
ATOM      1  N1  IND d   1      -2.664   3.250   1.401  0.00  0.00    -0.196 N 
ATOM      2  C2  IND d   1      -2.981   3.967   0.282  0.00  0.00     0.054 A 
ATOM      3  C3  IND d   1      -3.504   3.155  -0.665  0.00  0.00    -0.031 A 
ATOM      4  C4  IND d   1      -4.025   0.637  -0.553  0.00  0.00     0.051 A 
ATOM      5  C5  IND d   1      -3.879  -0.459   0.251  0.00  0.00    -0.031 A 
ATOM      6  C6  IND d   1      -3.311  -0.372   1.506  0.00  0.00     0.015 A 
ATOM      7  C7  IND d   1      -2.877   0.821   2.010  0.00  0.00    -0.016 A 
ATOM      8  C8  IND d   1      -3.018   1.935   1.194  0.00  0.00    -0.047 A 
ATOM      9  C9  IND d   1      -3.554   1.845  -0.097  0.00  0.00    -0.096 A 
ATOM     10  HN1 IND d   1      -2.305   3.567   2.115  0.00  0.00     0.298 HD
ENDROOT
TORSDOF 0
ENDMDL
