MODEL 1
REMARK minimizedAffinity 15.6742802
REMARK minimizedRMSD -1
REMARK  1 active torsions:
REMARK  status: ('A' for Active; 'I' for Inactive)
REMARK    1  A    between atoms: C1_2  and  C2_3 
ROOT
ATOM      1  C2  UNL d   1      -1.210   3.695  -2.814  0.00  0.00    -0.073 A 
ATOM      2  C3  UNL d   1      -0.990   5.063  -2.613  0.00  0.00    -0.002 A 
ATOM      3  C4  UNL d   1      -1.508   5.999  -3.509  0.00  0.00     0.004 A 
ATOM      4  C5  UNL d   1      -2.256   5.579  -4.609  0.00  0.00    -0.004 A 
ATOM      5  C6  UNL d   1      -2.496   4.218  -4.820  0.00  0.00    -0.075 A 
ATOM      6  C7  UNL d   1      -3.297   3.750  -6.000  0.00  0.00     0.076 C 
ATOM      7  C8  UNL d   1      -1.970   3.284  -3.918  0.00  0.00     0.001 A 
ENDROOT
BRANCH   1   8
ATOM      8  C1  UNL d   1      -0.658   2.681  -1.846  0.00  0.00     0.053 C 
ATOM      9  C   UNL d   1       0.769   3.005  -1.433  0.00  0.00     0.018 C 
ENDBRANCH   1   8
TORSDOF 1
ENDMDL
