MODEL 1
REMARK minimizedAffinity 21.9327145
REMARK minimizedRMSD -1
REMARK  1 active torsions:
REMARK  status: ('A' for Active; 'I' for Inactive)
REMARK    1  A    between atoms: C1_2  and  C2_3 
ROOT
ATOM      1  C2  UNL d   1       1.538   0.097   1.658  0.00  0.00    -0.073 A 
ATOM      2  C3  UNL d   1       2.917   0.115   1.895  0.00  0.00    -0.002 A 
ATOM      3  C4  UNL d   1       3.722   1.088   1.302  0.00  0.00     0.004 A 
ATOM      4  C5  UNL d   1       3.157   2.056   0.472  0.00  0.00    -0.004 A 
ATOM      5  C6  UNL d   1       1.779   2.062   0.232  0.00  0.00    -0.075 A 
ATOM      6  C7  UNL d   1       1.156   3.096  -0.660  0.00  0.00     0.076 C 
ATOM      7  C8  UNL d   1       0.978   1.080   0.829  0.00  0.00     0.001 A 
ENDROOT
BRANCH   1   8
ATOM      8  C1  UNL d   1       0.664  -0.948   2.302  0.00  0.00     0.053 C 
ATOM      9  C   UNL d   1      -0.219  -0.360   3.391  0.00  0.00     0.018 C 
ENDBRANCH   1   8
TORSDOF 1
ENDMDL
