MODEL 1
REMARK minimizedAffinity 18.010004
REMARK minimizedRMSD -1
REMARK  1 active torsions:
REMARK  status: ('A' for Active; 'I' for Inactive)
REMARK    1  A    between atoms: C1_2  and  C2_3 
ROOT
ATOM      1  C2  UNL d   1      -1.740   3.748  -2.521  0.00  0.00    -0.073 A 
ATOM      2  C3  UNL d   1      -1.740   5.130  -2.299  0.00  0.00    -0.002 A 
ATOM      3  C4  UNL d   1      -2.228   6.000  -3.275  0.00  0.00     0.004 A 
ATOM      4  C5  UNL d   1      -2.728   5.498  -4.477  0.00  0.00    -0.004 A 
ATOM      5  C6  UNL d   1      -2.747   4.119  -4.712  0.00  0.00    -0.075 A 
ATOM      6  C7  UNL d   1      -3.279   3.563  -6.000  0.00  0.00     0.076 C 
ATOM      7  C8  UNL d   1      -2.252   3.252  -3.728  0.00  0.00     0.001 A 
ENDROOT
BRANCH   1   8
ATOM      8  C1  UNL d   1      -1.219   2.804  -1.467  0.00  0.00     0.053 C 
ATOM      9  C   UNL d   1       0.288   2.626  -1.557  0.00  0.00     0.018 C 
ENDBRANCH   1   8
TORSDOF 1
ENDMDL
