MODEL 1
REMARK minimizedAffinity 5.87563515
REMARK minimizedRMSD -1
REMARK  1 active torsions:
REMARK  status: ('A' for Active; 'I' for Inactive)
REMARK    1  A    between atoms: C1_2  and  C2_3 
ROOT
ATOM      1  C2  UNL d   1       1.169  -1.388   2.174  0.00  0.00    -0.073 A 
ATOM      2  C3  UNL d   1       0.845  -0.661   3.325  0.00  0.00    -0.002 A 
ATOM      3  C4  UNL d   1      -0.420  -0.780   3.901  0.00  0.00     0.004 A 
ATOM      4  C5  UNL d   1      -1.370  -1.632   3.338  0.00  0.00    -0.004 A 
ATOM      5  C6  UNL d   1      -1.061  -2.376   2.195  0.00  0.00    -0.075 A 
ATOM      6  C7  UNL d   1      -2.073  -3.295   1.576  0.00  0.00     0.076 C 
ATOM      7  C8  UNL d   1       0.211  -2.249   1.621  0.00  0.00     0.001 A 
ENDROOT
BRANCH   1   8
ATOM      8  C1  UNL d   1       2.537  -1.267   1.552  0.00  0.00     0.053 C 
ATOM      9  C   UNL d   1       3.308  -0.076   2.098  0.00  0.00     0.018 C 
ENDBRANCH   1   8
TORSDOF 1
ENDMDL
