MODEL 1
REMARK minimizedAffinity 8.71085262
REMARK minimizedRMSD -1
REMARK  1 active torsions:
REMARK  status: ('A' for Active; 'I' for Inactive)
REMARK    1  A    between atoms: C1_2  and  C2_3 
ROOT
ATOM      1  C2  UNL d   1      -0.522  -2.301   2.845  0.00  0.00    -0.073 A 
ATOM      2  C3  UNL d   1      -0.297  -1.143   3.598  0.00  0.00    -0.002 A 
ATOM      3  C4  UNL d   1       0.839  -0.364   3.371  0.00  0.00     0.004 A 
ATOM      4  C5  UNL d   1       1.756  -0.731   2.386  0.00  0.00    -0.004 A 
ATOM      5  C6  UNL d   1       1.543  -1.878   1.616  0.00  0.00    -0.075 A 
ATOM      6  C7  UNL d   1       2.521  -2.287   0.554  0.00  0.00     0.076 C 
ATOM      7  C8  UNL d   1       0.402  -2.656   1.851  0.00  0.00     0.001 A 
ENDROOT
BRANCH   1   8
ATOM      8  C1  UNL d   1      -1.750  -3.141   3.082  0.00  0.00     0.053 C 
ATOM      9  C   UNL d   1      -2.409  -3.567   1.779  0.00  0.00     0.018 C 
ENDBRANCH   1   8
TORSDOF 1
ENDMDL
