MODEL 1
REMARK minimizedAffinity 13.7763395
REMARK minimizedRMSD -1
REMARK  1 active torsions:
REMARK  status: ('A' for Active; 'I' for Inactive)
REMARK    1  A    between atoms: C1_2  and  C2_3 
ROOT
ATOM      1  C2  UNL d   1       1.504  -0.541   1.822  0.00  0.00    -0.073 A 
ATOM      2  C3  UNL d   1       1.272  -1.791   1.237  0.00  0.00    -0.002 A 
ATOM      3  C4  UNL d   1       0.367  -2.682   1.815  0.00  0.00     0.004 A 
ATOM      4  C5  UNL d   1      -0.319  -2.331   2.978  0.00  0.00    -0.004 A 
ATOM      5  C6  UNL d   1      -0.109  -1.081   3.570  0.00  0.00    -0.075 A 
ATOM      6  C7  UNL d   1      -0.838  -0.689   4.822  0.00  0.00     0.076 C 
ATOM      7  C8  UNL d   1       0.803  -0.193   2.985  0.00  0.00     0.001 A 
ENDROOT
BRANCH   1   8
ATOM      8  C1  UNL d   1       2.475   0.428   1.197  0.00  0.00     0.053 C 
ATOM      9  C   UNL d   1       3.753   0.559   2.012  0.00  0.00     0.018 C 
ENDBRANCH   1   8
TORSDOF 1
ENDMDL
