MODEL 1
REMARK minimizedAffinity 15.5471153
REMARK minimizedRMSD -1
REMARK  1 active torsions:
REMARK  status: ('A' for Active; 'I' for Inactive)
REMARK    1  A    between atoms: C1_2  and  C2_3 
ROOT
ATOM      1  C2  UNL d   1       3.002  -0.100   2.864  0.00  0.00    -0.073 A 
ATOM      2  C3  UNL d   1       2.683   0.183   4.197  0.00  0.00    -0.002 A 
ATOM      3  C4  UNL d   1       1.443  -0.186   4.719  0.00  0.00     0.004 A 
ATOM      4  C5  UNL d   1       0.513  -0.847   3.917  0.00  0.00    -0.004 A 
ATOM      5  C6  UNL d   1       0.817  -1.149   2.586  0.00  0.00    -0.075 A 
ATOM      6  C7  UNL d   1      -0.174  -1.858   1.710  0.00  0.00     0.076 C 
ATOM      7  C8  UNL d   1       2.064  -0.773   2.068  0.00  0.00     0.001 A 
ENDROOT
BRANCH   1   8
ATOM      8  C1  UNL d   1       4.342   0.291   2.298  0.00  0.00     0.053 C 
ATOM      9  C   UNL d   1       5.430  -0.706   2.666  0.00  0.00     0.018 C 
ENDBRANCH   1   8
TORSDOF 1
ENDMDL
