MODEL 1
REMARK minimizedAffinity 4.88122272
REMARK minimizedRMSD -1
REMARK  1 active torsions:
REMARK  status: ('A' for Active; 'I' for Inactive)
REMARK    1  A    between atoms: C1_2  and  C2_3 
ROOT
ATOM      1  C2  UNL d   1       0.950  -1.341   2.416  0.00  0.00    -0.073 A 
ATOM      2  C3  UNL d   1       0.967  -0.660   3.639  0.00  0.00    -0.002 A 
ATOM      3  C4  UNL d   1      -0.031  -0.888   4.586  0.00  0.00     0.004 A 
ATOM      4  C5  UNL d   1      -1.052  -1.801   4.325  0.00  0.00    -0.004 A 
ATOM      5  C6  UNL d   1      -1.081  -2.500   3.113  0.00  0.00    -0.075 A 
ATOM      6  C7  UNL d   1      -2.173  -3.484   2.816  0.00  0.00     0.076 C 
ATOM      7  C8  UNL d   1      -0.076  -2.264   2.166  0.00  0.00     0.001 A 
ENDROOT
BRANCH   1   8
ATOM      8  C1  UNL d   1       2.029  -1.103   1.392  0.00  0.00     0.053 C 
ATOM      9  C   UNL d   1       3.316  -0.601   2.027  0.00  0.00     0.018 C 
ENDBRANCH   1   8
TORSDOF 1
ENDMDL
