MODEL 1
REMARK minimizedAffinity 3.71401381
REMARK minimizedRMSD -1
REMARK  1 active torsions:
REMARK  status: ('A' for Active; 'I' for Inactive)
REMARK    1  A    between atoms: C1_2  and  C2_3 
ROOT
ATOM      1  C2  UNL d   1      -2.175  -1.267  -2.232  0.00  0.00    -0.081 A 
ATOM      2  C3  UNL d   1      -2.747  -2.016  -1.197  0.00  0.00     0.006 A 
ATOM      3  C4  UNL d   1      -1.944  -2.577  -0.201  0.00  0.00     0.002 A 
ATOM      4  C5  UNL d   1      -0.557  -2.392  -0.219  0.00  0.00    -0.080 A 
ATOM      5  C6  UNL d   1       0.313  -2.962   0.860  0.00  0.00     0.076 C 
ATOM      6  C7  UNL d   1       0.016  -1.658  -1.264  0.00  0.00     0.002 A 
ATOM      7  C8  UNL d   1      -0.786  -1.098  -2.260  0.00  0.00     0.006 A 
ENDROOT
BRANCH   1   8
ATOM      8  C1  UNL d   1      -3.045  -0.607  -3.272  0.00  0.00     0.054 C 
ATOM      9  C   UNL d   1      -3.466   0.788  -2.835  0.00  0.00     0.018 C 
ENDBRANCH   1   8
TORSDOF 1
ENDMDL
