MODEL 1
REMARK minimizedAffinity 10.0528288
REMARK minimizedRMSD -1
REMARK  1 active torsions:
REMARK  status: ('A' for Active; 'I' for Inactive)
REMARK    1  A    between atoms: C1_2  and  C2_3 
ROOT
ATOM      1  C2  UNL d   1       1.437  -2.073   2.749  0.00  0.00    -0.081 A 
ATOM      2  C3  UNL d   1       0.736  -1.934   1.544  0.00  0.00     0.006 A 
ATOM      3  C4  UNL d   1       0.901  -0.791   0.757  0.00  0.00     0.002 A 
ATOM      4  C5  UNL d   1       1.775   0.226   1.157  0.00  0.00    -0.080 A 
ATOM      5  C6  UNL d   1       1.984   1.443   0.307  0.00  0.00     0.076 C 
ATOM      6  C7  UNL d   1       2.461   0.094   2.369  0.00  0.00     0.002 A 
ATOM      7  C8  UNL d   1       2.296  -1.047   3.157  0.00  0.00     0.006 A 
ENDROOT
BRANCH   1   8
ATOM      8  C1  UNL d   1       1.310  -3.333   3.567  0.00  0.00     0.054 C 
ATOM      9  C   UNL d   1       1.915  -4.527   2.843  0.00  0.00     0.018 C 
ENDBRANCH   1   8
TORSDOF 1
ENDMDL
