MODEL 1
REMARK minimizedAffinity 1.01044977
REMARK minimizedRMSD -1
REMARK  1 active torsions:
REMARK  status: ('A' for Active; 'I' for Inactive)
REMARK    1  A    between atoms: C1_2  and  C2_3 
ROOT
ATOM      1  C2  UNL d   1       1.512   1.325   0.221  0.00  0.00    -0.081 A 
ATOM      2  C3  UNL d   1       2.520   1.357   1.193  0.00  0.00     0.006 A 
ATOM      3  C4  UNL d   1       2.564   0.389   2.199  0.00  0.00     0.002 A 
ATOM      4  C5  UNL d   1       1.608  -0.631   2.246  0.00  0.00    -0.080 A 
ATOM      5  C6  UNL d   1       1.662  -1.693   3.303  0.00  0.00     0.076 C 
ATOM      6  C7  UNL d   1       0.591  -0.653   1.285  0.00  0.00     0.002 A 
ATOM      7  C8  UNL d   1       0.546   0.315   0.279  0.00  0.00     0.006 A 
ENDROOT
BRANCH   1   8
ATOM      8  C1  UNL d   1       1.499   2.329  -0.904  0.00  0.00     0.054 C 
ATOM      9  C   UNL d   1       2.276   3.584  -0.533  0.00  0.00     0.018 C 
ENDBRANCH   1   8
TORSDOF 1
ENDMDL
