MODEL 1
REMARK minimizedAffinity 11.844944
REMARK minimizedRMSD -1
REMARK  1 active torsions:
REMARK  status: ('A' for Active; 'I' for Inactive)
REMARK    1  A    between atoms: C1_2  and  C2_3 
ROOT
ATOM      1  C2  UNL d   1       2.462   0.611   1.786  0.00  0.00    -0.081 A 
ATOM      2  C3  UNL d   1       1.658   1.725   2.055  0.00  0.00     0.006 A 
ATOM      3  C4  UNL d   1       1.674   2.832   1.203  0.00  0.00     0.002 A 
ATOM      4  C5  UNL d   1       2.489   2.840   0.066  0.00  0.00    -0.080 A 
ATOM      5  C6  UNL d   1       2.493   4.010  -0.873  0.00  0.00     0.076 C 
ATOM      6  C7  UNL d   1       3.305   1.734  -0.193  0.00  0.00     0.002 A 
ATOM      7  C8  UNL d   1       3.290   0.627   0.658  0.00  0.00     0.006 A 
ENDROOT
BRANCH   1   8
ATOM      8  C1  UNL d   1       2.399  -0.611   2.667  0.00  0.00     0.054 C 
ATOM      9  C   UNL d   1       1.212  -1.492   2.306  0.00  0.00     0.018 C 
ENDBRANCH   1   8
TORSDOF 1
ENDMDL
