MODEL 1
REMARK minimizedAffinity 3.01981425
REMARK minimizedRMSD -1
REMARK  1 active torsions:
REMARK  status: ('A' for Active; 'I' for Inactive)
REMARK    1  A    between atoms: C1_2  and  C2_3 
ROOT
ATOM      1  C2  UNL d   1       1.207  -1.926  -2.051  0.00  0.00    -0.081 A 
ATOM      2  C3  UNL d   1       0.776  -1.654  -0.747  0.00  0.00     0.006 A 
ATOM      3  C4  UNL d   1      -0.586  -1.544  -0.459  0.00  0.00     0.002 A 
ATOM      4  C5  UNL d   1      -1.540  -1.713  -1.469  0.00  0.00    -0.080 A 
ATOM      5  C6  UNL d   1      -3.007  -1.627  -1.168  0.00  0.00     0.076 C 
ATOM      6  C7  UNL d   1      -1.109  -1.968  -2.775  0.00  0.00     0.002 A 
ATOM      7  C8  UNL d   1       0.253  -2.077  -3.063  0.00  0.00     0.006 A 
ENDROOT
BRANCH   1   8
ATOM      8  C1  UNL d   1       2.673  -2.109  -2.352  0.00  0.00     0.054 C 
ATOM      9  C   UNL d   1       2.981  -3.545  -2.751  0.00  0.00     0.018 C 
ENDBRANCH   1   8
TORSDOF 1
ENDMDL
