MODEL 1
REMARK minimizedAffinity 7.2413125
REMARK minimizedRMSD -1
REMARK  1 active torsions:
REMARK  status: ('A' for Active; 'I' for Inactive)
REMARK    1  A    between atoms: C1_2  and  C2_3 
ROOT
ATOM      1  C2  UNL d   1       1.755   0.225   1.660  0.00  0.00    -0.081 A 
ATOM      2  C3  UNL d   1       0.791   1.210   1.415  0.00  0.00     0.006 A 
ATOM      3  C4  UNL d   1       1.077   2.289   0.575  0.00  0.00     0.002 A 
ATOM      4  C5  UNL d   1       2.329   2.396  -0.040  0.00  0.00    -0.080 A 
ATOM      5  C6  UNL d   1       2.639   3.533  -0.968  0.00  0.00     0.076 C 
ATOM      6  C7  UNL d   1       3.299   1.421   0.218  0.00  0.00     0.002 A 
ATOM      7  C8  UNL d   1       3.013   0.343   1.058  0.00  0.00     0.006 A 
ENDROOT
BRANCH   1   8
ATOM      8  C1  UNL d   1       1.427  -0.973   2.513  0.00  0.00     0.054 C 
ATOM      9  C   UNL d   1       2.431  -1.137   3.646  0.00  0.00     0.018 C 
ENDBRANCH   1   8
TORSDOF 1
ENDMDL
