MODEL 1
REMARK minimizedAffinity 3.28839207
REMARK minimizedRMSD -1
REMARK  1 active torsions:
REMARK  status: ('A' for Active; 'I' for Inactive)
REMARK    1  A    between atoms: C1_2  and  C2_3 
ROOT
ATOM      1  C2  UNL d   1       1.138  -1.892  -1.619  0.00  0.00    -0.081 A 
ATOM      2  C3  UNL d   1       0.291  -2.336  -2.642  0.00  0.00     0.006 A 
ATOM      3  C4  UNL d   1      -1.035  -2.679  -2.364  0.00  0.00     0.002 A 
ATOM      4  C5  UNL d   1      -1.536  -2.577  -1.062  0.00  0.00    -0.080 A 
ATOM      5  C6  UNL d   1      -2.965  -2.914  -0.756  0.00  0.00     0.076 C 
ATOM      6  C7  UNL d   1      -0.685  -2.151  -0.037  0.00  0.00     0.002 A 
ATOM      7  C8  UNL d   1       0.641  -1.808  -0.314  0.00  0.00     0.006 A 
ENDROOT
BRANCH   1   8
ATOM      8  C1  UNL d   1       2.549  -1.460  -1.927  0.00  0.00     0.054 C 
ATOM      9  C   UNL d   1       2.570  -0.149  -2.700  0.00  0.00     0.018 C 
ENDBRANCH   1   8
TORSDOF 1
ENDMDL
