MODEL 1
REMARK minimizedAffinity 7.41287708
REMARK minimizedRMSD -1
REMARK  1 active torsions:
REMARK  status: ('A' for Active; 'I' for Inactive)
REMARK    1  A    between atoms: C1_2  and  C2_3 
ROOT
ATOM      1  C2  UNL d   1      -1.253   0.546   1.375  0.00  0.00    -0.081 A 
ATOM      2  C3  UNL d   1      -0.465  -0.610   1.432  0.00  0.00     0.006 A 
ATOM      3  C4  UNL d   1       0.927  -0.524   1.352  0.00  0.00     0.002 A 
ATOM      4  C5  UNL d   1       1.554   0.720   1.220  0.00  0.00    -0.080 A 
ATOM      5  C6  UNL d   1       3.049   0.830   1.162  0.00  0.00     0.076 C 
ATOM      6  C7  UNL d   1       0.766   1.874   1.145  0.00  0.00     0.002 A 
ATOM      7  C8  UNL d   1      -0.625   1.787   1.225  0.00  0.00     0.006 A 
ENDROOT
BRANCH   1   8
ATOM      8  C1  UNL d   1      -2.750   0.461   1.527  0.00  0.00     0.054 C 
ATOM      9  C   UNL d   1      -3.387   1.843   1.509  0.00  0.00     0.018 C 
ENDBRANCH   1   8
TORSDOF 1
ENDMDL
