MODEL 1
REMARK minimizedAffinity -3.88280058
REMARK minimizedRMSD -1
REMARK  0 active torsions:
REMARK  status: ('A' for Active; 'I' for Inactive)
ROOT
ATOM      1  C   UNL d   1      -1.282   0.368   0.144  0.00  0.00     0.020 A 
ATOM      2  C1  UNL d   1      -0.284   1.311  -0.103  0.00  0.00     0.020 A 
ATOM      3  C2  UNL d   1       1.053   0.993   0.145  0.00  0.00     0.034 A 
ATOM      4  C3  UNL d   1       1.396  -0.269   0.643  0.00  0.00     0.017 A 
ATOM      5  C4  UNL d   1       0.394  -1.214   0.890  0.00  0.00     0.017 A 
ATOM      6  C5  UNL d   1      -0.944  -0.891   0.639  0.00  0.00     0.034 A 
ATOM      7 Cl   UNL d   1       0.739  -2.793   1.503  0.00  0.00    -0.070 Cl
ATOM      8 Cl1  UNL d   1       3.069  -0.593   0.927  0.00  0.00    -0.070 Cl
ENDROOT
TORSDOF 0
ENDMDL
