MODEL 1
REMARK minimizedAffinity -1.58489573
REMARK minimizedRMSD -1
REMARK  0 active torsions:
REMARK  status: ('A' for Active; 'I' for Inactive)
ROOT
ATOM      1  C   UNL d   1       2.532  -1.372  -0.217  0.00  0.00     0.020 A 
ATOM      2  C1  UNL d   1       1.250  -1.380  -0.767  0.00  0.00     0.020 A 
ATOM      3  C2  UNL d   1       0.345  -0.369  -0.441  0.00  0.00     0.034 A 
ATOM      4  C3  UNL d   1       0.719   0.656   0.436  0.00  0.00     0.017 A 
ATOM      5  C4  UNL d   1       2.006   0.663   0.987  0.00  0.00     0.017 A 
ATOM      6  C5  UNL d   1       2.909  -0.352   0.658  0.00  0.00     0.034 A 
ATOM      7 Cl   UNL d   1       2.540   1.894   2.077  0.00  0.00    -0.070 Cl
ATOM      8 Cl1  UNL d   1      -0.452   1.875   0.794  0.00  0.00    -0.070 Cl
ENDROOT
TORSDOF 0
ENDMDL
