MODEL 1
REMARK minimizedAffinity -3.07751298
REMARK minimizedRMSD -1
REMARK  0 active torsions:
REMARK  status: ('A' for Active; 'I' for Inactive)
ROOT
ATOM      1  C   UNL d   1      -2.039   0.028  -0.308  0.00  0.00     0.020 A 
ATOM      2  C1  UNL d   1      -1.956  -0.039  -1.698  0.00  0.00     0.020 A 
ATOM      3  C2  UNL d   1      -0.721   0.116  -2.331  0.00  0.00     0.034 A 
ATOM      4  C3  UNL d   1       0.436   0.339  -1.575  0.00  0.00     0.017 A 
ATOM      5  C4  UNL d   1       0.351   0.406  -0.179  0.00  0.00     0.017 A 
ATOM      6  C5  UNL d   1      -0.888   0.250   0.450  0.00  0.00     0.034 A 
ATOM      7 Cl   UNL d   1       1.733   0.677   0.822  0.00  0.00    -0.070 Cl
ATOM      8 Cl1  UNL d   1       1.929   0.521  -2.424  0.00  0.00    -0.070 Cl
ENDROOT
TORSDOF 0
ENDMDL
