MODEL 1
REMARK minimizedAffinity -3.26633739
REMARK minimizedRMSD -1
REMARK  0 active torsions:
REMARK  status: ('A' for Active; 'I' for Inactive)
ROOT
ATOM      1  C   UNL d   1       2.707  -0.545   0.575  0.00  0.00     0.020 A 
ATOM      2  C1  UNL d   1       1.860  -1.638   0.395  0.00  0.00     0.020 A 
ATOM      3  C2  UNL d   1       0.541  -1.438  -0.017  0.00  0.00     0.034 A 
ATOM      4  C3  UNL d   1       0.065  -0.143  -0.251  0.00  0.00     0.017 A 
ATOM      5  C4  UNL d   1       0.916   0.954  -0.070  0.00  0.00     0.017 A 
ATOM      6  C5  UNL d   1       2.236   0.748   0.343  0.00  0.00     0.034 A 
ATOM      7 Cl   UNL d   1       0.400   2.581  -0.338  0.00  0.00    -0.070 Cl
ATOM      8 Cl1  UNL d   1      -1.577   0.030  -0.759  0.00  0.00    -0.070 Cl
ENDROOT
TORSDOF 0
ENDMDL
