MODEL 1
REMARK minimizedAffinity -0.470768452
REMARK minimizedRMSD -1
REMARK  0 active torsions:
REMARK  status: ('A' for Active; 'I' for Inactive)
ROOT
ATOM      1  C   UNL d   1       0.324   1.180  -0.147  0.00  0.00     0.020 A 
ATOM      2  C1  UNL d   1       1.482   1.605   0.505  0.00  0.00     0.020 A 
ATOM      3  C2  UNL d   1       2.003   0.855   1.561  0.00  0.00     0.034 A 
ATOM      4  C3  UNL d   1       1.366  -0.322   1.970  0.00  0.00     0.017 A 
ATOM      5  C4  UNL d   1       0.205  -0.748   1.316  0.00  0.00     0.017 A 
ATOM      6  C5  UNL d   1      -0.313   0.007   0.258  0.00  0.00     0.034 A 
ATOM      7 Cl   UNL d   1      -0.636  -2.190   1.763  0.00  0.00    -0.070 Cl
ATOM      8 Cl1  UNL d   1       2.067  -1.200   3.284  0.00  0.00    -0.070 Cl
ENDROOT
TORSDOF 0
ENDMDL
