MODEL 1
REMARK minimizedAffinity 12.9402838
REMARK minimizedRMSD -1
REMARK  0 active torsions:
REMARK  status: ('A' for Active; 'I' for Inactive)
ROOT
ATOM      1  C   UNL d   1      -5.505   5.440  -1.163  0.00  0.00     0.020 A 
ATOM      2  C1  UNL d   1      -4.349   5.596  -1.926  0.00  0.00     0.020 A 
ATOM      3  C2  UNL d   1      -3.683   4.474  -2.423  0.00  0.00     0.034 A 
ATOM      4  C3  UNL d   1      -4.173   3.190  -2.156  0.00  0.00     0.017 A 
ATOM      5  C4  UNL d   1      -5.334   3.034  -1.390  0.00  0.00     0.017 A 
ATOM      6  C5  UNL d   1      -5.997   4.162  -0.896  0.00  0.00     0.034 A 
ATOM      7 Cl   UNL d   1      -5.999   1.482  -1.020  0.00  0.00    -0.070 Cl
ATOM      8 Cl1  UNL d   1      -3.300   1.846  -2.803  0.00  0.00    -0.070 Cl
ENDROOT
TORSDOF 0
ENDMDL
