MODEL 1
REMARK minimizedAffinity 6.70344114
REMARK minimizedRMSD -1
REMARK  1 active torsions:
REMARK  status: ('A' for Active; 'I' for Inactive)
REMARK    1  A    between atoms: C3_4  and  O_7 
ROOT
ATOM      1  C   UNL d   1       1.450   5.251  -0.046  0.00  0.00    -0.033 A 
ATOM      2  C1  UNL d   1       0.366   5.996   0.423  0.00  0.00     0.039 A 
ATOM      3  C2  UNL d   1      -0.938   5.618   0.095  0.00  0.00    -0.080 A 
ATOM      4  C3  UNL d   1      -1.143   4.493  -0.700  0.00  0.00     0.150 A 
ATOM      5  C4  UNL d   1      -0.068   3.745  -1.167  0.00  0.00    -0.007 A 
ATOM      6  C5  UNL d   1       1.232   4.125  -0.840  0.00  0.00     0.039 A 
ENDROOT
BRANCH   4   7
ATOM      7  O   UNL d   1      -2.397   4.088  -1.050  0.00  0.00    -0.526 OA
ATOM      8  H5  UNL d   1      -3.039   4.716  -0.679  0.00  0.00     0.418 HD
ENDBRANCH   4   7
TORSDOF 1
ENDMDL
