MODEL 1
REMARK minimizedAffinity 13.3968086
REMARK minimizedRMSD -1
REMARK  1 active torsions:
REMARK  status: ('A' for Active; 'I' for Inactive)
REMARK    1  A    between atoms: C3_4  and  O_7 
ROOT
ATOM      1  C   UNL d   1       3.134  -0.172  -1.749  0.00  0.00    -0.033 A 
ATOM      2  C1  UNL d   1       1.851  -0.519  -1.320  0.00  0.00     0.039 A 
ATOM      3  C2  UNL d   1       0.762   0.293  -1.645  0.00  0.00    -0.080 A 
ATOM      4  C3  UNL d   1       0.969   1.445  -2.398  0.00  0.00     0.150 A 
ATOM      5  C4  UNL d   1       2.244   1.794  -2.831  0.00  0.00    -0.007 A 
ATOM      6  C5  UNL d   1       3.330   0.983  -2.505  0.00  0.00     0.039 A 
ENDROOT
BRANCH   4   7
ATOM      7  O   UNL d   1      -0.062   2.271  -2.735  0.00  0.00    -0.526 OA
ATOM      8  H5  UNL d   1      -0.879   1.919  -2.343  0.00  0.00     0.418 HD
ENDBRANCH   4   7
TORSDOF 1
ENDMDL
