MODEL 1
REMARK minimizedAffinity 7.17241573
REMARK minimizedRMSD -1
REMARK  1 active torsions:
REMARK  status: ('A' for Active; 'I' for Inactive)
REMARK    1  A    between atoms: C3_4  and  O_7 
ROOT
ATOM      1  C   UNL d   1      -4.899  -0.450   5.623  0.00  0.00    -0.033 A 
ATOM      2  C1  UNL d   1      -3.799   0.305   5.210  0.00  0.00     0.039 A 
ATOM      3  C2  UNL d   1      -3.797   0.907   3.951  0.00  0.00    -0.080 A 
ATOM      4  C3  UNL d   1      -4.899   0.748   3.115  0.00  0.00     0.150 A 
ATOM      5  C4  UNL d   1      -6.000   0.001   3.522  0.00  0.00    -0.007 A 
ATOM      6  C5  UNL d   1      -6.000  -0.601   4.780  0.00  0.00     0.039 A 
ENDROOT
BRANCH   4   7
ATOM      7  O   UNL d   1      -4.941   1.313   1.875  0.00  0.00    -0.526 OA
ATOM      8  H5  UNL d   1      -4.100   1.775   1.719  0.00  0.00     0.418 HD
ENDBRANCH   4   7
TORSDOF 1
ENDMDL
