MODEL 1
REMARK minimizedAffinity 15.9389334
REMARK minimizedRMSD -1
REMARK  1 active torsions:
REMARK  status: ('A' for Active; 'I' for Inactive)
REMARK    1  A    between atoms: C3_4  and  O_7 
ROOT
ATOM      1  C   UNL d   1      -4.470   0.239   6.000  0.00  0.00    -0.033 A 
ATOM      2  C1  UNL d   1      -5.474  -0.732   5.982  0.00  0.00     0.039 A 
ATOM      3  C2  UNL d   1      -6.000  -1.172   4.766  0.00  0.00    -0.080 A 
ATOM      4  C3  UNL d   1      -5.514  -0.636   3.577  0.00  0.00     0.150 A 
ATOM      5  C4  UNL d   1      -4.511   0.329   3.587  0.00  0.00    -0.007 A 
ATOM      6  C5  UNL d   1      -3.988   0.768   4.802  0.00  0.00     0.039 A 
ENDROOT
BRANCH   4   7
ATOM      7  O   UNL d   1      -5.999  -1.031   2.366  0.00  0.00    -0.526 OA
ATOM      8  H5  UNL d   1      -6.707  -1.680   2.515  0.00  0.00     0.418 HD
ENDBRANCH   4   7
TORSDOF 1
ENDMDL
