MODEL 1
REMARK minimizedAffinity 17.2934971
REMARK minimizedRMSD -1
REMARK  1 active torsions:
REMARK  status: ('A' for Active; 'I' for Inactive)
REMARK    1  A    between atoms: C3_4  and  O_7 
ROOT
ATOM      1  C   UNL d   1       1.886   0.397  -1.370  0.00  0.00    -0.033 A 
ATOM      2  C1  UNL d   1       2.037  -0.975  -1.160  0.00  0.00     0.039 A 
ATOM      3  C2  UNL d   1       1.328  -1.886  -1.946  0.00  0.00    -0.080 A 
ATOM      4  C3  UNL d   1       0.474  -1.413  -2.938  0.00  0.00     0.150 A 
ATOM      5  C4  UNL d   1       0.322  -0.047  -3.156  0.00  0.00    -0.007 A 
ATOM      6  C5  UNL d   1       1.029   0.861  -2.369  0.00  0.00     0.039 A 
ENDROOT
BRANCH   4   7
ATOM      7  O   UNL d   1      -0.242  -2.263  -3.728  0.00  0.00    -0.526 OA
ATOM      8  H5  UNL d   1      -0.058  -3.174  -3.444  0.00  0.00     0.418 HD
ENDBRANCH   4   7
TORSDOF 1
ENDMDL
