MODEL 1
REMARK minimizedAffinity 7.26873541
REMARK minimizedRMSD -1
REMARK  1 active torsions:
REMARK  status: ('A' for Active; 'I' for Inactive)
REMARK    1  A    between atoms: C3_4  and  O_7 
ROOT
ATOM      1  C   UNL d   1      -5.993  -0.649   4.401  0.00  0.00    -0.033 A 
ATOM      2  C1  UNL d   1      -5.562  -0.186   5.645  0.00  0.00     0.039 A 
ATOM      3  C2  UNL d   1      -4.380   0.549   5.748  0.00  0.00    -0.080 A 
ATOM      4  C3  UNL d   1      -3.639   0.815   4.600  0.00  0.00     0.150 A 
ATOM      5  C4  UNL d   1      -4.064   0.360   3.356  0.00  0.00    -0.007 A 
ATOM      6  C5  UNL d   1      -5.245  -0.375   3.256  0.00  0.00     0.039 A 
ENDROOT
BRANCH   4   7
ATOM      7  O   UNL d   1      -2.475   1.524   4.650  0.00  0.00    -0.526 OA
ATOM      8  H5  UNL d   1      -2.292   1.748   5.578  0.00  0.00     0.418 HD
ENDBRANCH   4   7
TORSDOF 1
ENDMDL
