MODEL 1
REMARK minimizedAffinity 3.36020422
REMARK minimizedRMSD -1
REMARK  1 active torsions:
REMARK  status: ('A' for Active; 'I' for Inactive)
REMARK    1  A    between atoms: C3_4  and  O_7 
ROOT
ATOM      1  C   UNL d   1       2.525   0.332  -1.342  0.00  0.00    -0.033 A 
ATOM      2  C1  UNL d   1       2.579   1.703  -1.605  0.00  0.00     0.039 A 
ATOM      3  C2  UNL d   1       1.707   2.272  -2.535  0.00  0.00    -0.080 A 
ATOM      4  C3  UNL d   1       0.786   1.461  -3.194  0.00  0.00     0.150 A 
ATOM      5  C4  UNL d   1       0.724   0.096  -2.934  0.00  0.00    -0.007 A 
ATOM      6  C5  UNL d   1       1.596  -0.471  -2.005  0.00  0.00     0.039 A 
ENDROOT
BRANCH   4   7
ATOM      7  O   UNL d   1      -0.082   1.971  -4.113  0.00  0.00    -0.526 OA
ATOM      8  H5  UNL d   1       0.095   2.921  -4.210  0.00  0.00     0.418 HD
ENDBRANCH   4   7
TORSDOF 1
ENDMDL
