MODEL 1
REMARK minimizedAffinity -0.94213903
REMARK minimizedRMSD -1
REMARK  1 active torsions:
REMARK  status: ('A' for Active; 'I' for Inactive)
REMARK    1  A    between atoms: C3_4  and  O_7 
ROOT
ATOM      1  C   UNL d   1       4.494  -1.242   4.506  0.00  0.00    -0.033 A 
ATOM      2  C1  UNL d   1       5.653  -1.483   5.246  0.00  0.00     0.039 A 
ATOM      3  C2  UNL d   1       5.997  -2.789   5.602  0.00  0.00    -0.080 A 
ATOM      4  C3  UNL d   1       5.174  -3.842   5.213  0.00  0.00     0.150 A 
ATOM      5  C4  UNL d   1       4.019  -3.609   4.473  0.00  0.00    -0.007 A 
ATOM      6  C5  UNL d   1       3.678  -2.305   4.119  0.00  0.00     0.039 A 
ENDROOT
BRANCH   4   7
ATOM      7  O   UNL d   1       5.465  -5.133   5.542  0.00  0.00    -0.526 OA
ATOM      8  H5  UNL d   1       6.276  -5.138   6.078  0.00  0.00     0.418 HD
ENDBRANCH   4   7
TORSDOF 1
ENDMDL
