MODEL 1
REMARK minimizedAffinity 4.00457954
REMARK minimizedRMSD -1
REMARK  1 active torsions:
REMARK  status: ('A' for Active; 'I' for Inactive)
REMARK    1  A    between atoms: C3_4  and  O_7 
ROOT
ATOM      1  C   UNL d   1       4.928  -5.999   5.455  0.00  0.00    -0.033 A 
ATOM      2  C1  UNL d   1       3.857  -5.314   4.880  0.00  0.00     0.039 A 
ATOM      3  C2  UNL d   1       3.853  -3.918   4.851  0.00  0.00    -0.080 A 
ATOM      4  C3  UNL d   1       4.926  -3.220   5.400  0.00  0.00     0.150 A 
ATOM      5  C4  UNL d   1       5.998  -3.897   5.971  0.00  0.00    -0.007 A 
ATOM      6  C5  UNL d   1       6.000  -5.291   6.000  0.00  0.00     0.039 A 
ENDROOT
BRANCH   4   7
ATOM      7  O   UNL d   1       4.965  -1.858   5.400  0.00  0.00    -0.526 OA
ATOM      8  H5  UNL d   1       4.144  -1.527   4.998  0.00  0.00     0.418 HD
ENDBRANCH   4   7
TORSDOF 1
ENDMDL
