MODEL 1
REMARK minimizedAffinity 1.69532311
REMARK minimizedRMSD -1
REMARK  1 active torsions:
REMARK  status: ('A' for Active; 'I' for Inactive)
REMARK    1  A    between atoms: C3_4  and  O_7 
ROOT
ATOM      1  C   UNL d   1      -5.061   5.785   3.861  0.00  0.00    -0.033 A 
ATOM      2  C1  UNL d   1      -5.099   5.714   5.255  0.00  0.00     0.039 A 
ATOM      3  C2  UNL d   1      -3.915   5.780   5.992  0.00  0.00    -0.080 A 
ATOM      4  C3  UNL d   1      -2.701   5.919   5.323  0.00  0.00     0.150 A 
ATOM      5  C4  UNL d   1      -2.657   5.994   3.935  0.00  0.00    -0.007 A 
ATOM      6  C5  UNL d   1      -3.840   5.926   3.201  0.00  0.00     0.039 A 
ENDROOT
BRANCH   4   7
ATOM      7  O   UNL d   1      -1.519   5.983   5.999  0.00  0.00    -0.526 OA
ATOM      8  H5  UNL d   1      -1.702   5.889   6.949  0.00  0.00     0.418 HD
ENDBRANCH   4   7
TORSDOF 1
ENDMDL
