MODEL 1
REMARK minimizedAffinity 9.37296867
REMARK minimizedRMSD -1
REMARK  1 active torsions:
REMARK  status: ('A' for Active; 'I' for Inactive)
REMARK    1  A    between atoms: C3_4  and  O_7 
ROOT
ATOM      1  C   UNL d   1       5.049  -0.084   4.123  0.00  0.00    -0.033 A 
ATOM      2  C1  UNL d   1       4.115  -1.043   3.728  0.00  0.00     0.039 A 
ATOM      3  C2  UNL d   1       4.122  -2.310   4.313  0.00  0.00    -0.080 A 
ATOM      4  C3  UNL d   1       5.068  -2.606   5.291  0.00  0.00     0.150 A 
ATOM      5  C4  UNL d   1       5.999  -1.654   5.692  0.00  0.00    -0.007 A 
ATOM      6  C5  UNL d   1       5.991  -0.389   5.106  0.00  0.00     0.039 A 
ENDROOT
BRANCH   4   7
ATOM      7  O   UNL d   1       5.118  -3.830   5.887  0.00  0.00    -0.526 OA
ATOM      8  H5  UNL d   1       4.433  -4.394   5.490  0.00  0.00     0.418 HD
ENDBRANCH   4   7
TORSDOF 1
ENDMDL
