MODEL 1
REMARK minimizedAffinity -1.91571558
REMARK minimizedRMSD -1
REMARK  1 active torsions:
REMARK  status: ('A' for Active; 'I' for Inactive)
REMARK    1  A    between atoms: C3_4  and  O_7 
ROOT
ATOM      1  C   UNL d   1      -2.894   5.998   5.275  0.00  0.00    -0.033 A 
ATOM      2  C1  UNL d   1      -2.569   6.000   3.917  0.00  0.00     0.039 A 
ATOM      3  C2  UNL d   1      -3.580   5.998   2.955  0.00  0.00    -0.080 A 
ATOM      4  C3  UNL d   1      -4.911   5.996   3.363  0.00  0.00     0.150 A 
ATOM      5  C4  UNL d   1      -5.243   5.999   4.714  0.00  0.00    -0.007 A 
ATOM      6  C5  UNL d   1      -4.231   6.000   5.673  0.00  0.00     0.039 A 
ENDROOT
BRANCH   4   7
ATOM      7  O   UNL d   1      -5.933   5.990   2.460  0.00  0.00    -0.526 OA
ATOM      8  H5  UNL d   1      -5.554   5.959   1.566  0.00  0.00     0.418 HD
ENDBRANCH   4   7
TORSDOF 1
ENDMDL
