MODEL 1
REMARK minimizedAffinity -0.981692135
REMARK minimizedRMSD -1
REMARK  1 active torsions:
REMARK  status: ('A' for Active; 'I' for Inactive)
REMARK    1  A    between atoms: C3_4  and  O_7 
ROOT
ATOM      1  C   UNL d   1      -4.268  -0.586   1.119  0.00  0.00    -0.033 A 
ATOM      2  C1  UNL d   1      -3.300  -0.312   0.150  0.00  0.00     0.039 A 
ATOM      3  C2  UNL d   1      -3.681   0.173  -1.102  0.00  0.00    -0.080 A 
ATOM      4  C3  UNL d   1      -5.031   0.382  -1.372  0.00  0.00     0.150 A 
ATOM      5  C4  UNL d   1      -6.000   0.115  -0.410  0.00  0.00    -0.007 A 
ATOM      6  C5  UNL d   1      -5.617  -0.371   0.839  0.00  0.00     0.039 A 
ENDROOT
BRANCH   4   7
ATOM      7  O   UNL d   1      -5.452   0.850  -2.581  0.00  0.00    -0.526 OA
ATOM      8  H5  UNL d   1      -4.676   0.962  -3.155  0.00  0.00     0.418 HD
ENDBRANCH   4   7
TORSDOF 1
ENDMDL
