MODEL 1
REMARK minimizedAffinity -3.77512312
REMARK minimizedRMSD -1
REMARK  2 active torsions:
REMARK  status: ('A' for Active; 'I' for Inactive)
REMARK    1  A    between atoms: C2'_3  and  C1'_4 
REMARK    2  A    between atoms: C1'_4  and  C1_5 
ROOT
ATOM      1  C1  I4B d   1      -0.023  -0.355   0.213  0.00  0.00    -0.075 A 
ATOM      2  C2  I4B d   1      -1.226   0.053   0.733  0.00  0.00     0.003 A 
ATOM      3  C3  I4B d   1      -1.513   1.432   0.871  0.00  0.00     0.002 A 
ATOM      4  C4  I4B d   1      -0.555   2.363   0.525  0.00  0.00    -0.004 A 
ATOM      5  C5  I4B d   1       0.656   1.949  -0.024  0.00  0.00     0.002 A 
ATOM      6  C6  I4B d   1       0.919   0.582  -0.193  0.00  0.00     0.003 A 
ENDROOT
BRANCH   1   7
ATOM      7  C1' I4B d   1       0.260  -1.820   0.112  0.00  0.00     0.060 C 
BRANCH   7   8
ATOM      8  C2' I4B d   1      -0.787  -2.436  -0.794  0.00  0.00    -0.013 C 
ATOM      9  C4' I4B d   1      -0.154  -3.083  -1.998  0.00  0.00     0.013 C 
ATOM     10  C3' I4B d   1      -1.566  -3.434   0.010  0.00  0.00     0.013 C 
ENDBRANCH   7   8
ENDBRANCH   1   7
TORSDOF 2
ENDMDL
