MODEL 1
REMARK minimizedAffinity -5.04145098
REMARK minimizedRMSD -1
REMARK  2 active torsions:
REMARK  status: ('A' for Active; 'I' for Inactive)
REMARK    1  A    between atoms: C2'_3  and  C1'_4 
REMARK    2  A    between atoms: C1'_4  and  C1_5 
ROOT
ATOM      1  C1  I4B d   1       0.002  -0.273   0.173  0.00  0.00    -0.075 A 
ATOM      2  C2  I4B d   1      -1.189   0.137   0.717  0.00  0.00     0.003 A 
ATOM      3  C3  I4B d   1      -1.506   1.516   0.783  0.00  0.00     0.002 A 
ATOM      4  C4  I4B d   1      -0.587   2.446   0.342  0.00  0.00    -0.004 A 
ATOM      5  C5  I4B d   1       0.610   2.028  -0.230  0.00  0.00     0.002 A 
ATOM      6  C6  I4B d   1       0.902   0.659  -0.327  0.00  0.00     0.003 A 
ENDROOT
BRANCH   1   7
ATOM      7  C1' I4B d   1       0.319  -1.734   0.149  0.00  0.00     0.060 C 
BRANCH   7   8
ATOM      8  C2' I4B d   1      -0.465  -2.363  -0.985  0.00  0.00    -0.013 C 
ATOM      9  C4' I4B d   1       0.418  -2.630  -2.176  0.00  0.00     0.013 C 
ATOM     10  C3' I4B d   1      -1.082  -3.631  -0.474  0.00  0.00     0.013 C 
ENDBRANCH   7   8
ENDBRANCH   1   7
TORSDOF 2
ENDMDL
