MODEL 1
REMARK minimizedAffinity -3.25623083
REMARK minimizedRMSD -1
REMARK  2 active torsions:
REMARK  status: ('A' for Active; 'I' for Inactive)
REMARK    1  A    between atoms: C2'_3  and  C1'_4 
REMARK    2  A    between atoms: C1'_4  and  C1_5 
ROOT
ATOM      1  C1  I4B d   1       0.067  -0.282   0.089  0.00  0.00    -0.075 A 
ATOM      2  C2  I4B d   1      -1.188  -0.030   0.585  0.00  0.00     0.003 A 
ATOM      3  C3  I4B d   1      -1.628   1.304   0.764  0.00  0.00     0.002 A 
ATOM      4  C4  I4B d   1      -0.768   2.347   0.485  0.00  0.00    -0.004 A 
ATOM      5  C5  I4B d   1       0.495   2.089  -0.039  0.00  0.00     0.002 A 
ATOM      6  C6  I4B d   1       0.911   0.767  -0.250  0.00  0.00     0.003 A 
ENDROOT
BRANCH   1   7
ATOM      7  C1' I4B d   1       0.511  -1.703  -0.057  0.00  0.00     0.060 C 
BRANCH   7   8
ATOM      8  C2' I4B d   1      -0.215  -2.299  -1.246  0.00  0.00    -0.013 C 
ATOM      9  C4' I4B d   1       0.756  -2.833  -2.266  0.00  0.00     0.013 C 
ATOM     10  C3' I4B d   1      -1.119  -3.383  -0.740  0.00  0.00     0.013 C 
ENDBRANCH   7   8
ENDBRANCH   1   7
TORSDOF 2
ENDMDL
