MODEL 1
REMARK minimizedAffinity -4.5840292
REMARK minimizedRMSD -1
REMARK  2 active torsions:
REMARK  status: ('A' for Active; 'I' for Inactive)
REMARK    1  A    between atoms: C2'_3  and  C1'_4 
REMARK    2  A    between atoms: C1'_4  and  C1_5 
ROOT
ATOM      1  C1  I4B d   1       0.580   0.894   0.276  0.00  0.00    -0.075 A 
ATOM      2  C2  I4B d   1       1.214   1.258  -0.886  0.00  0.00     0.003 A 
ATOM      3  C3  I4B d   1       1.075   2.574  -1.391  0.00  0.00     0.002 A 
ATOM      4  C4  I4B d   1       0.258   3.471  -0.735  0.00  0.00    -0.004 A 
ATOM      5  C5  I4B d   1      -0.367   3.106   0.454  0.00  0.00     0.002 A 
ATOM      6  C6  I4B d   1      -0.195   1.814   0.970  0.00  0.00     0.003 A 
ENDROOT
BRANCH   1   7
ATOM      7  C1' I4B d   1       0.722  -0.513   0.764  0.00  0.00     0.060 C 
BRANCH   7   8
ATOM      8  C2' I4B d   1      -0.545  -1.262   0.405  0.00  0.00    -0.013 C 
ATOM      9  C4' I4B d   1      -1.749  -0.360   0.474  0.00  0.00     0.013 C 
ATOM     10  C3' I4B d   1      -0.373  -1.831  -0.971  0.00  0.00     0.013 C 
ENDBRANCH   7   8
ENDBRANCH   1   7
TORSDOF 2
ENDMDL
