MODEL 1
REMARK minimizedAffinity -2.1866374
REMARK minimizedRMSD -1
REMARK  2 active torsions:
REMARK  status: ('A' for Active; 'I' for Inactive)
REMARK    1  A    between atoms: C2'_3  and  C1'_4 
REMARK    2  A    between atoms: C1'_4  and  C1_5 
ROOT
ATOM      1  C1  I4B d   1      -0.167  -0.291  -0.543  0.00  0.00    -0.075 A 
ATOM      2  C2  I4B d   1       0.910   0.423  -1.006  0.00  0.00     0.003 A 
ATOM      3  C3  I4B d   1       0.977   1.823  -0.804  0.00  0.00     0.002 A 
ATOM      4  C4  I4B d   1      -0.072   2.471  -0.183  0.00  0.00    -0.004 A 
ATOM      5  C5  I4B d   1      -1.152   1.742   0.306  0.00  0.00     0.002 A 
ATOM      6  C6  I4B d   1      -1.194   0.350   0.136  0.00  0.00     0.003 A 
ENDROOT
BRANCH   1   7
ATOM      7  C1' I4B d   1      -0.221  -1.763  -0.803  0.00  0.00     0.060 C 
BRANCH   7   8
ATOM      8  C2' I4B d   1      -0.484  -1.967  -2.281  0.00  0.00    -0.013 C 
ATOM      9  C4' I4B d   1       0.738  -2.496  -2.985  0.00  0.00     0.013 C 
ATOM     10  C3' I4B d   1      -1.640  -2.912  -2.420  0.00  0.00     0.013 C 
ENDBRANCH   7   8
ENDBRANCH   1   7
TORSDOF 2
ENDMDL
