MODEL 1
REMARK minimizedAffinity -3.46151972
REMARK minimizedRMSD -1
REMARK  2 active torsions:
REMARK  status: ('A' for Active; 'I' for Inactive)
REMARK    1  A    between atoms: C2'_3  and  C1'_4 
REMARK    2  A    between atoms: C1'_4  and  C1_5 
ROOT
ATOM      1  C1  I4B d   1      -0.059  -0.680  -0.240  0.00  0.00    -0.075 A 
ATOM      2  C2  I4B d   1      -1.124   0.046   0.232  0.00  0.00     0.003 A 
ATOM      3  C3  I4B d   1      -1.036   1.455   0.336  0.00  0.00     0.002 A 
ATOM      4  C4  I4B d   1       0.145   2.088   0.007  0.00  0.00    -0.004 A 
ATOM      5  C5  I4B d   1       1.216   1.353  -0.493  0.00  0.00     0.002 A 
ATOM      6  C6  I4B d   1       1.110  -0.039  -0.629  0.00  0.00     0.003 A 
ENDROOT
BRANCH   1   7
ATOM      7  C1' I4B d   1      -0.175  -2.170  -0.305  0.00  0.00     0.060 C 
BRANCH   7   8
ATOM      8  C2' I4B d   1      -0.867  -2.528  -1.605  0.00  0.00    -0.013 C 
ATOM      9  C4' I4B d   1       0.117  -3.037  -2.625  0.00  0.00     0.013 C 
ATOM     10  C3' I4B d   1      -1.915  -3.557  -1.303  0.00  0.00     0.013 C 
ENDBRANCH   7   8
ENDBRANCH   1   7
TORSDOF 2
ENDMDL
