MODEL 1
REMARK minimizedAffinity -5.98111248
REMARK minimizedRMSD -1
REMARK  2 active torsions:
REMARK  status: ('A' for Active; 'I' for Inactive)
REMARK    1  A    between atoms: C2'_3  and  C1'_4 
REMARK    2  A    between atoms: C1'_4  and  C1_5 
ROOT
ATOM      1  C1  I4B d   1       0.116   0.732  -0.583  0.00  0.00    -0.075 A 
ATOM      2  C2  I4B d   1       1.165   1.561  -0.891  0.00  0.00     0.003 A 
ATOM      3  C3  I4B d   1       1.197   2.886  -0.393  0.00  0.00     0.002 A 
ATOM      4  C4  I4B d   1       0.141   3.353   0.364  0.00  0.00    -0.004 A 
ATOM      5  C5  I4B d   1      -0.911   2.503   0.694  0.00  0.00     0.002 A 
ATOM      6  C6  I4B d   1      -0.918   1.181   0.228  0.00  0.00     0.003 A 
ENDROOT
BRANCH   1   7
ATOM      7  C1' I4B d   1       0.098  -0.651  -1.154  0.00  0.00     0.060 C 
BRANCH   7   8
ATOM      8  C2' I4B d   1       0.130  -1.633  -0.000  0.00  0.00    -0.013 C 
ATOM      9  C4' I4B d   1      -0.406  -2.978  -0.414  0.00  0.00     0.013 C 
ATOM     10  C3' I4B d   1       1.547  -1.738   0.479  0.00  0.00     0.013 C 
ENDBRANCH   7   8
ENDBRANCH   1   7
TORSDOF 2
ENDMDL
