MODEL 1
REMARK minimizedAffinity -4.00461912
REMARK minimizedRMSD -1
REMARK  2 active torsions:
REMARK  status: ('A' for Active; 'I' for Inactive)
REMARK    1  A    between atoms: C2'_3  and  C1'_4 
REMARK    2  A    between atoms: C1'_4  and  C1_5 
ROOT
ATOM      1  C1  I4B d   1       0.095  -0.429   0.149  0.00  0.00    -0.075 A 
ATOM      2  C2  I4B d   1       1.269   0.269   0.011  0.00  0.00     0.003 A 
ATOM      3  C3  I4B d   1       1.261   1.685   0.017  0.00  0.00     0.002 A 
ATOM      4  C4  I4B d   1       0.060   2.357   0.113  0.00  0.00    -0.004 A 
ATOM      5  C5  I4B d   1      -1.127   1.648   0.276  0.00  0.00     0.002 A 
ATOM      6  C6  I4B d   1      -1.108   0.246   0.307  0.00  0.00     0.003 A 
ENDROOT
BRANCH   1   7
ATOM      7  C1' I4B d   1       0.136  -1.924   0.106  0.00  0.00     0.060 C 
BRANCH   7   8
ATOM      8  C2' I4B d   1      -0.643  -2.377  -1.112  0.00  0.00    -0.013 C 
ATOM      9  C4' I4B d   1       0.279  -2.752  -2.242  0.00  0.00     0.013 C 
ATOM     10  C3' I4B d   1      -1.503  -3.537  -0.707  0.00  0.00     0.013 C 
ENDBRANCH   7   8
ENDBRANCH   1   7
TORSDOF 2
ENDMDL
