MODEL 1
REMARK minimizedAffinity -4.64775324
REMARK minimizedRMSD -1
REMARK  2 active torsions:
REMARK  status: ('A' for Active; 'I' for Inactive)
REMARK    1  A    between atoms: C2'_3  and  C1'_4 
REMARK    2  A    between atoms: C1'_4  and  C1_5 
ROOT
ATOM      1  C1  I4B d   1      -0.166  -0.059  -0.012  0.00  0.00    -0.075 A 
ATOM      2  C2  I4B d   1       0.837   0.758  -0.473  0.00  0.00     0.003 A 
ATOM      3  C3  I4B d   1       0.627   2.155  -0.575  0.00  0.00     0.002 A 
ATOM      4  C4  I4B d   1      -0.608   2.682  -0.257  0.00  0.00    -0.004 A 
ATOM      5  C5  I4B d   1      -1.615   1.855   0.232  0.00  0.00     0.002 A 
ATOM      6  C6  I4B d   1      -1.389   0.477   0.367  0.00  0.00     0.003 A 
ENDROOT
BRANCH   1   7
ATOM      7  C1' I4B d   1       0.079  -1.533   0.052  0.00  0.00     0.060 C 
BRANCH   7   8
ATOM      8  C2' I4B d   1      -0.786  -2.196  -1.001  0.00  0.00    -0.013 C 
ATOM      9  C4' I4B d   1       0.054  -2.792  -2.100  0.00  0.00     0.013 C 
ATOM     10  C3' I4B d   1      -1.616  -3.246  -0.324  0.00  0.00     0.013 C 
ENDBRANCH   7   8
ENDBRANCH   1   7
TORSDOF 2
ENDMDL
