MODEL 1
REMARK minimizedAffinity -4.5246253
REMARK minimizedRMSD -1
REMARK  2 active torsions:
REMARK  status: ('A' for Active; 'I' for Inactive)
REMARK    1  A    between atoms: C2'_3  and  C1'_4 
REMARK    2  A    between atoms: C1'_4  and  C1_5 
ROOT
ATOM      1  C1  I4B d   1       0.139  -0.306   0.082  0.00  0.00    -0.075 A 
ATOM      2  C2  I4B d   1      -1.190   0.019  -0.038  0.00  0.00     0.003 A 
ATOM      3  C3  I4B d   1      -1.607   1.366   0.081  0.00  0.00     0.002 A 
ATOM      4  C4  I4B d   1      -0.676   2.344   0.367  0.00  0.00    -0.004 A 
ATOM      5  C5  I4B d   1       0.673   2.016   0.466  0.00  0.00     0.002 A 
ATOM      6  C6  I4B d   1       1.085   0.684   0.310  0.00  0.00     0.003 A 
ENDROOT
BRANCH   1   7
ATOM      7  C1' I4B d   1       0.541  -1.744  -0.016  0.00  0.00     0.060 C 
BRANCH   7   8
ATOM      8  C2' I4B d   1      -0.284  -2.385  -1.114  0.00  0.00    -0.013 C 
ATOM      9  C4' I4B d   1       0.595  -2.915  -2.216  0.00  0.00     0.013 C 
ATOM     10  C3' I4B d   1      -1.101  -3.482  -0.498  0.00  0.00     0.013 C 
ENDBRANCH   7   8
ENDBRANCH   1   7
TORSDOF 2
ENDMDL
