MODEL 1
REMARK minimizedAffinity -3.31172562
REMARK minimizedRMSD -1
REMARK  2 active torsions:
REMARK  status: ('A' for Active; 'I' for Inactive)
REMARK    1  A    between atoms: C2'_3  and  C1'_4 
REMARK    2  A    between atoms: C1'_4  and  C1_5 
ROOT
ATOM      1  C1  I4B d   1      -0.296   0.860   0.249  0.00  0.00    -0.075 A 
ATOM      2  C2  I4B d   1       0.528   1.146  -0.812  0.00  0.00     0.003 A 
ATOM      3  C3  I4B d   1       1.203   2.389  -0.875  0.00  0.00     0.002 A 
ATOM      4  C4  I4B d   1       0.989   3.329   0.112  0.00  0.00    -0.004 A 
ATOM      5  C5  I4B d   1       0.172   3.029   1.198  0.00  0.00     0.002 A 
ATOM      6  C6  I4B d   1      -0.465   1.781   1.274  0.00  0.00     0.003 A 
ENDROOT
BRANCH   1   7
ATOM      7  C1' I4B d   1      -1.019  -0.449   0.267  0.00  0.00     0.060 C 
BRANCH   7   8
ATOM      8  C2' I4B d   1      -0.131  -1.483  -0.396  0.00  0.00    -0.013 C 
ATOM      9  C4' I4B d   1       1.079  -1.784   0.449  0.00  0.00     0.013 C 
ATOM     10  C3' I4B d   1      -0.951  -2.717  -0.628  0.00  0.00     0.013 C 
ENDBRANCH   7   8
ENDBRANCH   1   7
TORSDOF 2
ENDMDL
