MODEL 1
REMARK minimizedAffinity 8.33508873
REMARK minimizedRMSD -1
REMARK  2 active torsions:
REMARK  status: ('A' for Active; 'I' for Inactive)
REMARK    1  A    between atoms: C2'_3  and  C1'_4 
REMARK    2  A    between atoms: C1'_4  and  C1_5 
ROOT
ATOM      1  C1  I4B d   1      -0.916  -1.919  -0.178  0.00  0.00    -0.075 A 
ATOM      2  C2  I4B d   1      -1.963  -1.038  -0.281  0.00  0.00     0.003 A 
ATOM      3  C3  I4B d   1      -1.774   0.332   0.025  0.00  0.00     0.002 A 
ATOM      4  C4  I4B d   1      -0.543   0.764   0.475  0.00  0.00    -0.004 A 
ATOM      5  C5  I4B d   1       0.523  -0.127   0.556  0.00  0.00     0.002 A 
ATOM      6  C6  I4B d   1       0.339  -1.475   0.216  0.00  0.00     0.003 A 
ENDROOT
BRANCH   1   7
ATOM      7  C1' I4B d   1      -1.160  -3.365  -0.478  0.00  0.00     0.060 C 
BRANCH   7   8
ATOM      8  C2' I4B d   1      -2.140  -3.444  -1.630  0.00  0.00    -0.013 C 
ATOM      9  C4' I4B d   1      -1.478  -3.982  -2.872  0.00  0.00     0.013 C 
ATOM     10  C3' I4B d   1      -3.284  -4.316  -1.206  0.00  0.00     0.013 C 
ENDBRANCH   7   8
ENDBRANCH   1   7
TORSDOF 2
ENDMDL
