MODEL 1
REMARK minimizedAffinity -0.325799167
REMARK minimizedRMSD -1
REMARK  2 active torsions:
REMARK  status: ('A' for Active; 'I' for Inactive)
REMARK    1  A    between atoms: C2'_3  and  C1'_4 
REMARK    2  A    between atoms: C1'_4  and  C1_5 
ROOT
ATOM      1  C1  I4B d   1      -0.351  -2.494  -1.039  0.00  0.00    -0.075 A 
ATOM      2  C2  I4B d   1      -1.451  -3.237  -0.692  0.00  0.00     0.003 A 
ATOM      3  C3  I4B d   1      -2.072  -4.080  -1.645  0.00  0.00     0.002 A 
ATOM      4  C4  I4B d   1      -1.594  -4.110  -2.939  0.00  0.00    -0.004 A 
ATOM      5  C5  I4B d   1      -0.464  -3.373  -3.284  0.00  0.00     0.002 A 
ATOM      6  C6  I4B d   1       0.169  -2.569  -2.324  0.00  0.00     0.003 A 
ENDROOT
BRANCH   1   7
ATOM      7  C1' I4B d   1       0.260  -1.590  -0.016  0.00  0.00     0.060 C 
BRANCH   7   8
ATOM      8  C2' I4B d   1      -0.273  -0.191  -0.251  0.00  0.00    -0.013 C 
ATOM      9  C4' I4B d   1      -1.359   0.152   0.734  0.00  0.00     0.013 C 
ATOM     10  C3' I4B d   1       0.876   0.766  -0.144  0.00  0.00     0.013 C 
ENDBRANCH   7   8
ENDBRANCH   1   7
TORSDOF 2
ENDMDL
