MODEL 1
REMARK minimizedAffinity 2.05041456
REMARK minimizedRMSD -1
REMARK  2 active torsions:
REMARK  status: ('A' for Active; 'I' for Inactive)
REMARK    1  A    between atoms: C1_2  and  C2_3 
REMARK    2  A    between atoms: C2_3  and  C3_4 
ROOT
ATOM      1  C3  UNL d   1       0.207   0.134   0.418  0.00  0.00    -0.075 A 
ATOM      2  C4  UNL d   1      -0.308   0.639   1.621  0.00  0.00     0.002 A 
ATOM      3  C5  UNL d   1      -1.683   0.632   1.860  0.00  0.00     0.002 A 
ATOM      4  C6  UNL d   1      -2.558   0.132   0.899  0.00  0.00    -0.004 A 
ATOM      5  C7  UNL d   1      -2.059  -0.356  -0.306  0.00  0.00     0.002 A 
ATOM      6  C8  UNL d   1      -0.683  -0.355  -0.547  0.00  0.00     0.002 A 
ENDROOT
BRANCH   1   7
ATOM      7  C2  UNL d   1       1.696   0.111   0.165  0.00  0.00     0.056 C 
BRANCH   7   8
ATOM      8  C1  UNL d   1       2.489  -0.711   1.185  0.00  0.00     0.007 C 
ATOM      9  C   UNL d   1       3.091   0.135   2.300  0.00  0.00     0.009 C 
ENDBRANCH   7   8
ENDBRANCH   1   7
TORSDOF 2
ENDMDL
