MODEL 1
REMARK minimizedAffinity -5.06577063
REMARK minimizedRMSD -1
REMARK  2 active torsions:
REMARK  status: ('A' for Active; 'I' for Inactive)
REMARK    1  A    between atoms: C1_2  and  C2_3 
REMARK    2  A    between atoms: C2_3  and  C3_4 
ROOT
ATOM      1  C3  UNL d   1       0.028  -0.585  -0.704  0.00  0.00    -0.075 A 
ATOM      2  C4  UNL d   1       0.582  -0.022   0.455  0.00  0.00     0.002 A 
ATOM      3  C5  UNL d   1      -0.230   0.623   1.387  0.00  0.00     0.002 A 
ATOM      4  C6  UNL d   1      -1.602   0.723   1.170  0.00  0.00    -0.004 A 
ATOM      5  C7  UNL d   1      -2.162   0.182   0.014  0.00  0.00     0.002 A 
ATOM      6  C8  UNL d   1      -1.352  -0.468  -0.919  0.00  0.00     0.002 A 
ENDROOT
BRANCH   1   7
ATOM      7  C2  UNL d   1       0.897  -1.311  -1.703  0.00  0.00     0.056 C 
BRANCH   7   8
ATOM      8  C1  UNL d   1       0.757  -0.798  -3.140  0.00  0.00     0.007 C 
ATOM      9  C   UNL d   1       1.484   0.518  -3.381  0.00  0.00     0.009 C 
ENDBRANCH   7   8
ENDBRANCH   1   7
TORSDOF 2
ENDMDL
