MODEL 1
REMARK minimizedAffinity -4.72243643
REMARK minimizedRMSD -1
REMARK  2 active torsions:
REMARK  status: ('A' for Active; 'I' for Inactive)
REMARK    1  A    between atoms: C1_2  and  C2_3 
REMARK    2  A    between atoms: C2_3  and  C3_4 
ROOT
ATOM      1  C3  UNL d   1       0.163   0.112   0.285  0.00  0.00    -0.075 A 
ATOM      2  C4  UNL d   1       0.902   0.337   1.455  0.00  0.00     0.002 A 
ATOM      3  C5  UNL d   1       0.272   0.796   2.613  0.00  0.00     0.002 A 
ATOM      4  C6  UNL d   1      -1.099   1.044   2.612  0.00  0.00    -0.004 A 
ATOM      5  C7  UNL d   1      -1.839   0.840   1.450  0.00  0.00     0.002 A 
ATOM      6  C8  UNL d   1      -1.213   0.377   0.291  0.00  0.00     0.002 A 
ENDROOT
BRANCH   1   7
ATOM      7  C2  UNL d   1       0.834  -0.413  -0.963  0.00  0.00     0.056 C 
BRANCH   7   8
ATOM      8  C1  UNL d   1       0.225   0.114  -2.267  0.00  0.00     0.007 C 
ATOM      9  C   UNL d   1       1.258   0.705  -3.216  0.00  0.00     0.009 C 
ENDBRANCH   7   8
ENDBRANCH   1   7
TORSDOF 2
ENDMDL
