MODEL 1
REMARK minimizedAffinity -4.98841858
REMARK minimizedRMSD -1
REMARK  2 active torsions:
REMARK  status: ('A' for Active; 'I' for Inactive)
REMARK    1  A    between atoms: C1_2  and  C2_3 
REMARK    2  A    between atoms: C2_3  and  C3_4 
ROOT
ATOM      1  C3  UNL d   1      -0.020   0.063  -0.227  0.00  0.00    -0.075 A 
ATOM      2  C4  UNL d   1       0.814   0.803   0.624  0.00  0.00     0.002 A 
ATOM      3  C5  UNL d   1       0.323   1.319   1.823  0.00  0.00     0.002 A 
ATOM      4  C6  UNL d   1      -1.007   1.111   2.182  0.00  0.00    -0.004 A 
ATOM      5  C7  UNL d   1      -1.849   0.392   1.337  0.00  0.00     0.002 A 
ATOM      6  C8  UNL d   1      -1.359  -0.130   0.138  0.00  0.00     0.002 A 
ENDROOT
BRANCH   1   7
ATOM      7  C2  UNL d   1       0.513  -0.523  -1.513  0.00  0.00     0.056 C 
BRANCH   7   8
ATOM      8  C1  UNL d   1       1.207   0.496  -2.422  0.00  0.00     0.007 C 
ATOM      9  C   UNL d   1       1.218   0.083  -3.888  0.00  0.00     0.009 C 
ENDBRANCH   7   8
ENDBRANCH   1   7
TORSDOF 2
ENDMDL
