MODEL 1
REMARK minimizedAffinity -4.36424875
REMARK minimizedRMSD -1
REMARK  2 active torsions:
REMARK  status: ('A' for Active; 'I' for Inactive)
REMARK    1  A    between atoms: C1_2  and  C2_3 
REMARK    2  A    between atoms: C2_3  and  C3_4 
ROOT
ATOM      1  C3  UNL d   1       1.124   0.033   1.141  0.00  0.00    -0.075 A 
ATOM      2  C4  UNL d   1       1.812   0.066   2.363  0.00  0.00     0.002 A 
ATOM      3  C5  UNL d   1       1.199   0.579   3.507  0.00  0.00     0.002 A 
ATOM      4  C6  UNL d   1      -0.102   1.073   3.442  0.00  0.00    -0.004 A 
ATOM      5  C7  UNL d   1      -0.788   1.060   2.230  0.00  0.00     0.002 A 
ATOM      6  C8  UNL d   1      -0.179   0.543   1.085  0.00  0.00     0.002 A 
ENDROOT
BRANCH   1   7
ATOM      7  C2  UNL d   1       1.771  -0.548  -0.094  0.00  0.00     0.056 C 
BRANCH   7   8
ATOM      8  C1  UNL d   1       0.777  -1.136  -1.100  0.00  0.00     0.007 C 
ATOM      9  C   UNL d   1       1.114  -0.796  -2.546  0.00  0.00     0.009 C 
ENDBRANCH   7   8
ENDBRANCH   1   7
TORSDOF 2
ENDMDL
