MODEL 1
REMARK minimizedAffinity -6.23016024
REMARK minimizedRMSD -1
REMARK  2 active torsions:
REMARK  status: ('A' for Active; 'I' for Inactive)
REMARK    1  A    between atoms: C1_2  and  C2_3 
REMARK    2  A    between atoms: C2_3  and  C3_4 
ROOT
ATOM      1  C3  UNL d   1      -0.078   0.198   0.849  0.00  0.00    -0.075 A 
ATOM      2  C4  UNL d   1       1.130  -0.320   1.337  0.00  0.00     0.002 A 
ATOM      3  C5  UNL d   1       1.476  -0.168   2.680  0.00  0.00     0.002 A 
ATOM      4  C6  UNL d   1       0.624   0.511   3.548  0.00  0.00    -0.004 A 
ATOM      5  C7  UNL d   1      -0.571   1.045   3.071  0.00  0.00     0.002 A 
ATOM      6  C8  UNL d   1      -0.921   0.890   1.729  0.00  0.00     0.002 A 
ENDROOT
BRANCH   1   7
ATOM      7  C2  UNL d   1      -0.472   0.011  -0.597  0.00  0.00     0.056 C 
BRANCH   7   8
ATOM      8  C1  UNL d   1       0.657  -0.520  -1.487  0.00  0.00     0.007 C 
ATOM      9  C   UNL d   1       0.604   0.021  -2.909  0.00  0.00     0.009 C 
ENDBRANCH   7   8
ENDBRANCH   1   7
TORSDOF 2
ENDMDL
