MODEL 1
REMARK minimizedAffinity -5.56762123
REMARK minimizedRMSD -1
REMARK  2 active torsions:
REMARK  status: ('A' for Active; 'I' for Inactive)
REMARK    1  A    between atoms: C1_2  and  C2_3 
REMARK    2  A    between atoms: C2_3  and  C3_4 
ROOT
ATOM      1  C3  UNL d   1       0.039   0.033   0.551  0.00  0.00    -0.075 A 
ATOM      2  C4  UNL d   1       0.720   0.004   1.777  0.00  0.00     0.002 A 
ATOM      3  C5  UNL d   1       0.192   0.651   2.895  0.00  0.00     0.002 A 
ATOM      4  C6  UNL d   1      -1.014   1.342   2.799  0.00  0.00    -0.004 A 
ATOM      5  C7  UNL d   1      -1.690   1.390   1.582  0.00  0.00     0.002 A 
ATOM      6  C8  UNL d   1      -1.167   0.740   0.463  0.00  0.00     0.002 A 
ENDROOT
BRANCH   1   7
ATOM      7  C2  UNL d   1       0.590  -0.690  -0.655  0.00  0.00     0.056 C 
BRANCH   7   8
ATOM      8  C1  UNL d   1       0.216  -0.045  -1.993  0.00  0.00     0.007 C 
ATOM      9  C   UNL d   1       1.422   0.451  -2.779  0.00  0.00     0.009 C 
ENDBRANCH   7   8
ENDBRANCH   1   7
TORSDOF 2
ENDMDL
