MODEL 1
REMARK minimizedAffinity -2.96324158
REMARK minimizedRMSD -1
REMARK  0 active torsions:
REMARK  status: ('A' for Active; 'I' for Inactive)
ROOT
ATOM      1  N1  IND d   1      -0.108  -0.598  -0.804  0.00  0.00    -0.196 N 
ATOM      2  C2  IND d   1       0.708  -1.670  -0.574  0.00  0.00     0.054 A 
ATOM      3  C3  IND d   1       0.663  -2.025   0.729  0.00  0.00    -0.031 A 
ATOM      4  C4  IND d   1      -0.760  -1.051   2.641  0.00  0.00     0.051 A 
ATOM      5  C5  IND d   1      -1.632  -0.038   2.926  0.00  0.00    -0.031 A 
ATOM      6  C6  IND d   1      -2.051   0.857   1.963  0.00  0.00     0.015 A 
ATOM      7  C7  IND d   1      -1.620   0.764   0.670  0.00  0.00    -0.016 A 
ATOM      8  C8  IND d   1      -0.730  -0.259   0.378  0.00  0.00    -0.047 A 
ATOM      9  C9  IND d   1      -0.268  -1.144   1.360  0.00  0.00    -0.096 A 
ATOM     10  HN1 IND d   1      -0.215  -0.202  -1.560  0.00  0.00     0.298 HD
ENDROOT
TORSDOF 0
ENDMDL
