MODEL 1
REMARK minimizedAffinity -3.23060632
REMARK minimizedRMSD -1
REMARK  0 active torsions:
REMARK  status: ('A' for Active; 'I' for Inactive)
ROOT
ATOM      1  N1  IND d   1       1.154   1.112   0.030  0.00  0.00    -0.196 N 
ATOM      2  C2  IND d   1       0.664   0.678  -1.170  0.00  0.00     0.054 A 
ATOM      3  C3  IND d   1      -0.324  -0.225  -0.976  0.00  0.00    -0.031 A 
ATOM      4  C4  IND d   1      -1.367  -1.060   1.224  0.00  0.00     0.051 A 
ATOM      5  C5  IND d   1      -1.229  -0.978   2.581  0.00  0.00    -0.031 A 
ATOM      6  C6  IND d   1      -0.271  -0.177   3.169  0.00  0.00     0.015 A 
ATOM      7  C7  IND d   1       0.580   0.584   2.419  0.00  0.00    -0.016 A 
ATOM      8  C8  IND d   1       0.446   0.498   1.040  0.00  0.00    -0.047 A 
ATOM      9  C9  IND d   1      -0.495  -0.346   0.437  0.00  0.00    -0.096 A 
ATOM     10  HN1 IND d   1       1.796   1.673   0.136  0.00  0.00     0.298 HD
ENDROOT
TORSDOF 0
ENDMDL
