MODEL 1
REMARK minimizedAffinity -3.38468981
REMARK minimizedRMSD -1
REMARK  0 active torsions:
REMARK  status: ('A' for Active; 'I' for Inactive)
ROOT
ATOM      1  N1  IND d   1       0.377   1.185  -0.515  0.00  0.00    -0.196 N 
ATOM      2  C2  IND d   1       1.461   1.915  -0.114  0.00  0.00     0.054 A 
ATOM      3  C3  IND d   1       1.730   1.680   1.190  0.00  0.00    -0.031 A 
ATOM      4  C4  IND d   1       0.584   0.059   2.830  0.00  0.00     0.051 A 
ATOM      5  C5  IND d   1      -0.476  -0.797   2.934  0.00  0.00    -0.031 A 
ATOM      6  C6  IND d   1      -1.321  -1.043   1.872  0.00  0.00     0.015 A 
ATOM      7  C7  IND d   1      -1.130  -0.449   0.657  0.00  0.00    -0.016 A 
ATOM      8  C8  IND d   1      -0.059   0.427   0.549  0.00  0.00    -0.047 A 
ATOM      9  C9  IND d   1       0.777   0.713   1.636  0.00  0.00    -0.096 A 
ATOM     10  HN1 IND d   1       0.026   1.198  -1.300  0.00  0.00     0.298 HD
ENDROOT
TORSDOF 0
ENDMDL
