MODEL 1
REMARK minimizedAffinity 0.16390039
REMARK minimizedRMSD -1
REMARK  0 active torsions:
REMARK  status: ('A' for Active; 'I' for Inactive)
ROOT
ATOM      1  N1  IND d   1      -3.919  -5.272   4.730  0.00  0.00    -0.196 N 
ATOM      2  C2  IND d   1      -2.695  -4.667   4.657  0.00  0.00     0.054 A 
ATOM      3  C3  IND d   1      -2.361  -4.437   3.367  0.00  0.00    -0.031 A 
ATOM      4  C4  IND d   1      -3.716  -4.878   1.223  0.00  0.00     0.051 A 
ATOM      5  C5  IND d   1      -4.875  -5.450   0.780  0.00  0.00    -0.031 A 
ATOM      6  C6  IND d   1      -5.796  -6.000   1.649  0.00  0.00     0.015 A 
ATOM      7  C7  IND d   1      -5.594  -5.988   3.000  0.00  0.00    -0.016 A 
ATOM      8  C8  IND d   1      -4.414  -5.415   3.453  0.00  0.00    -0.047 A 
ATOM      9  C9  IND d   1      -3.457  -4.894   2.573  0.00  0.00    -0.096 A 
ATOM     10  HN1 IND d   1      -4.313  -5.520   5.453  0.00  0.00     0.298 HD
ENDROOT
TORSDOF 0
ENDMDL
