MODEL 1
REMARK minimizedAffinity 5.37511015
REMARK minimizedRMSD -1
REMARK  0 active torsions:
REMARK  status: ('A' for Active; 'I' for Inactive)
ROOT
ATOM      1  N1  IND d   1       0.050   2.536   3.035  0.00  0.00    -0.196 N 
ATOM      2  C2  IND d   1      -1.136   2.946   3.578  0.00  0.00     0.054 A 
ATOM      3  C3  IND d   1      -2.164   2.254   3.039  0.00  0.00    -0.031 A 
ATOM      4  C4  IND d   1      -2.124   0.333   1.326  0.00  0.00     0.051 A 
ATOM      5  C5  IND d   1      -1.277  -0.369   0.514  0.00  0.00    -0.031 A 
ATOM      6  C6  IND d   1       0.083  -0.136   0.503  0.00  0.00     0.015 A 
ATOM      7  C7  IND d   1       0.651   0.805   1.315  0.00  0.00    -0.016 A 
ATOM      8  C8  IND d   1      -0.207   1.524   2.136  0.00  0.00    -0.047 A 
ATOM      9  C9  IND d   1      -1.592   1.321   2.120  0.00  0.00    -0.096 A 
ATOM     10  HN1 IND d   1       0.826   2.855   3.224  0.00  0.00     0.298 HD
ENDROOT
TORSDOF 0
ENDMDL
