MODEL 1
REMARK minimizedAffinity 0.331708342
REMARK minimizedRMSD -1
REMARK  0 active torsions:
REMARK  status: ('A' for Active; 'I' for Inactive)
ROOT
ATOM      1  N1  IND d   1      -2.223   1.871   2.126  0.00  0.00    -0.196 N 
ATOM      2  C2  IND d   1      -1.115   2.076   2.899  0.00  0.00     0.054 A 
ATOM      3  C3  IND d   1      -1.464   2.624   4.085  0.00  0.00    -0.031 A 
ATOM      4  C4  IND d   1      -3.803   3.175   5.007  0.00  0.00     0.051 A 
ATOM      5  C5  IND d   1      -5.123   3.198   4.653  0.00  0.00    -0.031 A 
ATOM      6  C6  IND d   1      -5.552   2.769   3.413  0.00  0.00     0.015 A 
ATOM      7  C7  IND d   1      -4.675   2.288   2.483  0.00  0.00    -0.016 A 
ATOM      8  C8  IND d   1      -3.334   2.269   2.837  0.00  0.00    -0.047 A 
ATOM      9  C9  IND d   1      -2.887   2.743   4.077  0.00  0.00    -0.096 A 
ATOM     10  HN1 IND d   1      -2.226   1.548   1.329  0.00  0.00     0.298 HD
ENDROOT
TORSDOF 0
ENDMDL
