MODEL 1
REMARK minimizedAffinity 7.67804718
REMARK minimizedRMSD -1
REMARK  0 active torsions:
REMARK  status: ('A' for Active; 'I' for Inactive)
ROOT
ATOM      1  N1  IND d   1      -5.018  -1.628   0.705  0.00  0.00    -0.196 N 
ATOM      2  C2  IND d   1      -5.301  -2.859   1.227  0.00  0.00     0.054 A 
ATOM      3  C3  IND d   1      -4.163  -3.563   1.416  0.00  0.00    -0.031 A 
ATOM      4  C4  IND d   1      -1.718  -2.853   1.033  0.00  0.00     0.051 A 
ATOM      5  C5  IND d   1      -0.958  -1.833   0.532  0.00  0.00    -0.031 A 
ATOM      6  C6  IND d   1      -1.524  -0.668   0.056  0.00  0.00     0.015 A 
ATOM      7  C7  IND d   1      -2.877  -0.474   0.074  0.00  0.00    -0.016 A 
ATOM      8  C8  IND d   1      -3.652  -1.510   0.575  0.00  0.00    -0.047 A 
ATOM      9  C9  IND d   1      -3.086  -2.712   1.020  0.00  0.00    -0.096 A 
ATOM     10  HN1 IND d   1      -5.596  -1.028   0.492  0.00  0.00     0.298 HD
ENDROOT
TORSDOF 0
ENDMDL
