MODEL 1
REMARK minimizedAffinity 1.33258033
REMARK minimizedRMSD -1
REMARK  0 active torsions:
REMARK  status: ('A' for Active; 'I' for Inactive)
ROOT
ATOM      1  N1  IND d   1      -3.744  -4.149   0.454  0.00  0.00    -0.196 N 
ATOM      2  C2  IND d   1      -4.587  -5.126   0.004  0.00  0.00     0.054 A 
ATOM      3  C3  IND d   1      -4.870  -5.998   0.998  0.00  0.00    -0.031 A 
ATOM      4  C4  IND d   1      -4.141  -5.956   3.467  0.00  0.00     0.051 A 
ATOM      5  C5  IND d   1      -3.339  -5.278   4.342  0.00  0.00    -0.031 A 
ATOM      6  C6  IND d   1      -2.618  -4.165   3.959  0.00  0.00     0.015 A 
ATOM      7  C7  IND d   1      -2.682  -3.680   2.683  0.00  0.00    -0.016 A 
ATOM      8  C8  IND d   1      -3.490  -4.370   1.790  0.00  0.00    -0.047 A 
ATOM      9  C9  IND d   1      -4.191  -5.524   2.162  0.00  0.00    -0.096 A 
ATOM     10  HN1 IND d   1      -3.425  -3.505  -0.018  0.00  0.00     0.298 HD
ENDROOT
TORSDOF 0
ENDMDL
