MODEL 1
REMARK minimizedAffinity -4.53940392
REMARK minimizedRMSD -1
REMARK  0 active torsions:
REMARK  status: ('A' for Active; 'I' for Inactive)
ROOT
ATOM      1  N1  IND d   1       1.088  -0.921   1.398  0.00  0.00    -0.196 N 
ATOM      2  C2  IND d   1       0.225  -0.260   2.227  0.00  0.00     0.054 A 
ATOM      3  C3  IND d   1      -0.446   0.694   1.544  0.00  0.00    -0.031 A 
ATOM      4  C4  IND d   1      -0.360   1.278  -0.962  0.00  0.00     0.051 A 
ATOM      5  C5  IND d   1       0.305   0.973  -2.117  0.00  0.00    -0.031 A 
ATOM      6  C6  IND d   1       1.283   0.000  -2.160  0.00  0.00     0.015 A 
ATOM      7  C7  IND d   1       1.625  -0.716  -1.048  0.00  0.00    -0.016 A 
ATOM      8  C8  IND d   1       0.957  -0.404   0.128  0.00  0.00    -0.047 A 
ATOM      9  C9  IND d   1      -0.006   0.611   0.187  0.00  0.00    -0.096 A 
ATOM     10  HN1 IND d   1       1.622  -1.553   1.631  0.00  0.00     0.298 HD
ENDROOT
TORSDOF 0
ENDMDL
