MODEL 1
REMARK minimizedAffinity -3.59721351
REMARK minimizedRMSD -1
REMARK  0 active torsions:
REMARK  status: ('A' for Active; 'I' for Inactive)
ROOT
ATOM      1  N1  IND d   1       1.975  -1.590  -2.230  0.00  0.00    -0.196 N 
ATOM      2  C2  IND d   1       1.316  -1.158  -3.346  0.00  0.00     0.054 A 
ATOM      3  C3  IND d   1       0.304  -0.329  -3.003  0.00  0.00    -0.031 A 
ATOM      4  C4  IND d   1      -0.386   0.535  -0.678  0.00  0.00     0.051 A 
ATOM      5  C5  IND d   1      -0.105   0.391   0.651  0.00  0.00    -0.031 A 
ATOM      6  C6  IND d   1       0.906  -0.435   1.097  0.00  0.00     0.015 A 
ATOM      7  C7  IND d   1       1.685  -1.143   0.226  0.00  0.00    -0.016 A 
ATOM      8  C8  IND d   1       1.398  -1.005  -1.125  0.00  0.00    -0.047 A 
ATOM      9  C9  IND d   1       0.345  -0.201  -1.581  0.00  0.00    -0.096 A 
ATOM     10  HN1 IND d   1       2.639  -2.137  -2.219  0.00  0.00     0.298 HD
ENDROOT
TORSDOF 0
ENDMDL
