MODEL 1
REMARK minimizedAffinity -4.79754162
REMARK minimizedRMSD -1
REMARK  0 active torsions:
REMARK  status: ('A' for Active; 'I' for Inactive)
ROOT
ATOM      1  N1  IND d   1      -0.448  -0.745  -0.431  0.00  0.00    -0.196 N 
ATOM      2  C2  IND d   1       0.257   0.109  -1.232  0.00  0.00     0.054 A 
ATOM      3  C3  IND d   1       0.915   1.022  -0.483  0.00  0.00    -0.031 A 
ATOM      4  C4  IND d   1       1.058   1.238   2.079  0.00  0.00     0.051 A 
ATOM      5  C5  IND d   1       0.554   0.709   3.234  0.00  0.00    -0.031 A 
ATOM      6  C6  IND d   1      -0.325  -0.355   3.226  0.00  0.00     0.015 A 
ATOM      7  C7  IND d   1      -0.726  -0.939   2.058  0.00  0.00    -0.016 A 
ATOM      8  C8  IND d   1      -0.222  -0.400   0.883  0.00  0.00    -0.047 A 
ATOM      9  C9  IND d   1       0.637   0.706   0.883  0.00  0.00    -0.096 A 
ATOM     10  HN1 IND d   1      -0.948  -1.389  -0.703  0.00  0.00     0.298 HD
ENDROOT
TORSDOF 0
ENDMDL
