MODEL 1
REMARK minimizedAffinity -5.15594816
REMARK minimizedRMSD -1
REMARK  0 active torsions:
REMARK  status: ('A' for Active; 'I' for Inactive)
ROOT
ATOM      1  N1  IND d   1       1.336   1.015  -0.110  0.00  0.00    -0.196 N 
ATOM      2  C2  IND d   1       0.646   0.762  -1.263  0.00  0.00     0.054 A 
ATOM      3  C3  IND d   1      -0.442   0.003  -1.003  0.00  0.00    -0.031 A 
ATOM      4  C4  IND d   1      -1.337  -0.853   1.254  0.00  0.00     0.051 A 
ATOM      5  C5  IND d   1      -1.029  -0.908   2.584  0.00  0.00    -0.031 A 
ATOM      6  C6  IND d   1       0.105  -0.311   3.095  0.00  0.00     0.015 A 
ATOM      7  C7  IND d   1       0.971   0.377   2.293  0.00  0.00    -0.016 A 
ATOM      8  C8  IND d   1       0.665   0.429   0.940  0.00  0.00    -0.047 A 
ATOM      9  C9  IND d   1      -0.462  -0.211   0.409  0.00  0.00    -0.096 A 
ATOM     10  HN1 IND d   1       2.067   1.464  -0.051  0.00  0.00     0.298 HD
ENDROOT
TORSDOF 0
ENDMDL
