MODEL 1
REMARK minimizedAffinity -2.83417463
REMARK minimizedRMSD -1
REMARK  0 active torsions:
REMARK  status: ('A' for Active; 'I' for Inactive)
ROOT
ATOM      1  N1  IND d   1       1.212  -0.260   2.570  0.00  0.00    -0.196 N 
ATOM      2  C2  IND d   1       0.314  -0.691   3.506  0.00  0.00     0.054 A 
ATOM      3  C3  IND d   1      -0.939  -0.670   3.000  0.00  0.00    -0.031 A 
ATOM      4  C4  IND d   1      -1.736  -0.061   0.629  0.00  0.00     0.051 A 
ATOM      5  C5  IND d   1      -1.288   0.428  -0.565  0.00  0.00    -0.031 A 
ATOM      6  C6  IND d   1       0.044   0.716  -0.781  0.00  0.00     0.015 A 
ATOM      7  C7  IND d   1       0.983   0.514   0.190  0.00  0.00    -0.016 A 
ATOM      8  C8  IND d   1       0.531   0.024   1.407  0.00  0.00    -0.047 A 
ATOM      9  C9  IND d   1      -0.826  -0.230   1.646  0.00  0.00    -0.096 A 
ATOM     10  HN1 IND d   1       2.060  -0.179   2.688  0.00  0.00     0.298 HD
ENDROOT
TORSDOF 0
ENDMDL
