MODEL 1
REMARK minimizedAffinity -0.570283055
REMARK minimizedRMSD -1
REMARK  0 active torsions:
REMARK  status: ('A' for Active; 'I' for Inactive)
ROOT
ATOM      1  N1  IND d   1       2.141  -1.247  -1.473  0.00  0.00    -0.196 N 
ATOM      2  C2  IND d   1       1.604  -0.898  -2.681  0.00  0.00     0.054 A 
ATOM      3  C3  IND d   1       0.605  -0.003  -2.510  0.00  0.00    -0.031 A 
ATOM      4  C4  IND d   1      -0.247   1.104  -0.347  0.00  0.00     0.051 A 
ATOM      5  C5  IND d   1      -0.091   1.077   1.010  0.00  0.00    -0.031 A 
ATOM      6  C6  IND d   1       0.837   0.259   1.622  0.00  0.00     0.015 A 
ATOM      7  C7  IND d   1       1.656  -0.557   0.894  0.00  0.00    -0.016 A 
ATOM      8  C8  IND d   1       1.496  -0.538  -0.484  0.00  0.00    -0.047 A 
ATOM      9  C9  IND d   1       0.527   0.259  -1.108  0.00  0.00    -0.096 A 
ATOM     10  HN1 IND d   1       2.776  -1.815  -1.352  0.00  0.00     0.298 HD
ENDROOT
TORSDOF 0
ENDMDL
