MODEL 1
REMARK minimizedAffinity 9.88733101
REMARK minimizedRMSD -1
REMARK  0 active torsions:
REMARK  status: ('A' for Active; 'I' for Inactive)
ROOT
ATOM      1  N1  IND d   1       3.540  -1.646  -2.986  0.00  0.00    -0.196 N 
ATOM      2  C2  IND d   1       3.506  -0.297  -2.770  0.00  0.00     0.054 A 
ATOM      3  C3  IND d   1       2.275   0.193  -3.041  0.00  0.00    -0.031 A 
ATOM      4  C4  IND d   1       0.140  -1.055  -3.754  0.00  0.00     0.051 A 
ATOM      5  C5  IND d   1      -0.315  -2.293  -4.115  0.00  0.00    -0.031 A 
ATOM      6  C6  IND d   1       0.507  -3.400  -4.115  0.00  0.00     0.015 A 
ATOM      7  C7  IND d   1       1.819  -3.314  -3.742  0.00  0.00    -0.016 A 
ATOM      8  C8  IND d   1       2.286  -2.058  -3.382  0.00  0.00    -0.047 A 
ATOM      9  C9  IND d   1       1.467  -0.922  -3.421  0.00  0.00    -0.096 A 
ATOM     10  HN1 IND d   1       4.228  -2.152  -2.891  0.00  0.00     0.298 HD
ENDROOT
TORSDOF 0
ENDMDL
