MODEL 1
REMARK minimizedAffinity 19.3086185
REMARK minimizedRMSD -1
REMARK  0 active torsions:
REMARK  status: ('A' for Active; 'I' for Inactive)
ROOT
ATOM      1  N1  IND d   1       4.450  -0.945  -3.250  0.00  0.00    -0.196 N 
ATOM      2  C2  IND d   1       4.914   0.321  -3.478  0.00  0.00     0.054 A 
ATOM      3  C3  IND d   1       4.003   1.235  -3.075  0.00  0.00    -0.031 A 
ATOM      4  C4  IND d   1       1.730   0.881  -1.920  0.00  0.00     0.051 A 
ATOM      5  C5  IND d   1       0.859  -0.099  -1.534  0.00  0.00    -0.031 A 
ATOM      6  C6  IND d   1       1.148  -1.438  -1.701  0.00  0.00     0.015 A 
ATOM      7  C7  IND d   1       2.328  -1.849  -2.252  0.00  0.00    -0.016 A 
ATOM      8  C8  IND d   1       3.212  -0.857  -2.652  0.00  0.00    -0.047 A 
ATOM      9  C9  IND d   1       2.906   0.505  -2.524  0.00  0.00    -0.096 A 
ATOM     10  HN1 IND d   1       4.862  -1.673  -3.447  0.00  0.00     0.298 HD
ENDROOT
TORSDOF 0
ENDMDL
