MODEL 1
REMARK minimizedAffinity -2.06424475
REMARK minimizedRMSD -1
REMARK  0 active torsions:
REMARK  status: ('A' for Active; 'I' for Inactive)
ROOT
ATOM      1  N1  IND d   1       4.778  -0.119  -4.451  0.00  0.00    -0.196 N 
ATOM      2  C2  IND d   1       5.361   1.046  -4.040  0.00  0.00     0.054 A 
ATOM      3  C3  IND d   1       4.682   1.568  -2.993  0.00  0.00    -0.031 A 
ATOM      4  C4  IND d   1       2.647   0.624  -1.730  0.00  0.00     0.051 A 
ATOM      5  C5  IND d   1       1.739  -0.397  -1.761  0.00  0.00    -0.031 A 
ATOM      6  C6  IND d   1       1.800  -1.399  -2.707  0.00  0.00     0.015 A 
ATOM      7  C7  IND d   1       2.783  -1.424  -3.656  0.00  0.00    -0.016 A 
ATOM      8  C8  IND d   1       3.703  -0.385  -3.632  0.00  0.00    -0.047 A 
ATOM      9  C9  IND d   1       3.620   0.658  -2.700  0.00  0.00    -0.096 A 
ATOM     10  HN1 IND d   1       5.039  -0.605  -5.111  0.00  0.00     0.298 HD
ENDROOT
TORSDOF 0
ENDMDL
