MODEL 1
REMARK minimizedAffinity 2.13244581
REMARK minimizedRMSD -1
REMARK  0 active torsions:
REMARK  status: ('A' for Active; 'I' for Inactive)
ROOT
ATOM      1  N1  IND d   1       1.873  -3.466   4.545  0.00  0.00    -0.196 N 
ATOM      2  C2  IND d   1       1.054  -4.025   3.605  0.00  0.00     0.054 A 
ATOM      3  C3  IND d   1       1.253  -3.443   2.401  0.00  0.00    -0.031 A 
ATOM      4  C4  IND d   1       2.944  -1.623   1.724  0.00  0.00     0.051 A 
ATOM      5  C5  IND d   1       3.882  -0.777   2.246  0.00  0.00    -0.031 A 
ATOM      6  C6  IND d   1       4.207  -0.786   3.587  0.00  0.00     0.015 A 
ATOM      7  C7  IND d   1       3.611  -1.653   4.458  0.00  0.00    -0.016 A 
ATOM      8  C8  IND d   1       2.653  -2.509   3.934  0.00  0.00    -0.047 A 
ATOM      9  C9  IND d   1       2.288  -2.476   2.582  0.00  0.00    -0.096 A 
ATOM     10  HN1 IND d   1       1.897  -3.676   5.379  0.00  0.00     0.298 HD
ENDROOT
TORSDOF 0
ENDMDL
