MODEL 1
REMARK minimizedAffinity 19.9308033
REMARK minimizedRMSD -1
REMARK  0 active torsions:
REMARK  status: ('A' for Active; 'I' for Inactive)
ROOT
ATOM      1  N1  IND d   1      -5.449  -5.985  -5.035  0.00  0.00    -0.196 N 
ATOM      2  C2  IND d   1      -5.951  -5.999  -3.764  0.00  0.00     0.054 A 
ATOM      3  C3  IND d   1      -4.946  -5.952  -2.861  0.00  0.00    -0.031 A 
ATOM      4  C4  IND d   1      -2.409  -5.746  -3.246  0.00  0.00     0.051 A 
ATOM      5  C5  IND d   1      -1.468  -5.734  -4.236  0.00  0.00    -0.031 A 
ATOM      6  C6  IND d   1      -1.812  -5.804  -5.571  0.00  0.00     0.015 A 
ATOM      7  C7  IND d   1      -3.118  -5.877  -5.967  0.00  0.00    -0.016 A 
ATOM      8  C8  IND d   1      -4.076  -5.897  -4.963  0.00  0.00    -0.047 A 
ATOM      9  C9  IND d   1      -3.731  -5.869  -3.606  0.00  0.00    -0.096 A 
ATOM     10  HN1 IND d   1      -5.913  -6.025  -5.758  0.00  0.00     0.298 HD
ENDROOT
TORSDOF 0
ENDMDL
