MODEL 1
REMARK minimizedAffinity 18.0308228
REMARK minimizedRMSD -1
REMARK  0 active torsions:
REMARK  status: ('A' for Active; 'I' for Inactive)
ROOT
ATOM      1  N1  IND d   1       2.537   2.905   1.556  0.00  0.00    -0.196 N 
ATOM      2  C2  IND d   1       2.048   2.368   2.714  0.00  0.00     0.054 A 
ATOM      3  C3  IND d   1       0.704   2.239   2.643  0.00  0.00    -0.031 A 
ATOM      4  C4  IND d   1      -0.886   2.751   0.684  0.00  0.00     0.051 A 
ATOM      5  C5  IND d   1      -0.910   3.292  -0.570  0.00  0.00    -0.031 A 
ATOM      6  C6  IND d   1       0.237   3.738  -1.194  0.00  0.00     0.015 A 
ATOM      7  C7  IND d   1       1.458   3.649  -0.588  0.00  0.00    -0.016 A 
ATOM      8  C8  IND d   1       1.485   3.107   0.689  0.00  0.00    -0.047 A 
ATOM      9  C9  IND d   1       0.319   2.692   1.344  0.00  0.00    -0.096 A 
ATOM     10  HN1 IND d   1       3.362   3.087   1.396  0.00  0.00     0.298 HD
ENDROOT
TORSDOF 0
ENDMDL
