MODEL 1
REMARK minimizedAffinity 3.15759015
REMARK minimizedRMSD -1
REMARK  0 active torsions:
REMARK  status: ('A' for Active; 'I' for Inactive)
ROOT
ATOM      1  N1  IND d   1       3.467  -1.104  -3.414  0.00  0.00    -0.196 N 
ATOM      2  C2  IND d   1       2.883  -1.517  -2.249  0.00  0.00     0.054 A 
ATOM      3  C3  IND d   1       3.366  -2.725  -1.882  0.00  0.00    -0.031 A 
ATOM      4  C4  IND d   1       5.195  -4.159  -2.989  0.00  0.00     0.051 A 
ATOM      5  C5  IND d   1       5.997  -4.216  -4.094  0.00  0.00    -0.031 A 
ATOM      6  C6  IND d   1       5.999  -3.218  -5.047  0.00  0.00     0.015 A 
ATOM      7  C7  IND d   1       5.204  -2.114  -4.923  0.00  0.00    -0.016 A 
ATOM      8  C8  IND d   1       4.383  -2.056  -3.806  0.00  0.00    -0.047 A 
ATOM      9  C9  IND d   1       4.345  -3.086  -2.858  0.00  0.00    -0.096 A 
ATOM     10  HN1 IND d   1       3.293  -0.373  -3.831  0.00  0.00     0.298 HD
ENDROOT
TORSDOF 0
ENDMDL
