MODEL 1
REMARK minimizedAffinity 5.70399618
REMARK minimizedRMSD -1
REMARK  0 active torsions:
REMARK  status: ('A' for Active; 'I' for Inactive)
ROOT
ATOM      1  N1  IND d   1       1.154   1.177   2.541  0.00  0.00    -0.196 N 
ATOM      2  C2  IND d   1       0.578   0.016   2.106  0.00  0.00     0.054 A 
ATOM      3  C3  IND d   1       0.146   0.154   0.832  0.00  0.00    -0.031 A 
ATOM      4  C4  IND d   1       0.372   2.162  -0.762  0.00  0.00     0.051 A 
ATOM      5  C5  IND d   1       0.792   3.462  -0.805  0.00  0.00    -0.031 A 
ATOM      6  C6  IND d   1       1.368   4.078   0.287  0.00  0.00     0.015 A 
ATOM      7  C7  IND d   1       1.557   3.411   1.464  0.00  0.00    -0.016 A 
ATOM      8  C8  IND d   1       1.125   2.093   1.513  0.00  0.00    -0.047 A 
ATOM      9  C9  IND d   1       0.501   1.475   0.422  0.00  0.00    -0.096 A 
ATOM     10  HN1 IND d   1       1.479   1.312   3.326  0.00  0.00     0.298 HD
ENDROOT
TORSDOF 0
ENDMDL
