MODEL 1
REMARK minimizedAffinity -1.50806808
REMARK minimizedRMSD -1
REMARK  0 active torsions:
REMARK  status: ('A' for Active; 'I' for Inactive)
ROOT
ATOM      1  N1  IND d   1       1.531  -4.809  -1.845  0.00  0.00    -0.196 N 
ATOM      2  C2  IND d   1       0.898  -3.800  -1.176  0.00  0.00     0.054 A 
ATOM      3  C3  IND d   1       1.756  -2.784  -0.935  0.00  0.00    -0.031 A 
ATOM      4  C4  IND d   1       4.219  -2.522  -1.638  0.00  0.00     0.051 A 
ATOM      5  C5  IND d   1       5.246  -3.197  -2.235  0.00  0.00    -0.031 A 
ATOM      6  C6  IND d   1       5.084  -4.469  -2.746  0.00  0.00     0.015 A 
ATOM      7  C7  IND d   1       3.879  -5.111  -2.688  0.00  0.00    -0.016 A 
ATOM      8  C8  IND d   1       2.836  -4.432  -2.076  0.00  0.00    -0.047 A 
ATOM      9  C9  IND d   1       3.006  -3.158  -1.518  0.00  0.00    -0.096 A 
ATOM     10  HN1 IND d   1       1.175  -5.555  -2.082  0.00  0.00     0.298 HD
ENDROOT
TORSDOF 0
ENDMDL
