MODEL 1
REMARK minimizedAffinity -3.08048558
REMARK minimizedRMSD -1
REMARK  0 active torsions:
REMARK  status: ('A' for Active; 'I' for Inactive)
ROOT
ATOM      1  N1  IND d   1       0.582   3.138  -1.404  0.00  0.00    -0.196 N 
ATOM      2  C2  IND d   1       0.332   4.400  -0.942  0.00  0.00     0.054 A 
ATOM      3  C3  IND d   1      -0.089   4.356   0.342  0.00  0.00    -0.031 A 
ATOM      4  C4  IND d   1      -0.342   2.332   1.912  0.00  0.00     0.051 A 
ATOM      5  C5  IND d   1      -0.266   0.967   1.931  0.00  0.00    -0.031 A 
ATOM      6  C6  IND d   1       0.107   0.242   0.818  0.00  0.00     0.015 A 
ATOM      7  C7  IND d   1       0.430   0.858  -0.358  0.00  0.00    -0.016 A 
ATOM      8  C8  IND d   1       0.347   2.243  -0.383  0.00  0.00    -0.047 A 
ATOM      9  C9  IND d   1      -0.072   2.982   0.731  0.00  0.00    -0.096 A 
ATOM     10  HN1 IND d   1       0.843   2.937  -2.198  0.00  0.00     0.298 HD
ENDROOT
TORSDOF 0
ENDMDL
