MODEL 1
REMARK minimizedAffinity 2.97226
REMARK minimizedRMSD -1
REMARK  0 active torsions:
REMARK  status: ('A' for Active; 'I' for Inactive)
ROOT
ATOM      1  N1  IND d   1       0.485   1.524  -0.820  0.00  0.00    -0.196 N 
ATOM      2  C2  IND d   1       0.586   2.880  -0.677  0.00  0.00     0.054 A 
ATOM      3  C3  IND d   1       0.576   3.217   0.632  0.00  0.00    -0.031 A 
ATOM      4  C4  IND d   1       0.505   1.701   2.711  0.00  0.00     0.051 A 
ATOM      5  C5  IND d   1       0.371   0.394   3.087  0.00  0.00    -0.031 A 
ATOM      6  C6  IND d   1       0.269  -0.624   2.161  0.00  0.00     0.015 A 
ATOM      7  C7  IND d   1       0.309  -0.373   0.819  0.00  0.00    -0.016 A 
ATOM      8  C8  IND d   1       0.438   0.954   0.434  0.00  0.00    -0.047 A 
ATOM      9  C9  IND d   1       0.499   1.996   1.368  0.00  0.00    -0.096 A 
ATOM     10  HN1 IND d   1       0.457   1.099  -1.566  0.00  0.00     0.298 HD
ENDROOT
TORSDOF 0
ENDMDL
