MODEL 1
REMARK minimizedAffinity 15.1745453
REMARK minimizedRMSD -1
REMARK  0 active torsions:
REMARK  status: ('A' for Active; 'I' for Inactive)
ROOT
ATOM      1  N1  IND d   1       2.059   4.290  -1.291  0.00  0.00    -0.196 N 
ATOM      2  C2  IND d   1       1.754   5.321  -2.136  0.00  0.00     0.054 A 
ATOM      3  C3  IND d   1       0.413   5.450  -2.255  0.00  0.00    -0.031 A 
ATOM      4  C4  IND d   1      -1.467   4.144  -1.077  0.00  0.00     0.051 A 
ATOM      5  C5  IND d   1      -1.683   3.084  -0.243  0.00  0.00    -0.031 A 
ATOM      6  C6  IND d   1      -0.641   2.358   0.299  0.00  0.00     0.015 A 
ATOM      7  C7  IND d   1       0.661   2.675   0.033  0.00  0.00    -0.016 A 
ATOM      8  C8  IND d   1       0.884   3.747  -0.820  0.00  0.00    -0.047 A 
ATOM      9  C9  IND d   1      -0.170   4.460  -1.406  0.00  0.00    -0.096 A 
ATOM     10  HN1 IND d   1       2.851   4.026  -1.088  0.00  0.00     0.298 HD
ENDROOT
TORSDOF 0
ENDMDL
