MODEL 1
REMARK minimizedAffinity 16.4107838
REMARK minimizedRMSD -1
REMARK  0 active torsions:
REMARK  status: ('A' for Active; 'I' for Inactive)
ROOT
ATOM      1  N1  IND d   1      -5.059  -5.997  -5.961  0.00  0.00    -0.196 N 
ATOM      2  C2  IND d   1      -5.999  -5.317  -5.238  0.00  0.00     0.054 A 
ATOM      3  C3  IND d   1      -5.402  -4.478  -4.361  0.00  0.00    -0.031 A 
ATOM      4  C4  IND d   1      -2.899  -3.986  -4.015  0.00  0.00     0.051 A 
ATOM      5  C5  IND d   1      -1.656  -4.388  -4.417  0.00  0.00    -0.031 A 
ATOM      6  C6  IND d   1      -1.481  -5.364  -5.376  0.00  0.00     0.015 A 
ATOM      7  C7  IND d   1      -2.546  -5.970  -5.979  0.00  0.00    -0.016 A 
ATOM      8  C8  IND d   1      -3.810  -5.569  -5.568  0.00  0.00    -0.047 A 
ATOM      9  C9  IND d   1      -3.994  -4.609  -4.565  0.00  0.00    -0.096 A 
ATOM     10  HN1 IND d   1      -5.221  -6.591  -6.561  0.00  0.00     0.298 HD
ENDROOT
TORSDOF 0
ENDMDL
