MODEL 1
REMARK minimizedAffinity 8.15388966
REMARK minimizedRMSD -1
REMARK  0 active torsions:
REMARK  status: ('A' for Active; 'I' for Inactive)
ROOT
ATOM      1  N1  IND d   1      -2.081   2.245  -0.917  0.00  0.00    -0.196 N 
ATOM      2  C2  IND d   1      -2.477   2.720  -2.136  0.00  0.00     0.054 A 
ATOM      3  C3  IND d   1      -1.555   3.577  -2.630  0.00  0.00    -0.031 A 
ATOM      4  C4  IND d   1       0.724   4.267  -1.652  0.00  0.00     0.051 A 
ATOM      5  C5  IND d   1       1.508   4.124  -0.542  0.00  0.00    -0.031 A 
ATOM      6  C6  IND d   1       1.129   3.330   0.521  0.00  0.00     0.015 A 
ATOM      7  C7  IND d   1      -0.048   2.636   0.507  0.00  0.00    -0.016 A 
ATOM      8  C8  IND d   1      -0.850   2.784  -0.616  0.00  0.00    -0.047 A 
ATOM      9  C9  IND d   1      -0.490   3.623  -1.679  0.00  0.00    -0.096 A 
ATOM     10  HN1 IND d   1      -2.527   1.702  -0.421  0.00  0.00     0.298 HD
ENDROOT
TORSDOF 0
ENDMDL
