MODEL 1
REMARK minimizedAffinity 1.26107192
REMARK minimizedRMSD -1
REMARK  0 active torsions:
REMARK  status: ('A' for Active; 'I' for Inactive)
ROOT
ATOM      1  N1  IND d   1      -3.014   5.999  -0.133  0.00  0.00    -0.196 N 
ATOM      2  C2  IND d   1      -3.428   6.000   1.170  0.00  0.00     0.054 A 
ATOM      3  C3  IND d   1      -2.807   5.017   1.861  0.00  0.00    -0.031 A 
ATOM      4  C4  IND d   1      -1.001   3.358   1.079  0.00  0.00     0.051 A 
ATOM      5  C5  IND d   1      -0.325   2.947  -0.036  0.00  0.00    -0.031 A 
ATOM      6  C6  IND d   1      -0.513   3.547  -1.264  0.00  0.00     0.015 A 
ATOM      7  C7  IND d   1      -1.379   4.592  -1.422  0.00  0.00    -0.016 A 
ATOM      8  C8  IND d   1      -2.072   5.007  -0.293  0.00  0.00    -0.047 A 
ATOM      9  C9  IND d   1      -1.917   4.374   0.947  0.00  0.00    -0.096 A 
ATOM     10  HN1 IND d   1      -3.294   6.530  -0.749  0.00  0.00     0.298 HD
ENDROOT
TORSDOF 0
ENDMDL
