MODEL 1
REMARK minimizedAffinity -3.61167717
REMARK minimizedRMSD -1
REMARK  1 active torsions:
REMARK  status: ('A' for Active; 'I' for Inactive)
REMARK    1  A    between atoms: C1_2  and  C2_3 
ROOT
ATOM      1  C2  UNL d   1       0.677   0.981   1.998  0.00  0.00    -0.076 A 
ATOM      2  C3  UNL d   1       1.395  -0.146   1.560  0.00  0.00     0.004 A 
ATOM      3  C4  UNL d   1       0.880  -0.987   0.575  0.00  0.00    -0.003 A 
ATOM      4  C5  UNL d   1      -0.361  -0.714   0.011  0.00  0.00     0.000 A 
ATOM      5  C6  UNL d   1      -1.080   0.409   0.421  0.00  0.00     0.000 A 
ATOM      6  C7  UNL d   1      -0.567   1.276   1.401  0.00  0.00    -0.073 A 
ATOM      7  C8  UNL d   1      -1.387   2.469   1.809  0.00  0.00     0.078 C 
ENDROOT
BRANCH   1   8
ATOM      8  C1  UNL d   1       1.274   1.841   3.089  0.00  0.00     0.053 C 
ATOM      9  C   UNL d   1       2.045   3.030   2.537  0.00  0.00     0.018 C 
ENDBRANCH   1   8
TORSDOF 1
ENDMDL
