MODEL 1
REMARK minimizedAffinity -4.62388229
REMARK minimizedRMSD -1
REMARK  1 active torsions:
REMARK  status: ('A' for Active; 'I' for Inactive)
REMARK    1  A    between atoms: C1_2  and  C2_3 
ROOT
ATOM      1  C2  UNL d   1       0.012   0.566   0.152  0.00  0.00    -0.076 A 
ATOM      2  C3  UNL d   1      -0.782   1.597  -0.380  0.00  0.00     0.004 A 
ATOM      3  C4  UNL d   1      -1.145   2.697   0.396  0.00  0.00    -0.003 A 
ATOM      4  C5  UNL d   1      -0.718   2.784   1.717  0.00  0.00     0.000 A 
ATOM      5  C6  UNL d   1       0.085   1.780   2.256  0.00  0.00     0.000 A 
ATOM      6  C7  UNL d   1       0.473   0.672   1.482  0.00  0.00    -0.073 A 
ATOM      7  C8  UNL d   1       1.335  -0.385   2.116  0.00  0.00     0.078 C 
ENDROOT
BRANCH   1   8
ATOM      8  C1  UNL d   1       0.351  -0.615  -0.728  0.00  0.00     0.053 C 
ATOM      9  C   UNL d   1      -0.770  -1.642  -0.782  0.00  0.00     0.018 C 
ENDBRANCH   1   8
TORSDOF 1
ENDMDL
