MODEL 1
REMARK minimizedAffinity -6.64025736
REMARK minimizedRMSD -1
REMARK  1 active torsions:
REMARK  status: ('A' for Active; 'I' for Inactive)
REMARK    1  A    between atoms: C1_2  and  C2_3 
ROOT
ATOM      1  C2  UNL d   1      -0.072   0.716   0.019  0.00  0.00    -0.076 A 
ATOM      2  C3  UNL d   1      -0.361   1.734  -0.907  0.00  0.00     0.004 A 
ATOM      3  C4  UNL d   1      -0.779   2.993  -0.482  0.00  0.00    -0.003 A 
ATOM      4  C5  UNL d   1      -0.914   3.257   0.877  0.00  0.00     0.000 A 
ATOM      5  C6  UNL d   1      -0.613   2.265   1.810  0.00  0.00     0.000 A 
ATOM      6  C7  UNL d   1      -0.175   0.995   1.398  0.00  0.00    -0.073 A 
ATOM      7  C8  UNL d   1       0.129  -0.039   2.448  0.00  0.00     0.078 C 
ENDROOT
BRANCH   1   8
ATOM      8  C1  UNL d   1       0.351  -0.638  -0.503  0.00  0.00     0.053 C 
ATOM      9  C   UNL d   1       1.004  -0.557  -1.874  0.00  0.00     0.018 C 
ENDBRANCH   1   8
TORSDOF 1
ENDMDL
