MODEL 1
REMARK minimizedAffinity -4.86165762
REMARK minimizedRMSD -1
REMARK  1 active torsions:
REMARK  status: ('A' for Active; 'I' for Inactive)
REMARK    1  A    between atoms: C1_2  and  C2_3 
ROOT
ATOM      1  C2  UNL d   1       0.014   0.186   0.208  0.00  0.00    -0.076 A 
ATOM      2  C3  UNL d   1      -1.186   0.845  -0.114  0.00  0.00     0.004 A 
ATOM      3  C4  UNL d   1      -1.808   1.691   0.803  0.00  0.00    -0.003 A 
ATOM      4  C5  UNL d   1      -1.240   1.893   2.056  0.00  0.00     0.000 A 
ATOM      5  C6  UNL d   1      -0.041   1.262   2.386  0.00  0.00     0.000 A 
ATOM      6  C7  UNL d   1       0.607   0.418   1.467  0.00  0.00    -0.073 A 
ATOM      7  C8  UNL d   1       1.895  -0.242   1.878  0.00  0.00     0.078 C 
ENDROOT
BRANCH   1   8
ATOM      8  C1  UNL d   1       0.628  -0.741  -0.816  0.00  0.00     0.053 C 
ATOM      9  C   UNL d   1      -0.189  -2.007  -1.021  0.00  0.00     0.018 C 
ENDBRANCH   1   8
TORSDOF 1
ENDMDL
