MODEL 1
REMARK minimizedAffinity -3.68985057
REMARK minimizedRMSD -1
REMARK  1 active torsions:
REMARK  status: ('A' for Active; 'I' for Inactive)
REMARK    1  A    between atoms: C1_2  and  C2_3 
ROOT
ATOM      1  C2  UNL d   1      -0.064   0.695   1.146  0.00  0.00    -0.076 A 
ATOM      2  C3  UNL d   1       0.333   1.359   2.320  0.00  0.00     0.004 A 
ATOM      3  C4  UNL d   1       1.351   0.849   3.123  0.00  0.00    -0.003 A 
ATOM      4  C5  UNL d   1       1.990  -0.333   2.766  0.00  0.00     0.000 A 
ATOM      5  C6  UNL d   1       1.621  -0.996   1.596  0.00  0.00     0.000 A 
ATOM      6  C7  UNL d   1       0.608  -0.487   0.766  0.00  0.00    -0.073 A 
ATOM      7  C8  UNL d   1       0.246  -1.246  -0.481  0.00  0.00     0.078 C 
ENDROOT
BRANCH   1   8
ATOM      8  C1  UNL d   1      -1.193   1.281   0.329  0.00  0.00     0.053 C 
ATOM      9  C   UNL d   1      -2.336   1.789   1.194  0.00  0.00     0.018 C 
ENDBRANCH   1   8
TORSDOF 1
ENDMDL
