MODEL 1
REMARK minimizedAffinity 5.2585125
REMARK minimizedRMSD -1
REMARK  1 active torsions:
REMARK  status: ('A' for Active; 'I' for Inactive)
REMARK    1  A    between atoms: C1_2  and  C2_3 
ROOT
ATOM      1  C2  UNL d   1      -0.547   2.823  -0.598  0.00  0.00    -0.076 A 
ATOM      2  C3  UNL d   1      -1.808   3.441  -0.644  0.00  0.00     0.004 A 
ATOM      3  C4  UNL d   1      -2.943   2.730  -1.032  0.00  0.00    -0.003 A 
ATOM      4  C5  UNL d   1      -2.834   1.388  -1.378  0.00  0.00     0.000 A 
ATOM      5  C6  UNL d   1      -1.593   0.753  -1.321  0.00  0.00     0.000 A 
ATOM      6  C7  UNL d   1      -0.443   1.452  -0.917  0.00  0.00    -0.073 A 
ATOM      7  C8  UNL d   1       0.870   0.719  -0.879  0.00  0.00     0.078 C 
ENDROOT
BRANCH   1   8
ATOM      8  C1  UNL d   1       0.652   3.652  -0.196  0.00  0.00     0.053 C 
ATOM      9  C   UNL d   1       0.379   4.520   1.022  0.00  0.00     0.018 C 
ENDBRANCH   1   8
TORSDOF 1
ENDMDL
