MODEL 1
REMARK minimizedAffinity -3.45527959
REMARK minimizedRMSD -1
REMARK  0 active torsions:
REMARK  status: ('A' for Active; 'I' for Inactive)
ROOT
ATOM      1  C1  DEN d   1       2.799  -1.039   1.182  0.00  0.00     0.130 A 
ATOM      2  C2  DEN d   1       3.628   0.006   1.775  0.00  0.00    -0.031 A 
ATOM      3  C3  DEN d   1       2.894   1.284   1.674  0.00  0.00     0.027 A 
ATOM      4  C4  DEN d   1       0.566   1.742   0.664  0.00  0.00     0.027 A 
ATOM      5  C5  DEN d   1      -0.515   1.170   0.030  0.00  0.00    -0.003 A 
ATOM      6  C6  DEN d   1      -0.552  -0.161  -0.293  0.00  0.00     0.001 A 
ATOM      7  C7  DEN d   1       0.493  -0.974   0.059  0.00  0.00     0.017 A 
ATOM      8  C8  DEN d   1       1.589  -0.403   0.692  0.00  0.00    -0.094 A 
ATOM      9  C9  DEN d   1       1.602   0.942   1.020  0.00  0.00    -0.072 A 
ENDROOT
TORSDOF 0
ENDMDL
