MODEL 1
REMARK minimizedAffinity -2.90758061
REMARK minimizedRMSD -1
REMARK  0 active torsions:
REMARK  status: ('A' for Active; 'I' for Inactive)
ROOT
ATOM      1  C1  DEN d   1      -0.227   0.668  -0.218  0.00  0.00     0.130 A 
ATOM      2  C2  DEN d   1      -1.588   0.141  -0.250  0.00  0.00    -0.031 A 
ATOM      3  C3  DEN d   1      -1.591  -1.158   0.454  0.00  0.00     0.027 A 
ATOM      4  C4  DEN d   1       0.369  -2.392   1.588  0.00  0.00     0.027 A 
ATOM      5  C5  DEN d   1       1.717  -2.343   1.864  0.00  0.00    -0.003 A 
ATOM      6  C6  DEN d   1       2.512  -1.312   1.439  0.00  0.00     0.001 A 
ATOM      7  C7  DEN d   1       1.957  -0.264   0.754  0.00  0.00     0.017 A 
ATOM      8  C8  DEN d   1       0.599  -0.310   0.465  0.00  0.00    -0.094 A 
ATOM      9  C9  DEN d   1      -0.190  -1.356   0.914  0.00  0.00    -0.072 A 
ENDROOT
TORSDOF 0
ENDMDL
