MODEL 1
REMARK minimizedAffinity -4.8527956
REMARK minimizedRMSD -1
REMARK  0 active torsions:
REMARK  status: ('A' for Active; 'I' for Inactive)
ROOT
ATOM      1  C1  DEN d   1       1.821  -1.092   0.702  0.00  0.00     0.130 A 
ATOM      2  C2  DEN d   1       2.992  -0.224   0.789  0.00  0.00    -0.031 A 
ATOM      3  C3  DEN d   1       2.529   1.176   0.718  0.00  0.00     0.027 A 
ATOM      4  C4  DEN d   1       0.124   2.079   0.486  0.00  0.00     0.027 A 
ATOM      5  C5  DEN d   1      -1.201   1.725   0.362  0.00  0.00    -0.003 A 
ATOM      6  C6  DEN d   1      -1.605   0.417   0.310  0.00  0.00     0.001 A 
ATOM      7  C7  DEN d   1      -0.679  -0.585   0.426  0.00  0.00     0.017 A 
ATOM      8  C8  DEN d   1       0.660  -0.235   0.543  0.00  0.00    -0.094 A 
ATOM      9  C9  DEN d   1       1.047   1.092   0.607  0.00  0.00    -0.072 A 
ENDROOT
TORSDOF 0
ENDMDL
