MODEL 1
REMARK minimizedAffinity -6.09780169
REMARK minimizedRMSD -1
REMARK  0 active torsions:
REMARK  status: ('A' for Active; 'I' for Inactive)
ROOT
ATOM      1  C1  DEN d   1       0.989   1.289  -1.226  0.00  0.00     0.130 A 
ATOM      2  C2  DEN d   1       0.469   0.220  -2.075  0.00  0.00    -0.031 A 
ATOM      3  C3  DEN d   1       0.808  -1.070  -1.442  0.00  0.00     0.027 A 
ATOM      4  C4  DEN d   1       2.077  -1.515   0.759  0.00  0.00     0.027 A 
ATOM      5  C5  DEN d   1       2.723  -0.923   1.821  0.00  0.00    -0.003 A 
ATOM      6  C6  DEN d   1       2.865   0.436   1.924  0.00  0.00     0.001 A 
ATOM      7  C7  DEN d   1       2.314   1.250   0.970  0.00  0.00     0.017 A 
ATOM      8  C8  DEN d   1       1.667   0.660  -0.108  0.00  0.00    -0.094 A 
ATOM      9  C9  DEN d   1       1.524  -0.715  -0.187  0.00  0.00    -0.072 A 
ENDROOT
TORSDOF 0
ENDMDL
