MODEL 1
REMARK minimizedAffinity -1.70276523
REMARK minimizedRMSD -1
REMARK  0 active torsions:
REMARK  status: ('A' for Active; 'I' for Inactive)
ROOT
ATOM      1  C1  DEN d   1       2.780  -0.335   1.115  0.00  0.00     0.130 A 
ATOM      2  C2  DEN d   1       2.842   1.060   0.689  0.00  0.00    -0.031 A 
ATOM      3  C3  DEN d   1       1.520   1.431   0.146  0.00  0.00     0.027 A 
ATOM      4  C4  DEN d   1      -0.608  -0.010  -0.070  0.00  0.00     0.027 A 
ATOM      5  C5  DEN d   1      -1.143  -1.261   0.147  0.00  0.00    -0.003 A 
ATOM      6  C6  DEN d   1      -0.405  -2.291   0.665  0.00  0.00     0.001 A 
ATOM      7  C7  DEN d   1       0.898  -2.077   1.027  0.00  0.00     0.017 A 
ATOM      8  C8  DEN d   1       1.447  -0.821   0.805  0.00  0.00    -0.094 A 
ATOM      9  C9  DEN d   1       0.681   0.211   0.291  0.00  0.00    -0.072 A 
ENDROOT
TORSDOF 0
ENDMDL
