MODEL 1
REMARK minimizedAffinity -4.22248459
REMARK minimizedRMSD -1
REMARK  0 active torsions:
REMARK  status: ('A' for Active; 'I' for Inactive)
ROOT
ATOM      1  C1  DEN d   1      -0.564  -1.103   0.235  0.00  0.00     0.130 A 
ATOM      2  C2  DEN d   1      -1.644  -0.275  -0.293  0.00  0.00    -0.031 A 
ATOM      3  C3  DEN d   1      -1.111   1.084  -0.516  0.00  0.00     0.027 A 
ATOM      4  C4  DEN d   1       1.273   1.979  -0.103  0.00  0.00     0.027 A 
ATOM      5  C5  DEN d   1       2.532   1.652   0.349  0.00  0.00    -0.003 A 
ATOM      6  C6  DEN d   1       2.837   0.403   0.822  0.00  0.00     0.001 A 
ATOM      7  C7  DEN d   1       1.881  -0.578   0.813  0.00  0.00     0.017 A 
ATOM      8  C8  DEN d   1       0.606  -0.253   0.366  0.00  0.00    -0.094 A 
ATOM      9  C9  DEN d   1       0.322   1.011  -0.120  0.00  0.00    -0.072 A 
ENDROOT
TORSDOF 0
ENDMDL
