MODEL 1
REMARK minimizedAffinity 6.18208456
REMARK minimizedRMSD -1
REMARK  0 active torsions:
REMARK  status: ('A' for Active; 'I' for Inactive)
ROOT
ATOM      1  C   UNL d   1       4.118   4.992   1.467  0.00  0.00     0.020 A 
ATOM      2  C1  UNL d   1       4.022   3.747   0.846  0.00  0.00     0.020 A 
ATOM      3  C2  UNL d   1       3.994   2.583   1.616  0.00  0.00     0.034 A 
ATOM      4  C3  UNL d   1       4.063   2.660   3.012  0.00  0.00     0.017 A 
ATOM      5  C4  UNL d   1       4.160   3.910   3.634  0.00  0.00     0.017 A 
ATOM      6  C5  UNL d   1       4.187   5.073   2.858  0.00  0.00     0.034 A 
ATOM      7 Cl   UNL d   1       4.249   4.086   5.351  0.00  0.00    -0.070 Cl
ATOM      8 Cl1  UNL d   1       4.023   1.180   3.902  0.00  0.00    -0.070 Cl
ENDROOT
TORSDOF 0
ENDMDL
