MODEL 1
REMARK minimizedAffinity 15.4866743
REMARK minimizedRMSD -1
REMARK  0 active torsions:
REMARK  status: ('A' for Active; 'I' for Inactive)
ROOT
ATOM      1  C   UNL d   1      -0.385  -0.839   2.448  0.00  0.00     0.020 A 
ATOM      2  C1  UNL d   1       0.875  -0.908   1.856  0.00  0.00     0.020 A 
ATOM      3  C2  UNL d   1       1.944  -0.196   2.404  0.00  0.00     0.034 A 
ATOM      4  C3  UNL d   1       1.755   0.589   3.547  0.00  0.00     0.017 A 
ATOM      5  C4  UNL d   1       0.490   0.657   4.141  0.00  0.00     0.017 A 
ATOM      6  C5  UNL d   1      -0.577  -0.058   3.589  0.00  0.00     0.034 A 
ATOM      7 Cl   UNL d   1       0.179   1.604   5.554  0.00  0.00    -0.070 Cl
ATOM      8 Cl1  UNL d   1       3.122   1.442   4.171  0.00  0.00    -0.070 Cl
ENDROOT
TORSDOF 0
ENDMDL
