MODEL 1
REMARK minimizedAffinity 10.8796911
REMARK minimizedRMSD -1
REMARK  0 active torsions:
REMARK  status: ('A' for Active; 'I' for Inactive)
ROOT
ATOM      1  C   UNL d   1       1.272   0.303   2.096  0.00  0.00     0.020 A 
ATOM      2  C1  UNL d   1       1.874  -0.643   2.924  0.00  0.00     0.020 A 
ATOM      3  C2  UNL d   1       1.147  -1.752   3.362  0.00  0.00     0.034 A 
ATOM      4  C3  UNL d   1      -0.187  -1.917   2.972  0.00  0.00     0.017 A 
ATOM      5  C4  UNL d   1      -0.791  -0.968   2.140  0.00  0.00     0.017 A 
ATOM      6  C5  UNL d   1      -0.058   0.141   1.704  0.00  0.00     0.034 A 
ATOM      7 Cl   UNL d   1      -2.432  -1.104   1.616  0.00  0.00    -0.070 Cl
ATOM      8 Cl1  UNL d   1      -1.026  -3.312   3.551  0.00  0.00    -0.070 Cl
ENDROOT
TORSDOF 0
ENDMDL
