MODEL 1
REMARK minimizedAffinity 10.0374222
REMARK minimizedRMSD -1
REMARK  0 active torsions:
REMARK  status: ('A' for Active; 'I' for Inactive)
ROOT
ATOM      1  C   UNL d   1       3.472   4.695   1.129  0.00  0.00     0.020 A 
ATOM      2  C1  UNL d   1       3.458   5.080   2.469  0.00  0.00     0.020 A 
ATOM      3  C2  UNL d   1       3.804   4.163   3.463  0.00  0.00     0.034 A 
ATOM      4  C3  UNL d   1       4.166   2.855   3.118  0.00  0.00     0.017 A 
ATOM      5  C4  UNL d   1       4.180   2.469   1.773  0.00  0.00     0.017 A 
ATOM      6  C5  UNL d   1       3.832   3.392   0.782  0.00  0.00     0.034 A 
ATOM      7 Cl   UNL d   1       4.615   0.874   1.271  0.00  0.00    -0.070 Cl
ATOM      8 Cl1  UNL d   1       4.582   1.773   4.399  0.00  0.00    -0.070 Cl
ENDROOT
TORSDOF 0
ENDMDL
