MODEL 1
REMARK minimizedAffinity 13.8764248
REMARK minimizedRMSD -1
REMARK  0 active torsions:
REMARK  status: ('A' for Active; 'I' for Inactive)
ROOT
ATOM      1  C   UNL d   1       0.854  -0.069  -5.108  0.00  0.00     0.020 A 
ATOM      2  C1  UNL d   1       0.046  -0.937  -5.842  0.00  0.00     0.020 A 
ATOM      3  C2  UNL d   1       0.411  -2.277  -5.984  0.00  0.00     0.034 A 
ATOM      4  C3  UNL d   1       1.586  -2.754  -5.392  0.00  0.00     0.017 A 
ATOM      5  C4  UNL d   1       2.396  -1.882  -4.655  0.00  0.00     0.017 A 
ATOM      6  C5  UNL d   1       2.026  -0.540  -4.516  0.00  0.00     0.034 A 
ATOM      7 Cl   UNL d   1       3.860  -2.396  -3.895  0.00  0.00    -0.070 Cl
ATOM      8 Cl1  UNL d   1       1.976  -4.423  -5.608  0.00  0.00    -0.070 Cl
ENDROOT
TORSDOF 0
ENDMDL
