MODEL 1
REMARK minimizedAffinity 4.72310495
REMARK minimizedRMSD -1
REMARK  0 active torsions:
REMARK  status: ('A' for Active; 'I' for Inactive)
ROOT
ATOM      1  C   UNL d   1       4.182   5.995   1.878  0.00  0.00     0.020 A 
ATOM      2  C1  UNL d   1       3.752   4.789   1.326  0.00  0.00     0.020 A 
ATOM      3  C2  UNL d   1       4.013   3.586   1.986  0.00  0.00     0.034 A 
ATOM      4  C3  UNL d   1       4.707   3.587   3.202  0.00  0.00     0.017 A 
ATOM      5  C4  UNL d   1       5.138   4.799   3.755  0.00  0.00     0.017 A 
ATOM      6  C5  UNL d   1       4.874   6.000   3.089  0.00  0.00     0.034 A 
ATOM      7 Cl   UNL d   1       6.000   4.880   5.251  0.00  0.00    -0.070 Cl
ATOM      8 Cl1  UNL d   1       4.995   2.064   3.964  0.00  0.00    -0.070 Cl
ENDROOT
TORSDOF 0
ENDMDL
