MODEL 1
REMARK minimizedAffinity 8.45200729
REMARK minimizedRMSD -1
REMARK  0 active torsions:
REMARK  status: ('A' for Active; 'I' for Inactive)
ROOT
ATOM      1  C   UNL d   1       5.990   2.918   4.677  0.00  0.00     0.020 A 
ATOM      2  C1  UNL d   1       5.597   1.585   4.574  0.00  0.00     0.020 A 
ATOM      3  C2  UNL d   1       4.294   1.213   4.911  0.00  0.00     0.034 A 
ATOM      4  C3  UNL d   1       3.379   2.176   5.353  0.00  0.00     0.017 A 
ATOM      5  C4  UNL d   1       3.775   3.514   5.456  0.00  0.00     0.017 A 
ATOM      6  C5  UNL d   1       5.081   3.881   5.117  0.00  0.00     0.034 A 
ATOM      7 Cl   UNL d   1       2.703   4.759   5.993  0.00  0.00    -0.070 Cl
ATOM      8 Cl1  UNL d   1       1.784   1.645   5.753  0.00  0.00    -0.070 Cl
ENDROOT
TORSDOF 0
ENDMDL
