MODEL 1
REMARK minimizedAffinity 6.42156982
REMARK minimizedRMSD -1
REMARK  0 active torsions:
REMARK  status: ('A' for Active; 'I' for Inactive)
ROOT
ATOM      1  C   UNL d   1       0.096  -0.268   3.092  0.00  0.00     0.020 A 
ATOM      2  C1  UNL d   1       1.343  -0.779   2.735  0.00  0.00     0.020 A 
ATOM      3  C2  UNL d   1       2.502  -0.269   3.325  0.00  0.00     0.034 A 
ATOM      4  C3  UNL d   1       2.415   0.755   4.276  0.00  0.00     0.017 A 
ATOM      5  C4  UNL d   1       1.163   1.267   4.634  0.00  0.00     0.017 A 
ATOM      6  C5  UNL d   1       0.006   0.753   4.039  0.00  0.00     0.034 A 
ATOM      7 Cl   UNL d   1       0.976   2.530   5.799  0.00  0.00    -0.070 Cl
ATOM      8 Cl1  UNL d   1       3.888   1.338   4.966  0.00  0.00    -0.070 Cl
ENDROOT
TORSDOF 0
ENDMDL
