MODEL 1
REMARK minimizedAffinity 6.28899384
REMARK minimizedRMSD -1
REMARK  0 active torsions:
REMARK  status: ('A' for Active; 'I' for Inactive)
ROOT
ATOM      1  C   UNL d   1       1.594  -1.915   4.076  0.00  0.00     0.020 A 
ATOM      2  C1  UNL d   1       2.145  -0.714   4.522  0.00  0.00     0.020 A 
ATOM      3  C2  UNL d   1       1.559   0.500   4.159  0.00  0.00     0.034 A 
ATOM      4  C3  UNL d   1       0.417   0.517   3.350  0.00  0.00     0.017 A 
ATOM      5  C4  UNL d   1      -0.136  -0.689   2.904  0.00  0.00     0.017 A 
ATOM      6  C5  UNL d   1       0.455  -1.902   3.269  0.00  0.00     0.034 A 
ATOM      7 Cl   UNL d   1      -1.543  -0.749   1.902  0.00  0.00    -0.070 Cl
ATOM      8 Cl1  UNL d   1      -0.256   2.055   2.941  0.00  0.00    -0.070 Cl
ENDROOT
TORSDOF 0
ENDMDL
