MODEL 1
REMARK minimizedAffinity 15.8032246
REMARK minimizedRMSD -1
REMARK  0 active torsions:
REMARK  status: ('A' for Active; 'I' for Inactive)
ROOT
ATOM      1  C   UNL d   1       0.464  -0.326  -3.796  0.00  0.00     0.020 A 
ATOM      2  C1  UNL d   1       0.338  -0.643  -5.148  0.00  0.00     0.020 A 
ATOM      3  C2  UNL d   1      -0.397  -1.765  -5.535  0.00  0.00     0.034 A 
ATOM      4  C3  UNL d   1      -1.008  -2.574  -4.570  0.00  0.00     0.017 A 
ATOM      5  C4  UNL d   1      -0.881  -2.255  -3.214  0.00  0.00     0.017 A 
ATOM      6  C5  UNL d   1      -0.144  -1.130  -2.831  0.00  0.00     0.034 A 
ATOM      7 Cl   UNL d   1      -1.606  -3.205  -1.965  0.00  0.00    -0.070 Cl
ATOM      8 Cl1  UNL d   1      -1.902  -3.947  -5.121  0.00  0.00    -0.070 Cl
ENDROOT
TORSDOF 0
ENDMDL
