MODEL 1
REMARK minimizedAffinity -3.92469144
REMARK minimizedRMSD -1
REMARK  1 active torsions:
REMARK  status: ('A' for Active; 'I' for Inactive)
REMARK    1  A    between atoms: C1_2  and  C2_3 
ROOT
ATOM      1  C2  UNL d   1      -0.105   0.649   0.059  0.00  0.00    -0.077 A 
ATOM      2  C3  UNL d   1      -1.250   1.109  -0.605  0.00  0.00     0.002 A 
ATOM      3  C4  UNL d   1      -2.397   1.445   0.117  0.00  0.00     0.002 A 
ATOM      4  C5  UNL d   1      -2.408   1.329   1.505  0.00  0.00    -0.004 A 
ATOM      5  C6  UNL d   1      -1.274   0.870   2.175  0.00  0.00     0.002 A 
ATOM      6  C7  UNL d   1      -0.127   0.532   1.455  0.00  0.00     0.002 A 
ENDROOT
BRANCH   1   7
ATOM      7  C1  UNL d   1       1.150   0.332  -0.713  0.00  0.00     0.055 C 
ATOM      8  C   UNL d   1       1.534   1.477  -1.638  0.00  0.00     0.019 C 
ENDBRANCH   1   7
TORSDOF 1
ENDMDL
