MODEL 1
REMARK minimizedAffinity -4.82353735
REMARK minimizedRMSD -1
REMARK  1 active torsions:
REMARK  status: ('A' for Active; 'I' for Inactive)
REMARK    1  A    between atoms: C1_2  and  C2_3 
ROOT
ATOM      1  C2  UNL d   1      -0.679   0.878   0.970  0.00  0.00    -0.077 A 
ATOM      2  C3  UNL d   1      -0.027  -0.326   1.270  0.00  0.00     0.002 A 
ATOM      3  C4  UNL d   1       0.799  -0.936   0.324  0.00  0.00     0.002 A 
ATOM      4  C5  UNL d   1       0.985  -0.347  -0.925  0.00  0.00    -0.004 A 
ATOM      5  C6  UNL d   1       0.339   0.850  -1.233  0.00  0.00     0.002 A 
ATOM      6  C7  UNL d   1      -0.488   1.460  -0.289  0.00  0.00     0.002 A 
ENDROOT
BRANCH   1   7
ATOM      7  C1  UNL d   1      -1.531   1.563   2.007  0.00  0.00     0.055 C 
ATOM      8  C   UNL d   1      -2.152   2.839   1.457  0.00  0.00     0.019 C 
ENDBRANCH   1   7
TORSDOF 1
ENDMDL
