MODEL 1
REMARK minimizedAffinity -5.57478428
REMARK minimizedRMSD -1
REMARK  1 active torsions:
REMARK  status: ('A' for Active; 'I' for Inactive)
REMARK    1  A    between atoms: C1_2  and  C2_3 
ROOT
ATOM      1  C2  UNL d   1       0.325   0.313  -0.212  0.00  0.00    -0.077 A 
ATOM      2  C3  UNL d   1       0.174  -0.282   1.048  0.00  0.00     0.002 A 
ATOM      3  C4  UNL d   1      -0.761   0.217   1.957  0.00  0.00     0.002 A 
ATOM      4  C5  UNL d   1      -1.553   1.311   1.614  0.00  0.00    -0.004 A 
ATOM      5  C6  UNL d   1      -1.409   1.911   0.364  0.00  0.00     0.002 A 
ATOM      6  C7  UNL d   1      -0.475   1.413  -0.546  0.00  0.00     0.002 A 
ENDROOT
BRANCH   1   7
ATOM      7  C1  UNL d   1       1.298  -0.255  -1.213  0.00  0.00     0.055 C 
ATOM      8  C   UNL d   1       1.142  -1.763  -1.342  0.00  0.00     0.019 C 
ENDBRANCH   1   7
TORSDOF 1
ENDMDL
