MODEL 1
REMARK minimizedAffinity -4.96217394
REMARK minimizedRMSD -1
REMARK  1 active torsions:
REMARK  status: ('A' for Active; 'I' for Inactive)
REMARK    1  A    between atoms: C1_2  and  C2_3 
ROOT
ATOM      1  C2  UNL d   1      -0.886   2.284  -0.254  0.00  0.00    -0.077 A 
ATOM      2  C3  UNL d   1      -1.173   2.620   1.077  0.00  0.00     0.002 A 
ATOM      3  C4  UNL d   1      -1.012   1.678   2.094  0.00  0.00     0.002 A 
ATOM      4  C5  UNL d   1      -0.560   0.395   1.792  0.00  0.00    -0.004 A 
ATOM      5  C6  UNL d   1      -0.275   0.050   0.472  0.00  0.00     0.002 A 
ATOM      6  C7  UNL d   1      -0.436   0.990  -0.546  0.00  0.00     0.002 A 
ENDROOT
BRANCH   1   7
ATOM      7  C1  UNL d   1      -1.012   3.314  -1.346  0.00  0.00     0.055 C 
ATOM      8  C   UNL d   1       0.333   3.593  -2.001  0.00  0.00     0.019 C 
ENDBRANCH   1   7
TORSDOF 1
ENDMDL
