MODEL 1
REMARK minimizedAffinity -4.18403244
REMARK minimizedRMSD -1
REMARK  1 active torsions:
REMARK  status: ('A' for Active; 'I' for Inactive)
REMARK    1  A    between atoms: C1_2  and  C2_3 
ROOT
ATOM      1  C2  UNL d   1      -0.316  -0.113  -0.113  0.00  0.00    -0.077 A 
ATOM      2  C3  UNL d   1      -1.118   0.942   0.343  0.00  0.00     0.002 A 
ATOM      3  C4  UNL d   1      -1.160   1.261   1.702  0.00  0.00     0.002 A 
ATOM      4  C5  UNL d   1      -0.401   0.532   2.614  0.00  0.00    -0.004 A 
ATOM      5  C6  UNL d   1       0.399  -0.521   2.170  0.00  0.00     0.002 A 
ATOM      6  C7  UNL d   1       0.442  -0.842   0.813  0.00  0.00     0.002 A 
ENDROOT
BRANCH   1   7
ATOM      7  C1  UNL d   1      -0.230  -0.426  -1.584  0.00  0.00     0.055 C 
ATOM      8  C   UNL d   1       0.193  -1.869  -1.819  0.00  0.00     0.019 C 
ENDBRANCH   1   7
TORSDOF 1
ENDMDL
