MODEL 1
REMARK minimizedAffinity -4.78266954
REMARK minimizedRMSD -1
REMARK  1 active torsions:
REMARK  status: ('A' for Active; 'I' for Inactive)
REMARK    1  A    between atoms: C1_2  and  C2_3 
ROOT
ATOM      1  C2  UNL d   1       0.377  -0.229  -0.090  0.00  0.00    -0.077 A 
ATOM      2  C3  UNL d   1       0.202  -0.683   1.225  0.00  0.00     0.002 A 
ATOM      3  C4  UNL d   1      -0.717  -0.061   2.071  0.00  0.00     0.002 A 
ATOM      4  C5  UNL d   1      -1.471   1.017   1.612  0.00  0.00    -0.004 A 
ATOM      5  C6  UNL d   1      -1.303   1.478   0.307  0.00  0.00     0.002 A 
ATOM      6  C7  UNL d   1      -0.384   0.857  -0.541  0.00  0.00     0.002 A 
ENDROOT
BRANCH   1   7
ATOM      7  C1  UNL d   1       1.332  -0.930  -1.020  0.00  0.00     0.055 C 
ATOM      8  C   UNL d   1       0.596  -1.866  -1.967  0.00  0.00     0.019 C 
ENDBRANCH   1   7
TORSDOF 1
ENDMDL
