MODEL 1
REMARK minimizedAffinity -5.37143326
REMARK minimizedRMSD -1
REMARK  1 active torsions:
REMARK  status: ('A' for Active; 'I' for Inactive)
REMARK    1  A    between atoms: C1_2  and  C2_3 
ROOT
ATOM      1  C2  UNL d   1      -0.102   0.244   0.243  0.00  0.00    -0.077 A 
ATOM      2  C3  UNL d   1      -1.154   0.763  -0.524  0.00  0.00     0.002 A 
ATOM      3  C4  UNL d   1      -2.036   1.696   0.025  0.00  0.00     0.002 A 
ATOM      4  C5  UNL d   1      -1.871   2.121   1.342  0.00  0.00    -0.004 A 
ATOM      5  C6  UNL d   1      -0.829   1.609   2.114  0.00  0.00     0.002 A 
ATOM      6  C7  UNL d   1       0.052   0.676   1.566  0.00  0.00     0.002 A 
ENDROOT
BRANCH   1   7
ATOM      7  C1  UNL d   1       0.879  -0.725  -0.363  0.00  0.00     0.055 C 
ATOM      8  C   UNL d   1       0.240  -1.531  -1.485  0.00  0.00     0.019 C 
ENDBRANCH   1   7
TORSDOF 1
ENDMDL
