MODEL 1
REMARK minimizedAffinity -4.96361256
REMARK minimizedRMSD -1
REMARK  1 active torsions:
REMARK  status: ('A' for Active; 'I' for Inactive)
REMARK    1  A    between atoms: C1_2  and  C2_3 
ROOT
ATOM      1  C2  UNL d   1       0.045   0.354   0.257  0.00  0.00    -0.077 A 
ATOM      2  C3  UNL d   1      -0.069   0.017   1.613  0.00  0.00     0.002 A 
ATOM      3  C4  UNL d   1      -1.209   0.374   2.336  0.00  0.00     0.002 A 
ATOM      4  C5  UNL d   1      -2.245   1.065   1.710  0.00  0.00    -0.004 A 
ATOM      5  C6  UNL d   1      -2.139   1.406   0.362  0.00  0.00     0.002 A 
ATOM      6  C7  UNL d   1      -1.000   1.051  -0.361  0.00  0.00     0.002 A 
ENDROOT
BRANCH   1   7
ATOM      7  C1  UNL d   1       1.253  -0.074  -0.536  0.00  0.00     0.055 C 
ATOM      8  C   UNL d   1       1.082  -1.481  -1.088  0.00  0.00     0.019 C 
ENDBRANCH   1   7
TORSDOF 1
ENDMDL
