MODEL 1
REMARK minimizedAffinity -3.8125875
REMARK minimizedRMSD -1
REMARK  1 active torsions:
REMARK  status: ('A' for Active; 'I' for Inactive)
REMARK    1  A    between atoms: C1_2  and  C2_3 
ROOT
ATOM      1  C2  UNL d   1       0.272  -0.030   0.093  0.00  0.00    -0.077 A 
ATOM      2  C3  UNL d   1      -0.788   0.449  -0.690  0.00  0.00     0.002 A 
ATOM      3  C4  UNL d   1      -1.791   1.233  -0.117  0.00  0.00     0.002 A 
ATOM      4  C5  UNL d   1      -1.741   1.549   1.240  0.00  0.00    -0.004 A 
ATOM      5  C6  UNL d   1      -0.692   1.076   2.027  0.00  0.00     0.002 A 
ATOM      6  C7  UNL d   1       0.311   0.291   1.456  0.00  0.00     0.002 A 
ENDROOT
BRANCH   1   7
ATOM      7  C1  UNL d   1       1.381  -0.835  -0.534  0.00  0.00     0.055 C 
ATOM      8  C   UNL d   1       0.829  -1.923  -1.443  0.00  0.00     0.019 C 
ENDBRANCH   1   7
TORSDOF 1
ENDMDL
