MODEL 1
REMARK minimizedAffinity -5.28903055
REMARK minimizedRMSD -1
REMARK  1 active torsions:
REMARK  status: ('A' for Active; 'I' for Inactive)
REMARK    1  A    between atoms: C1_2  and  C2_3 
ROOT
ATOM      1  C2  UNL d   1      -0.316   0.029   0.662  0.00  0.00    -0.077 A 
ATOM      2  C3  UNL d   1      -0.001   0.333   1.993  0.00  0.00     0.002 A 
ATOM      3  C4  UNL d   1      -0.608   1.416   2.633  0.00  0.00     0.002 A 
ATOM      4  C5  UNL d   1      -1.536   2.199   1.950  0.00  0.00    -0.004 A 
ATOM      5  C6  UNL d   1      -1.855   1.906   0.625  0.00  0.00     0.002 A 
ATOM      6  C7  UNL d   1      -1.249   0.825  -0.016  0.00  0.00     0.002 A 
ENDROOT
BRANCH   1   7
ATOM      7  C1  UNL d   1       0.300  -1.168  -0.014  0.00  0.00     0.055 C 
ATOM      8  C   UNL d   1       1.320  -0.747  -1.063  0.00  0.00     0.019 C 
ENDBRANCH   1   7
TORSDOF 1
ENDMDL
