MODEL 1
REMARK minimizedAffinity -2.04728007
REMARK minimizedRMSD -1
REMARK  1 active torsions:
REMARK  status: ('A' for Active; 'I' for Inactive)
REMARK    1  A    between atoms: C1_2  and  C2_3 
ROOT
ATOM      1  C2  UNL d   1       0.290  -0.738   0.409  0.00  0.00    -0.077 A 
ATOM      2  C3  UNL d   1       0.026  -0.361   1.734  0.00  0.00     0.002 A 
ATOM      3  C4  UNL d   1      -0.771   0.752   2.006  0.00  0.00     0.002 A 
ATOM      4  C5  UNL d   1      -1.313   1.496   0.960  0.00  0.00    -0.004 A 
ATOM      5  C6  UNL d   1      -1.055   1.130  -0.361  0.00  0.00     0.002 A 
ATOM      6  C7  UNL d   1      -0.257   0.018  -0.635  0.00  0.00     0.002 A 
ENDROOT
BRANCH   1   7
ATOM      7  C1  UNL d   1       1.109  -1.967   0.114  0.00  0.00     0.055 C 
ATOM      8  C   UNL d   1       0.646  -2.646  -1.166  0.00  0.00     0.019 C 
ENDBRANCH   1   7
TORSDOF 1
ENDMDL
