MODEL 1
REMARK minimizedAffinity 0.808047235
REMARK minimizedRMSD -1
REMARK  0 active torsions:
REMARK  status: ('A' for Active; 'I' for Inactive)
ROOT
ATOM      1  C   UNL d   1       3.527   1.391   5.938  0.00  0.00     0.020 A 
ATOM      2  C1  UNL d   1       4.894   1.666   5.917  0.00  0.00     0.020 A 
ATOM      3  C2  UNL d   1       5.340   2.989   5.921  0.00  0.00     0.034 A 
ATOM      4  C3  UNL d   1       4.419   4.043   5.945  0.00  0.00     0.017 A 
ATOM      5  C4  UNL d   1       3.047   3.766   5.966  0.00  0.00     0.017 A 
ATOM      6  C5  UNL d   1       2.606   2.439   5.963  0.00  0.00     0.034 A 
ATOM      7 Cl   UNL d   1       1.851   5.013   5.997  0.00  0.00    -0.070 Cl
ATOM      8 Cl1  UNL d   1       5.042   5.655   5.948  0.00  0.00    -0.070 Cl
ENDROOT
TORSDOF 0
ENDMDL
