MODEL 1
REMARK minimizedAffinity 0.933139622
REMARK minimizedRMSD -1
REMARK  0 active torsions:
REMARK  status: ('A' for Active; 'I' for Inactive)
ROOT
ATOM      1  C   UNL d   1       3.331   1.718   5.762  0.00  0.00     0.020 A 
ATOM      2  C1  UNL d   1       4.595   1.528   5.204  0.00  0.00     0.020 A 
ATOM      3  C2  UNL d   1       5.389   2.631   4.883  0.00  0.00     0.034 A 
ATOM      4  C3  UNL d   1       4.920   3.928   5.119  0.00  0.00     0.017 A 
ATOM      5  C4  UNL d   1       3.652   4.118   5.679  0.00  0.00     0.017 A 
ATOM      6  C5  UNL d   1       2.861   3.010   5.999  0.00  0.00     0.034 A 
ATOM      7 Cl   UNL d   1       3.006   5.688   6.000  0.00  0.00    -0.070 Cl
ATOM      8 Cl1  UNL d   1       5.956   5.245   4.697  0.00  0.00    -0.070 Cl
ENDROOT
TORSDOF 0
ENDMDL
