MODEL 1
REMARK minimizedAffinity 7.07224703
REMARK minimizedRMSD -1
REMARK  0 active torsions:
REMARK  status: ('A' for Active; 'I' for Inactive)
ROOT
ATOM      1  C   UNL d   1       6.000   4.921   5.980  0.00  0.00     0.020 A 
ATOM      2  C1  UNL d   1       5.092   5.979   6.000  0.00  0.00     0.020 A 
ATOM      3  C2  UNL d   1       3.753   5.756   5.672  0.00  0.00     0.034 A 
ATOM      4  C3  UNL d   1       3.318   4.472   5.323  0.00  0.00     0.017 A 
ATOM      5  C4  UNL d   1       4.230   3.411   5.304  0.00  0.00     0.017 A 
ATOM      6  C5  UNL d   1       5.570   3.640   5.633  0.00  0.00     0.034 A 
ATOM      7 Cl   UNL d   1       3.768   1.799   4.884  0.00  0.00    -0.070 Cl
ATOM      8 Cl1  UNL d   1       1.648   4.269   4.929  0.00  0.00    -0.070 Cl
ENDROOT
TORSDOF 0
ENDMDL
