MODEL 1
REMARK minimizedAffinity 0.653001964
REMARK minimizedRMSD -1
REMARK  0 active torsions:
REMARK  status: ('A' for Active; 'I' for Inactive)
ROOT
ATOM      1  C   UNL d   1       4.023   5.818   5.999  0.00  0.00     0.020 A 
ATOM      2  C1  UNL d   1       5.242   5.996   5.347  0.00  0.00     0.020 A 
ATOM      3  C2  UNL d   1       5.835   4.926   4.672  0.00  0.00     0.034 A 
ATOM      4  C3  UNL d   1       5.210   3.675   4.648  0.00  0.00     0.017 A 
ATOM      5  C4  UNL d   1       3.986   3.497   5.304  0.00  0.00     0.017 A 
ATOM      6  C5  UNL d   1       3.396   4.571   5.978  0.00  0.00     0.034 A 
ATOM      7 Cl   UNL d   1       3.153   1.983   5.318  0.00  0.00    -0.070 Cl
ATOM      8 Cl1  UNL d   1       6.000   2.397   3.795  0.00  0.00    -0.070 Cl
ENDROOT
TORSDOF 0
ENDMDL
