MODEL 1
REMARK minimizedAffinity -2.75745511
REMARK minimizedRMSD -1
REMARK  0 active torsions:
REMARK  status: ('A' for Active; 'I' for Inactive)
ROOT
ATOM      1  C   UNL d   1       5.085   5.921   4.783  0.00  0.00     0.020 A 
ATOM      2  C1  UNL d   1       5.882   5.283   5.733  0.00  0.00     0.020 A 
ATOM      3  C2  UNL d   1       5.700   3.925   5.999  0.00  0.00     0.034 A 
ATOM      4  C3  UNL d   1       4.717   3.199   5.316  0.00  0.00     0.017 A 
ATOM      5  C4  UNL d   1       3.917   3.840   4.363  0.00  0.00     0.017 A 
ATOM      6  C5  UNL d   1       4.104   5.200   4.100  0.00  0.00     0.034 A 
ATOM      7 Cl   UNL d   1       2.684   3.011   3.479  0.00  0.00    -0.070 Cl
ATOM      8 Cl1  UNL d   1       4.546   1.522   5.696  0.00  0.00    -0.070 Cl
ENDROOT
TORSDOF 0
ENDMDL
