MODEL 1
REMARK minimizedAffinity -0.625389934
REMARK minimizedRMSD -1
REMARK  0 active torsions:
REMARK  status: ('A' for Active; 'I' for Inactive)
ROOT
ATOM      1  C   UNL d   1       2.309   2.021   5.321  0.00  0.00     0.020 A 
ATOM      2  C1  UNL d   1       3.579   1.447   5.325  0.00  0.00     0.020 A 
ATOM      3  C2  UNL d   1       4.706   2.246   5.535  0.00  0.00     0.034 A 
ATOM      4  C3  UNL d   1       4.564   3.623   5.741  0.00  0.00     0.017 A 
ATOM      5  C4  UNL d   1       3.288   4.198   5.737  0.00  0.00     0.017 A 
ATOM      6  C5  UNL d   1       2.164   3.394   5.526  0.00  0.00     0.034 A 
ATOM      7 Cl   UNL d   1       3.033   5.890   5.984  0.00  0.00    -0.070 Cl
ATOM      8 Cl1  UNL d   1       6.000   4.549   5.994  0.00  0.00    -0.070 Cl
ENDROOT
TORSDOF 0
ENDMDL
