MODEL 1
REMARK minimizedAffinity -4.13839912
REMARK minimizedRMSD -1
REMARK  0 active torsions:
REMARK  status: ('A' for Active; 'I' for Inactive)
ROOT
ATOM      1  C   UNL d   1       3.018   1.476   5.601  0.00  0.00     0.020 A 
ATOM      2  C1  UNL d   1       2.173   2.081   4.672  0.00  0.00     0.020 A 
ATOM      3  C2  UNL d   1       2.502   3.328   4.137  0.00  0.00     0.034 A 
ATOM      4  C3  UNL d   1       3.680   3.975   4.532  0.00  0.00     0.017 A 
ATOM      5  C4  UNL d   1       4.527   3.366   5.465  0.00  0.00     0.017 A 
ATOM      6  C5  UNL d   1       4.192   2.117   5.997  0.00  0.00     0.034 A 
ATOM      7 Cl   UNL d   1       5.997   4.102   6.000  0.00  0.00    -0.070 Cl
ATOM      8 Cl1  UNL d   1       4.025   5.515   3.829  0.00  0.00    -0.070 Cl
ENDROOT
TORSDOF 0
ENDMDL
