MODEL 1
REMARK minimizedAffinity -4.44651651
REMARK minimizedRMSD -1
REMARK  0 active torsions:
REMARK  status: ('A' for Active; 'I' for Inactive)
ROOT
ATOM      1  C   UNL d   1       1.687   5.763   3.775  0.00  0.00     0.020 A 
ATOM      2  C1  UNL d   1       1.125   4.496   3.931  0.00  0.00     0.020 A 
ATOM      3  C2  UNL d   1       1.875   3.465   4.501  0.00  0.00     0.034 A 
ATOM      4  C3  UNL d   1       3.190   3.699   4.919  0.00  0.00     0.017 A 
ATOM      5  C4  UNL d   1       3.753   4.971   4.763  0.00  0.00     0.017 A 
ATOM      6  C5  UNL d   1       2.998   6.000   4.191  0.00  0.00     0.034 A 
ATOM      7 Cl   UNL d   1       5.370   5.336   5.254  0.00  0.00    -0.070 Cl
ATOM      8 Cl1  UNL d   1       4.059   2.379   5.616  0.00  0.00    -0.070 Cl
ENDROOT
TORSDOF 0
ENDMDL
