MODEL 1
REMARK minimizedAffinity 2.92200851
REMARK minimizedRMSD -1
REMARK  0 active torsions:
REMARK  status: ('A' for Active; 'I' for Inactive)
ROOT
ATOM      1  C   UNL d   1       3.422   2.005   5.413  0.00  0.00     0.020 A 
ATOM      2  C1  UNL d   1       3.264   1.947   4.029  0.00  0.00     0.020 A 
ATOM      3  C2  UNL d   1       3.717   3.000   3.231  0.00  0.00     0.034 A 
ATOM      4  C3  UNL d   1       4.329   4.114   3.816  0.00  0.00     0.017 A 
ATOM      5  C4  UNL d   1       4.487   4.171   5.205  0.00  0.00     0.017 A 
ATOM      6  C5  UNL d   1       4.033   3.114   6.000  0.00  0.00     0.034 A 
ATOM      7 Cl   UNL d   1       5.233   5.513   5.999  0.00  0.00    -0.070 Cl
ATOM      8 Cl1  UNL d   1       4.865   5.379   2.767  0.00  0.00    -0.070 Cl
ENDROOT
TORSDOF 0
ENDMDL
