MODEL 1
REMARK minimizedAffinity -3.25682664
REMARK minimizedRMSD -1
REMARK  0 active torsions:
REMARK  status: ('A' for Active; 'I' for Inactive)
ROOT
ATOM      1  C   UNL d   1       4.218   5.924   5.248  0.00  0.00     0.020 A 
ATOM      2  C1  UNL d   1       4.857   4.685   5.248  0.00  0.00     0.020 A 
ATOM      3  C2  UNL d   1       4.123   3.521   5.482  0.00  0.00     0.034 A 
ATOM      4  C3  UNL d   1       2.745   3.593   5.716  0.00  0.00     0.017 A 
ATOM      5  C4  UNL d   1       2.104   4.837   5.716  0.00  0.00     0.017 A 
ATOM      6  C5  UNL d   1       2.844   6.000   5.481  0.00  0.00     0.034 A 
ATOM      7 Cl   UNL d   1       0.407   5.006   5.998  0.00  0.00    -0.070 Cl
ATOM      8 Cl1  UNL d   1       1.899   2.113   5.998  0.00  0.00    -0.070 Cl
ENDROOT
TORSDOF 0
ENDMDL
