MODEL 1
REMARK minimizedAffinity 3.53317523
REMARK minimizedRMSD -1
REMARK  0 active torsions:
REMARK  status: ('A' for Active; 'I' for Inactive)
ROOT
ATOM      1  C   UNL d   1       4.757   5.244   4.775  0.00  0.00     0.020 A 
ATOM      2  C1  UNL d   1       5.260   4.001   4.394  0.00  0.00     0.020 A 
ATOM      3  C2  UNL d   1       4.462   2.860   4.506  0.00  0.00     0.034 A 
ATOM      4  C3  UNL d   1       3.156   2.961   5.000  0.00  0.00     0.017 A 
ATOM      5  C4  UNL d   1       2.652   4.209   5.382  0.00  0.00     0.017 A 
ATOM      6  C5  UNL d   1       3.455   5.348   5.268  0.00  0.00     0.034 A 
ATOM      7 Cl   UNL d   1       1.050   4.412   6.000  0.00  0.00    -0.070 Cl
ATOM      8 Cl1  UNL d   1       2.225   1.509   5.110  0.00  0.00    -0.070 Cl
ENDROOT
TORSDOF 0
ENDMDL
