MODEL 1
REMARK minimizedAffinity -4.14852095
REMARK minimizedRMSD -1
REMARK  0 active torsions:
REMARK  status: ('A' for Active; 'I' for Inactive)
ROOT
ATOM      1  C   UNL d   1       1.126   4.661   5.746  0.00  0.00     0.020 A 
ATOM      2  C1  UNL d   1       1.123   5.659   4.772  0.00  0.00     0.020 A 
ATOM      3  C2  UNL d   1       2.286   5.935   4.051  0.00  0.00     0.034 A 
ATOM      4  C3  UNL d   1       3.458   5.212   4.302  0.00  0.00     0.017 A 
ATOM      5  C4  UNL d   1       3.460   4.210   5.280  0.00  0.00     0.017 A 
ATOM      6  C5  UNL d   1       2.293   3.938   5.999  0.00  0.00     0.034 A 
ATOM      7 Cl   UNL d   1       4.868   3.276   5.646  0.00  0.00    -0.070 Cl
ATOM      8 Cl1  UNL d   1       4.860   5.605   3.372  0.00  0.00    -0.070 Cl
ENDROOT
TORSDOF 0
ENDMDL
