MODEL 1
REMARK minimizedAffinity 2.90882063
REMARK minimizedRMSD -1
REMARK  0 active torsions:
REMARK  status: ('A' for Active; 'I' for Inactive)
ROOT
ATOM      1  C   UNL d   1      -2.254  -2.623  -6.000  0.00  0.00     0.172 C 
ATOM      2  N   UNL d   1      -2.395  -2.754  -4.569  0.00  0.00    -0.070 N 
ATOM      3  C1  UNL d   1      -1.896  -1.886  -3.635  0.00  0.00    -0.004 A 
ATOM      4  C2  UNL d   1      -2.244  -2.361  -2.389  0.00  0.00    -0.047 A 
ATOM      5  C3  UNL d   1      -2.977  -3.556  -2.580  0.00  0.00    -0.047 A 
ATOM      6  C4  UNL d   1      -3.055  -3.776  -3.939  0.00  0.00    -0.004 A 
ENDROOT
TORSDOF 0
ENDMDL
