MODEL 1
REMARK minimizedAffinity 12.6289654
REMARK minimizedRMSD -1
REMARK  0 active torsions:
REMARK  status: ('A' for Active; 'I' for Inactive)
ROOT
ATOM      1  C   UNL d   1       6.000   4.697  -5.999  0.00  0.00     0.172 C 
ATOM      2  N   UNL d   1       5.791   3.790  -4.895  0.00  0.00    -0.070 N 
ATOM      3  C1  UNL d   1       5.999   2.437  -4.925  0.00  0.00    -0.004 A 
ATOM      4  C2  UNL d   1       5.688   1.935  -3.679  0.00  0.00    -0.047 A 
ATOM      5  C3  UNL d   1       5.278   3.024  -2.874  0.00  0.00    -0.047 A 
ATOM      6  C4  UNL d   1       5.351   4.160  -3.652  0.00  0.00    -0.004 A 
ENDROOT
TORSDOF 0
ENDMDL
