MODEL 1
REMARK minimizedAffinity 0.52700907
REMARK minimizedRMSD -1
REMARK  0 active torsions:
REMARK  status: ('A' for Active; 'I' for Inactive)
ROOT
ATOM      1  C   UNL d   1       3.198   1.497  -3.013  0.00  0.00     0.172 C 
ATOM      2  N   UNL d   1       3.063   1.258  -1.595  0.00  0.00    -0.070 N 
ATOM      3  C1  UNL d   1       3.594   0.199  -0.910  0.00  0.00    -0.004 A 
ATOM      4  C2  UNL d   1       3.242   0.334   0.416  0.00  0.00    -0.047 A 
ATOM      5  C3  UNL d   1       2.471   1.516   0.531  0.00  0.00    -0.047 A 
ATOM      6  C4  UNL d   1       2.376   2.068  -0.729  0.00  0.00    -0.004 A 
ENDROOT
TORSDOF 0
ENDMDL
