MODEL 1
REMARK minimizedAffinity 9.56791019
REMARK minimizedRMSD -1
REMARK  0 active torsions:
REMARK  status: ('A' for Active; 'I' for Inactive)
ROOT
ATOM      1  C   UNL d   1      -4.338  -4.015  -5.998  0.00  0.00     0.172 C 
ATOM      2  N   UNL d   1      -3.078  -3.308  -5.998  0.00  0.00    -0.070 N 
ATOM      3  C1  UNL d   1      -1.838  -3.887  -5.998  0.00  0.00    -0.004 A 
ATOM      4  C2  UNL d   1      -0.900  -2.877  -5.998  0.00  0.00    -0.047 A 
ATOM      5  C3  UNL d   1      -1.602  -1.648  -5.997  0.00  0.00    -0.047 A 
ATOM      6  C4  UNL d   1      -2.949  -1.944  -5.997  0.00  0.00    -0.004 A 
ENDROOT
TORSDOF 0
ENDMDL
