MODEL 1
REMARK minimizedAffinity 7.599195
REMARK minimizedRMSD -1
REMARK  0 active torsions:
REMARK  status: ('A' for Active; 'I' for Inactive)
ROOT
ATOM      1  C   UNL d   1      -1.025  -1.958   3.148  0.00  0.00     0.172 C 
ATOM      2  N   UNL d   1      -0.517  -0.738   3.730  0.00  0.00    -0.070 N 
ATOM      3  C1  UNL d   1       0.685  -0.151   3.432  0.00  0.00    -0.004 A 
ATOM      4  C2  UNL d   1       0.797   0.991   4.194  0.00  0.00    -0.047 A 
ATOM      5  C3  UNL d   1      -0.377   1.095   4.978  0.00  0.00    -0.047 A 
ATOM      6  C4  UNL d   1      -1.173   0.011   4.670  0.00  0.00    -0.004 A 
ENDROOT
TORSDOF 0
ENDMDL
