MODEL 1
REMARK minimizedAffinity 4.15377426
REMARK minimizedRMSD -1
REMARK  0 active torsions:
REMARK  status: ('A' for Active; 'I' for Inactive)
ROOT
ATOM      1  C   UNL d   1       5.997   0.027  -5.256  0.00  0.00     0.172 C 
ATOM      2  N   UNL d   1       4.864  -0.817  -5.556  0.00  0.00    -0.070 N 
ATOM      3  C1  UNL d   1       3.574  -0.389  -5.729  0.00  0.00    -0.004 A 
ATOM      4  C2  UNL d   1       2.796  -1.495  -5.999  0.00  0.00    -0.047 A 
ATOM      5  C3  UNL d   1       3.647  -2.625  -5.987  0.00  0.00    -0.047 A 
ATOM      6  C4  UNL d   1       4.922  -2.177  -5.710  0.00  0.00    -0.004 A 
ENDROOT
TORSDOF 0
ENDMDL
