MODEL 1
REMARK minimizedAffinity 5.97970819
REMARK minimizedRMSD -1
REMARK  0 active torsions:
REMARK  status: ('A' for Active; 'I' for Inactive)
ROOT
ATOM      1  C   UNL d   1      -1.472  -3.448  -5.809  0.00  0.00     0.172 C 
ATOM      2  N   UNL d   1      -2.811  -2.912  -5.883  0.00  0.00    -0.070 N 
ATOM      3  C1  UNL d   1      -3.138  -1.583  -5.919  0.00  0.00    -0.004 A 
ATOM      4  C2  UNL d   1      -4.511  -1.488  -5.989  0.00  0.00    -0.047 A 
ATOM      5  C3  UNL d   1      -5.027  -2.806  -5.994  0.00  0.00    -0.047 A 
ATOM      6  C4  UNL d   1      -3.953  -3.668  -5.928  0.00  0.00    -0.004 A 
ENDROOT
TORSDOF 0
ENDMDL
