MODEL 1
REMARK minimizedAffinity 3.49470305
REMARK minimizedRMSD -1
REMARK  0 active torsions:
REMARK  status: ('A' for Active; 'I' for Inactive)
ROOT
ATOM      1  C   UNL d   1       0.421  -4.489   0.045  0.00  0.00     0.172 C 
ATOM      2  N   UNL d   1      -0.094  -3.750   1.174  0.00  0.00    -0.070 N 
ATOM      3  C1  UNL d   1      -0.487  -4.290   2.369  0.00  0.00    -0.004 A 
ATOM      4  C2  UNL d   1      -0.914  -3.259   3.178  0.00  0.00    -0.047 A 
ATOM      5  C3  UNL d   1      -0.773  -2.058   2.443  0.00  0.00    -0.047 A 
ATOM      6  C4  UNL d   1      -0.264  -2.391   1.206  0.00  0.00    -0.004 A 
ENDROOT
TORSDOF 0
ENDMDL
