MODEL 1
REMARK minimizedAffinity 7.28898668
REMARK minimizedRMSD -1
REMARK  0 active torsions:
REMARK  status: ('A' for Active; 'I' for Inactive)
ROOT
ATOM      1  C   UNL d   1       0.305  -3.341  -5.998  0.00  0.00     0.172 C 
ATOM      2  N   UNL d   1      -1.130  -3.501  -5.997  0.00  0.00    -0.070 N 
ATOM      3  C1  UNL d   1      -2.047  -2.484  -6.000  0.00  0.00    -0.004 A 
ATOM      4  C2  UNL d   1      -3.304  -3.049  -5.999  0.00  0.00    -0.047 A 
ATOM      5  C3  UNL d   1      -3.136  -4.454  -5.995  0.00  0.00    -0.047 A 
ATOM      6  C4  UNL d   1      -1.781  -4.706  -5.994  0.00  0.00    -0.004 A 
ENDROOT
TORSDOF 0
ENDMDL
