MODEL 1
REMARK minimizedAffinity 7.23050976
REMARK minimizedRMSD -1
REMARK  0 active torsions:
REMARK  status: ('A' for Active; 'I' for Inactive)
ROOT
ATOM      1  C   UNL d   1       4.005  -0.028   2.826  0.00  0.00     0.172 C 
ATOM      2  N   UNL d   1       2.734   0.656   2.873  0.00  0.00    -0.070 N 
ATOM      3  C1  UNL d   1       1.884   0.688   3.946  0.00  0.00    -0.004 A 
ATOM      4  C2  UNL d   1       0.786   1.442   3.593  0.00  0.00    -0.047 A 
ATOM      5  C3  UNL d   1       0.982   1.877   2.260  0.00  0.00    -0.047 A 
ATOM      6  C4  UNL d   1       2.196   1.376   1.839  0.00  0.00    -0.004 A 
ENDROOT
TORSDOF 0
ENDMDL
