MODEL 1
REMARK minimizedAffinity -2.44054151
REMARK minimizedRMSD -1
REMARK  0 active torsions:
REMARK  status: ('A' for Active; 'I' for Inactive)
ROOT
ATOM      1  C   UNL d   1       5.938   3.245  -6.000  0.00  0.00     0.172 C 
ATOM      2  N   UNL d   1       5.299   1.990  -5.679  0.00  0.00    -0.070 N 
ATOM      3  C1  UNL d   1       4.006   1.653  -5.977  0.00  0.00    -0.004 A 
ATOM      4  C2  UNL d   1       3.783   0.377  -5.505  0.00  0.00    -0.047 A 
ATOM      5  C3  UNL d   1       4.984  -0.067  -4.902  0.00  0.00    -0.047 A 
ATOM      6  C4  UNL d   1       5.906   0.951  -5.024  0.00  0.00    -0.004 A 
ENDROOT
TORSDOF 0
ENDMDL
