MODEL 1
REMARK minimizedAffinity 0.336611003
REMARK minimizedRMSD -1
REMARK  0 active torsions:
REMARK  status: ('A' for Active; 'I' for Inactive)
ROOT
ATOM      1  C   UNL d   1      -2.522  -5.245   4.867  0.00  0.00     0.172 C 
ATOM      2  N   UNL d   1      -1.990  -4.083   4.194  0.00  0.00    -0.070 N 
ATOM      3  C1  UNL d   1      -2.545  -2.831   4.205  0.00  0.00    -0.004 A 
ATOM      4  C2  UNL d   1      -1.740  -2.006   3.449  0.00  0.00    -0.047 A 
ATOM      5  C3  UNL d   1      -0.665  -2.790   2.966  0.00  0.00    -0.047 A 
ATOM      6  C4  UNL d   1      -0.845  -4.072   3.442  0.00  0.00    -0.004 A 
ENDROOT
TORSDOF 0
ENDMDL
