MODEL 1
REMARK minimizedAffinity 5.97518921
REMARK minimizedRMSD -1
REMARK  0 active torsions:
REMARK  status: ('A' for Active; 'I' for Inactive)
ROOT
ATOM      1  C   UNL d   1      -1.936   2.305   2.357  0.00  0.00     0.172 C 
ATOM      2  N   UNL d   1      -0.559   2.503   1.969  0.00  0.00    -0.070 N 
ATOM      3  C1  UNL d   1      -0.057   3.616   1.350  0.00  0.00    -0.004 A 
ATOM      4  C2  UNL d   1       1.292   3.416   1.152  0.00  0.00    -0.047 A 
ATOM      5  C3  UNL d   1       1.611   2.138   1.669  0.00  0.00    -0.047 A 
ATOM      6  C4  UNL d   1       0.447   1.595   2.169  0.00  0.00    -0.004 A 
ENDROOT
TORSDOF 0
ENDMDL
