MODEL 1
REMARK minimizedAffinity 5.47014093
REMARK minimizedRMSD -1
REMARK  0 active torsions:
REMARK  status: ('A' for Active; 'I' for Inactive)
ROOT
ATOM      1  C   UNL d   1      -1.353  -4.103   3.344  0.00  0.00     0.172 C 
ATOM      2  N   UNL d   1      -2.215  -4.799   4.270  0.00  0.00    -0.070 N 
ATOM      3  C1  UNL d   1      -1.805  -5.479   5.386  0.00  0.00    -0.004 A 
ATOM      4  C2  UNL d   1      -2.924  -5.999   5.999  0.00  0.00    -0.047 A 
ATOM      5  C3  UNL d   1      -4.046  -5.620   5.224  0.00  0.00    -0.047 A 
ATOM      6  C4  UNL d   1      -3.578  -4.878   4.160  0.00  0.00    -0.004 A 
ENDROOT
TORSDOF 0
ENDMDL
