MODEL 1
REMARK minimizedAffinity 5.92849255
REMARK minimizedRMSD -1
REMARK  0 active torsions:
REMARK  status: ('A' for Active; 'I' for Inactive)
ROOT
ATOM      1  C   UNL d   1       2.983  -0.668  -5.756  0.00  0.00     0.172 C 
ATOM      2  N   UNL d   1       3.579   0.151  -4.727  0.00  0.00    -0.070 N 
ATOM      3  C1  UNL d   1       2.917   1.064  -3.950  0.00  0.00    -0.004 A 
ATOM      4  C2  UNL d   1       3.835   1.634  -3.094  0.00  0.00    -0.047 A 
ATOM      5  C3  UNL d   1       5.092   1.044  -3.367  0.00  0.00    -0.047 A 
ATOM      6  C4  UNL d   1       4.905   0.130  -4.382  0.00  0.00    -0.004 A 
ENDROOT
TORSDOF 0
ENDMDL
