MODEL 1
REMARK minimizedAffinity -5.40443659
REMARK minimizedRMSD -1
REMARK  1 active torsions:
REMARK  status: ('A' for Active; 'I' for Inactive)
REMARK    1  A    between atoms: N_2  and  C1_3 
ROOT
ATOM      1  C1  UNL d   1      -1.440  -1.207   0.222  0.00  0.00     0.143 A 
ATOM      2  C2  UNL d   1      -0.085  -0.860   0.186  0.00  0.00    -0.057 A 
ATOM      3  C3  UNL d   1       0.421  -0.009  -0.804  0.00  0.00     0.033 A 
ATOM      4  C4  UNL d   1      -0.417   0.489  -1.796  0.00  0.00    -0.042 A 
ATOM      5  C5  UNL d   1      -1.763   0.138  -1.795  0.00  0.00     0.033 A 
ATOM      6  C6  UNL d   1      -2.263  -0.707  -0.800  0.00  0.00    -0.057 A 
ENDROOT
BRANCH   1   7
ATOM      7  N   UNL d   1      -1.984  -2.127   1.121  0.00  0.00    -0.732 N 
ATOM      8  C   UNL d   1      -1.339  -3.402   1.352  0.00  0.00     0.284 C 
ATOM      9  H3  UNL d   1      -2.339  -1.682   1.964  0.00  0.00     0.395 HD
ENDBRANCH   1   7
TORSDOF 1
ENDMDL
