MODEL 1
REMARK minimizedAffinity -5.51915073
REMARK minimizedRMSD -1
REMARK  1 active torsions:
REMARK  status: ('A' for Active; 'I' for Inactive)
REMARK    1  A    between atoms: N_2  and  C1_3 
ROOT
ATOM      1  C1  UNL d   1       0.071  -0.192   0.065  0.00  0.00     0.143 A 
ATOM      2  C2  UNL d   1      -0.581  -0.015  -1.160  0.00  0.00    -0.057 A 
ATOM      3  C3  UNL d   1      -1.967  -0.177  -1.275  0.00  0.00     0.033 A 
ATOM      4  C4  UNL d   1      -2.724  -0.550  -0.170  0.00  0.00    -0.042 A 
ATOM      5  C5  UNL d   1      -2.094  -0.757   1.052  0.00  0.00     0.033 A 
ATOM      6  C6  UNL d   1      -0.711  -0.586   1.163  0.00  0.00    -0.057 A 
ENDROOT
BRANCH   1   7
ATOM      7  N   UNL d   1       1.458  -0.142   0.223  0.00  0.00    -0.732 N 
ATOM      8  C   UNL d   1       2.157   1.125   0.200  0.00  0.00     0.284 C 
ATOM      9  H3  UNL d   1       1.792  -0.788   0.934  0.00  0.00     0.395 HD
ENDBRANCH   1   7
TORSDOF 1
ENDMDL
