MODEL 1
REMARK minimizedAffinity -5.15336418
REMARK minimizedRMSD -1
REMARK  1 active torsions:
REMARK  status: ('A' for Active; 'I' for Inactive)
REMARK    1  A    between atoms: N_2  and  C1_3 
ROOT
ATOM      1  C1  UNL d   1      -0.036  -0.099   0.022  0.00  0.00     0.143 A 
ATOM      2  C2  UNL d   1      -0.693  -0.598   1.152  0.00  0.00    -0.057 A 
ATOM      3  C3  UNL d   1      -2.068  -0.859   1.137  0.00  0.00     0.033 A 
ATOM      4  C4  UNL d   1      -2.819  -0.597  -0.005  0.00  0.00    -0.042 A 
ATOM      5  C5  UNL d   1      -2.192  -0.078  -1.132  0.00  0.00     0.033 A 
ATOM      6  C6  UNL d   1      -0.817   0.174  -1.112  0.00  0.00    -0.057 A 
ENDROOT
BRANCH   1   7
ATOM      7  N   UNL d   1       1.310   0.273   0.005  0.00  0.00    -0.732 N 
ATOM      8  C   UNL d   1       1.761   1.440   0.734  0.00  0.00     0.284 C 
ATOM      9  H3  UNL d   1       1.935  -0.526   0.073  0.00  0.00     0.395 HD
ENDBRANCH   1   7
TORSDOF 1
ENDMDL
