MODEL 1
REMARK minimizedAffinity -2.547539
REMARK minimizedRMSD -1
REMARK  1 active torsions:
REMARK  status: ('A' for Active; 'I' for Inactive)
REMARK    1  A    between atoms: N_2  and  C1_3 
ROOT
ATOM      1  C1  UNL d   1       2.038   0.987   1.259  0.00  0.00     0.143 A 
ATOM      2  C2  UNL d   1       2.478   0.388   0.074  0.00  0.00    -0.057 A 
ATOM      3  C3  UNL d   1       1.590  -0.288  -0.771  0.00  0.00     0.033 A 
ATOM      4  C4  UNL d   1       0.246  -0.403  -0.429  0.00  0.00    -0.042 A 
ATOM      5  C5  UNL d   1      -0.208   0.163   0.757  0.00  0.00     0.033 A 
ATOM      6  C6  UNL d   1       0.682   0.843   1.593  0.00  0.00    -0.057 A 
ENDROOT
BRANCH   1   7
ATOM      7  N   UNL d   1       2.889   1.588   2.190  0.00  0.00    -0.732 N 
ATOM      8  C   UNL d   1       3.654   0.783   3.118  0.00  0.00     0.284 C 
ATOM      9  H3  UNL d   1       3.406   2.370   1.794  0.00  0.00     0.395 HD
ENDBRANCH   1   7
TORSDOF 1
ENDMDL
