MODEL 1
REMARK minimizedAffinity -3.74937129
REMARK minimizedRMSD -1
REMARK  1 active torsions:
REMARK  status: ('A' for Active; 'I' for Inactive)
REMARK    1  A    between atoms: N_2  and  C1_3 
ROOT
ATOM      1  C1  UNL d   1      -0.281   0.238   0.283  0.00  0.00     0.143 A 
ATOM      2  C2  UNL d   1      -1.304   0.135   1.232  0.00  0.00    -0.057 A 
ATOM      3  C3  UNL d   1      -2.632  -0.085   0.848  0.00  0.00     0.033 A 
ATOM      4  C4  UNL d   1      -2.967  -0.176  -0.499  0.00  0.00    -0.042 A 
ATOM      5  C5  UNL d   1      -1.971  -0.051  -1.461  0.00  0.00     0.033 A 
ATOM      6  C6  UNL d   1      -0.645   0.161  -1.071  0.00  0.00    -0.057 A 
ENDROOT
BRANCH   1   7
ATOM      7  N   UNL d   1       1.043   0.554   0.597  0.00  0.00    -0.732 N 
ATOM      8  C   UNL d   1       1.362   1.781   1.294  0.00  0.00     0.284 C 
ATOM      9  H3  UNL d   1       1.570  -0.255   0.917  0.00  0.00     0.395 HD
ENDBRANCH   1   7
TORSDOF 1
ENDMDL
