MODEL 1
REMARK minimizedAffinity -4.26898623
REMARK minimizedRMSD -1
REMARK  1 active torsions:
REMARK  status: ('A' for Active; 'I' for Inactive)
REMARK    1  A    between atoms: N_2  and  C1_3 
ROOT
ATOM      1  C1  UNL d   1       4.555   3.619  -2.663  0.00  0.00     0.143 A 
ATOM      2  C2  UNL d   1       4.167   2.348  -2.227  0.00  0.00    -0.057 A 
ATOM      3  C3  UNL d   1       3.300   2.187  -1.139  0.00  0.00     0.033 A 
ATOM      4  C4  UNL d   1       2.829   3.298  -0.447  0.00  0.00    -0.042 A 
ATOM      5  C5  UNL d   1       3.222   4.570  -0.847  0.00  0.00     0.033 A 
ATOM      6  C6  UNL d   1       4.082   4.725  -1.939  0.00  0.00    -0.057 A 
ENDROOT
BRANCH   1   7
ATOM      7  N   UNL d   1       5.491   3.842  -3.676  0.00  0.00    -0.732 N 
ATOM      8  C   UNL d   1       5.095   3.804  -5.067  0.00  0.00     0.284 C 
ATOM      9  H3  UNL d   1       6.138   4.593  -3.449  0.00  0.00     0.395 HD
ENDBRANCH   1   7
TORSDOF 1
ENDMDL
