MODEL 1
REMARK minimizedAffinity -3.15321064
REMARK minimizedRMSD -1
REMARK  1 active torsions:
REMARK  status: ('A' for Active; 'I' for Inactive)
REMARK    1  A    between atoms: N_2  and  C1_3 
ROOT
ATOM      1  C1  UNL d   1      -0.276  -1.167   0.118  0.00  0.00     0.143 A 
ATOM      2  C2  UNL d   1      -1.117  -0.746  -0.917  0.00  0.00    -0.057 A 
ATOM      3  C3  UNL d   1      -2.356  -1.359  -1.141  0.00  0.00     0.033 A 
ATOM      4  C4  UNL d   1      -2.763  -2.428  -0.349  0.00  0.00    -0.042 A 
ATOM      5  C5  UNL d   1      -1.932  -2.880   0.670  0.00  0.00     0.033 A 
ATOM      6  C6  UNL d   1      -0.699  -2.259   0.893  0.00  0.00    -0.057 A 
ENDROOT
BRANCH   1   7
ATOM      7  N   UNL d   1       1.010  -0.663   0.329  0.00  0.00    -0.732 N 
ATOM      8  C   UNL d   1       1.351   0.682  -0.081  0.00  0.00     0.284 C 
ATOM      9  H3  UNL d   1       1.388  -0.930   1.235  0.00  0.00     0.395 HD
ENDBRANCH   1   7
TORSDOF 1
ENDMDL
