MODEL 1
REMARK minimizedAffinity -3.73160672
REMARK minimizedRMSD -1
REMARK  1 active torsions:
REMARK  status: ('A' for Active; 'I' for Inactive)
REMARK    1  A    between atoms: N_2  and  C1_3 
ROOT
ATOM      1  C1  UNL d   1       2.544   2.769  -0.320  0.00  0.00     0.143 A 
ATOM      2  C2  UNL d   1       2.612   4.152  -0.521  0.00  0.00    -0.057 A 
ATOM      3  C3  UNL d   1       3.319   4.695  -1.601  0.00  0.00     0.033 A 
ATOM      4  C4  UNL d   1       3.997   3.863  -2.485  0.00  0.00    -0.042 A 
ATOM      5  C5  UNL d   1       3.965   2.487  -2.290  0.00  0.00     0.033 A 
ATOM      6  C6  UNL d   1       3.252   1.950  -1.214  0.00  0.00    -0.057 A 
ENDROOT
BRANCH   1   7
ATOM      7  N   UNL d   1       1.940   2.173   0.789  0.00  0.00    -0.732 N 
ATOM      8  C   UNL d   1       2.207   2.661   2.125  0.00  0.00     0.284 C 
ATOM      9  H3  UNL d   1       0.965   1.936   0.620  0.00  0.00     0.395 HD
ENDBRANCH   1   7
TORSDOF 1
ENDMDL
