MODEL 1
REMARK minimizedAffinity -2.17661953
REMARK minimizedRMSD -1
REMARK  1 active torsions:
REMARK  status: ('A' for Active; 'I' for Inactive)
REMARK    1  A    between atoms: N_2  and  C1_3 
ROOT
ATOM      1  C1  UNL d   1       3.450   2.903  -0.251  0.00  0.00     0.143 A 
ATOM      2  C2  UNL d   1       4.157   2.106  -1.158  0.00  0.00    -0.057 A 
ATOM      3  C3  UNL d   1       4.969   2.677  -2.146  0.00  0.00     0.033 A 
ATOM      4  C4  UNL d   1       5.064   4.060  -2.263  0.00  0.00    -0.042 A 
ATOM      5  C5  UNL d   1       4.351   4.871  -1.388  0.00  0.00     0.033 A 
ATOM      6  C6  UNL d   1       3.548   4.295  -0.399  0.00  0.00    -0.057 A 
ENDROOT
BRANCH   1   7
ATOM      7  N   UNL d   1       2.550   2.397   0.691  0.00  0.00    -0.732 N 
ATOM      8  C   UNL d   1       1.889   3.281   1.627  0.00  0.00     0.284 C 
ATOM      9  H3  UNL d   1       1.947   1.676   0.303  0.00  0.00     0.395 HD
ENDBRANCH   1   7
TORSDOF 1
ENDMDL
