MODEL 1
REMARK minimizedAffinity -4.41351891
REMARK minimizedRMSD -1
REMARK  1 active torsions:
REMARK  status: ('A' for Active; 'I' for Inactive)
REMARK    1  A    between atoms: N_2  and  C1_3 
ROOT
ATOM      1  C1  UNL d   1       2.902   3.629  -0.789  0.00  0.00     0.143 A 
ATOM      2  C2  UNL d   1       2.605   2.262  -0.743  0.00  0.00    -0.057 A 
ATOM      3  C3  UNL d   1       2.240   1.639   0.456  0.00  0.00     0.033 A 
ATOM      4  C4  UNL d   1       2.192   2.367   1.640  0.00  0.00    -0.042 A 
ATOM      5  C5  UNL d   1       2.508   3.721   1.623  0.00  0.00     0.033 A 
ATOM      6  C6  UNL d   1       2.866   4.340   0.421  0.00  0.00    -0.057 A 
ENDROOT
BRANCH   1   7
ATOM      7  N   UNL d   1       3.367   4.286  -1.930  0.00  0.00    -0.732 N 
ATOM      8  C   UNL d   1       4.578   3.848  -2.591  0.00  0.00     0.284 C 
ATOM      9  H3  UNL d   1       2.615   4.539  -2.567  0.00  0.00     0.395 HD
ENDBRANCH   1   7
TORSDOF 1
ENDMDL
