MODEL 1
REMARK minimizedAffinity -2.47297597
REMARK minimizedRMSD -1
REMARK  2 active torsions:
REMARK  status: ('A' for Active; 'I' for Inactive)
REMARK    1  A    between atoms: C2'_3  and  C1'_4 
REMARK    2  A    between atoms: C1'_4  and  C1_5 
ROOT
ATOM      1  C1  I4B d   1      -1.399   0.951   0.014  0.00  0.00    -0.075 A 
ATOM      2  C2  I4B d   1      -0.699   2.131   0.038  0.00  0.00     0.003 A 
ATOM      3  C3  I4B d   1       0.650   2.151   0.467  0.00  0.00     0.002 A 
ATOM      4  C4  I4B d   1       1.241   0.984   0.908  0.00  0.00    -0.004 A 
ATOM      5  C5  I4B d   1       0.536  -0.215   0.861  0.00  0.00     0.002 A 
ATOM      6  C6  I4B d   1      -0.788  -0.235   0.400  0.00  0.00     0.003 A 
ENDROOT
BRANCH   1   7
ATOM      7  C1' I4B d   1      -2.833   0.972  -0.413  0.00  0.00     0.060 C 
BRANCH   7   8
ATOM      8  C2' I4B d   1      -3.682   0.603   0.786  0.00  0.00    -0.013 C 
ATOM      9  C4' I4B d   1      -3.951   1.804   1.654  0.00  0.00     0.013 C 
ATOM     10  C3' I4B d   1      -4.961   0.003   0.281  0.00  0.00     0.013 C 
ENDBRANCH   7   8
ENDBRANCH   1   7
TORSDOF 2
ENDMDL
