MODEL 1
REMARK minimizedAffinity -5.1056118
REMARK minimizedRMSD -1
REMARK  2 active torsions:
REMARK  status: ('A' for Active; 'I' for Inactive)
REMARK    1  A    between atoms: C2'_3  and  C1'_4 
REMARK    2  A    between atoms: C1'_4  and  C1_5 
ROOT
ATOM      1  C1  I4B d   1      -0.954  -0.065   0.055  0.00  0.00    -0.075 A 
ATOM      2  C2  I4B d   1      -1.039   0.972  -0.840  0.00  0.00     0.003 A 
ATOM      3  C3  I4B d   1      -1.876   2.082  -0.567  0.00  0.00     0.002 A 
ATOM      4  C4  I4B d   1      -2.642   2.089   0.580  0.00  0.00    -0.004 A 
ATOM      5  C5  I4B d   1      -2.537   1.048   1.497  0.00  0.00     0.002 A 
ATOM      6  C6  I4B d   1      -1.679  -0.031   1.239  0.00  0.00     0.003 A 
ENDROOT
BRANCH   1   7
ATOM      7  C1' I4B d   1      -0.086  -1.236  -0.280  0.00  0.00     0.060 C 
BRANCH   7   8
ATOM      8  C2' I4B d   1       1.353  -0.762  -0.292  0.00  0.00    -0.013 C 
ATOM      9  C4' I4B d   1       1.931  -0.739   1.099  0.00  0.00     0.013 C 
ATOM     10  C3' I4B d   1       2.134  -1.677  -1.188  0.00  0.00     0.013 C 
ENDBRANCH   7   8
ENDBRANCH   1   7
TORSDOF 2
ENDMDL
