MODEL 1
REMARK minimizedAffinity -5.3596077
REMARK minimizedRMSD -1
REMARK  2 active torsions:
REMARK  status: ('A' for Active; 'I' for Inactive)
REMARK    1  A    between atoms: C2'_3  and  C1'_4 
REMARK    2  A    between atoms: C1'_4  and  C1_5 
ROOT
ATOM      1  C1  I4B d   1       0.135  -0.026   0.320  0.00  0.00    -0.075 A 
ATOM      2  C2  I4B d   1       0.206  -0.926  -0.714  0.00  0.00     0.003 A 
ATOM      3  C3  I4B d   1       1.118  -2.007  -0.657  0.00  0.00     0.002 A 
ATOM      4  C4  I4B d   1       1.971  -2.121   0.422  0.00  0.00    -0.004 A 
ATOM      5  C5  I4B d   1       1.882  -1.220   1.480  0.00  0.00     0.002 A 
ATOM      6  C6  I4B d   1       0.950  -0.173   1.434  0.00  0.00     0.003 A 
ENDROOT
BRANCH   1   7
ATOM      7  C1' I4B d   1      -0.817   1.123   0.211  0.00  0.00     0.060 C 
BRANCH   7   8
ATOM      8  C2' I4B d   1      -2.129   0.702   0.841  0.00  0.00    -0.013 C 
ATOM      9  C4' I4B d   1      -2.408   1.485   2.097  0.00  0.00     0.013 C 
ATOM     10  C3' I4B d   1      -3.215   0.903  -0.174  0.00  0.00     0.013 C 
ENDBRANCH   7   8
ENDBRANCH   1   7
TORSDOF 2
ENDMDL
