MODEL 1
REMARK minimizedAffinity -4.35237408
REMARK minimizedRMSD -1
REMARK  2 active torsions:
REMARK  status: ('A' for Active; 'I' for Inactive)
REMARK    1  A    between atoms: C2'_3  and  C1'_4 
REMARK    2  A    between atoms: C1'_4  and  C1_5 
ROOT
ATOM      1  C1  I4B d   1      -0.388  -0.005  -0.112  0.00  0.00    -0.075 A 
ATOM      2  C2  I4B d   1      -0.483  -1.178  -0.818  0.00  0.00     0.003 A 
ATOM      3  C3  I4B d   1       0.549  -2.144  -0.736  0.00  0.00     0.002 A 
ATOM      4  C4  I4B d   1       1.672  -1.877   0.019  0.00  0.00    -0.004 A 
ATOM      5  C5  I4B d   1       1.756  -0.697   0.753  0.00  0.00     0.002 A 
ATOM      6  C6  I4B d   1       0.714   0.240   0.697  0.00  0.00     0.003 A 
ENDROOT
BRANCH   1   7
ATOM      7  C1' I4B d   1      -1.481   1.008  -0.247  0.00  0.00     0.060 C 
BRANCH   7   8
ATOM      8  C2' I4B d   1      -2.690   0.494   0.507  0.00  0.00    -0.013 C 
ATOM      9  C4' I4B d   1      -3.219   1.532   1.462  0.00  0.00     0.013 C 
ATOM     10  C3' I4B d   1      -3.731   0.103  -0.499  0.00  0.00     0.013 C 
ENDBRANCH   7   8
ENDBRANCH   1   7
TORSDOF 2
ENDMDL
