MODEL 1
REMARK minimizedAffinity -3.44509721
REMARK minimizedRMSD -1
REMARK  2 active torsions:
REMARK  status: ('A' for Active; 'I' for Inactive)
REMARK    1  A    between atoms: C2'_3  and  C1'_4 
REMARK    2  A    between atoms: C1'_4  and  C1_5 
ROOT
ATOM      1  C1  I4B d   1       0.503  -0.358   0.217  0.00  0.00    -0.075 A 
ATOM      2  C2  I4B d   1      -0.489   0.073  -0.627  0.00  0.00     0.003 A 
ATOM      3  C3  I4B d   1      -0.560   1.434  -1.009  0.00  0.00     0.002 A 
ATOM      4  C4  I4B d   1       0.345   2.335  -0.485  0.00  0.00    -0.004 A 
ATOM      5  C5  I4B d   1       1.365   1.893   0.353  0.00  0.00     0.002 A 
ATOM      6  C6  I4B d   1       1.452   0.536   0.697  0.00  0.00     0.003 A 
ENDROOT
BRANCH   1   7
ATOM      7  C1' I4B d   1       0.529  -1.796   0.626  0.00  0.00     0.060 C 
BRANCH   7   8
ATOM      8  C2' I4B d   1       1.882  -2.365   0.249  0.00  0.00    -0.013 C 
ATOM      9  C4' I4B d   1       2.301  -1.910  -1.124  0.00  0.00     0.013 C 
ATOM     10  C3' I4B d   1       2.872  -1.930   1.289  0.00  0.00     0.013 C 
ENDBRANCH   7   8
ENDBRANCH   1   7
TORSDOF 2
ENDMDL
