MODEL 1
REMARK minimizedAffinity -4.76593065
REMARK minimizedRMSD -1
REMARK  2 active torsions:
REMARK  status: ('A' for Active; 'I' for Inactive)
REMARK    1  A    between atoms: C2'_3  and  C1'_4 
REMARK    2  A    between atoms: C1'_4  and  C1_5 
ROOT
ATOM      1  C1  I4B d   1       0.138   0.088  -0.063  0.00  0.00    -0.075 A 
ATOM      2  C2  I4B d   1       0.306  -1.098  -0.733  0.00  0.00     0.003 A 
ATOM      3  C3  I4B d   1       1.342  -1.988  -0.360  0.00  0.00     0.002 A 
ATOM      4  C4  I4B d   1       2.213  -1.632   0.649  0.00  0.00    -0.004 A 
ATOM      5  C5  I4B d   1       2.028  -0.440   1.343  0.00  0.00     0.002 A 
ATOM      6  C6  I4B d   1       0.977   0.421   0.994  0.00  0.00     0.003 A 
ENDROOT
BRANCH   1   7
ATOM      7  C1' I4B d   1      -0.945   1.019  -0.505  0.00  0.00     0.060 C 
BRANCH   7   8
ATOM      8  C2' I4B d   1      -2.216   0.638   0.227  0.00  0.00    -0.013 C 
ATOM      9  C4' I4B d   1      -2.659   1.735   1.159  0.00  0.00     0.013 C 
ATOM     10  C3' I4B d   1      -3.269   0.340  -0.799  0.00  0.00     0.013 C 
ENDBRANCH   7   8
ENDBRANCH   1   7
TORSDOF 2
ENDMDL
