MODEL 1
REMARK minimizedAffinity -3.05330896
REMARK minimizedRMSD -1
REMARK  2 active torsions:
REMARK  status: ('A' for Active; 'I' for Inactive)
REMARK    1  A    between atoms: C2'_3  and  C1'_4 
REMARK    2  A    between atoms: C1'_4  and  C1_5 
ROOT
ATOM      1  C1  I4B d   1      -0.200   0.953  -0.310  0.00  0.00    -0.075 A 
ATOM      2  C2  I4B d   1       0.858   1.768   0.005  0.00  0.00     0.003 A 
ATOM      3  C3  I4B d   1       2.122   1.209   0.312  0.00  0.00     0.002 A 
ATOM      4  C4  I4B d   1       2.269  -0.163   0.342  0.00  0.00    -0.004 A 
ATOM      5  C5  I4B d   1       1.201  -0.987  -0.001  0.00  0.00     0.002 A 
ATOM      6  C6  I4B d   1      -0.039  -0.426  -0.341  0.00  0.00     0.003 A 
ENDROOT
BRANCH   1   7
ATOM      7  C1' I4B d   1      -1.529   1.577  -0.598  0.00  0.00     0.060 C 
BRANCH   7   8
ATOM      8  C2' I4B d   1      -2.565   0.887   0.267  0.00  0.00    -0.013 C 
ATOM      9  C4' I4B d   1      -2.752   1.610   1.575  0.00  0.00     0.013 C 
ATOM     10  C3' I4B d   1      -3.848   0.827  -0.506  0.00  0.00     0.013 C 
ENDBRANCH   7   8
ENDBRANCH   1   7
TORSDOF 2
ENDMDL
