MODEL 1
REMARK minimizedAffinity -4.67370796
REMARK minimizedRMSD -1
REMARK  2 active torsions:
REMARK  status: ('A' for Active; 'I' for Inactive)
REMARK    1  A    between atoms: C2'_3  and  C1'_4 
REMARK    2  A    between atoms: C1'_4  and  C1_5 
ROOT
ATOM      1  C1  I4B d   1      -2.008  -0.781   0.150  0.00  0.00    -0.075 A 
ATOM      2  C2  I4B d   1      -1.124  -1.601   0.804  0.00  0.00     0.003 A 
ATOM      3  C3  I4B d   1      -1.575  -2.804   1.400  0.00  0.00     0.002 A 
ATOM      4  C4  I4B d   1      -2.918  -3.120   1.361  0.00  0.00    -0.004 A 
ATOM      5  C5  I4B d   1      -3.809  -2.298   0.677  0.00  0.00     0.002 A 
ATOM      6  C6  I4B d   1      -3.349  -1.127   0.057  0.00  0.00     0.003 A 
ENDROOT
BRANCH   1   7
ATOM      7  C1' I4B d   1      -1.503   0.498  -0.440  0.00  0.00     0.060 C 
BRANCH   7   8
ATOM      8  C2' I4B d   1      -0.202   0.200  -1.158  0.00  0.00    -0.013 C 
ATOM      9  C4' I4B d   1      -0.114   0.952  -2.460  0.00  0.00     0.013 C 
ATOM     10  C3' I4B d   1       0.927   0.568  -0.242  0.00  0.00     0.013 C 
ENDBRANCH   7   8
ENDBRANCH   1   7
TORSDOF 2
ENDMDL
