MODEL 1
REMARK minimizedAffinity -4.61627531
REMARK minimizedRMSD -1
REMARK  2 active torsions:
REMARK  status: ('A' for Active; 'I' for Inactive)
REMARK    1  A    between atoms: C2'_3  and  C1'_4 
REMARK    2  A    between atoms: C1'_4  and  C1_5 
ROOT
ATOM      1  C1  I4B d   1       0.238  -0.042  -0.072  0.00  0.00    -0.075 A 
ATOM      2  C2  I4B d   1      -0.133   0.289  -1.352  0.00  0.00     0.003 A 
ATOM      3  C3  I4B d   1      -1.488   0.192  -1.749  0.00  0.00     0.002 A 
ATOM      4  C4  I4B d   1      -2.426  -0.286  -0.857  0.00  0.00    -0.004 A 
ATOM      5  C5  I4B d   1      -2.052  -0.600   0.447  0.00  0.00     0.002 A 
ATOM      6  C6  I4B d   1      -0.714  -0.466   0.846  0.00  0.00     0.003 A 
ENDROOT
BRANCH   1   7
ATOM      7  C1' I4B d   1       1.683   0.041   0.304  0.00  0.00     0.060 C 
BRANCH   7   8
ATOM      8  C2' I4B d   1       1.985   1.476   0.685  0.00  0.00    -0.013 C 
ATOM      9  C4' I4B d   1       2.418   1.579   2.123  0.00  0.00     0.013 C 
ATOM     10  C3' I4B d   1       3.050   1.986  -0.240  0.00  0.00     0.013 C 
ENDBRANCH   7   8
ENDBRANCH   1   7
TORSDOF 2
ENDMDL
