MODEL 1
REMARK minimizedAffinity -5.36915541
REMARK minimizedRMSD -1
REMARK  2 active torsions:
REMARK  status: ('A' for Active; 'I' for Inactive)
REMARK    1  A    between atoms: C2'_3  and  C1'_4 
REMARK    2  A    between atoms: C1'_4  and  C1_5 
ROOT
ATOM      1  C1  I4B d   1       0.268  -0.057   0.003  0.00  0.00    -0.075 A 
ATOM      2  C2  I4B d   1      -0.125   0.625  -1.121  0.00  0.00     0.003 A 
ATOM      3  C3  I4B d   1      -1.448   0.494  -1.608  0.00  0.00     0.002 A 
ATOM      4  C4  I4B d   1      -2.324  -0.363  -0.974  0.00  0.00    -0.004 A 
ATOM      5  C5  I4B d   1      -1.930  -1.036   0.179  0.00  0.00     0.002 A 
ATOM      6  C6  I4B d   1      -0.630  -0.873   0.678  0.00  0.00     0.003 A 
ENDROOT
BRANCH   1   7
ATOM      7  C1' I4B d   1       1.683   0.079   0.471  0.00  0.00     0.060 C 
BRANCH   7   8
ATOM      8  C2' I4B d   1       1.976   1.555   0.647  0.00  0.00    -0.013 C 
ATOM      9  C4' I4B d   1       1.869   1.964   2.092  0.00  0.00     0.013 C 
ATOM     10  C3' I4B d   1       3.350   1.821   0.109  0.00  0.00     0.013 C 
ENDBRANCH   7   8
ENDBRANCH   1   7
TORSDOF 2
ENDMDL
