MODEL 1
REMARK minimizedAffinity -5.49226809
REMARK minimizedRMSD -1
REMARK  2 active torsions:
REMARK  status: ('A' for Active; 'I' for Inactive)
REMARK    1  A    between atoms: C2'_3  and  C1'_4 
REMARK    2  A    between atoms: C1'_4  and  C1_5 
ROOT
ATOM      1  C1  I4B d   1       0.188   0.055  -0.064  0.00  0.00    -0.075 A 
ATOM      2  C2  I4B d   1      -0.112   0.301  -1.381  0.00  0.00     0.003 A 
ATOM      3  C3  I4B d   1      -1.424   0.080  -1.866  0.00  0.00     0.002 A 
ATOM      4  C4  I4B d   1      -2.385  -0.431  -1.018  0.00  0.00    -0.004 A 
ATOM      5  C5  I4B d   1      -2.085  -0.659   0.322  0.00  0.00     0.002 A 
ATOM      6  C6  I4B d   1      -0.794  -0.403   0.805  0.00  0.00     0.003 A 
ENDROOT
BRANCH   1   7
ATOM      7  C1' I4B d   1       1.592   0.267   0.407  0.00  0.00     0.060 C 
BRANCH   7   8
ATOM      8  C2' I4B d   1       1.673   1.650   1.022  0.00  0.00    -0.013 C 
ATOM      9  C4' I4B d   1       2.296   1.601   2.392  0.00  0.00     0.013 C 
ATOM     10  C3' I4B d   1       2.469   2.522   0.096  0.00  0.00     0.013 C 
ENDBRANCH   7   8
ENDBRANCH   1   7
TORSDOF 2
ENDMDL
