MODEL 1
REMARK minimizedAffinity -5.08985043
REMARK minimizedRMSD -1
REMARK  2 active torsions:
REMARK  status: ('A' for Active; 'I' for Inactive)
REMARK    1  A    between atoms: C2'_3  and  C1'_4 
REMARK    2  A    between atoms: C1'_4  and  C1_5 
ROOT
ATOM      1  C1  I4B d   1      -0.128  -0.330   0.007  0.00  0.00    -0.075 A 
ATOM      2  C2  I4B d   1      -0.668   0.195  -1.141  0.00  0.00     0.003 A 
ATOM      3  C3  I4B d   1      -2.031  -0.024  -1.452  0.00  0.00     0.002 A 
ATOM      4  C4  I4B d   1      -2.800  -0.812  -0.620  0.00  0.00    -0.004 A 
ATOM      5  C5  I4B d   1      -2.257  -1.325   0.554  0.00  0.00     0.002 A 
ATOM      6  C6  I4B d   1      -0.916  -1.072   0.876  0.00  0.00     0.003 A 
ENDROOT
BRANCH   1   7
ATOM      7  C1' I4B d   1       1.324  -0.106   0.288  0.00  0.00     0.060 C 
BRANCH   7   8
ATOM      8  C2' I4B d   1       1.596   1.380   0.184  0.00  0.00    -0.013 C 
ATOM      9  C4' I4B d   1       1.759   2.002   1.546  0.00  0.00     0.013 C 
ATOM     10  C3' I4B d   1       2.830   1.568  -0.648  0.00  0.00     0.013 C 
ENDBRANCH   7   8
ENDBRANCH   1   7
TORSDOF 2
ENDMDL
