MODEL 1
REMARK minimizedAffinity -5.08362293
REMARK minimizedRMSD -1
REMARK  2 active torsions:
REMARK  status: ('A' for Active; 'I' for Inactive)
REMARK    1  A    between atoms: C2'_3  and  C1'_4 
REMARK    2  A    between atoms: C1'_4  and  C1_5 
ROOT
ATOM      1  C1  I4B d   1      -1.346  -0.866   0.577  0.00  0.00    -0.075 A 
ATOM      2  C2  I4B d   1      -2.557  -0.850  -0.068  0.00  0.00     0.003 A 
ATOM      3  C3  I4B d   1      -3.392  -1.993  -0.046  0.00  0.00     0.002 A 
ATOM      4  C4  I4B d   1      -2.956  -3.140   0.586  0.00  0.00    -0.004 A 
ATOM      5  C5  I4B d   1      -1.738  -3.148   1.258  0.00  0.00     0.002 A 
ATOM      6  C6  I4B d   1      -0.933  -2.000   1.265  0.00  0.00     0.003 A 
ENDROOT
BRANCH   1   7
ATOM      7  C1' I4B d   1      -0.475   0.348   0.506  0.00  0.00     0.060 C 
BRANCH   7   8
ATOM      8  C2' I4B d   1       0.603   0.090  -0.527  0.00  0.00    -0.013 C 
ATOM      9  C4' I4B d   1       0.262   0.738  -1.844  0.00  0.00     0.013 C 
ATOM     10  C3' I4B d   1       1.899   0.613   0.015  0.00  0.00     0.013 C 
ENDBRANCH   7   8
ENDBRANCH   1   7
TORSDOF 2
ENDMDL
