MODEL 1
REMARK minimizedAffinity -6.09696245
REMARK minimizedRMSD -1
REMARK  2 active torsions:
REMARK  status: ('A' for Active; 'I' for Inactive)
REMARK    1  A    between atoms: C2'_3  and  C1'_4 
REMARK    2  A    between atoms: C1'_4  and  C1_5 
ROOT
ATOM      1  C1  I4B d   1      -0.725  -0.607  -0.099  0.00  0.00    -0.075 A 
ATOM      2  C2  I4B d   1      -1.883  -0.144  -0.672  0.00  0.00     0.003 A 
ATOM      3  C3  I4B d   1      -3.131  -0.707  -0.313  0.00  0.00     0.002 A 
ATOM      4  C4  I4B d   1      -3.170  -1.759   0.581  0.00  0.00    -0.004 A 
ATOM      5  C5  I4B d   1      -1.997  -2.211   1.178  0.00  0.00     0.002 A 
ATOM      6  C6  I4B d   1      -0.768  -1.624   0.846  0.00  0.00     0.003 A 
ENDROOT
BRANCH   1   7
ATOM      7  C1' I4B d   1       0.579  -0.011  -0.527  0.00  0.00     0.060 C 
BRANCH   7   8
ATOM      8  C2' I4B d   1       1.489   0.037   0.684  0.00  0.00    -0.013 C 
ATOM      9  C4' I4B d   1       2.462  -1.113   0.680  0.00  0.00     0.013 C 
ATOM     10  C3' I4B d   1       2.207   1.353   0.671  0.00  0.00     0.013 C 
ENDBRANCH   7   8
ENDBRANCH   1   7
TORSDOF 2
ENDMDL
