MODEL 1
REMARK minimizedAffinity -3.64323163
REMARK minimizedRMSD -1
REMARK  2 active torsions:
REMARK  status: ('A' for Active; 'I' for Inactive)
REMARK    1  A    between atoms: C2'_3  and  C1'_4 
REMARK    2  A    between atoms: C1'_4  and  C1_5 
ROOT
ATOM      1  C1  I4B d   1       0.721   0.059   0.102  0.00  0.00    -0.075 A 
ATOM      2  C2  I4B d   1       0.010  -0.637   1.047  0.00  0.00     0.003 A 
ATOM      3  C3  I4B d   1      -1.331  -1.015   0.795  0.00  0.00     0.002 A 
ATOM      4  C4  I4B d   1      -1.933  -0.635  -0.388  0.00  0.00    -0.004 A 
ATOM      5  C5  I4B d   1      -1.203   0.051  -1.354  0.00  0.00     0.002 A 
ATOM      6  C6  I4B d   1       0.136   0.389  -1.113  0.00  0.00     0.003 A 
ENDROOT
BRANCH   1   7
ATOM      7  C1' I4B d   1       2.125   0.471   0.416  0.00  0.00     0.060 C 
BRANCH   7   8
ATOM      8  C2' I4B d   1       2.150   1.980   0.548  0.00  0.00    -0.013 C 
ATOM      9  C4' I4B d   1       2.337   2.398   1.983  0.00  0.00     0.013 C 
ATOM     10  C3' I4B d   1       3.258   2.502  -0.317  0.00  0.00     0.013 C 
ENDBRANCH   7   8
ENDBRANCH   1   7
TORSDOF 2
ENDMDL
