MODEL 1
REMARK minimizedAffinity -4.52728081
REMARK minimizedRMSD -1
REMARK  2 active torsions:
REMARK  status: ('A' for Active; 'I' for Inactive)
REMARK    1  A    between atoms: C2'_3  and  C1'_4 
REMARK    2  A    between atoms: C1'_4  and  C1_5 
ROOT
ATOM      1  C1  I4B d   1      -1.124  -0.258   0.299  0.00  0.00    -0.075 A 
ATOM      2  C2  I4B d   1      -1.946  -0.430  -0.786  0.00  0.00     0.003 A 
ATOM      3  C3  I4B d   1      -2.790  -1.564  -0.868  0.00  0.00     0.002 A 
ATOM      4  C4  I4B d   1      -2.743  -2.519   0.127  0.00  0.00    -0.004 A 
ATOM      5  C5  I4B d   1      -1.926  -2.331   1.238  0.00  0.00     0.002 A 
ATOM      6  C6  I4B d   1      -1.120  -1.187   1.331  0.00  0.00     0.003 A 
ENDROOT
BRANCH   1   7
ATOM      7  C1' I4B d   1      -0.221   0.935   0.337  0.00  0.00     0.060 C 
BRANCH   7   8
ATOM      8  C2' I4B d   1       1.209   0.437   0.373  0.00  0.00    -0.013 C 
ATOM      9  C4' I4B d   1       1.629  -0.110  -0.966  0.00  0.00     0.013 C 
ATOM     10  C3' I4B d   1       2.087   1.578   0.791  0.00  0.00     0.013 C 
ENDBRANCH   7   8
ENDBRANCH   1   7
TORSDOF 2
ENDMDL
