MODEL 1
REMARK minimizedAffinity -4.0068922
REMARK minimizedRMSD -1
REMARK  2 active torsions:
REMARK  status: ('A' for Active; 'I' for Inactive)
REMARK    1  A    between atoms: C2'_3  and  C1'_4 
REMARK    2  A    between atoms: C1'_4  and  C1_5 
ROOT
ATOM      1  C1  I4B d   1      -0.655  -0.465   0.285  0.00  0.00    -0.075 A 
ATOM      2  C2  I4B d   1      -1.900  -0.243  -0.249  0.00  0.00     0.003 A 
ATOM      3  C3  I4B d   1      -2.966  -1.131   0.034  0.00  0.00     0.002 A 
ATOM      4  C4  I4B d   1      -2.732  -2.248   0.810  0.00  0.00    -0.004 A 
ATOM      5  C5  I4B d   1      -1.475  -2.459   1.370  0.00  0.00     0.002 A 
ATOM      6  C6  I4B d   1      -0.433  -1.555   1.117  0.00  0.00     0.003 A 
ENDROOT
BRANCH   1   7
ATOM      7  C1' I4B d   1       0.456   0.475  -0.061  0.00  0.00     0.060 C 
BRANCH   7   8
ATOM      8  C2' I4B d   1       1.496   0.393   1.038  0.00  0.00    -0.013 C 
ATOM      9  C4' I4B d   1       2.585  -0.585   0.685  0.00  0.00     0.013 C 
ATOM     10  C3' I4B d   1       2.052   1.769   1.252  0.00  0.00     0.013 C 
ENDBRANCH   7   8
ENDBRANCH   1   7
TORSDOF 2
ENDMDL
