MODEL 1
REMARK minimizedAffinity -3.48722267
REMARK minimizedRMSD -1
REMARK  2 active torsions:
REMARK  status: ('A' for Active; 'I' for Inactive)
REMARK    1  A    between atoms: C2'_3  and  C1'_4 
REMARK    2  A    between atoms: C1'_4  and  C1_5 
ROOT
ATOM      1  C1  I4B d   1       0.300  -0.314  -0.007  0.00  0.00    -0.075 A 
ATOM      2  C2  I4B d   1      -0.121  -1.313   0.835  0.00  0.00     0.003 A 
ATOM      3  C3  I4B d   1      -1.431  -1.837   0.720  0.00  0.00     0.002 A 
ATOM      4  C4  I4B d   1      -2.298  -1.303  -0.212  0.00  0.00    -0.004 A 
ATOM      5  C5  I4B d   1      -1.861  -0.307  -1.080  0.00  0.00     0.002 A 
ATOM      6  C6  I4B d   1      -0.550   0.183  -0.986  0.00  0.00     0.003 A 
ENDROOT
BRANCH   1   7
ATOM      7  C1' I4B d   1       1.679   0.239   0.164  0.00  0.00     0.060 C 
BRANCH   7   8
ATOM      8  C2' I4B d   1       1.561   1.580   0.861  0.00  0.00    -0.013 C 
ATOM      9  C4' I4B d   1       1.799   1.447   2.342  0.00  0.00     0.013 C 
ATOM     10  C3' I4B d   1       2.552   2.515   0.235  0.00  0.00     0.013 C 
ENDBRANCH   7   8
ENDBRANCH   1   7
TORSDOF 2
ENDMDL
