MODEL 1
REMARK minimizedAffinity -1.39238596
REMARK minimizedRMSD -1
REMARK  2 active torsions:
REMARK  status: ('A' for Active; 'I' for Inactive)
REMARK    1  A    between atoms: C1_2  and  C2_3 
REMARK    2  A    between atoms: C2_3  and  C3_4 
ROOT
ATOM      1  C3  UNL d   1      -0.866  -2.629  -4.407  0.00  0.00    -0.075 A 
ATOM      2  C4  UNL d   1       0.254  -1.836  -4.119  0.00  0.00     0.002 A 
ATOM      3  C5  UNL d   1       0.241  -0.468  -4.390  0.00  0.00     0.002 A 
ATOM      4  C6  UNL d   1      -0.884   0.122  -4.961  0.00  0.00    -0.004 A 
ATOM      5  C7  UNL d   1      -1.996  -0.659  -5.267  0.00  0.00     0.002 A 
ATOM      6  C8  UNL d   1      -1.988  -2.028  -4.993  0.00  0.00     0.002 A 
ENDROOT
BRANCH   1   7
ATOM      7  C2  UNL d   1      -0.870  -4.106  -4.089  0.00  0.00     0.056 C 
BRANCH   7   8
ATOM      8  C1  UNL d   1      -1.272  -4.432  -2.647  0.00  0.00     0.007 C 
ATOM      9  C   UNL d   1      -0.086  -4.516  -1.697  0.00  0.00     0.009 C 
ENDBRANCH   7   8
ENDBRANCH   1   7
TORSDOF 2
ENDMDL
