MODEL 1
REMARK minimizedAffinity 6.51703453
REMARK minimizedRMSD -1
REMARK  2 active torsions:
REMARK  status: ('A' for Active; 'I' for Inactive)
REMARK    1  A    between atoms: C1_2  and  C2_3 
REMARK    2  A    between atoms: C2_3  and  C3_4 
ROOT
ATOM      1  C3  UNL d   1      -5.042   3.012  -3.771  0.00  0.00    -0.075 A 
ATOM      2  C4  UNL d   1      -5.999   3.327  -4.747  0.00  0.00     0.002 A 
ATOM      3  C5  UNL d   1      -5.845   4.456  -5.551  0.00  0.00     0.002 A 
ATOM      4  C6  UNL d   1      -4.741   5.288  -5.385  0.00  0.00    -0.004 A 
ATOM      5  C7  UNL d   1      -3.792   4.994  -4.408  0.00  0.00     0.002 A 
ATOM      6  C8  UNL d   1      -3.941   3.862  -3.605  0.00  0.00     0.002 A 
ENDROOT
BRANCH   1   7
ATOM      7  C2  UNL d   1      -5.187   1.775  -2.917  0.00  0.00     0.056 C 
BRANCH   7   8
ATOM      8  C1  UNL d   1      -3.888   1.330  -2.237  0.00  0.00     0.007 C 
ATOM      9  C   UNL d   1      -3.867  -0.153  -1.894  0.00  0.00     0.009 C 
ENDBRANCH   7   8
ENDBRANCH   1   7
TORSDOF 2
ENDMDL
