MODEL 1
REMARK minimizedAffinity 6.41789818
REMARK minimizedRMSD -1
REMARK  2 active torsions:
REMARK  status: ('A' for Active; 'I' for Inactive)
REMARK    1  A    between atoms: C1_2  and  C2_3 
REMARK    2  A    between atoms: C2_3  and  C3_4 
ROOT
ATOM      1  C3  UNL d   1       0.042   2.051  -1.094  0.00  0.00    -0.075 A 
ATOM      2  C4  UNL d   1       1.056   1.176  -1.510  0.00  0.00     0.002 A 
ATOM      3  C5  UNL d   1       0.914   0.432  -2.682  0.00  0.00     0.002 A 
ATOM      4  C6  UNL d   1      -0.246   0.545  -3.446  0.00  0.00    -0.004 A 
ATOM      5  C7  UNL d   1      -1.267   1.398  -3.033  0.00  0.00     0.002 A 
ATOM      6  C8  UNL d   1      -1.125   2.147  -1.863  0.00  0.00     0.002 A 
ENDROOT
BRANCH   1   7
ATOM      7  C2  UNL d   1       0.202   2.881   0.157  0.00  0.00     0.056 C 
BRANCH   7   8
ATOM      8  C1  UNL d   1       1.384   3.854   0.113  0.00  0.00     0.007 C 
ATOM      9  C   UNL d   1       1.247   4.916  -0.970  0.00  0.00     0.009 C 
ENDBRANCH   7   8
ENDBRANCH   1   7
TORSDOF 2
ENDMDL
