MODEL 1
REMARK minimizedAffinity 1.96834159
REMARK minimizedRMSD -1
REMARK  2 active torsions:
REMARK  status: ('A' for Active; 'I' for Inactive)
REMARK    1  A    between atoms: C1_2  and  C2_3 
REMARK    2  A    between atoms: C2_3  and  C3_4 
ROOT
ATOM      1  C3  UNL d   1       0.919  -0.638  -1.289  0.00  0.00    -0.075 A 
ATOM      2  C4  UNL d   1       0.543   0.017  -2.470  0.00  0.00     0.002 A 
ATOM      3  C5  UNL d   1       0.142  -0.714  -3.589  0.00  0.00     0.002 A 
ATOM      4  C6  UNL d   1       0.122  -2.106  -3.544  0.00  0.00    -0.004 A 
ATOM      5  C7  UNL d   1       0.510  -2.768  -2.381  0.00  0.00     0.002 A 
ATOM      6  C8  UNL d   1       0.908  -2.039  -1.259  0.00  0.00     0.002 A 
ENDROOT
BRANCH   1   7
ATOM      7  C2  UNL d   1       1.326   0.148  -0.065  0.00  0.00     0.056 C 
BRANCH   7   8
ATOM      8  C1  UNL d   1       0.327   1.240   0.335  0.00  0.00     0.007 C 
ATOM      9  C   UNL d   1       0.881   2.649   0.174  0.00  0.00     0.009 C 
ENDBRANCH   7   8
ENDBRANCH   1   7
TORSDOF 2
ENDMDL
