MODEL 1
REMARK minimizedAffinity 5.13469172
REMARK minimizedRMSD -1
REMARK  2 active torsions:
REMARK  status: ('A' for Active; 'I' for Inactive)
REMARK    1  A    between atoms: C1_2  and  C2_3 
REMARK    2  A    between atoms: C2_3  and  C3_4 
ROOT
ATOM      1  C3  UNL d   1       4.180  -1.664  -0.083  0.00  0.00    -0.075 A 
ATOM      2  C4  UNL d   1       3.696  -1.674   1.234  0.00  0.00     0.002 A 
ATOM      3  C5  UNL d   1       2.474  -1.075   1.544  0.00  0.00     0.002 A 
ATOM      4  C6  UNL d   1       1.728  -0.451   0.547  0.00  0.00    -0.004 A 
ATOM      5  C7  UNL d   1       2.207  -0.421  -0.761  0.00  0.00     0.002 A 
ATOM      6  C8  UNL d   1       3.427  -1.023  -1.075  0.00  0.00     0.002 A 
ENDROOT
BRANCH   1   7
ATOM      7  C2  UNL d   1       5.487  -2.336  -0.430  0.00  0.00     0.056 C 
BRANCH   7   8
ATOM      8  C1  UNL d   1       5.327  -3.643  -1.213  0.00  0.00     0.007 C 
ATOM      9  C   UNL d   1       5.218  -3.433  -2.717  0.00  0.00     0.009 C 
ENDBRANCH   7   8
ENDBRANCH   1   7
TORSDOF 2
ENDMDL
