MODEL 1
REMARK minimizedAffinity 9.97350883
REMARK minimizedRMSD -1
REMARK  2 active torsions:
REMARK  status: ('A' for Active; 'I' for Inactive)
REMARK    1  A    between atoms: C1_2  and  C2_3 
REMARK    2  A    between atoms: C2_3  and  C3_4 
ROOT
ATOM      1  C3  UNL d   1       5.133  -3.693  -0.001  0.00  0.00    -0.075 A 
ATOM      2  C4  UNL d   1       5.700  -2.683  -0.791  0.00  0.00     0.002 A 
ATOM      3  C5  UNL d   1       4.959  -1.551  -1.133  0.00  0.00     0.002 A 
ATOM      4  C6  UNL d   1       3.642  -1.420  -0.698  0.00  0.00    -0.004 A 
ATOM      5  C7  UNL d   1       3.063  -2.425   0.073  0.00  0.00     0.002 A 
ATOM      6  C8  UNL d   1       3.803  -3.557   0.420  0.00  0.00     0.002 A 
ENDROOT
BRANCH   1   7
ATOM      7  C2  UNL d   1       5.938  -4.907   0.397  0.00  0.00     0.056 C 
BRANCH   7   8
ATOM      8  C1  UNL d   1       5.123  -5.992   1.107  0.00  0.00     0.007 C 
ATOM      9  C   UNL d   1       5.320  -5.999   2.617  0.00  0.00     0.009 C 
ENDBRANCH   7   8
ENDBRANCH   1   7
TORSDOF 2
ENDMDL
