MODEL 1
REMARK minimizedAffinity 9.12336826
REMARK minimizedRMSD -1
REMARK  2 active torsions:
REMARK  status: ('A' for Active; 'I' for Inactive)
REMARK    1  A    between atoms: C1_2  and  C2_3 
REMARK    2  A    between atoms: C2_3  and  C3_4 
ROOT
ATOM      1  C3  UNL d   1      -4.927   2.825  -4.024  0.00  0.00    -0.075 A 
ATOM      2  C4  UNL d   1      -3.839   3.696  -3.861  0.00  0.00     0.002 A 
ATOM      3  C5  UNL d   1      -3.837   4.949  -4.474  0.00  0.00     0.002 A 
ATOM      4  C6  UNL d   1      -4.914   5.342  -5.265  0.00  0.00    -0.004 A 
ATOM      5  C7  UNL d   1      -5.992   4.479  -5.447  0.00  0.00     0.002 A 
ATOM      6  C8  UNL d   1      -5.999   3.227  -4.831  0.00  0.00     0.002 A 
ENDROOT
BRANCH   1   7
ATOM      7  C2  UNL d   1      -4.949   1.480  -3.338  0.00  0.00     0.056 C 
BRANCH   7   8
ATOM      8  C1  UNL d   1      -3.674   1.160  -2.550  0.00  0.00     0.007 C 
ATOM      9  C   UNL d   1      -3.345  -0.326  -2.518  0.00  0.00     0.009 C 
ENDBRANCH   7   8
ENDBRANCH   1   7
TORSDOF 2
ENDMDL
