MODEL 1
REMARK minimizedAffinity 7.88717604
REMARK minimizedRMSD -1
REMARK  2 active torsions:
REMARK  status: ('A' for Active; 'I' for Inactive)
REMARK    1  A    between atoms: C1_2  and  C2_3 
REMARK    2  A    between atoms: C2_3  and  C3_4 
ROOT
ATOM      1  C3  UNL d   1       5.238  -5.254  -1.331  0.00  0.00    -0.075 A 
ATOM      2  C4  UNL d   1       5.996  -4.130  -1.690  0.00  0.00     0.002 A 
ATOM      3  C5  UNL d   1       5.713  -3.430  -2.863  0.00  0.00     0.002 A 
ATOM      4  C6  UNL d   1       4.677  -3.848  -3.695  0.00  0.00    -0.004 A 
ATOM      5  C7  UNL d   1       3.928  -4.973  -3.357  0.00  0.00     0.002 A 
ATOM      6  C8  UNL d   1       4.206  -5.673  -2.182  0.00  0.00     0.002 A 
ENDROOT
BRANCH   1   7
ATOM      7  C2  UNL d   1       5.520  -5.998  -0.048  0.00  0.00     0.056 C 
BRANCH   7   8
ATOM      8  C1  UNL d   1       4.416  -5.866   1.006  0.00  0.00     0.007 C 
ATOM      9  C   UNL d   1       4.929  -6.000   2.433  0.00  0.00     0.009 C 
ENDBRANCH   7   8
ENDBRANCH   1   7
TORSDOF 2
ENDMDL
