MODEL 1
REMARK minimizedAffinity 7.83623457
REMARK minimizedRMSD -1
REMARK  2 active torsions:
REMARK  status: ('A' for Active; 'I' for Inactive)
REMARK    1  A    between atoms: C1_2  and  C2_3 
REMARK    2  A    between atoms: C2_3  and  C3_4 
ROOT
ATOM      1  C3  UNL d   1       0.608   0.937  -0.179  0.00  0.00    -0.075 A 
ATOM      2  C4  UNL d   1       0.290   0.347   1.053  0.00  0.00     0.002 A 
ATOM      3  C5  UNL d   1       0.858  -0.873   1.422  0.00  0.00     0.002 A 
ATOM      4  C6  UNL d   1       1.741  -1.522   0.562  0.00  0.00    -0.004 A 
ATOM      5  C7  UNL d   1       2.051  -0.954  -0.671  0.00  0.00     0.002 A 
ATOM      6  C8  UNL d   1       1.488   0.269  -1.041  0.00  0.00     0.002 A 
ENDROOT
BRANCH   1   7
ATOM      7  C2  UNL d   1       0.020   2.271  -0.571  0.00  0.00     0.056 C 
BRANCH   7   8
ATOM      8  C1  UNL d   1       0.715   3.474   0.076  0.00  0.00     0.007 C 
ATOM      9  C   UNL d   1       0.971   4.615  -0.899  0.00  0.00     0.009 C 
ENDBRANCH   7   8
ENDBRANCH   1   7
TORSDOF 2
ENDMDL
