MODEL 1
REMARK minimizedAffinity 12.2760677
REMARK minimizedRMSD -1
REMARK  0 active torsions:
REMARK  status: ('A' for Active; 'I' for Inactive)
ROOT
ATOM      1  C   UNL d   1       1.035  -1.752  -1.101  0.00  0.00     0.124 A 
ATOM      2  C1  UNL d   1       1.204  -1.829  -2.477  0.00  0.00     0.062 A 
ATOM      3  C2  UNL d   1       1.259  -0.668  -3.241  0.00  0.00     0.162 A 
ATOM      4  C3  UNL d   1       1.148   0.582  -2.631  0.00  0.00    -0.034 A 
ATOM      5  C4  UNL d   1       0.978   0.652  -1.248  0.00  0.00     0.162 A 
ATOM      6  C5  UNL d   1       0.923  -0.513  -0.488  0.00  0.00     0.062 A 
ATOM      7  F   UNL d   1       0.760  -0.436   0.841  0.00  0.00    -0.097 F 
ATOM      8  F1  UNL d   1       0.867   1.837  -0.629  0.00  0.00    -0.096 F 
ATOM      9  I   UNL d   1       1.231   2.322  -3.771  0.00  0.00    -0.060 I 
ATOM     10  F2  UNL d   1       1.423  -0.772  -4.568  0.00  0.00    -0.096 F 
ATOM     11  F3  UNL d   1       1.312  -3.026  -3.071  0.00  0.00    -0.097 F 
ATOM     12  F4  UNL d   1       0.981  -2.872  -0.368  0.00  0.00    -0.092 F 
ENDROOT
TORSDOF 0
ENDMDL
