MODEL 1
REMARK minimizedAffinity 7.95090532
REMARK minimizedRMSD -1
REMARK  0 active torsions:
REMARK  status: ('A' for Active; 'I' for Inactive)
ROOT
ATOM      1  C   UNL d   1       1.778  -0.810  -0.745  0.00  0.00     0.124 A 
ATOM      2  C1  UNL d   1       0.430  -0.624  -1.016  0.00  0.00     0.062 A 
ATOM      3  C2  UNL d   1      -0.515  -1.510  -0.506  0.00  0.00     0.162 A 
ATOM      4  C3  UNL d   1      -0.114  -2.590   0.282  0.00  0.00    -0.034 A 
ATOM      5  C4  UNL d   1       1.244  -2.770   0.549  0.00  0.00     0.162 A 
ATOM      6  C5  UNL d   1       2.184  -1.882   0.036  0.00  0.00     0.062 A 
ATOM      7  F   UNL d   1       3.487  -2.063   0.299  0.00  0.00    -0.097 F 
ATOM      8  F1  UNL d   1       1.664  -3.797   1.302  0.00  0.00    -0.096 F 
ATOM      9  I   UNL d   1      -1.523  -3.916   1.047  0.00  0.00    -0.060 I 
ATOM     10  F2  UNL d   1      -1.811  -1.307  -0.783  0.00  0.00    -0.096 F 
ATOM     11  F3  UNL d   1       0.035   0.410  -1.772  0.00  0.00    -0.097 F 
ATOM     12  F4  UNL d   1       2.685   0.044  -1.239  0.00  0.00    -0.092 F 
ENDROOT
TORSDOF 0
ENDMDL
