MODEL 1
REMARK minimizedAffinity 1.56197214
REMARK minimizedRMSD -1
REMARK  0 active torsions:
REMARK  status: ('A' for Active; 'I' for Inactive)
ROOT
ATOM      1  C   UNL d   1      -3.861   0.936   3.605  0.00  0.00     0.124 A 
ATOM      2  C1  UNL d   1      -2.769   0.252   4.122  0.00  0.00     0.062 A 
ATOM      3  C2  UNL d   1      -2.759  -1.139   4.141  0.00  0.00     0.162 A 
ATOM      4  C3  UNL d   1      -3.844  -1.858   3.640  0.00  0.00    -0.034 A 
ATOM      5  C4  UNL d   1      -4.939  -1.163   3.122  0.00  0.00     0.162 A 
ATOM      6  C5  UNL d   1      -4.944   0.228   3.105  0.00  0.00     0.062 A 
ATOM      7  F   UNL d   1      -6.000   0.886   2.605  0.00  0.00    -0.097 F 
ATOM      8  F1  UNL d   1      -5.999  -1.823   2.632  0.00  0.00    -0.096 F 
ATOM      9  I   UNL d   1      -3.833  -3.939   3.667  0.00  0.00    -0.060 I 
ATOM     10  F2  UNL d   1      -1.691  -1.773   4.648  0.00  0.00    -0.096 F 
ATOM     11  F3  UNL d   1      -1.721   0.935   4.607  0.00  0.00    -0.097 F 
ATOM     12  F4  UNL d   1      -3.868   2.275   3.589  0.00  0.00    -0.092 F 
ENDROOT
TORSDOF 0
ENDMDL
