MODEL 1
REMARK minimizedAffinity 16.0879822
REMARK minimizedRMSD -1
REMARK  0 active torsions:
REMARK  status: ('A' for Active; 'I' for Inactive)
ROOT
ATOM      1  C   UNL d   1       0.410  -1.030   0.119  0.00  0.00     0.124 A 
ATOM      2  C1  UNL d   1      -0.597  -1.811  -0.429  0.00  0.00     0.062 A 
ATOM      3  C2  UNL d   1      -0.784  -1.846  -1.808  0.00  0.00     0.162 A 
ATOM      4  C3  UNL d   1       0.040  -1.099  -2.649  0.00  0.00    -0.034 A 
ATOM      5  C4  UNL d   1       1.051  -0.315  -2.090  0.00  0.00     0.162 A 
ATOM      6  C5  UNL d   1       1.233  -0.283  -0.711  0.00  0.00     0.062 A 
ATOM      7  F   UNL d   1       2.208   0.472  -0.183  0.00  0.00    -0.097 F 
ATOM      8  F1  UNL d   1       1.862   0.417  -2.869  0.00  0.00    -0.096 F 
ATOM      9  I   UNL d   1      -0.235  -1.148  -4.711  0.00  0.00    -0.060 I 
ATOM     10  F2  UNL d   1      -1.766  -2.610  -2.311  0.00  0.00    -0.096 F 
ATOM     11  F3  UNL d   1      -1.395  -2.534   0.371  0.00  0.00    -0.097 F 
ATOM     12  F4  UNL d   1       0.587  -0.998   1.446  0.00  0.00    -0.092 F 
ENDROOT
TORSDOF 0
ENDMDL
