MODEL 1
REMARK minimizedAffinity 6.77316952
REMARK minimizedRMSD -1
REMARK  0 active torsions:
REMARK  status: ('A' for Active; 'I' for Inactive)
ROOT
ATOM      1  C   UNL d   1       1.890  -0.669  -1.064  0.00  0.00     0.124 A 
ATOM      2  C1  UNL d   1       2.322  -1.700  -0.240  0.00  0.00     0.062 A 
ATOM      3  C2  UNL d   1       1.401  -2.582   0.318  0.00  0.00     0.162 A 
ATOM      4  C3  UNL d   1       0.039  -2.438   0.053  0.00  0.00    -0.034 A 
ATOM      5  C4  UNL d   1      -0.387  -1.398  -0.776  0.00  0.00     0.162 A 
ATOM      6  C5  UNL d   1       0.537  -0.519  -1.331  0.00  0.00     0.062 A 
ATOM      7  F   UNL d   1       0.119   0.476  -2.127  0.00  0.00    -0.097 F 
ATOM      8  F1  UNL d   1      -1.689  -1.231  -1.051  0.00  0.00    -0.096 F 
ATOM      9  I   UNL d   1      -1.341  -3.754   0.885  0.00  0.00    -0.060 I 
ATOM     10  F2  UNL d   1       1.846  -3.568   1.110  0.00  0.00    -0.096 F 
ATOM     11  F3  UNL d   1       3.629  -1.846   0.020  0.00  0.00    -0.097 F 
ATOM     12  F4  UNL d   1       2.779   0.179  -1.599  0.00  0.00    -0.092 F 
ENDROOT
TORSDOF 0
ENDMDL
