MODEL 1
REMARK minimizedAffinity 5.75219488
REMARK minimizedRMSD -1
REMARK  0 active torsions:
REMARK  status: ('A' for Active; 'I' for Inactive)
ROOT
ATOM      1  C   UNL d   1       1.135  -3.252   0.705  0.00  0.00     0.124 A 
ATOM      2  C1  UNL d   1       2.100  -2.418   0.158  0.00  0.00     0.062 A 
ATOM      3  C2  UNL d   1       1.735  -1.417  -0.737  0.00  0.00     0.162 A 
ATOM      4  C3  UNL d   1       0.397  -1.243  -1.091  0.00  0.00    -0.034 A 
ATOM      5  C4  UNL d   1      -0.568  -2.087  -0.538  0.00  0.00     0.162 A 
ATOM      6  C5  UNL d   1      -0.198  -3.086   0.356  0.00  0.00     0.062 A 
ATOM      7  F   UNL d   1      -1.132  -3.890   0.883  0.00  0.00    -0.097 F 
ATOM      8  F1  UNL d   1      -1.863  -1.948  -0.857  0.00  0.00    -0.096 F 
ATOM      9  I   UNL d   1      -0.153   0.252  -2.430  0.00  0.00    -0.060 I 
ATOM     10  F2  UNL d   1       2.689  -0.626  -1.250  0.00  0.00    -0.096 F 
ATOM     11  F3  UNL d   1       3.389  -2.577   0.493  0.00  0.00    -0.097 F 
ATOM     12  F4  UNL d   1       1.489  -4.215   1.566  0.00  0.00    -0.092 F 
ENDROOT
TORSDOF 0
ENDMDL
