MODEL 1
REMARK minimizedAffinity 9.5135355
REMARK minimizedRMSD -1
REMARK  0 active torsions:
REMARK  status: ('A' for Active; 'I' for Inactive)
ROOT
ATOM      1  C   UNL d   1       1.076   1.322  -1.270  0.00  0.00     0.124 A 
ATOM      2  C1  UNL d   1       0.703   1.070  -2.583  0.00  0.00     0.062 A 
ATOM      3  C2  UNL d   1       0.448  -0.233  -3.000  0.00  0.00     0.162 A 
ATOM      4  C3  UNL d   1       0.565  -1.295  -2.103  0.00  0.00    -0.034 A 
ATOM      5  C4  UNL d   1       0.942  -1.034  -0.784  0.00  0.00     0.162 A 
ATOM      6  C5  UNL d   1       1.195   0.271  -0.372  0.00  0.00     0.062 A 
ATOM      7  F   UNL d   1       1.556   0.512   0.897  0.00  0.00    -0.097 F 
ATOM      8  F1  UNL d   1       1.063  -2.031   0.104  0.00  0.00    -0.096 F 
ATOM      9  I   UNL d   1       0.185  -3.245  -2.723  0.00  0.00    -0.060 I 
ATOM     10  F2  UNL d   1       0.089  -0.448  -4.274  0.00  0.00    -0.096 F 
ATOM     11  F3  UNL d   1       0.588   2.084  -3.452  0.00  0.00    -0.097 F 
ATOM     12  F4  UNL d   1       1.322   2.577  -0.871  0.00  0.00    -0.092 F 
ENDROOT
TORSDOF 0
ENDMDL
