MODEL 1
REMARK minimizedAffinity 6.63366842
REMARK minimizedRMSD -1
REMARK  0 active torsions:
REMARK  status: ('A' for Active; 'I' for Inactive)
ROOT
ATOM      1  C   UNL d   1       0.692   0.596  -0.958  0.00  0.00     0.124 A 
ATOM      2  C1  UNL d   1       0.979  -0.517  -1.736  0.00  0.00     0.062 A 
ATOM      3  C2  UNL d   1       1.322  -0.364  -3.076  0.00  0.00     0.162 A 
ATOM      4  C3  UNL d   1       1.380   0.907  -3.647  0.00  0.00    -0.034 A 
ATOM      5  C4  UNL d   1       1.088   2.022  -2.859  0.00  0.00     0.162 A 
ATOM      6  C5  UNL d   1       0.746   1.864  -1.520  0.00  0.00     0.062 A 
ATOM      7  F   UNL d   1       0.469   2.940  -0.770  0.00  0.00    -0.097 F 
ATOM      8  F1  UNL d   1       1.135   3.258  -3.376  0.00  0.00    -0.096 F 
ATOM      9  I   UNL d   1       1.892   1.140  -5.651  0.00  0.00    -0.060 I 
ATOM     10  F2  UNL d   1       1.595  -1.457  -3.804  0.00  0.00    -0.096 F 
ATOM     11  F3  UNL d   1       0.926  -1.742  -1.195  0.00  0.00    -0.097 F 
ATOM     12  F4  UNL d   1       0.361   0.447   0.331  0.00  0.00    -0.092 F 
ENDROOT
TORSDOF 0
ENDMDL
