MODEL 1
REMARK minimizedAffinity 21.1836472
REMARK minimizedRMSD -1
REMARK  0 active torsions:
REMARK  status: ('A' for Active; 'I' for Inactive)
ROOT
ATOM      1  C   UNL d   1       1.615   2.785  -0.353  0.00  0.00     0.124 A 
ATOM      2  C1  UNL d   1       0.837   1.968  -1.162  0.00  0.00     0.062 A 
ATOM      3  C2  UNL d   1       0.772   0.600  -0.917  0.00  0.00     0.162 A 
ATOM      4  C3  UNL d   1       1.486   0.039   0.142  0.00  0.00    -0.034 A 
ATOM      5  C4  UNL d   1       2.267   0.867   0.950  0.00  0.00     0.162 A 
ATOM      6  C5  UNL d   1       2.329   2.234   0.702  0.00  0.00     0.062 A 
ATOM      7  F   UNL d   1       3.081   3.022   1.484  0.00  0.00    -0.097 F 
ATOM      8  F1  UNL d   1       2.966   0.361   1.977  0.00  0.00    -0.096 F 
ATOM      9  I   UNL d   1       1.390  -2.007   0.511  0.00  0.00    -0.060 I 
ATOM     10  F2  UNL d   1       0.012  -0.166  -1.715  0.00  0.00    -0.096 F 
ATOM     11  F3  UNL d   1       0.148   2.498  -2.182  0.00  0.00    -0.097 F 
ATOM     12  F4  UNL d   1       1.678   4.102  -0.591  0.00  0.00    -0.092 F 
ENDROOT
TORSDOF 0
ENDMDL
