MODEL 1
REMARK minimizedAffinity 20.5205326
REMARK minimizedRMSD -1
REMARK  0 active torsions:
REMARK  status: ('A' for Active; 'I' for Inactive)
ROOT
ATOM      1  C   UNL d   1       3.042   2.348  -4.896  0.00  0.00     0.124 A 
ATOM      2  C1  UNL d   1       1.726   2.394  -4.456  0.00  0.00     0.062 A 
ATOM      3  C2  UNL d   1       1.347   1.701  -3.310  0.00  0.00     0.162 A 
ATOM      4  C3  UNL d   1       2.285   0.957  -2.595  0.00  0.00    -0.034 A 
ATOM      5  C4  UNL d   1       3.606   0.914  -3.044  0.00  0.00     0.162 A 
ATOM      6  C5  UNL d   1       3.980   1.608  -4.190  0.00  0.00     0.062 A 
ATOM      7  F   UNL d   1       5.252   1.563  -4.613  0.00  0.00    -0.097 F 
ATOM      8  F1  UNL d   1       4.533   0.209  -2.380  0.00  0.00    -0.096 F 
ATOM      9  I   UNL d   1       1.721  -0.080  -0.880  0.00  0.00    -0.060 I 
ATOM     10  F2  UNL d   1       0.069   1.763  -2.908  0.00  0.00    -0.096 F 
ATOM     11  F3  UNL d   1       0.818   3.106  -5.138  0.00  0.00    -0.097 F 
ATOM     12  F4  UNL d   1       3.404   3.014  -6.000  0.00  0.00    -0.092 F 
ENDROOT
TORSDOF 0
ENDMDL
