MODEL 1
REMARK minimizedAffinity 13.9458561
REMARK minimizedRMSD -1
REMARK  0 active torsions:
REMARK  status: ('A' for Active; 'I' for Inactive)
ROOT
ATOM      1  C   UNL d   1       1.055  -1.262  -2.878  0.00  0.00     0.124 A 
ATOM      2  C1  UNL d   1       0.893  -0.165  -3.712  0.00  0.00     0.062 A 
ATOM      3  C2  UNL d   1       0.872   1.122  -3.180  0.00  0.00     0.162 A 
ATOM      4  C3  UNL d   1       1.013   1.318  -1.806  0.00  0.00    -0.034 A 
ATOM      5  C4  UNL d   1       1.175   0.209  -0.974  0.00  0.00     0.162 A 
ATOM      6  C5  UNL d   1       1.196  -1.075  -1.510  0.00  0.00     0.062 A 
ATOM      7  F   UNL d   1       1.352  -2.134  -0.703  0.00  0.00    -0.097 F 
ATOM      8  F1  UNL d   1       1.314   0.361   0.352  0.00  0.00    -0.096 F 
ATOM      9  I   UNL d   1       0.981   3.239  -1.007  0.00  0.00    -0.060 I 
ATOM     10  F2  UNL d   1       0.714   2.164  -4.010  0.00  0.00    -0.096 F 
ATOM     11  F3  UNL d   1       0.756  -0.343  -5.034  0.00  0.00    -0.097 F 
ATOM     12  F4  UNL d   1       1.075  -2.499  -3.392  0.00  0.00    -0.092 F 
ENDROOT
TORSDOF 0
ENDMDL
