MODEL 1
REMARK minimizedAffinity 7.04772139
REMARK minimizedRMSD -1
REMARK  0 active torsions:
REMARK  status: ('A' for Active; 'I' for Inactive)
ROOT
ATOM      1  C   UNL d   1       1.528  -1.994  -3.049  0.00  0.00     0.124 A 
ATOM      2  C1  UNL d   1       1.373  -0.891  -3.876  0.00  0.00     0.062 A 
ATOM      3  C2  UNL d   1       0.976   0.333  -3.345  0.00  0.00     0.162 A 
ATOM      4  C3  UNL d   1       0.731   0.460  -1.977  0.00  0.00    -0.034 A 
ATOM      5  C4  UNL d   1       0.887  -0.655  -1.151  0.00  0.00     0.162 A 
ATOM      6  C5  UNL d   1       1.284  -1.875  -1.688  0.00  0.00     0.062 A 
ATOM      7  F   UNL d   1       1.433  -2.940  -0.886  0.00  0.00    -0.097 F 
ATOM      8  F1  UNL d   1       0.660  -0.568   0.168  0.00  0.00    -0.096 F 
ATOM      9  I   UNL d   1       0.136   2.288  -1.179  0.00  0.00    -0.060 I 
ATOM     10  F2  UNL d   1       0.835   1.382  -4.168  0.00  0.00    -0.096 F 
ATOM     11  F3  UNL d   1       1.607  -1.003  -5.192  0.00  0.00    -0.097 F 
ATOM     12  F4  UNL d   1       1.909  -3.170  -3.563  0.00  0.00    -0.092 F 
ENDROOT
TORSDOF 0
ENDMDL
