MODEL 1
REMARK minimizedAffinity 18.8882713
REMARK minimizedRMSD -1
REMARK  0 active torsions:
REMARK  status: ('A' for Active; 'I' for Inactive)
ROOT
ATOM      1  C   UNL d   1       0.955  -1.212  -1.367  0.00  0.00     0.124 A 
ATOM      2  C1  UNL d   1       0.620  -0.023  -0.733  0.00  0.00     0.062 A 
ATOM      3  C2  UNL d   1       0.605   1.171  -1.447  0.00  0.00     0.162 A 
ATOM      4  C3  UNL d   1       0.924   1.183  -2.805  0.00  0.00    -0.034 A 
ATOM      5  C4  UNL d   1       1.260  -0.016  -3.436  0.00  0.00     0.162 A 
ATOM      6  C5  UNL d   1       1.274  -1.207  -2.717  0.00  0.00     0.062 A 
ATOM      7  F   UNL d   1       1.598  -2.354  -3.332  0.00  0.00    -0.097 F 
ATOM      8  F1  UNL d   1       1.572  -0.040  -4.740  0.00  0.00    -0.096 F 
ATOM      9  I   UNL d   1       0.901   2.967  -3.877  0.00  0.00    -0.060 I 
ATOM     10  F2  UNL d   1       0.277   2.305  -0.808  0.00  0.00    -0.096 F 
ATOM     11  F3  UNL d   1       0.312  -0.025   0.572  0.00  0.00    -0.097 F 
ATOM     12  F4  UNL d   1       0.970  -2.359  -0.677  0.00  0.00    -0.092 F 
ENDROOT
TORSDOF 0
ENDMDL
