MODEL 1
REMARK minimizedAffinity 11.6454983
REMARK minimizedRMSD -1
REMARK  0 active torsions:
REMARK  status: ('A' for Active; 'I' for Inactive)
ROOT
ATOM      1  C   UNL d   1       1.294  -2.371  -2.539  0.00  0.00     0.124 A 
ATOM      2  C1  UNL d   1       1.537  -1.441  -3.541  0.00  0.00     0.062 A 
ATOM      3  C2  UNL d   1       1.460  -0.079  -3.266  0.00  0.00     0.162 A 
ATOM      4  C3  UNL d   1       1.140   0.363  -1.982  0.00  0.00    -0.034 A 
ATOM      5  C4  UNL d   1       0.897  -0.578  -0.980  0.00  0.00     0.162 A 
ATOM      6  C5  UNL d   1       0.975  -1.938  -1.260  0.00  0.00     0.062 A 
ATOM      7  F   UNL d   1       0.740  -2.835  -0.291  0.00  0.00    -0.097 F 
ATOM      8  F1  UNL d   1       0.587  -0.188   0.265  0.00  0.00    -0.096 F 
ATOM      9  I   UNL d   1       1.025   2.399  -1.567  0.00  0.00    -0.060 I 
ATOM     10  F2  UNL d   1       1.699   0.796  -4.254  0.00  0.00    -0.096 F 
ATOM     11  F3  UNL d   1       1.845  -1.856  -4.778  0.00  0.00    -0.097 F 
ATOM     12  F4  UNL d   1       1.368  -3.681  -2.807  0.00  0.00    -0.092 F 
ENDROOT
TORSDOF 0
ENDMDL
