MODEL 1
REMARK minimizedAffinity 11.2323456
REMARK minimizedRMSD -1
REMARK  0 active torsions:
REMARK  status: ('A' for Active; 'I' for Inactive)
ROOT
ATOM      1  C   UNL d   1       1.141  -1.427  -2.480  0.00  0.00     0.124 A 
ATOM      2  C1  UNL d   1       1.130  -0.305  -3.298  0.00  0.00     0.062 A 
ATOM      3  C2  UNL d   1       1.157   0.969  -2.738  0.00  0.00     0.162 A 
ATOM      4  C3  UNL d   1       1.196   1.129  -1.353  0.00  0.00    -0.034 A 
ATOM      5  C4  UNL d   1       1.206  -0.004  -0.537  0.00  0.00     0.162 A 
ATOM      6  C5  UNL d   1       1.179  -1.275  -1.101  0.00  0.00     0.062 A 
ATOM      7  F   UNL d   1       1.190  -2.358  -0.310  0.00  0.00    -0.097 F 
ATOM      8  F1  UNL d   1       1.244   0.113   0.798  0.00  0.00    -0.096 F 
ATOM      9  I   UNL d   1       1.236   3.032  -0.513  0.00  0.00    -0.060 I 
ATOM     10  F2  UNL d   1       1.145   2.035  -3.552  0.00  0.00    -0.096 F 
ATOM     11  F3  UNL d   1       1.093  -0.449  -4.630  0.00  0.00    -0.097 F 
ATOM     12  F4  UNL d   1       1.115  -2.652  -3.021  0.00  0.00    -0.092 F 
ENDROOT
TORSDOF 0
ENDMDL
