MODEL 1
REMARK minimizedAffinity 4.7645812
REMARK minimizedRMSD -1
REMARK  0 active torsions:
REMARK  status: ('A' for Active; 'I' for Inactive)
ROOT
ATOM      1  C   UNL d   1       1.388   0.012  -3.569  0.00  0.00     0.124 A 
ATOM      2  C1  UNL d   1       1.223  -1.346  -3.331  0.00  0.00     0.062 A 
ATOM      3  C2  UNL d   1       0.786  -1.790  -2.086  0.00  0.00     0.162 A 
ATOM      4  C3  UNL d   1       0.510  -0.876  -1.069  0.00  0.00    -0.034 A 
ATOM      5  C4  UNL d   1       0.679   0.488  -1.316  0.00  0.00     0.162 A 
ATOM      6  C5  UNL d   1       1.115   0.927  -2.561  0.00  0.00     0.062 A 
ATOM      7  F   UNL d   1       1.274   2.239  -2.789  0.00  0.00    -0.097 F 
ATOM      8  F1  UNL d   1       0.422   1.394  -0.361  0.00  0.00    -0.096 F 
ATOM      9  I   UNL d   1      -0.144  -1.537   0.793  0.00  0.00    -0.060 I 
ATOM     10  F2  UNL d   1       0.636  -3.108  -1.884  0.00  0.00    -0.096 F 
ATOM     11  F3  UNL d   1       1.486  -2.232  -4.302  0.00  0.00    -0.097 F 
ATOM     12  F4  UNL d   1       1.809   0.437  -4.767  0.00  0.00    -0.092 F 
ENDROOT
TORSDOF 0
ENDMDL
