MODEL 1
REMARK minimizedAffinity 10.4314947
REMARK minimizedRMSD -1
REMARK  0 active torsions:
REMARK  status: ('A' for Active; 'I' for Inactive)
ROOT
ATOM      1  C   UNL d   1       1.479   0.020  -3.752  0.00  0.00     0.124 A 
ATOM      2  C1  UNL d   1       1.476  -1.337  -3.462  0.00  0.00     0.062 A 
ATOM      3  C2  UNL d   1       1.042  -1.787  -2.218  0.00  0.00     0.162 A 
ATOM      4  C3  UNL d   1       0.605  -0.877  -1.255  0.00  0.00    -0.034 A 
ATOM      5  C4  UNL d   1       0.611   0.486  -1.554  0.00  0.00     0.162 A 
ATOM      6  C5  UNL d   1       1.046   0.930  -2.798  0.00  0.00     0.062 A 
ATOM      7  F   UNL d   1       1.048   2.242  -3.077  0.00  0.00    -0.097 F 
ATOM      8  F1  UNL d   1       0.198   1.388  -0.651  0.00  0.00    -0.096 F 
ATOM      9  I   UNL d   1      -0.045  -1.545   0.606  0.00  0.00    -0.060 I 
ATOM     10  F2  UNL d   1       1.050  -3.104  -1.965  0.00  0.00    -0.096 F 
ATOM     11  F3  UNL d   1       1.895  -2.219  -4.381  0.00  0.00    -0.097 F 
ATOM     12  F4  UNL d   1       1.898   0.449  -4.949  0.00  0.00    -0.092 F 
ENDROOT
TORSDOF 0
ENDMDL
