MODEL 1
REMARK minimizedAffinity -1.89225686
REMARK minimizedRMSD -1
REMARK  0 active torsions:
REMARK  status: ('A' for Active; 'I' for Inactive)
ROOT
ATOM      1  C   UNL d   1       5.998  -1.487   3.869  0.00  0.00     0.077 C 
ATOM      2  C1  UNL d   1       5.513  -0.757   2.652  0.00  0.00    -0.074 A 
ATOM      3  C2  UNL d   1       4.607  -1.353   1.769  0.00  0.00    -0.005 A 
ATOM      4  C3  UNL d   1       4.158  -0.658   0.647  0.00  0.00     0.006 A 
ATOM      5  C4  UNL d   1       4.608   0.639   0.396  0.00  0.00    -0.005 A 
ATOM      6  C5  UNL d   1       5.513   1.252   1.269  0.00  0.00    -0.074 A 
ATOM      7  C6  UNL d   1       6.000   2.649   1.020  0.00  0.00     0.077 C 
ATOM      8  C7  UNL d   1       5.955   0.549   2.398  0.00  0.00    -0.001 A 
ENDROOT
TORSDOF 0
ENDMDL
