MODEL 1
REMARK minimizedAffinity 1.97891164
REMARK minimizedRMSD -1
REMARK  0 active torsions:
REMARK  status: ('A' for Active; 'I' for Inactive)
ROOT
ATOM      1  C   UNL d   1       5.998   3.383   0.408  0.00  0.00     0.077 C 
ATOM      2  C1  UNL d   1       5.244   2.130   0.742  0.00  0.00    -0.074 A 
ATOM      3  C2  UNL d   1       3.863   2.046   0.537  0.00  0.00    -0.005 A 
ATOM      4  C3  UNL d   1       3.177   0.871   0.843  0.00  0.00     0.006 A 
ATOM      5  C4  UNL d   1       3.863  -0.230   1.357  0.00  0.00    -0.005 A 
ATOM      6  C5  UNL d   1       5.244  -0.165   1.567  0.00  0.00    -0.074 A 
ATOM      7  C6  UNL d   1       5.999  -1.343   2.109  0.00  0.00     0.077 C 
ATOM      8  C7  UNL d   1       5.928   1.017   1.250  0.00  0.00    -0.001 A 
ENDROOT
TORSDOF 0
ENDMDL
