MODEL 1
REMARK minimizedAffinity -1.74042237
REMARK minimizedRMSD -1
REMARK  0 active torsions:
REMARK  status: ('A' for Active; 'I' for Inactive)
ROOT
ATOM      1  C   UNL d   1      -5.376   3.913   6.000  0.00  0.00     0.077 C 
ATOM      2  C1  UNL d   1      -5.025   2.894   4.958  0.00  0.00    -0.074 A 
ATOM      3  C2  UNL d   1      -5.999   2.042   4.427  0.00  0.00    -0.005 A 
ATOM      4  C3  UNL d   1      -5.659   1.105   3.451  0.00  0.00     0.006 A 
ATOM      5  C4  UNL d   1      -4.343   1.011   2.997  0.00  0.00    -0.005 A 
ATOM      6  C5  UNL d   1      -3.355   1.854   3.515  0.00  0.00    -0.074 A 
ATOM      7  C6  UNL d   1      -1.938   1.772   3.031  0.00  0.00     0.077 C 
ATOM      8  C7  UNL d   1      -3.706   2.797   4.490  0.00  0.00    -0.001 A 
ENDROOT
TORSDOF 0
ENDMDL
