MODEL 1
REMARK minimizedAffinity 2.91402102
REMARK minimizedRMSD -1
REMARK  0 active torsions:
REMARK  status: ('A' for Active; 'I' for Inactive)
ROOT
ATOM      1  C   UNL d   1      -4.759   2.864   5.028  0.00  0.00     0.077 C 
ATOM      2  C1  UNL d   1      -3.810   2.029   4.220  0.00  0.00    -0.074 A 
ATOM      3  C2  UNL d   1      -3.980   0.645   4.117  0.00  0.00    -0.005 A 
ATOM      4  C3  UNL d   1      -3.095  -0.117   3.354  0.00  0.00     0.006 A 
ATOM      5  C4  UNL d   1      -2.033   0.496   2.688  0.00  0.00    -0.005 A 
ATOM      6  C5  UNL d   1      -1.848   1.879   2.780  0.00  0.00    -0.074 A 
ATOM      7  C6  UNL d   1      -0.717   2.556   2.063  0.00  0.00     0.077 C 
ATOM      8  C7  UNL d   1      -2.745   2.639   3.542  0.00  0.00    -0.001 A 
ENDROOT
TORSDOF 0
ENDMDL
