MODEL 1
REMARK minimizedAffinity 4.92313528
REMARK minimizedRMSD -1
REMARK  0 active torsions:
REMARK  status: ('A' for Active; 'I' for Inactive)
ROOT
ATOM      1  C   UNL d   1      -5.810   4.604   6.000  0.00  0.00     0.077 C 
ATOM      2  C1  UNL d   1      -5.283   3.263   5.583  0.00  0.00    -0.074 A 
ATOM      3  C2  UNL d   1      -5.909   2.084   6.000  0.00  0.00    -0.005 A 
ATOM      4  C3  UNL d   1      -5.413   0.844   5.596  0.00  0.00     0.006 A 
ATOM      5  C4  UNL d   1      -4.289   0.772   4.772  0.00  0.00    -0.005 A 
ATOM      6  C5  UNL d   1      -3.651   1.940   4.345  0.00  0.00    -0.074 A 
ATOM      7  C6  UNL d   1      -2.447   1.880   3.452  0.00  0.00     0.077 C 
ATOM      8  C7  UNL d   1      -4.159   3.182   4.749  0.00  0.00    -0.001 A 
ENDROOT
TORSDOF 0
ENDMDL
