MODEL 1
REMARK minimizedAffinity 6.64483023
REMARK minimizedRMSD -1
REMARK  0 active torsions:
REMARK  status: ('A' for Active; 'I' for Inactive)
ROOT
ATOM      1  C   UNL d   1      -0.313  -4.416  -0.309  0.00  0.00     0.077 C 
ATOM      2  C1  UNL d   1       0.555  -3.942  -1.436  0.00  0.00    -0.074 A 
ATOM      3  C2  UNL d   1       0.356  -4.405  -2.741  0.00  0.00    -0.005 A 
ATOM      4  C3  UNL d   1       1.165  -3.948  -3.781  0.00  0.00     0.006 A 
ATOM      5  C4  UNL d   1       2.179  -3.024  -3.528  0.00  0.00    -0.005 A 
ATOM      6  C5  UNL d   1       2.393  -2.549  -2.230  0.00  0.00    -0.074 A 
ATOM      7  C6  UNL d   1       3.472  -1.548  -1.943  0.00  0.00     0.077 C 
ATOM      8  C7  UNL d   1       1.571  -3.008  -1.192  0.00  0.00    -0.001 A 
ENDROOT
TORSDOF 0
ENDMDL
