MODEL 1
REMARK minimizedAffinity 1.61896348
REMARK minimizedRMSD -1
REMARK  0 active torsions:
REMARK  status: ('A' for Active; 'I' for Inactive)
ROOT
ATOM      1  C   UNL d   1       1.562  -5.980  -3.287  0.00  0.00     0.077 C 
ATOM      2  C1  UNL d   1       0.658  -5.392  -2.245  0.00  0.00    -0.074 A 
ATOM      3  C2  UNL d   1       1.062  -4.293  -1.481  0.00  0.00    -0.005 A 
ATOM      4  C3  UNL d   1       0.206  -3.750  -0.522  0.00  0.00     0.006 A 
ATOM      5  C4  UNL d   1      -1.059  -4.301  -0.318  0.00  0.00    -0.005 A 
ATOM      6  C5  UNL d   1      -1.481  -5.400  -1.074  0.00  0.00    -0.074 A 
ATOM      7  C6  UNL d   1      -2.842  -5.997  -0.874  0.00  0.00     0.077 C 
ATOM      8  C7  UNL d   1      -0.618  -5.935  -2.040  0.00  0.00    -0.001 A 
ENDROOT
TORSDOF 0
ENDMDL
