MODEL 1
REMARK minimizedAffinity 5.72356606
REMARK minimizedRMSD -1
REMARK  0 active torsions:
REMARK  status: ('A' for Active; 'I' for Inactive)
ROOT
ATOM      1  C   UNL d   1      -1.144   2.333   1.986  0.00  0.00     0.077 C 
ATOM      2  C1  UNL d   1      -2.296   1.665   2.676  0.00  0.00    -0.074 A 
ATOM      3  C2  UNL d   1      -2.603   0.323   2.427  0.00  0.00    -0.005 A 
ATOM      4  C3  UNL d   1      -3.672  -0.287   3.083  0.00  0.00     0.006 A 
ATOM      5  C4  UNL d   1      -4.444   0.437   3.993  0.00  0.00    -0.005 A 
ATOM      6  C5  UNL d   1      -4.152   1.779   4.254  0.00  0.00    -0.074 A 
ATOM      7  C6  UNL d   1      -4.965   2.569   5.236  0.00  0.00     0.077 C 
ATOM      8  C7  UNL d   1      -3.072   2.383   3.596  0.00  0.00    -0.001 A 
ENDROOT
TORSDOF 0
ENDMDL
