MODEL 1
REMARK minimizedAffinity 0.715979755
REMARK minimizedRMSD -1
REMARK  0 active torsions:
REMARK  status: ('A' for Active; 'I' for Inactive)
ROOT
ATOM      1  C   UNL d   1      -4.009   2.161   3.937  0.00  0.00     0.077 C 
ATOM      2  C1  UNL d   1      -2.779   1.876   3.127  0.00  0.00    -0.074 A 
ATOM      3  C2  UNL d   1      -1.920   2.908   2.737  0.00  0.00    -0.005 A 
ATOM      4  C3  UNL d   1      -0.775   2.627   1.992  0.00  0.00     0.006 A 
ATOM      5  C4  UNL d   1      -0.477   1.312   1.631  0.00  0.00    -0.005 A 
ATOM      6  C5  UNL d   1      -1.323   0.266   2.014  0.00  0.00    -0.074 A 
ATOM      7  C6  UNL d   1      -1.013  -1.153   1.642  0.00  0.00     0.077 C 
ATOM      8  C7  UNL d   1      -2.469   0.557   2.768  0.00  0.00    -0.001 A 
ENDROOT
TORSDOF 0
ENDMDL
