MODEL 1
REMARK minimizedAffinity 2.12146258
REMARK minimizedRMSD -1
REMARK  0 active torsions:
REMARK  status: ('A' for Active; 'I' for Inactive)
ROOT
ATOM      1  C   UNL d   1      -0.219   2.436   2.481  0.00  0.00     0.077 C 
ATOM      2  C1  UNL d   1      -1.518   1.787   2.855  0.00  0.00    -0.074 A 
ATOM      3  C2  UNL d   1      -1.861   0.525   2.359  0.00  0.00    -0.005 A 
ATOM      4  C3  UNL d   1      -3.069  -0.070   2.724  0.00  0.00     0.006 A 
ATOM      5  C4  UNL d   1      -3.945   0.590   3.587  0.00  0.00    -0.005 A 
ATOM      6  C5  UNL d   1      -3.619   1.852   4.093  0.00  0.00    -0.074 A 
ATOM      7  C6  UNL d   1      -4.545   2.570   5.029  0.00  0.00     0.077 C 
ATOM      8  C7  UNL d   1      -2.400   2.440   3.728  0.00  0.00    -0.001 A 
ENDROOT
TORSDOF 0
ENDMDL
