MODEL 1
REMARK minimizedAffinity -1.408764
REMARK minimizedRMSD -1
REMARK  0 active torsions:
REMARK  status: ('A' for Active; 'I' for Inactive)
ROOT
ATOM      1  C   UNL d   1       0.314   1.423   2.704  0.00  0.00     0.077 C 
ATOM      2  C1  UNL d   1      -1.113   1.873   2.802  0.00  0.00    -0.074 A 
ATOM      3  C2  UNL d   1      -1.801   2.334   1.675  0.00  0.00    -0.005 A 
ATOM      4  C3  UNL d   1      -3.131   2.740   1.779  0.00  0.00     0.006 A 
ATOM      5  C4  UNL d   1      -3.786   2.690   3.010  0.00  0.00    -0.005 A 
ATOM      6  C5  UNL d   1      -3.115   2.232   4.149  0.00  0.00    -0.074 A 
ATOM      7  C6  UNL d   1      -3.808   2.162   5.477  0.00  0.00     0.077 C 
ATOM      8  C7  UNL d   1      -1.781   1.819   4.034  0.00  0.00    -0.001 A 
ENDROOT
TORSDOF 0
ENDMDL
