MODEL 1
REMARK minimizedAffinity 4.69913197
REMARK minimizedRMSD -1
REMARK  0 active torsions:
REMARK  status: ('A' for Active; 'I' for Inactive)
ROOT
ATOM      1  C   UNL d   1      -1.366   2.204   2.251  0.00  0.00     0.077 C 
ATOM      2  C1  UNL d   1      -2.566   1.679   2.982  0.00  0.00    -0.074 A 
ATOM      3  C2  UNL d   1      -2.988   0.356   2.814  0.00  0.00    -0.005 A 
ATOM      4  C3  UNL d   1      -4.101  -0.120   3.507  0.00  0.00     0.006 A 
ATOM      5  C4  UNL d   1      -4.802   0.720   4.374  0.00  0.00    -0.005 A 
ATOM      6  C5  UNL d   1      -4.394   2.045   4.555  0.00  0.00    -0.074 A 
ATOM      7  C6  UNL d   1      -5.129   2.958   5.490  0.00  0.00     0.077 C 
ATOM      8  C7  UNL d   1      -3.271   2.514   3.860  0.00  0.00    -0.001 A 
ENDROOT
TORSDOF 0
ENDMDL
