MODEL 1
REMARK minimizedAffinity 1.9374882
REMARK minimizedRMSD -1
REMARK  0 active torsions:
REMARK  status: ('A' for Active; 'I' for Inactive)
ROOT
ATOM      1  C   UNL d   1      -3.376  -2.471  -2.513  0.00  0.00     0.077 C 
ATOM      2  C1  UNL d   1      -2.253  -3.258  -1.904  0.00  0.00    -0.074 A 
ATOM      3  C2  UNL d   1      -2.452  -4.016  -0.745  0.00  0.00    -0.005 A 
ATOM      4  C3  UNL d   1      -1.401  -4.750  -0.196  0.00  0.00     0.006 A 
ATOM      5  C4  UNL d   1      -0.143  -4.735  -0.799  0.00  0.00    -0.005 A 
ATOM      6  C5  UNL d   1       0.075  -3.984  -1.959  0.00  0.00    -0.074 A 
ATOM      7  C6  UNL d   1       1.418  -3.964  -2.625  0.00  0.00     0.077 C 
ATOM      8  C7  UNL d   1      -0.988  -3.254  -2.508  0.00  0.00    -0.001 A 
ENDROOT
TORSDOF 0
ENDMDL
