MODEL 1
REMARK minimizedAffinity 4.4272027
REMARK minimizedRMSD -1
REMARK  0 active torsions:
REMARK  status: ('A' for Active; 'I' for Inactive)
ROOT
ATOM      1  C   UNL d   1      -5.314  -1.946   0.898  0.00  0.00     0.077 C 
ATOM      2  C1  UNL d   1      -4.522  -1.588  -0.324  0.00  0.00    -0.074 A 
ATOM      3  C2  UNL d   1      -4.268  -2.537  -1.319  0.00  0.00    -0.005 A 
ATOM      4  C3  UNL d   1      -3.538  -2.187  -2.455  0.00  0.00     0.006 A 
ATOM      5  C4  UNL d   1      -3.057  -0.886  -2.608  0.00  0.00    -0.005 A 
ATOM      6  C5  UNL d   1      -3.302   0.077  -1.624  0.00  0.00    -0.074 A 
ATOM      7  C6  UNL d   1      -2.800   1.482  -1.777  0.00  0.00     0.077 C 
ATOM      8  C7  UNL d   1      -4.042  -0.281  -0.489  0.00  0.00    -0.001 A 
ENDROOT
TORSDOF 0
ENDMDL
