MODEL 1
REMARK minimizedAffinity 2.53622985
REMARK minimizedRMSD -1
REMARK  0 active torsions:
REMARK  status: ('A' for Active; 'I' for Inactive)
ROOT
ATOM      1  C   UNL d   1       3.806   0.908  -3.675  0.00  0.00     0.077 C 
ATOM      2  C1  UNL d   1       3.493   2.356  -3.911  0.00  0.00    -0.074 A 
ATOM      3  C2  UNL d   1       2.428   2.978  -3.253  0.00  0.00    -0.005 A 
ATOM      4  C3  UNL d   1       2.154   4.327  -3.475  0.00  0.00     0.006 A 
ATOM      5  C4  UNL d   1       2.943   5.067  -4.357  0.00  0.00    -0.005 A 
ATOM      6  C5  UNL d   1       4.013   4.463  -5.024  0.00  0.00    -0.074 A 
ATOM      7  C6  UNL d   1       4.876   5.246  -5.968  0.00  0.00     0.077 C 
ATOM      8  C7  UNL d   1       4.285   3.108  -4.790  0.00  0.00    -0.001 A 
ENDROOT
TORSDOF 0
ENDMDL
