MODEL 1
REMARK minimizedAffinity 7.71400976
REMARK minimizedRMSD -1
REMARK  0 active torsions:
REMARK  status: ('A' for Active; 'I' for Inactive)
ROOT
ATOM      1  C   UNL d   1      -1.248   3.148   2.151  0.00  0.00     0.077 C 
ATOM      2  C1  UNL d   1      -2.264   2.266   2.814  0.00  0.00    -0.074 A 
ATOM      3  C2  UNL d   1      -2.330   0.900   2.522  0.00  0.00    -0.005 A 
ATOM      4  C3  UNL d   1      -3.274   0.090   3.154  0.00  0.00     0.006 A 
ATOM      5  C4  UNL d   1      -4.160   0.638   4.083  0.00  0.00    -0.005 A 
ATOM      6  C5  UNL d   1      -4.108   2.002   4.388  0.00  0.00    -0.074 A 
ATOM      7  C6  UNL d   1      -5.047   2.604   5.391  0.00  0.00     0.077 C 
ATOM      8  C7  UNL d   1      -3.152   2.807   3.754  0.00  0.00    -0.001 A 
ENDROOT
TORSDOF 0
ENDMDL
