MODEL 1
REMARK minimizedAffinity 5.49958849
REMARK minimizedRMSD -1
REMARK  1 active torsions:
REMARK  status: ('A' for Active; 'I' for Inactive)
REMARK    1  A    between atoms: C1_2  and  C2_3 
ROOT
ATOM      1  C2  UNL d   1       0.953   4.980  -0.718  0.00  0.00    -0.077 A 
ATOM      2  C3  UNL d   1      -0.419   5.016  -1.004  0.00  0.00     0.002 A 
ATOM      3  C4  UNL d   1      -1.289   4.104  -0.406  0.00  0.00     0.002 A 
ATOM      4  C5  UNL d   1      -0.799   3.152   0.485  0.00  0.00    -0.004 A 
ATOM      5  C6  UNL d   1       0.564   3.106   0.775  0.00  0.00     0.002 A 
ATOM      6  C7  UNL d   1       1.436   4.017   0.177  0.00  0.00     0.002 A 
ENDROOT
BRANCH   1   7
ATOM      7  C1  UNL d   1       1.887   5.995  -1.324  0.00  0.00     0.055 C 
ATOM      8  C   UNL d   1       1.799   5.990  -2.843  0.00  0.00     0.019 C 
ENDBRANCH   1   7
TORSDOF 1
ENDMDL
