MODEL 1
REMARK minimizedAffinity 7.73286772
REMARK minimizedRMSD -1
REMARK  1 active torsions:
REMARK  status: ('A' for Active; 'I' for Inactive)
REMARK    1  A    between atoms: C1_2  and  C2_3 
ROOT
ATOM      1  C2  UNL d   1       0.632   1.367  -0.243  0.00  0.00    -0.077 A 
ATOM      2  C3  UNL d   1       1.031   0.393   0.684  0.00  0.00     0.002 A 
ATOM      3  C4  UNL d   1       1.436  -0.871   0.250  0.00  0.00     0.002 A 
ATOM      4  C5  UNL d   1       1.450  -1.171  -1.111  0.00  0.00    -0.004 A 
ATOM      5  C6  UNL d   1       1.053  -0.210  -2.040  0.00  0.00     0.002 A 
ATOM      6  C7  UNL d   1       0.647   1.053  -1.608  0.00  0.00     0.002 A 
ENDROOT
BRANCH   1   7
ATOM      7  C1  UNL d   1       0.242   2.747   0.219  0.00  0.00     0.055 C 
ATOM      8  C   UNL d   1      -1.133   3.137  -0.302  0.00  0.00     0.019 C 
ENDBRANCH   1   7
TORSDOF 1
ENDMDL
