MODEL 1
REMARK minimizedAffinity 8.04873276
REMARK minimizedRMSD -1
REMARK  1 active torsions:
REMARK  status: ('A' for Active; 'I' for Inactive)
REMARK    1  A    between atoms: C1_2  and  C2_3 
ROOT
ATOM      1  C2  UNL d   1       0.714   3.950  -0.775  0.00  0.00    -0.077 A 
ATOM      2  C3  UNL d   1      -0.570   4.340  -1.183  0.00  0.00     0.002 A 
ATOM      3  C4  UNL d   1      -1.691   3.613  -0.777  0.00  0.00     0.002 A 
ATOM      4  C5  UNL d   1      -1.540   2.495   0.040  0.00  0.00    -0.004 A 
ATOM      5  C6  UNL d   1      -0.268   2.098   0.450  0.00  0.00     0.002 A 
ATOM      6  C7  UNL d   1       0.854   2.822   0.044  0.00  0.00     0.002 A 
ENDROOT
BRANCH   1   7
ATOM      7  C1  UNL d   1       1.920   4.761  -1.171  0.00  0.00     0.055 C 
ATOM      8  C   UNL d   1       1.521   5.987  -1.978  0.00  0.00     0.019 C 
ENDBRANCH   1   7
TORSDOF 1
ENDMDL
