MODEL 1
REMARK minimizedAffinity 7.34133291
REMARK minimizedRMSD -1
REMARK  1 active torsions:
REMARK  status: ('A' for Active; 'I' for Inactive)
REMARK    1  A    between atoms: C1_2  and  C2_3 
ROOT
ATOM      1  C2  UNL d   1      -0.694   1.664  -2.460  0.00  0.00    -0.077 A 
ATOM      2  C3  UNL d   1       0.228   1.730  -1.406  0.00  0.00     0.002 A 
ATOM      3  C4  UNL d   1       0.063   2.663  -0.381  0.00  0.00     0.002 A 
ATOM      4  C5  UNL d   1      -1.025   3.533  -0.397  0.00  0.00    -0.004 A 
ATOM      5  C6  UNL d   1      -1.947   3.477  -1.442  0.00  0.00     0.002 A 
ATOM      6  C7  UNL d   1      -1.782   2.546  -2.468  0.00  0.00     0.002 A 
ENDROOT
BRANCH   1   7
ATOM      7  C1  UNL d   1      -0.544   0.625  -3.541  0.00  0.00     0.055 C 
ATOM      8  C   UNL d   1      -1.698   0.687  -4.531  0.00  0.00     0.019 C 
ENDBRANCH   1   7
TORSDOF 1
ENDMDL
