MODEL 1
REMARK minimizedAffinity 8.87968445
REMARK minimizedRMSD -1
REMARK  0 active torsions:
REMARK  status: ('A' for Active; 'I' for Inactive)
ROOT
ATOM      1  C   UNL d   1       0.455   3.227   0.223  0.00  0.00     0.020 A 
ATOM      2  C1  UNL d   1      -0.228   2.016   0.324  0.00  0.00     0.020 A 
ATOM      3  C2  UNL d   1      -1.105   1.623  -0.689  0.00  0.00     0.034 A 
ATOM      4  C3  UNL d   1      -1.303   2.443  -1.806  0.00  0.00     0.017 A 
ATOM      5  C4  UNL d   1      -0.617   3.659  -1.906  0.00  0.00     0.017 A 
ATOM      6  C5  UNL d   1       0.261   4.047  -0.889  0.00  0.00     0.034 A 
ATOM      7 Cl   UNL d   1      -0.808   4.723  -3.254  0.00  0.00    -0.070 Cl
ATOM      8 Cl1  UNL d   1      -2.403   1.895  -3.021  0.00  0.00    -0.070 Cl
ENDROOT
TORSDOF 0
ENDMDL
