MODEL 1
REMARK minimizedAffinity 5.11303663
REMARK minimizedRMSD -1
REMARK  0 active torsions:
REMARK  status: ('A' for Active; 'I' for Inactive)
ROOT
ATOM      1  C   UNL d   1      -3.924   1.258  -0.512  0.00  0.00     0.020 A 
ATOM      2  C1  UNL d   1      -5.175   0.643  -0.539  0.00  0.00     0.020 A 
ATOM      3  C2  UNL d   1      -5.698   0.073   0.624  0.00  0.00     0.034 A 
ATOM      4  C3  UNL d   1      -4.969   0.115   1.818  0.00  0.00     0.017 A 
ATOM      5  C4  UNL d   1      -3.713   0.733   1.844  0.00  0.00     0.017 A 
ATOM      6  C5  UNL d   1      -3.195   1.302   0.677  0.00  0.00     0.034 A 
ATOM      7 Cl   UNL d   1      -2.756   0.825   3.280  0.00  0.00    -0.070 Cl
ATOM      8 Cl1  UNL d   1      -5.677  -0.610   3.217  0.00  0.00    -0.070 Cl
ENDROOT
TORSDOF 0
ENDMDL
