MODEL 1
REMARK minimizedAffinity 5.93545103
REMARK minimizedRMSD -1
REMARK  0 active torsions:
REMARK  status: ('A' for Active; 'I' for Inactive)
ROOT
ATOM      1  C   UNL d   1      -5.470  -1.801   3.951  0.00  0.00     0.020 A 
ATOM      2  C1  UNL d   1      -5.998  -0.511   3.902  0.00  0.00     0.020 A 
ATOM      3  C2  UNL d   1      -5.726   0.314   2.809  0.00  0.00     0.034 A 
ATOM      4  C3  UNL d   1      -4.924  -0.150   1.760  0.00  0.00     0.017 A 
ATOM      5  C4  UNL d   1      -4.394  -1.444   1.810  0.00  0.00     0.017 A 
ATOM      6  C5  UNL d   1      -4.670  -2.266   2.907  0.00  0.00     0.034 A 
ATOM      7 Cl   UNL d   1      -3.396  -2.087   0.553  0.00  0.00    -0.070 Cl
ATOM      8 Cl1  UNL d   1      -4.629   0.924   0.439  0.00  0.00    -0.070 Cl
ENDROOT
TORSDOF 0
ENDMDL
