MODEL 1
REMARK minimizedAffinity 4.82207012
REMARK minimizedRMSD -1
REMARK  0 active torsions:
REMARK  status: ('A' for Active; 'I' for Inactive)
ROOT
ATOM      1  C   UNL d   1      -0.615  -3.912  -5.947  0.00  0.00     0.020 A 
ATOM      2  C1  UNL d   1      -0.709  -5.302  -5.923  0.00  0.00     0.020 A 
ATOM      3  C2  UNL d   1      -1.962  -5.918  -5.921  0.00  0.00     0.034 A 
ATOM      4  C3  UNL d   1      -3.127  -5.143  -5.945  0.00  0.00     0.017 A 
ATOM      5  C4  UNL d   1      -3.032  -3.747  -5.970  0.00  0.00     0.017 A 
ATOM      6  C5  UNL d   1      -1.775  -3.135  -5.971  0.00  0.00     0.034 A 
ATOM      7 Cl   UNL d   1      -4.425  -2.723  -6.000  0.00  0.00    -0.070 Cl
ATOM      8 Cl1  UNL d   1      -4.644  -5.971  -5.942  0.00  0.00    -0.070 Cl
ENDROOT
TORSDOF 0
ENDMDL
