MODEL 1
REMARK minimizedAffinity 0.718771577
REMARK minimizedRMSD -1
REMARK  0 active torsions:
REMARK  status: ('A' for Active; 'I' for Inactive)
ROOT
ATOM      1  C   UNL d   1      -5.650  -0.011   2.370  0.00  0.00     0.020 A 
ATOM      2  C1  UNL d   1      -4.945  -0.975   1.650  0.00  0.00     0.020 A 
ATOM      3  C2  UNL d   1      -4.555  -2.163   2.270  0.00  0.00     0.034 A 
ATOM      4  C3  UNL d   1      -4.869  -2.392   3.614  0.00  0.00     0.017 A 
ATOM      5  C4  UNL d   1      -5.576  -1.425   4.337  0.00  0.00     0.017 A 
ATOM      6  C5  UNL d   1      -5.965  -0.236   3.711  0.00  0.00     0.034 A 
ATOM      7 Cl   UNL d   1      -6.000  -1.635   5.999  0.00  0.00    -0.070 Cl
ATOM      8 Cl1  UNL d   1      -4.355  -3.885   4.317  0.00  0.00    -0.070 Cl
ENDROOT
TORSDOF 0
ENDMDL
