MODEL 1
REMARK minimizedAffinity 12.3777409
REMARK minimizedRMSD -1
REMARK  0 active torsions:
REMARK  status: ('A' for Active; 'I' for Inactive)
ROOT
ATOM      1  C   UNL d   1      -1.926  -5.967  -5.725  0.00  0.00     0.020 A 
ATOM      2  C1  UNL d   1      -1.258  -4.743  -5.699  0.00  0.00     0.020 A 
ATOM      3  C2  UNL d   1      -1.981  -3.551  -5.765  0.00  0.00     0.034 A 
ATOM      4  C3  UNL d   1      -3.378  -3.579  -5.858  0.00  0.00     0.017 A 
ATOM      5  C4  UNL d   1      -4.048  -4.808  -5.884  0.00  0.00     0.017 A 
ATOM      6  C5  UNL d   1      -3.318  -5.999  -5.817  0.00  0.00     0.034 A 
ATOM      7 Cl   UNL d   1      -5.768  -4.923  -5.997  0.00  0.00    -0.070 Cl
ATOM      8 Cl1  UNL d   1      -4.208  -2.066  -5.936  0.00  0.00    -0.070 Cl
ENDROOT
TORSDOF 0
ENDMDL
