MODEL 1
REMARK minimizedAffinity 4.77952147
REMARK minimizedRMSD -1
REMARK  0 active torsions:
REMARK  status: ('A' for Active; 'I' for Inactive)
ROOT
ATOM      1  C   UNL d   1      -4.313   4.165  -5.751  0.00  0.00     0.020 A 
ATOM      2  C1  UNL d   1      -4.864   4.332  -4.481  0.00  0.00     0.020 A 
ATOM      3  C2  UNL d   1      -4.101   4.901  -3.459  0.00  0.00     0.034 A 
ATOM      4  C3  UNL d   1      -2.783   5.304  -3.705  0.00  0.00     0.017 A 
ATOM      5  C4  UNL d   1      -2.232   5.135  -4.980  0.00  0.00     0.017 A 
ATOM      6  C5  UNL d   1      -3.000   4.566  -6.000  0.00  0.00     0.034 A 
ATOM      7 Cl   UNL d   1      -0.613   5.609  -5.359  0.00  0.00    -0.070 Cl
ATOM      8 Cl1  UNL d   1      -1.898   6.000  -2.394  0.00  0.00    -0.070 Cl
ENDROOT
TORSDOF 0
ENDMDL
