MODEL 1
REMARK minimizedAffinity 4.34597301
REMARK minimizedRMSD -1
REMARK  0 active torsions:
REMARK  status: ('A' for Active; 'I' for Inactive)
ROOT
ATOM      1  C   UNL d   1       1.130  -4.134  -0.386  0.00  0.00     0.020 A 
ATOM      2  C1  UNL d   1       1.928  -3.395   0.485  0.00  0.00     0.020 A 
ATOM      3  C2  UNL d   1       3.319  -3.452   0.377  0.00  0.00     0.034 A 
ATOM      4  C3  UNL d   1       3.916  -4.250  -0.606  0.00  0.00     0.017 A 
ATOM      5  C4  UNL d   1       3.114  -4.992  -1.481  0.00  0.00     0.017 A 
ATOM      6  C5  UNL d   1       1.721  -4.931  -1.368  0.00  0.00     0.034 A 
ATOM      7 Cl   UNL d   1       3.777  -5.999  -2.719  0.00  0.00    -0.070 Cl
ATOM      8 Cl1  UNL d   1       5.642  -4.273  -0.683  0.00  0.00    -0.070 Cl
ENDROOT
TORSDOF 0
ENDMDL
