MODEL 1
REMARK minimizedAffinity -1.5877068
REMARK minimizedRMSD -1
REMARK  0 active torsions:
REMARK  status: ('A' for Active; 'I' for Inactive)
ROOT
ATOM      1  C   UNL d   1       2.509   3.231   1.919  0.00  0.00     0.078 C 
ATOM      2  C1  UNL d   1       1.419   2.347   1.391  0.00  0.00    -0.077 A 
ATOM      3  C2  UNL d   1       0.097   2.801   1.313  0.00  0.00    -0.001 A 
ATOM      4  C3  UNL d   1      -0.909   1.964   0.829  0.00  0.00     0.003 A 
ATOM      5  C4  UNL d   1      -0.604   0.668   0.419  0.00  0.00    -0.005 A 
ATOM      6  C5  UNL d   1       0.708   0.206   0.496  0.00  0.00     0.003 A 
ATOM      7  C6  UNL d   1       1.716   1.042   0.980  0.00  0.00    -0.001 A 
ENDROOT
TORSDOF 0
ENDMDL
