MODEL 1
REMARK minimizedAffinity 5.81771517
REMARK minimizedRMSD -1
REMARK  0 active torsions:
REMARK  status: ('A' for Active; 'I' for Inactive)
ROOT
ATOM      1  C   UNL d   1      -0.721   3.179   0.354  0.00  0.00     0.078 C 
ATOM      2  C1  UNL d   1      -1.463   1.889   0.542  0.00  0.00    -0.077 A 
ATOM      3  C2  UNL d   1      -2.853   1.874   0.704  0.00  0.00    -0.001 A 
ATOM      4  C3  UNL d   1      -3.530   0.667   0.888  0.00  0.00     0.003 A 
ATOM      5  C4  UNL d   1      -2.823  -0.534   0.912  0.00  0.00    -0.005 A 
ATOM      6  C5  UNL d   1      -1.439  -0.529   0.754  0.00  0.00     0.003 A 
ATOM      7  C6  UNL d   1      -0.761   0.677   0.570  0.00  0.00    -0.001 A 
ENDROOT
TORSDOF 0
ENDMDL
