MODEL 1
REMARK minimizedAffinity 7.56095219
REMARK minimizedRMSD -1
REMARK  0 active torsions:
REMARK  status: ('A' for Active; 'I' for Inactive)
ROOT
ATOM      1  C   UNL d   1       1.711   0.654  -0.735  0.00  0.00     0.078 C 
ATOM      2  C1  UNL d   1       1.525   1.652   0.369  0.00  0.00    -0.077 A 
ATOM      3  C2  UNL d   1       0.246   2.075   0.751  0.00  0.00    -0.001 A 
ATOM      4  C3  UNL d   1       0.089   3.012   1.774  0.00  0.00     0.003 A 
ATOM      5  C4  UNL d   1       1.207   3.535   2.422  0.00  0.00    -0.005 A 
ATOM      6  C5  UNL d   1       2.483   3.121   2.047  0.00  0.00     0.003 A 
ATOM      7  C6  UNL d   1       2.643   2.184   1.025  0.00  0.00    -0.001 A 
ENDROOT
TORSDOF 0
ENDMDL
