MODEL 1
REMARK minimizedAffinity -1.09846985
REMARK minimizedRMSD -1
REMARK  0 active torsions:
REMARK  status: ('A' for Active; 'I' for Inactive)
ROOT
ATOM      1  C   UNL d   1       1.334   0.155   0.563  0.00  0.00     0.078 C 
ATOM      2  C1  UNL d   1      -0.103   0.518   0.791  0.00  0.00    -0.077 A 
ATOM      3  C2  UNL d   1      -1.055  -0.462   1.097  0.00  0.00    -0.001 A 
ATOM      4  C3  UNL d   1      -2.391  -0.110   1.297  0.00  0.00     0.003 A 
ATOM      5  C4  UNL d   1      -2.787   1.221   1.192  0.00  0.00    -0.005 A 
ATOM      6  C5  UNL d   1      -1.847   2.203   0.885  0.00  0.00     0.003 A 
ATOM      7  C6  UNL d   1      -0.511   1.854   0.685  0.00  0.00    -0.001 A 
ENDROOT
TORSDOF 0
ENDMDL
