MODEL 1
REMARK minimizedAffinity 7.4093461
REMARK minimizedRMSD -1
REMARK  0 active torsions:
REMARK  status: ('A' for Active; 'I' for Inactive)
ROOT
ATOM      1  C   UNL d   1       2.281  -1.384  -2.220  0.00  0.00     0.078 C 
ATOM      2  C1  UNL d   1       1.463  -0.679  -1.180  0.00  0.00    -0.077 A 
ATOM      3  C2  UNL d   1       0.119  -1.013  -0.970  0.00  0.00    -0.001 A 
ATOM      4  C3  UNL d   1      -0.633  -0.342  -0.005  0.00  0.00     0.003 A 
ATOM      5  C4  UNL d   1      -0.050   0.669   0.757  0.00  0.00    -0.005 A 
ATOM      6  C5  UNL d   1       1.285   1.010   0.555  0.00  0.00     0.003 A 
ATOM      7  C6  UNL d   1       2.039   0.339  -0.410  0.00  0.00    -0.001 A 
ENDROOT
TORSDOF 0
ENDMDL
