MODEL 1
REMARK minimizedAffinity -1.59377313
REMARK minimizedRMSD -1
REMARK  0 active torsions:
REMARK  status: ('A' for Active; 'I' for Inactive)
ROOT
ATOM      1  C   UNL d   1      -1.128   2.851  -6.000  0.00  0.00     0.078 C 
ATOM      2  C1  UNL d   1      -2.511   3.431  -5.993  0.00  0.00    -0.077 A 
ATOM      3  C2  UNL d   1      -3.640   2.603  -5.995  0.00  0.00    -0.001 A 
ATOM      4  C3  UNL d   1      -4.922   3.156  -5.998  0.00  0.00     0.003 A 
ATOM      5  C4  UNL d   1      -5.086   4.540  -6.000  0.00  0.00    -0.005 A 
ATOM      6  C5  UNL d   1      -3.968   5.372  -5.999  0.00  0.00     0.003 A 
ATOM      7  C6  UNL d   1      -2.686   4.820  -5.996  0.00  0.00    -0.001 A 
ENDROOT
TORSDOF 0
ENDMDL
