MODEL 1
REMARK minimizedAffinity 0.0515694357
REMARK minimizedRMSD -1
REMARK  0 active torsions:
REMARK  status: ('A' for Active; 'I' for Inactive)
ROOT
ATOM      1  C   UNL d   1       2.339   3.420   2.646  0.00  0.00     0.078 C 
ATOM      2  C1  UNL d   1       0.852   3.332   2.478  0.00  0.00    -0.077 A 
ATOM      3  C2  UNL d   1       0.277   3.166   1.212  0.00  0.00    -0.001 A 
ATOM      4  C3  UNL d   1      -1.109   3.096   1.070  0.00  0.00     0.003 A 
ATOM      5  C4  UNL d   1      -1.933   3.192   2.189  0.00  0.00    -0.005 A 
ATOM      6  C5  UNL d   1      -1.371   3.359   3.453  0.00  0.00     0.003 A 
ATOM      7  C6  UNL d   1       0.015   3.429   3.597  0.00  0.00    -0.001 A 
ENDROOT
TORSDOF 0
ENDMDL
