MODEL 1
REMARK minimizedAffinity 0.749659479
REMARK minimizedRMSD -1
REMARK  0 active torsions:
REMARK  status: ('A' for Active; 'I' for Inactive)
ROOT
ATOM      1  C   UNL d   1       1.854   1.537   1.358  0.00  0.00     0.078 C 
ATOM      2  C1  UNL d   1       0.400   1.305   1.074  0.00  0.00    -0.077 A 
ATOM      3  C2  UNL d   1      -0.148   0.018   1.120  0.00  0.00    -0.001 A 
ATOM      4  C3  UNL d   1      -1.502  -0.184   0.845  0.00  0.00     0.003 A 
ATOM      5  C4  UNL d   1      -2.318   0.897   0.520  0.00  0.00    -0.005 A 
ATOM      6  C5  UNL d   1      -1.781   2.182   0.470  0.00  0.00     0.003 A 
ATOM      7  C6  UNL d   1      -0.428   2.386   0.745  0.00  0.00    -0.001 A 
ENDROOT
TORSDOF 0
ENDMDL
