MODEL 1
REMARK minimizedAffinity 2.09209847
REMARK minimizedRMSD -1
REMARK  0 active torsions:
REMARK  status: ('A' for Active; 'I' for Inactive)
ROOT
ATOM      1  C   UNL d   1      -1.865  -2.219  -0.833  0.00  0.00     0.078 C 
ATOM      2  C1  UNL d   1      -2.531  -3.524  -0.512  0.00  0.00    -0.077 A 
ATOM      3  C2  UNL d   1      -1.838  -4.735  -0.630  0.00  0.00    -0.001 A 
ATOM      4  C3  UNL d   1      -2.474  -5.943  -0.338  0.00  0.00     0.003 A 
ATOM      5  C4  UNL d   1      -3.805  -5.952   0.074  0.00  0.00    -0.005 A 
ATOM      6  C5  UNL d   1      -4.503  -4.751   0.192  0.00  0.00     0.003 A 
ATOM      7  C6  UNL d   1      -3.869  -3.543  -0.100  0.00  0.00    -0.001 A 
ENDROOT
TORSDOF 0
ENDMDL
