MODEL 1
REMARK minimizedAffinity 1.27568734
REMARK minimizedRMSD -1
REMARK  0 active torsions:
REMARK  status: ('A' for Active; 'I' for Inactive)
ROOT
ATOM      1  C   UNL d   1      -0.363   3.022  -3.678  0.00  0.00     0.078 C 
ATOM      2  C1  UNL d   1      -1.522   3.520  -4.490  0.00  0.00    -0.077 A 
ATOM      3  C2  UNL d   1      -1.868   4.877  -4.496  0.00  0.00    -0.001 A 
ATOM      4  C3  UNL d   1      -2.955   5.325  -5.249  0.00  0.00     0.003 A 
ATOM      5  C4  UNL d   1      -3.705   4.422  -6.000  0.00  0.00    -0.005 A 
ATOM      6  C5  UNL d   1      -3.370   3.070  -5.998  0.00  0.00     0.003 A 
ATOM      7  C6  UNL d   1      -2.283   2.620  -5.246  0.00  0.00    -0.001 A 
ENDROOT
TORSDOF 0
ENDMDL
