MODEL 1
REMARK minimizedAffinity 2.64246202
REMARK minimizedRMSD -1
REMARK  0 active torsions:
REMARK  status: ('A' for Active; 'I' for Inactive)
ROOT
ATOM      1  C   UNL d   1       2.652   3.667   3.204  0.00  0.00     0.078 C 
ATOM      2  C1  UNL d   1       1.775   2.932   2.234  0.00  0.00    -0.077 A 
ATOM      3  C2  UNL d   1       2.294   1.920   1.416  0.00  0.00    -0.001 A 
ATOM      4  C3  UNL d   1       1.469   1.251   0.511  0.00  0.00     0.003 A 
ATOM      5  C4  UNL d   1       0.120   1.588   0.413  0.00  0.00    -0.005 A 
ATOM      6  C5  UNL d   1      -0.405   2.594   1.221  0.00  0.00     0.003 A 
ATOM      7  C6  UNL d   1       0.419   3.264   2.127  0.00  0.00    -0.001 A 
ENDROOT
TORSDOF 0
ENDMDL
