MODEL 1
REMARK minimizedAffinity 4.67160368
REMARK minimizedRMSD -1
REMARK  0 active torsions:
REMARK  status: ('A' for Active; 'I' for Inactive)
ROOT
ATOM      1  C   UNL d   1      -1.976   2.979   3.894  0.00  0.00     0.078 C 
ATOM      2  C1  UNL d   1      -1.888   2.204   2.613  0.00  0.00    -0.077 A 
ATOM      3  C2  UNL d   1      -2.130   0.826   2.585  0.00  0.00    -0.001 A 
ATOM      4  C3  UNL d   1      -2.035   0.116   1.387  0.00  0.00     0.003 A 
ATOM      5  C4  UNL d   1      -1.697   0.776   0.208  0.00  0.00    -0.005 A 
ATOM      6  C5  UNL d   1      -1.452   2.147   0.225  0.00  0.00     0.003 A 
ATOM      7  C6  UNL d   1      -1.547   2.859   1.422  0.00  0.00    -0.001 A 
ENDROOT
TORSDOF 0
ENDMDL
