MODEL 1
REMARK minimizedAffinity 2.00824618
REMARK minimizedRMSD -1
REMARK  0 active torsions:
REMARK  status: ('A' for Active; 'I' for Inactive)
ROOT
ATOM      1  C   UNL d   1       3.334   1.019  -0.886  0.00  0.00     0.078 C 
ATOM      2  C1  UNL d   1       3.557   1.870   0.329  0.00  0.00    -0.077 A 
ATOM      3  C2  UNL d   1       4.845   2.280   0.695  0.00  0.00    -0.001 A 
ATOM      4  C3  UNL d   1       5.039   3.064   1.834  0.00  0.00     0.003 A 
ATOM      5  C4  UNL d   1       3.951   3.442   2.617  0.00  0.00    -0.005 A 
ATOM      6  C5  UNL d   1       2.666   3.037   2.262  0.00  0.00     0.003 A 
ATOM      7  C6  UNL d   1       2.469   2.253   1.123  0.00  0.00    -0.001 A 
ENDROOT
TORSDOF 0
ENDMDL
