MODEL 1
REMARK minimizedAffinity -0.917752385
REMARK minimizedRMSD -1
REMARK  0 active torsions:
REMARK  status: ('A' for Active; 'I' for Inactive)
ROOT
ATOM      1  C   UNL d   1       2.282   2.350   1.534  0.00  0.00     0.078 C 
ATOM      2  C1  UNL d   1       0.887   1.890   1.228  0.00  0.00    -0.077 A 
ATOM      3  C2  UNL d   1      -0.194   2.778   1.287  0.00  0.00    -0.001 A 
ATOM      4  C3  UNL d   1      -1.488   2.333   1.010  0.00  0.00     0.003 A 
ATOM      5  C4  UNL d   1      -1.713   1.000   0.673  0.00  0.00    -0.005 A 
ATOM      6  C5  UNL d   1      -0.643   0.109   0.614  0.00  0.00     0.003 A 
ATOM      7  C6  UNL d   1       0.651   0.552   0.891  0.00  0.00    -0.001 A 
ENDROOT
TORSDOF 0
ENDMDL
