MODEL 1
REMARK minimizedAffinity 8.32706261
REMARK minimizedRMSD -1
REMARK  2 active torsions:
REMARK  status: ('A' for Active; 'I' for Inactive)
REMARK    1  A    between atoms: C2'_3  and  C1'_4 
REMARK    2  A    between atoms: C1'_4  and  C1_5 
ROOT
ATOM      1  C1  I4B d   1       4.440  -0.422   0.583  0.00  0.00    -0.075 A 
ATOM      2  C2  I4B d   1       5.386  -0.923   1.442  0.00  0.00     0.003 A 
ATOM      3  C3  I4B d   1       5.064  -1.157   2.801  0.00  0.00     0.002 A 
ATOM      4  C4  I4B d   1       3.807  -0.830   3.267  0.00  0.00    -0.004 A 
ATOM      5  C5  I4B d   1       2.841  -0.343   2.390  0.00  0.00     0.002 A 
ATOM      6  C6  I4B d   1       3.156  -0.150   1.037  0.00  0.00     0.003 A 
ENDROOT
BRANCH   1   7
ATOM      7  C1' I4B d   1       4.824  -0.157  -0.838  0.00  0.00     0.060 C 
BRANCH   7   8
ATOM      8  C2' I4B d   1       4.925  -1.490  -1.550  0.00  0.00    -0.013 C 
ATOM      9  C4' I4B d   1       5.999  -2.353  -0.943  0.00  0.00     0.013 C 
ATOM     10  C3' I4B d   1       3.585  -2.159  -1.474  0.00  0.00     0.013 C 
ENDBRANCH   7   8
ENDBRANCH   1   7
TORSDOF 2
ENDMDL
