MODEL 1
REMARK minimizedAffinity 9.16298962
REMARK minimizedRMSD -1
REMARK  2 active torsions:
REMARK  status: ('A' for Active; 'I' for Inactive)
REMARK    1  A    between atoms: C2'_3  and  C1'_4 
REMARK    2  A    between atoms: C1'_4  and  C1_5 
ROOT
ATOM      1  C1  I4B d   1      -4.691   3.522   3.371  0.00  0.00    -0.075 A 
ATOM      2  C2  I4B d   1      -5.349   3.954   2.246  0.00  0.00     0.003 A 
ATOM      3  C3  I4B d   1      -5.993   5.215   2.237  0.00  0.00     0.002 A 
ATOM      4  C4  I4B d   1      -5.997   5.984   3.382  0.00  0.00    -0.004 A 
ATOM      5  C5  I4B d   1      -5.310   5.555   4.514  0.00  0.00     0.002 A 
ATOM      6  C6  I4B d   1      -4.642   4.322   4.505  0.00  0.00     0.003 A 
ENDROOT
BRANCH   1   7
ATOM      7  C1' I4B d   1      -4.050   2.171   3.356  0.00  0.00     0.060 C 
BRANCH   7   8
ATOM      8  C2' I4B d   1      -5.152   1.132   3.304  0.00  0.00    -0.013 C 
ATOM      9  C4' I4B d   1      -4.743  -0.055   2.473  0.00  0.00     0.013 C 
ATOM     10  C3' I4B d   1      -5.470   0.723   4.712  0.00  0.00     0.013 C 
ENDBRANCH   7   8
ENDBRANCH   1   7
TORSDOF 2
ENDMDL
