MODEL 1
REMARK minimizedAffinity 3.71554995
REMARK minimizedRMSD -1
REMARK  2 active torsions:
REMARK  status: ('A' for Active; 'I' for Inactive)
REMARK    1  A    between atoms: C2'_3  and  C1'_4 
REMARK    2  A    between atoms: C1'_4  and  C1_5 
ROOT
ATOM      1  C1  I4B d   1      -5.114   2.386   4.996  0.00  0.00    -0.075 A 
ATOM      2  C2  I4B d   1      -5.989   1.329   5.039  0.00  0.00     0.003 A 
ATOM      3  C3  I4B d   1      -5.896   0.287   4.084  0.00  0.00     0.002 A 
ATOM      4  C4  I4B d   1      -4.953   0.368   3.080  0.00  0.00    -0.004 A 
ATOM      5  C5  I4B d   1      -4.052   1.428   3.052  0.00  0.00     0.002 A 
ATOM      6  C6  I4B d   1      -4.124   2.437   4.023  0.00  0.00     0.003 A 
ENDROOT
BRANCH   1   7
ATOM      7  C1' I4B d   1      -5.261   3.485   6.000  0.00  0.00     0.060 C 
BRANCH   7   8
ATOM      8  C2' I4B d   1      -5.998   4.629   5.334  0.00  0.00    -0.013 C 
ATOM      9  C4' I4B d   1      -5.678   5.943   5.999  0.00  0.00     0.013 C 
ATOM     10  C3' I4B d   1      -5.612   4.648   3.885  0.00  0.00     0.013 C 
ENDBRANCH   7   8
ENDBRANCH   1   7
TORSDOF 2
ENDMDL
