MODEL 1
REMARK minimizedAffinity 5.40359449
REMARK minimizedRMSD -1
REMARK  2 active torsions:
REMARK  status: ('A' for Active; 'I' for Inactive)
REMARK    1  A    between atoms: C2'_3  and  C1'_4 
REMARK    2  A    between atoms: C1'_4  and  C1_5 
ROOT
ATOM      1  C1  I4B d   1      -5.872   2.090   4.925  0.00  0.00    -0.075 A 
ATOM      2  C2  I4B d   1      -5.607   2.475   3.634  0.00  0.00     0.003 A 
ATOM      3  C3  I4B d   1      -5.449   1.502   2.618  0.00  0.00     0.002 A 
ATOM      4  C4  I4B d   1      -5.515   0.163   2.943  0.00  0.00    -0.004 A 
ATOM      5  C5  I4B d   1      -5.808  -0.226   4.247  0.00  0.00     0.002 A 
ATOM      6  C6  I4B d   1      -6.000   0.744   5.242  0.00  0.00     0.003 A 
ENDROOT
BRANCH   1   7
ATOM      7  C1' I4B d   1      -6.000   3.143   5.979  0.00  0.00     0.060 C 
BRANCH   7   8
ATOM      8  C2' I4B d   1      -5.251   4.372   5.505  0.00  0.00    -0.013 C 
ATOM      9  C4' I4B d   1      -5.911   5.634   5.994  0.00  0.00     0.013 C 
ATOM     10  C3' I4B d   1      -3.839   4.273   5.999  0.00  0.00     0.013 C 
ENDBRANCH   7   8
ENDBRANCH   1   7
TORSDOF 2
ENDMDL
