MODEL 1
REMARK minimizedAffinity 7.51334333
REMARK minimizedRMSD -1
REMARK  2 active torsions:
REMARK  status: ('A' for Active; 'I' for Inactive)
REMARK    1  A    between atoms: C2'_3  and  C1'_4 
REMARK    2  A    between atoms: C1'_4  and  C1_5 
ROOT
ATOM      1  C1  I4B d   1      -4.224   1.644   3.875  0.00  0.00    -0.075 A 
ATOM      2  C2  I4B d   1      -3.207   0.785   3.542  0.00  0.00     0.003 A 
ATOM      3  C3  I4B d   1      -3.459  -0.328   2.703  0.00  0.00     0.002 A 
ATOM      4  C4  I4B d   1      -4.745  -0.569   2.263  0.00  0.00    -0.004 A 
ATOM      5  C5  I4B d   1      -5.771   0.316   2.583  0.00  0.00     0.002 A 
ATOM      6  C6  I4B d   1      -5.507   1.436   3.384  0.00  0.00     0.003 A 
ENDROOT
BRANCH   1   7
ATOM      7  C1' I4B d   1      -3.929   2.790   4.790  0.00  0.00     0.060 C 
BRANCH   7   8
ATOM      8  C2' I4B d   1      -4.869   2.695   5.975  0.00  0.00    -0.013 C 
ATOM      9  C4' I4B d   1      -5.842   3.845   5.992  0.00  0.00     0.013 C 
ATOM     10  C3' I4B d   1      -5.586   1.380   5.893  0.00  0.00     0.013 C 
ENDBRANCH   7   8
ENDBRANCH   1   7
TORSDOF 2
ENDMDL
