MODEL 1
REMARK minimizedAffinity 16.162075
REMARK minimizedRMSD -1
REMARK  2 active torsions:
REMARK  status: ('A' for Active; 'I' for Inactive)
REMARK    1  A    between atoms: C2'_3  and  C1'_4 
REMARK    2  A    between atoms: C1'_4  and  C1_5 
ROOT
ATOM      1  C1  I4B d   1      -2.773  -3.663   0.843  0.00  0.00    -0.075 A 
ATOM      2  C2  I4B d   1      -1.729  -3.718   1.732  0.00  0.00     0.003 A 
ATOM      3  C3  I4B d   1      -1.466  -4.911   2.450  0.00  0.00     0.002 A 
ATOM      4  C4  I4B d   1      -2.298  -5.999   2.287  0.00  0.00    -0.004 A 
ATOM      5  C5  I4B d   1      -3.343  -5.948   1.368  0.00  0.00     0.002 A 
ATOM      6  C6  I4B d   1      -3.575  -4.777   0.633  0.00  0.00     0.003 A 
ENDROOT
BRANCH   1   7
ATOM      7  C1' I4B d   1      -3.042  -2.377   0.127  0.00  0.00     0.060 C 
BRANCH   7   8
ATOM      8  C2' I4B d   1      -2.438  -2.481  -1.259  0.00  0.00    -0.013 C 
ATOM      9  C4' I4B d   1      -3.429  -3.042  -2.245  0.00  0.00     0.013 C 
ATOM     10  C3' I4B d   1      -1.983  -1.112  -1.669  0.00  0.00     0.013 C 
ENDBRANCH   7   8
ENDBRANCH   1   7
TORSDOF 2
ENDMDL
