MODEL 1
REMARK minimizedAffinity 20.0029278
REMARK minimizedRMSD -1
REMARK  2 active torsions:
REMARK  status: ('A' for Active; 'I' for Inactive)
REMARK    1  A    between atoms: C2'_3  and  C1'_4 
REMARK    2  A    between atoms: C1'_4  and  C1_5 
ROOT
ATOM      1  C1  I4B d   1      -1.694  -1.843  -1.537  0.00  0.00    -0.075 A 
ATOM      2  C2  I4B d   1      -2.823  -2.107  -0.802  0.00  0.00     0.003 A 
ATOM      3  C3  I4B d   1      -2.747  -2.213   0.608  0.00  0.00     0.002 A 
ATOM      4  C4  I4B d   1      -1.522  -2.099   1.233  0.00  0.00    -0.004 A 
ATOM      5  C5  I4B d   1      -0.383  -1.808   0.489  0.00  0.00     0.002 A 
ATOM      6  C6  I4B d   1      -0.471  -1.666  -0.904  0.00  0.00     0.003 A 
ENDROOT
BRANCH   1   7
ATOM      7  C1' I4B d   1      -1.805  -1.770  -3.027  0.00  0.00     0.060 C 
BRANCH   7   8
ATOM      8  C2' I4B d   1      -1.027  -2.931  -3.610  0.00  0.00    -0.013 C 
ATOM      9  C4' I4B d   1      -1.759  -4.232  -3.413  0.00  0.00     0.013 C 
ATOM     10  C3' I4B d   1      -0.800  -2.653  -5.066  0.00  0.00     0.013 C 
ENDBRANCH   7   8
ENDBRANCH   1   7
TORSDOF 2
ENDMDL
