MODEL 1
REMARK minimizedAffinity 9.54197216
REMARK minimizedRMSD -1
REMARK  2 active torsions:
REMARK  status: ('A' for Active; 'I' for Inactive)
REMARK    1  A    between atoms: C2'_3  and  C1'_4 
REMARK    2  A    between atoms: C1'_4  and  C1_5 
ROOT
ATOM      1  C1  I4B d   1      -1.983  -3.731   0.230  0.00  0.00    -0.075 A 
ATOM      2  C2  I4B d   1      -0.701  -4.214   0.313  0.00  0.00     0.003 A 
ATOM      3  C3  I4B d   1      -0.424  -5.373   1.077  0.00  0.00     0.002 A 
ATOM      4  C4  I4B d   1      -1.443  -5.985   1.777  0.00  0.00    -0.004 A 
ATOM      5  C5  I4B d   1      -2.746  -5.508   1.673  0.00  0.00     0.002 A 
ATOM      6  C6  I4B d   1      -3.021  -4.381   0.885  0.00  0.00     0.003 A 
ENDROOT
BRANCH   1   7
ATOM      7  C1' I4B d   1      -2.234  -2.485  -0.559  0.00  0.00     0.060 C 
BRANCH   7   8
ATOM      8  C2' I4B d   1      -2.353  -2.873  -2.019  0.00  0.00    -0.013 C 
ATOM      9  C4' I4B d   1      -3.772  -3.231  -2.374  0.00  0.00     0.013 C 
ATOM     10  C3' I4B d   1      -1.862  -1.721  -2.845  0.00  0.00     0.013 C 
ENDBRANCH   7   8
ENDBRANCH   1   7
TORSDOF 2
ENDMDL
