MODEL 1
REMARK minimizedAffinity 20.7625217
REMARK minimizedRMSD -1
REMARK  2 active torsions:
REMARK  status: ('A' for Active; 'I' for Inactive)
REMARK    1  A    between atoms: C2'_3  and  C1'_4 
REMARK    2  A    between atoms: C1'_4  and  C1_5 
ROOT
ATOM      1  C1  I4B d   1      -1.922  -1.871  -2.346  0.00  0.00    -0.075 A 
ATOM      2  C2  I4B d   1      -2.821  -2.486  -1.511  0.00  0.00     0.003 A 
ATOM      3  C3  I4B d   1      -2.592  -2.513  -0.114  0.00  0.00     0.002 A 
ATOM      4  C4  I4B d   1      -1.435  -1.960   0.397  0.00  0.00    -0.004 A 
ATOM      5  C5  I4B d   1      -0.537  -1.316  -0.450  0.00  0.00     0.002 A 
ATOM      6  C6  I4B d   1      -0.787  -1.261  -1.828  0.00  0.00     0.003 A 
ENDROOT
BRANCH   1   7
ATOM      7  C1' I4B d   1      -2.178  -1.890  -3.820  0.00  0.00     0.060 C 
BRANCH   7   8
ATOM      8  C2' I4B d   1      -0.840  -1.976  -4.525  0.00  0.00    -0.013 C 
ATOM      9  C4' I4B d   1      -0.130  -3.263  -4.193  0.00  0.00     0.013 C 
ATOM     10  C3' I4B d   1      -1.085  -1.858  -6.000  0.00  0.00     0.013 C 
ENDBRANCH   7   8
ENDBRANCH   1   7
TORSDOF 2
ENDMDL
