MODEL 1
REMARK minimizedAffinity -6.00912333
REMARK minimizedRMSD -1
REMARK  1 active torsions:
REMARK  status: ('A' for Active; 'I' for Inactive)
REMARK    1  A    between atoms: C1_2  and  C2_3 
ROOT
ATOM      1  C2  UNL d   1      -0.661   0.266  -0.147  0.00  0.00    -0.081 A 
ATOM      2  C3  UNL d   1       0.225   1.350  -0.126  0.00  0.00     0.006 A 
ATOM      3  C4  UNL d   1       1.562   1.164   0.233  0.00  0.00     0.002 A 
ATOM      4  C5  UNL d   1       2.037  -0.108   0.570  0.00  0.00    -0.080 A 
ATOM      5  C6  UNL d   1       3.477  -0.326   0.928  0.00  0.00     0.076 C 
ATOM      6  C7  UNL d   1       1.147  -1.188   0.565  0.00  0.00     0.002 A 
ATOM      7  C8  UNL d   1      -0.190  -1.003   0.207  0.00  0.00     0.006 A 
ENDROOT
BRANCH   1   8
ATOM      8  C1  UNL d   1      -2.088   0.452  -0.597  0.00  0.00     0.054 C 
ATOM      9  C   UNL d   1      -2.391  -0.382  -1.834  0.00  0.00     0.018 C 
ENDBRANCH   1   8
TORSDOF 1
ENDMDL
