MODEL 1
REMARK minimizedAffinity -5.42271137
REMARK minimizedRMSD -1
REMARK  1 active torsions:
REMARK  status: ('A' for Active; 'I' for Inactive)
REMARK    1  A    between atoms: C1_2  and  C2_3 
ROOT
ATOM      1  C2  UNL d   1      -0.513  -0.225   0.290  0.00  0.00    -0.081 A 
ATOM      2  C3  UNL d   1      -0.409  -1.460   0.941  0.00  0.00     0.006 A 
ATOM      3  C4  UNL d   1       0.801  -1.861   1.511  0.00  0.00     0.002 A 
ATOM      4  C5  UNL d   1       1.925  -1.031   1.447  0.00  0.00    -0.080 A 
ATOM      5  C6  UNL d   1       3.223  -1.436   2.082  0.00  0.00     0.076 C 
ATOM      6  C7  UNL d   1       1.827   0.196   0.782  0.00  0.00     0.002 A 
ATOM      7  C8  UNL d   1       0.617   0.597   0.211  0.00  0.00     0.006 A 
ENDROOT
BRANCH   1   8
ATOM      8  C1  UNL d   1      -1.834   0.238  -0.270  0.00  0.00     0.054 C 
ATOM      9  C   UNL d   1      -2.187  -0.511  -1.546  0.00  0.00     0.018 C 
ENDBRANCH   1   8
TORSDOF 1
ENDMDL
