MODEL 1
REMARK minimizedAffinity -0.885442257
REMARK minimizedRMSD -1
REMARK  1 active torsions:
REMARK  status: ('A' for Active; 'I' for Inactive)
REMARK    1  A    between atoms: C1_2  and  C2_3 
ROOT
ATOM      1  C2  UNL d   1      -0.300   0.428  -0.028  0.00  0.00    -0.081 A 
ATOM      2  C3  UNL d   1       0.554   1.513   0.207  0.00  0.00     0.006 A 
ATOM      3  C4  UNL d   1       1.886   1.299   0.571  0.00  0.00     0.002 A 
ATOM      4  C5  UNL d   1       2.387  -0.001   0.698  0.00  0.00    -0.080 A 
ATOM      5  C6  UNL d   1       3.823  -0.244   1.058  0.00  0.00     0.076 C 
ATOM      6  C7  UNL d   1       1.529  -1.084   0.480  0.00  0.00     0.002 A 
ATOM      7  C8  UNL d   1       0.198  -0.871   0.117  0.00  0.00     0.006 A 
ENDROOT
BRANCH   1   8
ATOM      8  C1  UNL d   1      -1.719   0.655  -0.484  0.00  0.00     0.054 C 
ATOM      9  C   UNL d   1      -1.855   0.460  -1.987  0.00  0.00     0.018 C 
ENDBRANCH   1   8
TORSDOF 1
ENDMDL
