MODEL 1
REMARK minimizedAffinity -3.0477581
REMARK minimizedRMSD -1
REMARK  1 active torsions:
REMARK  status: ('A' for Active; 'I' for Inactive)
REMARK    1  A    between atoms: C1_2  and  C2_3 
ROOT
ATOM      1  C2  UNL d   1       1.764   0.378   1.272  0.00  0.00    -0.081 A 
ATOM      2  C3  UNL d   1       1.256  -0.835   0.791  0.00  0.00     0.006 A 
ATOM      3  C4  UNL d   1       0.162  -0.850  -0.077  0.00  0.00     0.002 A 
ATOM      4  C5  UNL d   1      -0.437   0.346  -0.485  0.00  0.00    -0.080 A 
ATOM      5  C6  UNL d   1      -1.593   0.345  -1.441  0.00  0.00     0.076 C 
ATOM      6  C7  UNL d   1       0.059   1.557   0.009  0.00  0.00     0.002 A 
ATOM      7  C8  UNL d   1       1.152   1.573   0.878  0.00  0.00     0.006 A 
ENDROOT
BRANCH   1   8
ATOM      8  C1  UNL d   1       2.984   0.401   2.157  0.00  0.00     0.054 C 
ATOM      9  C   UNL d   1       3.790  -0.883   2.022  0.00  0.00     0.018 C 
ENDBRANCH   1   8
TORSDOF 1
ENDMDL
