MODEL 1
REMARK minimizedAffinity -3.89746547
REMARK minimizedRMSD -1
REMARK  1 active torsions:
REMARK  status: ('A' for Active; 'I' for Inactive)
REMARK    1  A    between atoms: C1_2  and  C2_3 
ROOT
ATOM      1  C2  UNL d   1      -0.842   0.280   0.028  0.00  0.00    -0.081 A 
ATOM      2  C3  UNL d   1       0.067   1.344  -0.031  0.00  0.00     0.006 A 
ATOM      3  C4  UNL d   1       1.386   1.173   0.396  0.00  0.00     0.002 A 
ATOM      4  C5  UNL d   1       1.820  -0.065   0.881  0.00  0.00    -0.080 A 
ATOM      5  C6  UNL d   1       3.242  -0.270   1.314  0.00  0.00     0.076 C 
ATOM      6  C7  UNL d   1       0.908  -1.123   0.956  0.00  0.00     0.002 A 
ATOM      7  C8  UNL d   1      -0.411  -0.953   0.530  0.00  0.00     0.006 A 
ENDROOT
BRANCH   1   8
ATOM      8  C1  UNL d   1      -2.247   0.442  -0.493  0.00  0.00     0.054 C 
ATOM      9  C   UNL d   1      -2.292   0.333  -2.010  0.00  0.00     0.018 C 
ENDBRANCH   1   8
TORSDOF 1
ENDMDL
