MODEL 1
REMARK minimizedAffinity -3.94947386
REMARK minimizedRMSD -1
REMARK  1 active torsions:
REMARK  status: ('A' for Active; 'I' for Inactive)
REMARK    1  A    between atoms: C1_2  and  C2_3 
ROOT
ATOM      1  C2  UNL d   1      -0.636   0.015  -0.057  0.00  0.00    -0.081 A 
ATOM      2  C3  UNL d   1       0.139   1.181  -0.022  0.00  0.00     0.006 A 
ATOM      3  C4  UNL d   1       1.504   1.115   0.266  0.00  0.00     0.002 A 
ATOM      4  C5  UNL d   1       2.118  -0.116   0.516  0.00  0.00    -0.080 A 
ATOM      5  C6  UNL d   1       3.589  -0.204   0.797  0.00  0.00     0.076 C 
ATOM      6  C7  UNL d   1       1.341  -1.279   0.499  0.00  0.00     0.002 A 
ATOM      7  C8  UNL d   1      -0.025  -1.214   0.212  0.00  0.00     0.006 A 
ENDROOT
BRANCH   1   8
ATOM      8  C1  UNL d   1      -2.095   0.075  -0.431  0.00  0.00     0.054 C 
ATOM      9  C   UNL d   1      -2.276   0.440  -1.897  0.00  0.00     0.018 C 
ENDBRANCH   1   8
TORSDOF 1
ENDMDL
