MODEL 1
REMARK minimizedAffinity -4.65040207
REMARK minimizedRMSD -1
REMARK  1 active torsions:
REMARK  status: ('A' for Active; 'I' for Inactive)
REMARK    1  A    between atoms: C1_2  and  C2_3 
ROOT
ATOM      1  C2  UNL d   1      -0.212   0.135   0.081  0.00  0.00    -0.077 A 
ATOM      2  C3  UNL d   1       0.727   0.832   0.855  0.00  0.00     0.002 A 
ATOM      3  C4  UNL d   1       0.322   1.538   1.990  0.00  0.00     0.002 A 
ATOM      4  C5  UNL d   1      -1.020   1.550   2.363  0.00  0.00    -0.004 A 
ATOM      5  C6  UNL d   1      -1.961   0.861   1.599  0.00  0.00     0.002 A 
ATOM      6  C7  UNL d   1      -1.559   0.156   0.464  0.00  0.00     0.002 A 
ENDROOT
BRANCH   1   7
ATOM      7  C1  UNL d   1       0.230  -0.667  -1.115  0.00  0.00     0.055 C 
ATOM      8  C   UNL d   1       0.445   0.223  -2.330  0.00  0.00     0.019 C 
ENDBRANCH   1   7
TORSDOF 1
ENDMDL
