MODEL 1
REMARK minimizedAffinity -2.96416306
REMARK minimizedRMSD -1
REMARK  1 active torsions:
REMARK  status: ('A' for Active; 'I' for Inactive)
REMARK    1  A    between atoms: C1_2  and  C2_3 
ROOT
ATOM      1  C2  UNL d   1       0.324   0.066  -1.110  0.00  0.00    -0.077 A 
ATOM      2  C3  UNL d   1       0.835  -1.177  -1.508  0.00  0.00     0.002 A 
ATOM      3  C4  UNL d   1       1.478  -1.315  -2.740  0.00  0.00     0.002 A 
ATOM      4  C5  UNL d   1       1.620  -0.213  -3.580  0.00  0.00    -0.004 A 
ATOM      5  C6  UNL d   1       1.114   1.027  -3.194  0.00  0.00     0.002 A 
ATOM      6  C7  UNL d   1       0.469   1.166  -1.964  0.00  0.00     0.002 A 
ENDROOT
BRANCH   1   7
ATOM      7  C1  UNL d   1      -0.327   0.227   0.239  0.00  0.00     0.055 C 
ATOM      8  C   UNL d   1       0.710   0.269   1.352  0.00  0.00     0.019 C 
ENDBRANCH   1   7
TORSDOF 1
ENDMDL
