MODEL 1
REMARK minimizedAffinity -3.5600028
REMARK minimizedRMSD -1
REMARK  1 active torsions:
REMARK  status: ('A' for Active; 'I' for Inactive)
REMARK    1  A    between atoms: C1_2  and  C2_3 
ROOT
ATOM      1  C2  UNL d   1      -0.947   0.436   0.529  0.00  0.00    -0.077 A 
ATOM      2  C3  UNL d   1      -0.063   1.331   1.149  0.00  0.00     0.002 A 
ATOM      3  C4  UNL d   1      -0.203   1.637   2.504  0.00  0.00     0.002 A 
ATOM      4  C5  UNL d   1      -1.222   1.049   3.251  0.00  0.00    -0.004 A 
ATOM      5  C6  UNL d   1      -2.108   0.160   2.643  0.00  0.00     0.002 A 
ATOM      6  C7  UNL d   1      -1.970  -0.146   1.288  0.00  0.00     0.002 A 
ENDROOT
BRANCH   1   7
ATOM      7  C1  UNL d   1      -0.768   0.067  -0.921  0.00  0.00     0.055 C 
ATOM      8  C   UNL d   1       0.627  -0.480  -1.184  0.00  0.00     0.019 C 
ENDBRANCH   1   7
TORSDOF 1
ENDMDL
