MODEL 1
REMARK minimizedAffinity -3.15185523
REMARK minimizedRMSD -1
REMARK  1 active torsions:
REMARK  status: ('A' for Active; 'I' for Inactive)
REMARK    1  A    between atoms: C1_2  and  C2_3 
ROOT
ATOM      1  C2  UNL d   1      -0.207  -0.107  -0.071  0.00  0.00    -0.077 A 
ATOM      2  C3  UNL d   1       0.431   0.375   1.080  0.00  0.00     0.002 A 
ATOM      3  C4  UNL d   1      -0.301   1.036   2.069  0.00  0.00     0.002 A 
ATOM      4  C5  UNL d   1      -1.674   1.216   1.918  0.00  0.00    -0.004 A 
ATOM      5  C6  UNL d   1      -2.317   0.742   0.775  0.00  0.00     0.002 A 
ATOM      6  C7  UNL d   1      -1.587   0.082  -0.214  0.00  0.00     0.002 A 
ENDROOT
BRANCH   1   7
ATOM      7  C1  UNL d   1       0.573  -0.863  -1.115  0.00  0.00     0.055 C 
ATOM      8  C   UNL d   1       0.504  -0.169  -2.468  0.00  0.00     0.019 C 
ENDBRANCH   1   7
TORSDOF 1
ENDMDL
