MODEL 1
REMARK minimizedAffinity -4.77379942
REMARK minimizedRMSD -1
REMARK  1 active torsions:
REMARK  status: ('A' for Active; 'I' for Inactive)
REMARK    1  A    between atoms: C1_2  and  C2_3 
ROOT
ATOM      1  C2  UNL d   1      -0.203  -0.297   0.408  0.00  0.00    -0.077 A 
ATOM      2  C3  UNL d   1       0.777   0.304   1.210  0.00  0.00     0.002 A 
ATOM      3  C4  UNL d   1       0.416   1.004   2.363  0.00  0.00     0.002 A 
ATOM      4  C5  UNL d   1      -0.925   1.106   2.726  0.00  0.00    -0.004 A 
ATOM      5  C6  UNL d   1      -1.908   0.514   1.934  0.00  0.00     0.002 A 
ATOM      6  C7  UNL d   1      -1.549  -0.185   0.781  0.00  0.00     0.002 A 
ENDROOT
BRANCH   1   7
ATOM      7  C1  UNL d   1       0.188  -1.094  -0.809  0.00  0.00     0.055 C 
ATOM      8  C   UNL d   1       0.668  -0.188  -1.933  0.00  0.00     0.019 C 
ENDBRANCH   1   7
TORSDOF 1
ENDMDL
