MODEL 1
REMARK minimizedAffinity -4.12462902
REMARK minimizedRMSD -1
REMARK  1 active torsions:
REMARK  status: ('A' for Active; 'I' for Inactive)
REMARK    1  A    between atoms: C1_2  and  C2_3 
ROOT
ATOM      1  C2  UNL d   1      -0.266   0.314  -0.008  0.00  0.00    -0.077 A 
ATOM      2  C3  UNL d   1       0.765   0.611   0.895  0.00  0.00     0.002 A 
ATOM      3  C4  UNL d   1       0.468   1.030   2.193  0.00  0.00     0.002 A 
ATOM      4  C5  UNL d   1      -0.859   1.152   2.601  0.00  0.00    -0.004 A 
ATOM      5  C6  UNL d   1      -1.891   0.861   1.710  0.00  0.00     0.002 A 
ATOM      6  C7  UNL d   1      -1.596   0.443   0.411  0.00  0.00     0.002 A 
ENDROOT
BRANCH   1   7
ATOM      7  C1  UNL d   1       0.053  -0.185  -1.393  0.00  0.00     0.055 C 
ATOM      8  C   UNL d   1       0.675   0.911  -2.247  0.00  0.00     0.019 C 
ENDBRANCH   1   7
TORSDOF 1
ENDMDL
