MODEL 1
REMARK minimizedAffinity -4.50013685
REMARK minimizedRMSD -1
REMARK  1 active torsions:
REMARK  status: ('A' for Active; 'I' for Inactive)
REMARK    1  A    between atoms: C1_2  and  C2_3 
ROOT
ATOM      1  C2  UNL d   1      -0.101  -0.087  -0.080  0.00  0.00    -0.077 A 
ATOM      2  C3  UNL d   1       0.914   0.319   0.797  0.00  0.00     0.002 A 
ATOM      3  C4  UNL d   1       0.595   0.922   2.015  0.00  0.00     0.002 A 
ATOM      4  C5  UNL d   1      -0.738   1.120   2.369  0.00  0.00    -0.004 A 
ATOM      5  C6  UNL d   1      -1.755   0.721   1.502  0.00  0.00     0.002 A 
ATOM      6  C7  UNL d   1      -1.438   0.120   0.284  0.00  0.00     0.002 A 
ENDROOT
BRANCH   1   7
ATOM      7  C1  UNL d   1       0.239  -0.782  -1.373  0.00  0.00     0.055 C 
ATOM      8  C   UNL d   1       0.555   0.220  -2.474  0.00  0.00     0.019 C 
ENDBRANCH   1   7
TORSDOF 1
ENDMDL
