MODEL 1
REMARK minimizedAffinity -4.51772165
REMARK minimizedRMSD -1
REMARK  1 active torsions:
REMARK  status: ('A' for Active; 'I' for Inactive)
REMARK    1  A    between atoms: C1_2  and  C2_3 
ROOT
ATOM      1  C2  UNL d   1       0.247  -0.389   0.585  0.00  0.00    -0.077 A 
ATOM      2  C3  UNL d   1       1.040  -0.550   1.730  0.00  0.00     0.002 A 
ATOM      3  C4  UNL d   1       0.598  -0.078   2.968  0.00  0.00     0.002 A 
ATOM      4  C5  UNL d   1      -0.639   0.554   3.073  0.00  0.00    -0.004 A 
ATOM      5  C6  UNL d   1      -1.434   0.721   1.939  0.00  0.00     0.002 A 
ATOM      6  C7  UNL d   1      -0.993   0.251   0.701  0.00  0.00     0.002 A 
ENDROOT
BRANCH   1   7
ATOM      7  C1  UNL d   1       0.701  -0.941  -0.741  0.00  0.00     0.055 C 
ATOM      8  C   UNL d   1       0.648   0.121  -1.830  0.00  0.00     0.019 C 
ENDBRANCH   1   7
TORSDOF 1
ENDMDL
