MODEL 1
REMARK minimizedAffinity -3.95326948
REMARK minimizedRMSD -1
REMARK  1 active torsions:
REMARK  status: ('A' for Active; 'I' for Inactive)
REMARK    1  A    between atoms: C1_2  and  C2_3 
ROOT
ATOM      1  C2  UNL d   1      -0.751   0.548   0.123  0.00  0.00    -0.077 A 
ATOM      2  C3  UNL d   1      -1.848   0.324   0.968  0.00  0.00     0.002 A 
ATOM      3  C4  UNL d   1      -1.788   0.688   2.315  0.00  0.00     0.002 A 
ATOM      4  C5  UNL d   1      -0.636   1.281   2.827  0.00  0.00    -0.004 A 
ATOM      5  C6  UNL d   1       0.461   1.505   1.996  0.00  0.00     0.002 A 
ATOM      6  C7  UNL d   1       0.403   1.141   0.650  0.00  0.00     0.002 A 
ENDROOT
BRANCH   1   7
ATOM      7  C1  UNL d   1      -0.832   0.201  -1.340  0.00  0.00     0.055 C 
ATOM      8  C   UNL d   1       0.469  -0.414  -1.836  0.00  0.00     0.019 C 
ENDBRANCH   1   7
TORSDOF 1
ENDMDL
