MODEL 1
REMARK minimizedAffinity -1.64541113
REMARK minimizedRMSD -1
REMARK  1 active torsions:
REMARK  status: ('A' for Active; 'I' for Inactive)
REMARK    1  A    between atoms: C1_2  and  C2_3 
ROOT
ATOM      1  C2  UNL d   1       0.851  -0.038  -2.122  0.00  0.00    -0.077 A 
ATOM      2  C3  UNL d   1       2.131   0.386  -2.504  0.00  0.00     0.002 A 
ATOM      3  C4  UNL d   1       2.373   0.817  -3.810  0.00  0.00     0.002 A 
ATOM      4  C5  UNL d   1       1.338   0.831  -4.743  0.00  0.00    -0.004 A 
ATOM      5  C6  UNL d   1       0.061   0.410  -4.374  0.00  0.00     0.002 A 
ATOM      6  C7  UNL d   1      -0.182  -0.022  -3.069  0.00  0.00     0.002 A 
ENDROOT
BRANCH   1   7
ATOM      7  C1  UNL d   1       0.577  -0.456  -0.701  0.00  0.00     0.055 C 
ATOM      8  C   UNL d   1      -0.745   0.110  -0.203  0.00  0.00     0.019 C 
ENDBRANCH   1   7
TORSDOF 1
ENDMDL
