MODEL 1
REMARK minimizedAffinity 0.296581358
REMARK minimizedRMSD -1
REMARK  0 active torsions:
REMARK  status: ('A' for Active; 'I' for Inactive)
ROOT
ATOM      1  C4' PXY d   1       3.696   1.245   0.879  0.00  0.00     0.077 C 
ATOM      2  C1' PXY d   1       0.644  -2.658   3.858  0.00  0.00     0.077 C 
ATOM      3  C1  PXY d   1       1.436  -1.625   3.080  0.00  0.00    -0.082 A 
ATOM      4  C2  PXY d   1       2.191  -2.009   2.064  0.00  0.00     0.003 A 
ATOM      5  C3  PXY d   1       2.939  -1.093   1.371  0.00  0.00     0.003 A 
ATOM      6  C4  PXY d   1       2.872   0.238   1.686  0.00  0.00    -0.082 A 
ATOM      7  C5  PXY d   1       2.095   0.639   2.715  0.00  0.00     0.003 A 
ATOM      8  C6  PXY d   1       1.375  -0.312   3.433  0.00  0.00     0.003 A 
ENDROOT
TORSDOF 0
ENDMDL
