MODEL 1
REMARK minimizedAffinity 8.42001915
REMARK minimizedRMSD -1
REMARK  0 active torsions:
REMARK  status: ('A' for Active; 'I' for Inactive)
ROOT
ATOM      1  C4' PXY d   1      -0.842   1.501   0.002  0.00  0.00     0.077 C 
ATOM      2  C1' PXY d   1       2.259   6.000  -1.885  0.00  0.00     0.077 C 
ATOM      3  C1  PXY d   1       1.456   4.815  -1.384  0.00  0.00    -0.082 A 
ATOM      4  C2  PXY d   1       0.381   4.426  -2.049  0.00  0.00     0.003 A 
ATOM      5  C3  PXY d   1      -0.375   3.377  -1.592  0.00  0.00     0.003 A 
ATOM      6  C4  PXY d   1       0.004   2.686  -0.473  0.00  0.00    -0.082 A 
ATOM      7  C5  PXY d   1       1.106   3.071   0.205  0.00  0.00     0.003 A 
ATOM      8  C6  PXY d   1       1.836   4.164  -0.252  0.00  0.00     0.003 A 
ENDROOT
TORSDOF 0
ENDMDL
