MODEL 1
REMARK minimizedAffinity -1.8371799
REMARK minimizedRMSD -1
REMARK  0 active torsions:
REMARK  status: ('A' for Active; 'I' for Inactive)
ROOT
ATOM      1  C4' PXY d   1       2.954  -5.954  -0.578  0.00  0.00     0.077 C 
ATOM      2  C1' PXY d   1       5.230  -5.991  -5.891  0.00  0.00     0.077 C 
ATOM      3  C1  PXY d   1       4.622  -5.977  -4.503  0.00  0.00    -0.082 A 
ATOM      4  C2  PXY d   1       5.413  -5.949  -3.442  0.00  0.00     0.003 A 
ATOM      5  C3  PXY d   1       4.881  -5.968  -2.179  0.00  0.00     0.003 A 
ATOM      6  C4  PXY d   1       3.523  -5.961  -1.999  0.00  0.00    -0.082 A 
ATOM      7  C5  PXY d   1       2.709  -5.978  -3.076  0.00  0.00     0.003 A 
ATOM      8  C6  PXY d   1       3.270  -6.000  -4.349  0.00  0.00     0.003 A 
ENDROOT
TORSDOF 0
ENDMDL
