MODEL 1
REMARK minimizedAffinity -2.73304224
REMARK minimizedRMSD -1
REMARK  0 active torsions:
REMARK  status: ('A' for Active; 'I' for Inactive)
ROOT
ATOM      1  C4' PXY d   1       3.463  -5.996  -0.266  0.00  0.00     0.077 C 
ATOM      2  C1' PXY d   1       2.675  -5.979  -5.993  0.00  0.00     0.077 C 
ATOM      3  C1  PXY d   1       2.893  -5.988  -4.493  0.00  0.00    -0.082 A 
ATOM      4  C2  PXY d   1       1.850  -6.000  -3.680  0.00  0.00     0.003 A 
ATOM      5  C3  PXY d   1       2.029  -5.976  -2.321  0.00  0.00     0.003 A 
ATOM      6  C4  PXY d   1       3.290  -5.995  -1.788  0.00  0.00    -0.082 A 
ATOM      7  C5  PXY d   1       4.360  -5.994  -2.611  0.00  0.00     0.003 A 
ATOM      8  C6  PXY d   1       4.157  -5.977  -3.987  0.00  0.00     0.003 A 
ENDROOT
TORSDOF 0
ENDMDL
