MODEL 1
REMARK minimizedAffinity 3.83000302
REMARK minimizedRMSD -1
REMARK  0 active torsions:
REMARK  status: ('A' for Active; 'I' for Inactive)
ROOT
ATOM      1  C4' PXY d   1       4.884  -5.603   0.667  0.00  0.00     0.077 C 
ATOM      2  C1' PXY d   1       2.115  -5.990  -4.392  0.00  0.00     0.077 C 
ATOM      3  C1  PXY d   1       2.830  -5.885  -3.059  0.00  0.00    -0.082 A 
ATOM      4  C2  PXY d   1       4.139  -5.689  -3.033  0.00  0.00     0.003 A 
ATOM      5  C3  PXY d   1       4.806  -5.624  -1.837  0.00  0.00     0.003 A 
ATOM      6  C4  PXY d   1       4.119  -5.706  -0.655  0.00  0.00    -0.082 A 
ATOM      7  C5  PXY d   1       2.783  -5.895  -0.674  0.00  0.00     0.003 A 
ATOM      8  C6  PXY d   1       2.130  -6.000  -1.899  0.00  0.00     0.003 A 
ENDROOT
TORSDOF 0
ENDMDL
