MODEL 1
REMARK minimizedAffinity 0.396046847
REMARK minimizedRMSD -1
REMARK  0 active torsions:
REMARK  status: ('A' for Active; 'I' for Inactive)
ROOT
ATOM      1  C4' PXY d   1       4.155  -5.988  -0.256  0.00  0.00     0.077 C 
ATOM      2  C1' PXY d   1       3.506  -5.985  -6.000  0.00  0.00     0.077 C 
ATOM      3  C1  PXY d   1       3.688  -5.991  -4.495  0.00  0.00    -0.082 A 
ATOM      4  C2  PXY d   1       2.625  -6.000  -3.707  0.00  0.00     0.003 A 
ATOM      5  C3  PXY d   1       2.771  -5.973  -2.344  0.00  0.00     0.003 A 
ATOM      6  C4  PXY d   1       4.019  -5.991  -1.781  0.00  0.00    -0.082 A 
ATOM      7  C5  PXY d   1       5.108  -5.993  -2.578  0.00  0.00     0.003 A 
ATOM      8  C6  PXY d   1       4.939  -5.979  -3.959  0.00  0.00     0.003 A 
ENDROOT
TORSDOF 0
ENDMDL
