MODEL 1
REMARK minimizedAffinity 4.32152796
REMARK minimizedRMSD -1
REMARK  0 active torsions:
REMARK  status: ('A' for Active; 'I' for Inactive)
ROOT
ATOM      1  C4' PXY d   1       3.119  -4.555   5.054  0.00  0.00     0.077 C 
ATOM      2  C1' PXY d   1       2.930  -0.030   1.461  0.00  0.00     0.077 C 
ATOM      3  C1  PXY d   1       2.993  -1.218   2.401  0.00  0.00    -0.082 A 
ATOM      4  C2  PXY d   1       1.904  -1.937   2.620  0.00  0.00     0.003 A 
ATOM      5  C3  PXY d   1       1.935  -2.995   3.491  0.00  0.00     0.003 A 
ATOM      6  C4  PXY d   1       3.105  -3.353   4.105  0.00  0.00    -0.082 A 
ATOM      7  C5  PXY d   1       4.223  -2.631   3.879  0.00  0.00     0.003 A 
ATOM      8  C6  PXY d   1       4.161  -1.535   3.023  0.00  0.00     0.003 A 
ENDROOT
TORSDOF 0
ENDMDL
