MODEL 1
REMARK minimizedAffinity 1.70611346
REMARK minimizedRMSD -1
REMARK  0 active torsions:
REMARK  status: ('A' for Active; 'I' for Inactive)
ROOT
ATOM      1  C4' PXY d   1       3.600  -5.992  -0.284  0.00  0.00     0.077 C 
ATOM      2  C1' PXY d   1       4.460  -5.974  -6.000  0.00  0.00     0.077 C 
ATOM      3  C1  PXY d   1       4.223  -5.974  -4.503  0.00  0.00    -0.082 A 
ATOM      4  C2  PXY d   1       5.256  -5.961  -3.676  0.00  0.00     0.003 A 
ATOM      5  C3  PXY d   1       5.060  -5.993  -2.320  0.00  0.00     0.003 A 
ATOM      6  C4  PXY d   1       3.792  -5.984  -1.803  0.00  0.00    -0.082 A 
ATOM      7  C5  PXY d   1       2.732  -5.986  -2.639  0.00  0.00     0.003 A 
ATOM      8  C6  PXY d   1       2.953  -5.995  -4.013  0.00  0.00     0.003 A 
ENDROOT
TORSDOF 0
ENDMDL
