MODEL 1
REMARK minimizedAffinity 8.31757355
REMARK minimizedRMSD -1
REMARK  0 active torsions:
REMARK  status: ('A' for Active; 'I' for Inactive)
ROOT
ATOM      1  C4' PXY d   1       3.692  -5.983  -0.476  0.00  0.00     0.077 C 
ATOM      2  C1' PXY d   1       1.993  -5.867  -6.000  0.00  0.00     0.077 C 
ATOM      3  C1  PXY d   1       2.451  -5.902  -4.555  0.00  0.00    -0.082 A 
ATOM      4  C2  PXY d   1       1.554  -5.999  -3.587  0.00  0.00     0.003 A 
ATOM      5  C3  PXY d   1       1.948  -6.000  -2.274  0.00  0.00     0.003 A 
ATOM      6  C4  PXY d   1       3.277  -5.954  -1.949  0.00  0.00    -0.082 A 
ATOM      7  C5  PXY d   1       4.199  -5.865  -2.931  0.00  0.00     0.003 A 
ATOM      8  C6  PXY d   1       3.776  -5.824  -4.257  0.00  0.00     0.003 A 
ENDROOT
TORSDOF 0
ENDMDL
