MODEL 1
REMARK minimizedAffinity 4.38606358
REMARK minimizedRMSD -1
REMARK  0 active torsions:
REMARK  status: ('A' for Active; 'I' for Inactive)
ROOT
ATOM      1  C4' PXY d   1       2.603  -5.972  -6.000  0.00  0.00     0.077 C 
ATOM      2  C1' PXY d   1       4.065  -5.998  -0.407  0.00  0.00     0.077 C 
ATOM      3  C1  PXY d   1       3.693  -5.986  -1.877  0.00  0.00    -0.082 A 
ATOM      4  C2  PXY d   1       2.418  -5.978  -2.229  0.00  0.00     0.003 A 
ATOM      5  C3  PXY d   1       2.064  -5.999  -3.553  0.00  0.00     0.003 A 
ATOM      6  C4  PXY d   1       3.025  -5.975  -4.528  0.00  0.00    -0.082 A 
ATOM      7  C5  PXY d   1       4.329  -5.973  -4.177  0.00  0.00     0.003 A 
ATOM      8  C6  PXY d   1       4.667  -5.993  -2.827  0.00  0.00     0.003 A 
ENDROOT
TORSDOF 0
ENDMDL
