MODEL 1
REMARK minimizedAffinity 9.02238083
REMARK minimizedRMSD -1
REMARK  0 active torsions:
REMARK  status: ('A' for Active; 'I' for Inactive)
ROOT
ATOM      1  C4' PXY d   1       2.215  -0.398   1.922  0.00  0.00     0.077 C 
ATOM      2  C1' PXY d   1       2.256  -5.291   4.999  0.00  0.00     0.077 C 
ATOM      3  C1  PXY d   1       2.237  -4.013   4.184  0.00  0.00    -0.082 A 
ATOM      4  C2  PXY d   1       3.292  -3.215   4.194  0.00  0.00     0.003 A 
ATOM      5  C3  PXY d   1       3.278  -2.039   3.488  0.00  0.00     0.003 A 
ATOM      6  C4  PXY d   1       2.195  -1.703   2.722  0.00  0.00    -0.082 A 
ATOM      7  C5  PXY d   1       1.119  -2.518   2.698  0.00  0.00     0.003 A 
ATOM      8  C6  PXY d   1       1.136  -3.687   3.454  0.00  0.00     0.003 A 
ENDROOT
TORSDOF 0
ENDMDL
