MODEL 1
REMARK minimizedAffinity -2.81060696
REMARK minimizedRMSD -1
REMARK  0 active torsions:
REMARK  status: ('A' for Active; 'I' for Inactive)
ROOT
ATOM      1  C1  DEN d   1       0.162  -0.097  -0.653  0.00  0.00     0.130 A 
ATOM      2  C2  DEN d   1       1.545   0.065  -1.095  0.00  0.00    -0.031 A 
ATOM      3  C3  DEN d   1       2.145  -1.279  -1.218  0.00  0.00     0.027 A 
ATOM      4  C4  DEN d   1       1.071  -3.582  -0.775  0.00  0.00     0.027 A 
ATOM      5  C5  DEN d   1      -0.078  -4.226  -0.372  0.00  0.00    -0.003 A 
ATOM      6  C6  DEN d   1      -1.207  -3.543  -0.005  0.00  0.00     0.001 A 
ATOM      7  C7  DEN d   1      -1.227  -2.175  -0.077  0.00  0.00     0.017 A 
ATOM      8  C8  DEN d   1      -0.070  -1.519  -0.475  0.00  0.00    -0.094 A 
ATOM      9  C9  DEN d   1       1.058  -2.227  -0.854  0.00  0.00    -0.072 A 
ENDROOT
TORSDOF 0
ENDMDL
