MODEL 1
REMARK minimizedAffinity -4.47686911
REMARK minimizedRMSD -1
REMARK  0 active torsions:
REMARK  status: ('A' for Active; 'I' for Inactive)
ROOT
ATOM      1  C1  DEN d   1      -0.790   0.953   0.616  0.00  0.00     0.130 A 
ATOM      2  C2  DEN d   1      -0.165   1.452  -0.606  0.00  0.00    -0.031 A 
ATOM      3  C3  DEN d   1       0.483   0.312  -1.285  0.00  0.00     0.027 A 
ATOM      4  C4  DEN d   1       0.575  -2.164  -0.570  0.00  0.00     0.027 A 
ATOM      5  C5  DEN d   1       0.200  -3.067   0.400  0.00  0.00    -0.003 A 
ATOM      6  C6  DEN d   1      -0.497  -2.690   1.518  0.00  0.00     0.001 A 
ATOM      7  C7  DEN d   1      -0.879  -1.384   1.671  0.00  0.00     0.017 A 
ATOM      8  C8  DEN d   1      -0.498  -0.466   0.701  0.00  0.00    -0.094 A 
ATOM      9  C9  DEN d   1       0.196  -0.869  -0.428  0.00  0.00    -0.072 A 
ENDROOT
TORSDOF 0
ENDMDL
