MODEL 1
REMARK minimizedAffinity -1.10201442
REMARK minimizedRMSD -1
REMARK  0 active torsions:
REMARK  status: ('A' for Active; 'I' for Inactive)
ROOT
ATOM      1  C1  DEN d   1      -0.135   0.446   0.961  0.00  0.00     0.130 A 
ATOM      2  C2  DEN d   1      -0.644   1.695   0.401  0.00  0.00    -0.031 A 
ATOM      3  C3  DEN d   1      -0.524   1.618  -1.069  0.00  0.00     0.027 A 
ATOM      4  C4  DEN d   1       0.389  -0.305  -2.525  0.00  0.00     0.027 A 
ATOM      5  C5  DEN d   1       0.946  -1.564  -2.500  0.00  0.00    -0.003 A 
ATOM      6  C6  DEN d   1       1.210  -2.223  -1.328  0.00  0.00     0.001 A 
ATOM      7  C7  DEN d   1       0.877  -1.643  -0.133  0.00  0.00     0.017 A 
ATOM      8  C8  DEN d   1       0.322  -0.370  -0.150  0.00  0.00    -0.094 A 
ATOM      9  C9  DEN d   1       0.051   0.274  -1.345  0.00  0.00    -0.072 A 
ENDROOT
TORSDOF 0
ENDMDL
