MODEL 1
REMARK minimizedAffinity -3.18200135
REMARK minimizedRMSD -1
REMARK  0 active torsions:
REMARK  status: ('A' for Active; 'I' for Inactive)
ROOT
ATOM      1  C1  DEN d   1       0.981  -2.492  -0.597  0.00  0.00     0.130 A 
ATOM      2  C2  DEN d   1       0.249  -3.358   0.322  0.00  0.00    -0.031 A 
ATOM      3  C3  DEN d   1      -0.710  -2.522   1.072  0.00  0.00     0.027 A 
ATOM      4  C4  DEN d   1      -1.132   0.016   0.896  0.00  0.00     0.027 A 
ATOM      5  C5  DEN d   1      -0.745   1.178   0.265  0.00  0.00    -0.003 A 
ATOM      6  C6  DEN d   1       0.260   1.203  -0.666  0.00  0.00     0.001 A 
ATOM      7  C7  DEN d   1       0.882   0.036  -1.025  0.00  0.00     0.017 A 
ATOM      8  C8  DEN d   1       0.502  -1.138  -0.387  0.00  0.00    -0.094 A 
ATOM      9  C9  DEN d   1      -0.524  -1.144   0.542  0.00  0.00    -0.072 A 
ENDROOT
TORSDOF 0
ENDMDL
