MODEL 1
REMARK minimizedAffinity -0.648806989
REMARK minimizedRMSD -1
REMARK  0 active torsions:
REMARK  status: ('A' for Active; 'I' for Inactive)
ROOT
ATOM      1  C1  DEN d   1       1.697   0.286  -0.315  0.00  0.00     0.130 A 
ATOM      2  C2  DEN d   1       1.171   1.528   0.244  0.00  0.00    -0.031 A 
ATOM      3  C3  DEN d   1      -0.074   1.210   0.972  0.00  0.00     0.027 A 
ATOM      4  C4  DEN d   1      -1.228  -1.075   1.291  0.00  0.00     0.027 A 
ATOM      5  C5  DEN d   1      -1.162  -2.418   0.991  0.00  0.00    -0.003 A 
ATOM      6  C6  DEN d   1      -0.165  -2.944   0.213  0.00  0.00     0.001 A 
ATOM      7  C7  DEN d   1       0.832  -2.129  -0.255  0.00  0.00     0.017 A 
ATOM      8  C8  DEN d   1       0.768  -0.773   0.037  0.00  0.00    -0.094 A 
ATOM      9  C9  DEN d   1      -0.241  -0.262   0.835  0.00  0.00    -0.072 A 
ENDROOT
TORSDOF 0
ENDMDL
