MODEL 1
REMARK minimizedAffinity -2.43303013
REMARK minimizedRMSD -1
REMARK  0 active torsions:
REMARK  status: ('A' for Active; 'I' for Inactive)
ROOT
ATOM      1  C1  DEN d   1       1.132   0.581  -0.695  0.00  0.00     0.130 A 
ATOM      2  C2  DEN d   1       0.674   1.781   0.001  0.00  0.00    -0.031 A 
ATOM      3  C3  DEN d   1      -0.204   1.358   1.111  0.00  0.00     0.027 A 
ATOM      4  C4  DEN d   1      -0.892  -1.025   1.818  0.00  0.00     0.027 A 
ATOM      5  C5  DEN d   1      -0.764  -2.365   1.522  0.00  0.00    -0.003 A 
ATOM      6  C6  DEN d   1      -0.029  -2.810   0.456  0.00  0.00     0.001 A 
ATOM      7  C7  DEN d   1       0.644  -1.911  -0.328  0.00  0.00     0.017 A 
ATOM      8  C8  DEN d   1       0.514  -0.558  -0.041  0.00  0.00    -0.094 A 
ATOM      9  C9  DEN d   1      -0.224  -0.129   1.049  0.00  0.00    -0.072 A 
ENDROOT
TORSDOF 0
ENDMDL
