MODEL 1
REMARK minimizedAffinity -4.15596771
REMARK minimizedRMSD -1
REMARK  0 active torsions:
REMARK  status: ('A' for Active; 'I' for Inactive)
ROOT
ATOM      1  C1  DEN d   1      -0.040   1.521  -0.018  0.00  0.00     0.130 A 
ATOM      2  C2  DEN d   1       0.418   0.946  -1.280  0.00  0.00    -0.031 A 
ATOM      3  C3  DEN d   1       0.098  -0.496  -1.267  0.00  0.00     0.027 A 
ATOM      4  C4  DEN d   1      -1.060  -1.885   0.573  0.00  0.00     0.027 A 
ATOM      5  C5  DEN d   1      -1.618  -1.837   1.831  0.00  0.00    -0.003 A 
ATOM      6  C6  DEN d   1      -1.659  -0.684   2.569  0.00  0.00     0.001 A 
ATOM      7  C7  DEN d   1      -1.172   0.480   2.036  0.00  0.00     0.017 A 
ATOM      8  C8  DEN d   1      -0.600   0.439   0.771  0.00  0.00    -0.094 A 
ATOM      9  C9  DEN d   1      -0.580  -0.734   0.036  0.00  0.00    -0.072 A 
ENDROOT
TORSDOF 0
ENDMDL
