MODEL 1
REMARK minimizedAffinity -3.22922206
REMARK minimizedRMSD -1
REMARK  0 active torsions:
REMARK  status: ('A' for Active; 'I' for Inactive)
ROOT
ATOM      1  C1  DEN d   1      -1.373   0.163   0.969  0.00  0.00     0.130 A 
ATOM      2  C2  DEN d   1      -0.866   1.221   0.100  0.00  0.00    -0.031 A 
ATOM      3  C3  DEN d   1       0.254   0.668  -0.688  0.00  0.00     0.027 A 
ATOM      4  C4  DEN d   1       1.244  -1.714  -0.649  0.00  0.00     0.027 A 
ATOM      5  C5  DEN d   1       1.153  -2.958  -0.065  0.00  0.00    -0.003 A 
ATOM      6  C6  DEN d   1       0.244  -3.237   0.920  0.00  0.00     0.001 A 
ATOM      7  C7  DEN d   1      -0.642  -2.271   1.320  0.00  0.00     0.017 A 
ATOM      8  C8  DEN d   1      -0.552  -1.012   0.741  0.00  0.00    -0.094 A 
ATOM      9  C9  DEN d   1       0.366  -0.753  -0.262  0.00  0.00    -0.072 A 
ENDROOT
TORSDOF 0
ENDMDL
