MODEL 1
REMARK minimizedAffinity -6.04460526
REMARK minimizedRMSD -1
REMARK  0 active torsions:
REMARK  status: ('A' for Active; 'I' for Inactive)
ROOT
ATOM      1  C1  DEN d   1      -0.628  -1.282   1.561  0.00  0.00     0.130 A 
ATOM      2  C2  DEN d   1      -0.551  -2.702   1.230  0.00  0.00    -0.031 A 
ATOM      3  C3  DEN d   1      -0.115  -2.820  -0.176  0.00  0.00     0.027 A 
ATOM      4  C4  DEN d   1       0.449  -0.951  -1.862  0.00  0.00     0.027 A 
ATOM      5  C5  DEN d   1       0.519   0.412  -2.045  0.00  0.00    -0.003 A 
ATOM      6  C6  DEN d   1       0.182   1.300  -1.058  0.00  0.00     0.001 A 
ATOM      7  C7  DEN d   1      -0.198   0.833   0.173  0.00  0.00     0.017 A 
ATOM      8  C8  DEN d   1      -0.278  -0.540   0.362  0.00  0.00    -0.094 A 
ATOM      9  C9  DEN d   1       0.079  -1.421  -0.644  0.00  0.00    -0.072 A 
ENDROOT
TORSDOF 0
ENDMDL
