MODEL 1
REMARK minimizedAffinity -3.12546992
REMARK minimizedRMSD -1
REMARK  0 active torsions:
REMARK  status: ('A' for Active; 'I' for Inactive)
ROOT
ATOM      1  C1  DEN d   1      -0.618   0.771   1.169  0.00  0.00     0.130 A 
ATOM      2  C2  DEN d   1       0.201   1.675   0.365  0.00  0.00    -0.031 A 
ATOM      3  C3  DEN d   1       0.834   0.883  -0.709  0.00  0.00     0.027 A 
ATOM      4  C4  DEN d   1       0.625  -1.640  -1.204  0.00  0.00     0.027 A 
ATOM      5  C5  DEN d   1       0.052  -2.821  -0.789  0.00  0.00    -0.003 A 
ATOM      6  C6  DEN d   1      -0.751  -2.894   0.318  0.00  0.00     0.001 A 
ATOM      7  C7  DEN d   1      -1.039  -1.756   1.023  0.00  0.00     0.017 A 
ATOM      8  C8  DEN d   1      -0.459  -0.562   0.615  0.00  0.00    -0.094 A 
ATOM      9  C9  DEN d   1       0.340  -0.507  -0.514  0.00  0.00    -0.072 A 
ENDROOT
TORSDOF 0
ENDMDL
