MODEL 1
REMARK minimizedAffinity -3.54945707
REMARK minimizedRMSD -1
REMARK  0 active torsions:
REMARK  status: ('A' for Active; 'I' for Inactive)
ROOT
ATOM      1  C1  DEN d   1      -0.432  -2.232   1.206  0.00  0.00     0.130 A 
ATOM      2  C2  DEN d   1       0.336  -3.310   0.589  0.00  0.00    -0.031 A 
ATOM      3  C3  DEN d   1       0.836  -2.827  -0.714  0.00  0.00     0.027 A 
ATOM      4  C4  DEN d   1       0.501  -0.525  -1.828  0.00  0.00     0.027 A 
ATOM      5  C5  DEN d   1      -0.088   0.712  -1.692  0.00  0.00    -0.003 A 
ATOM      6  C6  DEN d   1      -0.855   1.041  -0.606  0.00  0.00     0.001 A 
ATOM      7  C7  DEN d   1      -1.016   0.136   0.410  0.00  0.00     0.017 A 
ATOM      8  C8  DEN d   1      -0.431  -1.116   0.277  0.00  0.00    -0.094 A 
ATOM      9  C9  DEN d   1       0.350  -1.425  -0.824  0.00  0.00    -0.072 A 
ENDROOT
TORSDOF 0
ENDMDL
