MODEL 1
REMARK minimizedAffinity -3.09782934
REMARK minimizedRMSD -1
REMARK  0 active torsions:
REMARK  status: ('A' for Active; 'I' for Inactive)
ROOT
ATOM      1  C1  DEN d   1       0.944   0.524  -0.240  0.00  0.00     0.130 A 
ATOM      2  C2  DEN d   1      -0.193   1.275   0.285  0.00  0.00    -0.031 A 
ATOM      3  C3  DEN d   1      -1.161   0.308   0.841  0.00  0.00     0.027 A 
ATOM      4  C4  DEN d   1      -1.007  -2.265   0.945  0.00  0.00     0.027 A 
ATOM      5  C5  DEN d   1      -0.236  -3.357   0.616  0.00  0.00    -0.003 A 
ATOM      6  C6  DEN d   1       0.957  -3.236  -0.046  0.00  0.00     0.001 A 
ATOM      7  C7  DEN d   1       1.435  -1.991  -0.361  0.00  0.00     0.017 A 
ATOM      8  C8  DEN d   1       0.660  -0.885  -0.039  0.00  0.00    -0.094 A 
ATOM      9  C9  DEN d   1      -0.538  -1.028   0.641  0.00  0.00    -0.072 A 
ENDROOT
TORSDOF 0
ENDMDL
