MODEL 1
REMARK minimizedAffinity -0.83602345
REMARK minimizedRMSD -1
REMARK  0 active torsions:
REMARK  status: ('A' for Active; 'I' for Inactive)
ROOT
ATOM      1  C1  DEN d   1       0.746  -2.789  -0.295  0.00  0.00     0.130 A 
ATOM      2  C2  DEN d   1      -0.289  -3.626   0.306  0.00  0.00    -0.031 A 
ATOM      3  C3  DEN d   1      -1.324  -2.737   0.872  0.00  0.00     0.027 A 
ATOM      4  C4  DEN d   1      -1.427  -0.160   0.870  0.00  0.00     0.027 A 
ATOM      5  C5  DEN d   1      -0.771   0.989   0.488  0.00  0.00    -0.003 A 
ATOM      6  C6  DEN d   1       0.443   0.961  -0.146  0.00  0.00     0.001 A 
ATOM      7  C7  DEN d   1       1.018  -0.243  -0.458  0.00  0.00     0.017 A 
ATOM      8  C8  DEN d   1       0.366  -1.406  -0.070  0.00  0.00    -0.094 A 
ATOM      9  C9  DEN d   1      -0.866  -1.357   0.560  0.00  0.00    -0.072 A 
ENDROOT
TORSDOF 0
ENDMDL
