MODEL 1
REMARK minimizedAffinity -4.00116158
REMARK minimizedRMSD -1
REMARK  0 active torsions:
REMARK  status: ('A' for Active; 'I' for Inactive)
ROOT
ATOM      1  C1  DEN d   1       0.610   1.095  -0.642  0.00  0.00     0.130 A 
ATOM      2  C2  DEN d   1      -0.015   2.113   0.198  0.00  0.00    -0.031 A 
ATOM      3  C3  DEN d   1      -0.789   1.424   1.250  0.00  0.00     0.027 A 
ATOM      4  C4  DEN d   1      -1.075  -1.106   1.660  0.00  0.00     0.027 A 
ATOM      5  C5  DEN d   1      -0.744  -2.362   1.201  0.00  0.00    -0.003 A 
ATOM      6  C6  DEN d   1       0.027  -2.552   0.085  0.00  0.00     0.001 A 
ATOM      7  C7  DEN d   1       0.530  -1.468  -0.584  0.00  0.00     0.017 A 
ATOM      8  C8  DEN d   1       0.195  -0.199  -0.132  0.00  0.00    -0.094 A 
ATOM      9  C9  DEN d   1      -0.575  -0.028   1.005  0.00  0.00    -0.072 A 
ENDROOT
TORSDOF 0
ENDMDL
