MODEL 1
REMARK minimizedAffinity -3.84780836
REMARK minimizedRMSD -1
REMARK  0 active torsions:
REMARK  status: ('A' for Active; 'I' for Inactive)
ROOT
ATOM      1  C1  DEN d   1      -0.881   1.027   0.414  0.00  0.00     0.130 A 
ATOM      2  C2  DEN d   1       0.124   1.785  -0.327  0.00  0.00    -0.031 A 
ATOM      3  C3  DEN d   1       1.091   0.826  -0.898  0.00  0.00     0.027 A 
ATOM      4  C4  DEN d   1       1.127  -1.746  -0.712  0.00  0.00     0.027 A 
ATOM      5  C5  DEN d   1       0.488  -2.842  -0.176  0.00  0.00    -0.003 A 
ATOM      6  C6  DEN d   1      -0.624  -2.724   0.616  0.00  0.00     0.001 A 
ATOM      7  C7  DEN d   1      -1.157  -1.485   0.857  0.00  0.00     0.017 A 
ATOM      8  C8  DEN d   1      -0.513  -0.375   0.326  0.00  0.00    -0.094 A 
ATOM      9  C9  DEN d   1       0.602  -0.516  -0.482  0.00  0.00    -0.072 A 
ENDROOT
TORSDOF 0
ENDMDL
