MODEL 1
REMARK minimizedAffinity 0.96477598
REMARK minimizedRMSD -1
REMARK  0 active torsions:
REMARK  status: ('A' for Active; 'I' for Inactive)
ROOT
ATOM      1  C   UNL d   1       1.128  -3.528   3.909  0.00  0.00     0.020 A 
ATOM      2  C1  UNL d   1       2.173  -4.328   4.369  0.00  0.00     0.020 A 
ATOM      3  C2  UNL d   1       3.491  -3.876   4.275  0.00  0.00     0.034 A 
ATOM      4  C3  UNL d   1       3.768  -2.622   3.720  0.00  0.00     0.017 A 
ATOM      5  C4  UNL d   1       2.718  -1.819   3.259  0.00  0.00     0.017 A 
ATOM      6  C5  UNL d   1       1.400  -2.276   3.355  0.00  0.00     0.034 A 
ATOM      7 Cl   UNL d   1       2.981  -0.259   2.562  0.00  0.00    -0.070 Cl
ATOM      8 Cl1  UNL d   1       5.421  -2.127   3.635  0.00  0.00    -0.070 Cl
ENDROOT
TORSDOF 0
ENDMDL
