MODEL 1
REMARK minimizedAffinity 6.15474319
REMARK minimizedRMSD -1
REMARK  0 active torsions:
REMARK  status: ('A' for Active; 'I' for Inactive)
ROOT
ATOM      1  C   UNL d   1       2.344  -4.895   2.667  0.00  0.00     0.020 A 
ATOM      2  C1  UNL d   1       2.962  -4.382   3.807  0.00  0.00     0.020 A 
ATOM      3  C2  UNL d   1       2.758  -3.050   4.172  0.00  0.00     0.034 A 
ATOM      4  C3  UNL d   1       1.934  -2.226   3.397  0.00  0.00     0.017 A 
ATOM      5  C4  UNL d   1       1.314  -2.741   2.253  0.00  0.00     0.017 A 
ATOM      6  C5  UNL d   1       1.522  -4.076   1.891  0.00  0.00     0.034 A 
ATOM      7 Cl   UNL d   1       0.284  -1.786   1.246  0.00  0.00    -0.070 Cl
ATOM      8 Cl1  UNL d   1       1.727  -0.588   3.908  0.00  0.00    -0.070 Cl
ENDROOT
TORSDOF 0
ENDMDL
