MODEL 1
REMARK minimizedAffinity 9.31354237
REMARK minimizedRMSD -1
REMARK  0 active torsions:
REMARK  status: ('A' for Active; 'I' for Inactive)
ROOT
ATOM      1  C   UNL d   1      -1.463  -2.741  -0.475  0.00  0.00     0.020 A 
ATOM      2  C1  UNL d   1      -1.511  -1.466   0.088  0.00  0.00     0.020 A 
ATOM      3  C2  UNL d   1      -0.525  -1.063   0.990  0.00  0.00     0.034 A 
ATOM      4  C3  UNL d   1       0.514  -1.936   1.334  0.00  0.00     0.017 A 
ATOM      5  C4  UNL d   1       0.561  -3.216   0.769  0.00  0.00     0.017 A 
ATOM      6  C5  UNL d   1      -0.429  -3.614  -0.134  0.00  0.00     0.034 A 
ATOM      7 Cl   UNL d   1       1.812  -4.348   1.144  0.00  0.00    -0.070 Cl
ATOM      8 Cl1  UNL d   1       1.700  -1.371   2.456  0.00  0.00    -0.070 Cl
ENDROOT
TORSDOF 0
ENDMDL
