MODEL 1
REMARK minimizedAffinity 14.056571
REMARK minimizedRMSD -1
REMARK  0 active torsions:
REMARK  status: ('A' for Active; 'I' for Inactive)
ROOT
ATOM      1  C   UNL d   1      -2.618   0.557  -1.755  0.00  0.00     0.020 A 
ATOM      2  C1  UNL d   1      -2.646   0.705  -3.141  0.00  0.00     0.020 A 
ATOM      3  C2  UNL d   1      -3.640   1.482  -3.740  0.00  0.00     0.034 A 
ATOM      4  C3  UNL d   1      -4.609   2.114  -2.953  0.00  0.00     0.017 A 
ATOM      5  C4  UNL d   1      -4.580   1.964  -1.561  0.00  0.00     0.017 A 
ATOM      6  C5  UNL d   1      -3.583   1.185  -0.967  0.00  0.00     0.034 A 
ATOM      7 Cl   UNL d   1      -5.743   2.712  -0.524  0.00  0.00    -0.070 Cl
ATOM      8 Cl1  UNL d   1      -5.809   3.060  -3.760  0.00  0.00    -0.070 Cl
ENDROOT
TORSDOF 0
ENDMDL
