MODEL 1
REMARK minimizedAffinity 4.9259901
REMARK minimizedRMSD -1
REMARK  0 active torsions:
REMARK  status: ('A' for Active; 'I' for Inactive)
ROOT
ATOM      1  C   UNL d   1      -2.677  -0.215  -2.617  0.00  0.00     0.020 A 
ATOM      2  C1  UNL d   1      -3.760  -1.061  -2.855  0.00  0.00     0.020 A 
ATOM      3  C2  UNL d   1      -3.774  -2.346  -2.309  0.00  0.00     0.034 A 
ATOM      4  C3  UNL d   1      -2.705  -2.789  -1.522  0.00  0.00     0.017 A 
ATOM      5  C4  UNL d   1      -1.619  -1.939  -1.284  0.00  0.00     0.017 A 
ATOM      6  C5  UNL d   1      -1.610  -0.653  -1.832  0.00  0.00     0.034 A 
ATOM      7 Cl   UNL d   1      -0.263  -2.414  -0.323  0.00  0.00    -0.070 Cl
ATOM      8 Cl1  UNL d   1      -2.790  -4.390  -0.879  0.00  0.00    -0.070 Cl
ENDROOT
TORSDOF 0
ENDMDL
