MODEL 1
REMARK minimizedAffinity 12.3743067
REMARK minimizedRMSD -1
REMARK  0 active torsions:
REMARK  status: ('A' for Active; 'I' for Inactive)
ROOT
ATOM      1  C   UNL d   1      -4.035   3.203   1.516  0.00  0.00     0.020 A 
ATOM      2  C1  UNL d   1      -5.412   3.372   1.372  0.00  0.00     0.020 A 
ATOM      3  C2  UNL d   1      -5.998   3.279   0.108  0.00  0.00     0.034 A 
ATOM      4  C3  UNL d   1      -5.208   3.017  -1.017  0.00  0.00     0.017 A 
ATOM      5  C4  UNL d   1      -3.826   2.848  -0.872  0.00  0.00     0.017 A 
ATOM      6  C5  UNL d   1      -3.244   2.942   0.396  0.00  0.00     0.034 A 
ATOM      7 Cl   UNL d   1      -2.786   2.522  -2.213  0.00  0.00    -0.070 Cl
ATOM      8 Cl1  UNL d   1      -6.000   2.915  -2.550  0.00  0.00    -0.070 Cl
ENDROOT
TORSDOF 0
ENDMDL
