MODEL 1
REMARK minimizedAffinity 5.16467428
REMARK minimizedRMSD -1
REMARK  0 active torsions:
REMARK  status: ('A' for Active; 'I' for Inactive)
ROOT
ATOM      1  C   UNL d   1      -5.998   3.384   1.336  0.00  0.00     0.020 A 
ATOM      2  C1  UNL d   1      -6.000   4.123   0.154  0.00  0.00     0.020 A 
ATOM      3  C2  UNL d   1      -4.967   3.962  -0.773  0.00  0.00     0.034 A 
ATOM      4  C3  UNL d   1      -3.928   3.059  -0.518  0.00  0.00     0.017 A 
ATOM      5  C4  UNL d   1      -3.927   2.317   0.669  0.00  0.00     0.017 A 
ATOM      6  C5  UNL d   1      -4.964   2.483   1.593  0.00  0.00     0.034 A 
ATOM      7 Cl   UNL d   1      -2.680   1.184   1.053  0.00  0.00    -0.070 Cl
ATOM      8 Cl1  UNL d   1      -2.684   2.909  -1.708  0.00  0.00    -0.070 Cl
ENDROOT
TORSDOF 0
ENDMDL
