MODEL 1
REMARK minimizedAffinity 13.6607285
REMARK minimizedRMSD -1
REMARK  0 active torsions:
REMARK  status: ('A' for Active; 'I' for Inactive)
ROOT
ATOM      1  C   UNL d   1      -2.988  -1.582  -3.392  0.00  0.00     0.020 A 
ATOM      2  C1  UNL d   1      -4.375  -1.717  -3.433  0.00  0.00     0.020 A 
ATOM      3  C2  UNL d   1      -5.192  -0.637  -3.090  0.00  0.00     0.034 A 
ATOM      4  C3  UNL d   1      -4.622   0.582  -2.706  0.00  0.00     0.017 A 
ATOM      5  C4  UNL d   1      -3.230   0.716  -2.666  0.00  0.00     0.017 A 
ATOM      6  C5  UNL d   1      -2.417  -0.368  -3.010  0.00  0.00     0.034 A 
ATOM      7 Cl   UNL d   1      -2.453   2.189  -2.202  0.00  0.00    -0.070 Cl
ATOM      8 Cl1  UNL d   1      -5.692   1.876  -2.297  0.00  0.00    -0.070 Cl
ENDROOT
TORSDOF 0
ENDMDL
