MODEL 1
REMARK minimizedAffinity 7.96113443
REMARK minimizedRMSD -1
REMARK  0 active torsions:
REMARK  status: ('A' for Active; 'I' for Inactive)
ROOT
ATOM      1  C   UNL d   1       2.208  -1.505   3.519  0.00  0.00     0.020 A 
ATOM      2  C1  UNL d   1       1.919  -1.629   4.878  0.00  0.00     0.020 A 
ATOM      3  C2  UNL d   1       1.958  -2.884   5.488  0.00  0.00     0.034 A 
ATOM      4  C3  UNL d   1       2.287  -4.021   4.740  0.00  0.00     0.017 A 
ATOM      5  C4  UNL d   1       2.577  -3.895   3.376  0.00  0.00     0.017 A 
ATOM      6  C5  UNL d   1       2.537  -2.636   2.770  0.00  0.00     0.034 A 
ATOM      7 Cl   UNL d   1       2.991  -5.251   2.388  0.00  0.00    -0.070 Cl
ATOM      8 Cl1  UNL d   1       2.316  -5.541   5.560  0.00  0.00    -0.070 Cl
ENDROOT
TORSDOF 0
ENDMDL
