MODEL 1
REMARK minimizedAffinity -1.5830121
REMARK minimizedRMSD -1
REMARK  0 active torsions:
REMARK  status: ('A' for Active; 'I' for Inactive)
ROOT
ATOM      1  C1  BNZ d   1      -4.834   2.879   5.999  0.00  0.00     0.000 A 
ATOM      2  C2  BNZ d   1      -5.172   4.206   5.996  0.00  0.00     0.000 A 
ATOM      3  C3  BNZ d   1      -5.551   4.829   4.840  0.00  0.00     0.000 A 
ATOM      4  C4  BNZ d   1      -5.553   4.135   3.683  0.00  0.00     0.000 A 
ATOM      5  C5  BNZ d   1      -5.206   2.799   3.668  0.00  0.00     0.000 A 
ATOM      6  C6  BNZ d   1      -4.862   2.166   4.841  0.00  0.00     0.000 A 
ENDROOT
TORSDOF 0
ENDMDL
