MODEL 1
REMARK minimizedAffinity -2.9353199
REMARK minimizedRMSD -1
REMARK  0 active torsions:
REMARK  status: ('A' for Active; 'I' for Inactive)
ROOT
ATOM      1  C1  BNZ d   1      -5.711   6.000   2.933  0.00  0.00     0.000 A 
ATOM      2  C2  BNZ d   1      -5.973   5.980   4.277  0.00  0.00     0.000 A 
ATOM      3  C3  BNZ d   1      -6.000   4.800   4.967  0.00  0.00     0.000 A 
ATOM      4  C4  BNZ d   1      -5.805   3.641   4.306  0.00  0.00     0.000 A 
ATOM      5  C5  BNZ d   1      -5.549   3.644   2.950  0.00  0.00     0.000 A 
ATOM      6  C6  BNZ d   1      -5.484   4.836   2.266  0.00  0.00     0.000 A 
ENDROOT
TORSDOF 0
ENDMDL
