MODEL 1
REMARK minimizedAffinity 1.84448516
REMARK minimizedRMSD -1
REMARK  0 active torsions:
REMARK  status: ('A' for Active; 'I' for Inactive)
ROOT
ATOM      1  C1  BNZ d   1      -4.109   6.000   1.460  0.00  0.00     0.000 A 
ATOM      2  C2  BNZ d   1      -4.271   5.660   2.777  0.00  0.00     0.000 A 
ATOM      3  C3  BNZ d   1      -5.204   4.734   3.151  0.00  0.00     0.000 A 
ATOM      4  C4  BNZ d   1      -5.999   4.178   2.215  0.00  0.00     0.000 A 
ATOM      5  C5  BNZ d   1      -5.855   4.516   0.884  0.00  0.00     0.000 A 
ATOM      6  C6  BNZ d   1      -4.889   5.421   0.507  0.00  0.00     0.000 A 
ENDROOT
TORSDOF 0
ENDMDL
