MODEL 1
REMARK minimizedAffinity 5.3250761
REMARK minimizedRMSD -1
REMARK  0 active torsions:
REMARK  status: ('A' for Active; 'I' for Inactive)
ROOT
ATOM      1  C1  BNZ d   1      -1.133  -1.203  -0.912  0.00  0.00     0.000 A 
ATOM      2  C2  BNZ d   1      -2.464  -1.283  -0.601  0.00  0.00     0.000 A 
ATOM      3  C3  BNZ d   1      -2.924  -0.872   0.619  0.00  0.00     0.000 A 
ATOM      4  C4  BNZ d   1      -2.049  -0.418   1.539  0.00  0.00     0.000 A 
ATOM      5  C5  BNZ d   1      -0.702  -0.340   1.243  0.00  0.00     0.000 A 
ATOM      6  C6  BNZ d   1      -0.248  -0.719   0.001  0.00  0.00     0.000 A 
ENDROOT
TORSDOF 0
ENDMDL
