MODEL 1
REMARK minimizedAffinity -2.40563345
REMARK minimizedRMSD -1
REMARK  0 active torsions:
REMARK  status: ('A' for Active; 'I' for Inactive)
ROOT
ATOM      1  C1  BNZ d   1      -4.528   2.287   5.999  0.00  0.00     0.000 A 
ATOM      2  C2  BNZ d   1      -5.266   2.691   4.919  0.00  0.00     0.000 A 
ATOM      3  C3  BNZ d   1      -4.663   3.250   3.827  0.00  0.00     0.000 A 
ATOM      4  C4  BNZ d   1      -3.328   3.441   3.833  0.00  0.00     0.000 A 
ATOM      5  C5  BNZ d   1      -2.570   3.047   4.918  0.00  0.00     0.000 A 
ATOM      6  C6  BNZ d   1      -3.177   2.450   5.999  0.00  0.00     0.000 A 
ENDROOT
TORSDOF 0
ENDMDL
