MODEL 1
REMARK minimizedAffinity -3.3719151
REMARK minimizedRMSD -1
REMARK  0 active torsions:
REMARK  status: ('A' for Active; 'I' for Inactive)
ROOT
ATOM      1  C1  BNZ d   1      -5.663   2.944   2.832  0.00  0.00     0.000 A 
ATOM      2  C2  BNZ d   1      -5.341   4.084   2.144  0.00  0.00     0.000 A 
ATOM      3  C3  BNZ d   1      -5.023   5.235   2.808  0.00  0.00     0.000 A 
ATOM      4  C4  BNZ d   1      -5.066   5.257   4.156  0.00  0.00     0.000 A 
ATOM      5  C5  BNZ d   1      -5.398   4.119   4.863  0.00  0.00     0.000 A 
ATOM      6  C6  BNZ d   1      -5.679   2.951   4.192  0.00  0.00     0.000 A 
ENDROOT
TORSDOF 0
ENDMDL
