MODEL 1
REMARK minimizedAffinity -2.5679698
REMARK minimizedRMSD -1
REMARK  0 active torsions:
REMARK  status: ('A' for Active; 'I' for Inactive)
ROOT
ATOM      1  C1  BNZ d   1      -4.872   3.747   2.739  0.00  0.00     0.000 A 
ATOM      2  C2  BNZ d   1      -5.297   3.769   4.041  0.00  0.00     0.000 A 
ATOM      3  C3  BNZ d   1      -5.880   4.887   4.568  0.00  0.00     0.000 A 
ATOM      4  C4  BNZ d   1      -6.000   5.994   3.807  0.00  0.00     0.000 A 
ATOM      5  C5  BNZ d   1      -5.568   5.991   2.496  0.00  0.00     0.000 A 
ATOM      6  C6  BNZ d   1      -5.017   4.850   1.956  0.00  0.00     0.000 A 
ENDROOT
TORSDOF 0
ENDMDL
