MODEL 1
REMARK minimizedAffinity -2.96141076
REMARK minimizedRMSD -1
REMARK  0 active torsions:
REMARK  status: ('A' for Active; 'I' for Inactive)
ROOT
ATOM      1  C1  BNZ d   1      -5.442   4.892   2.168  0.00  0.00     0.000 A 
ATOM      2  C2  BNZ d   1      -5.717   3.804   2.953  0.00  0.00     0.000 A 
ATOM      3  C3  BNZ d   1      -5.432   3.814   4.289  0.00  0.00     0.000 A 
ATOM      4  C4  BNZ d   1      -4.836   4.896   4.832  0.00  0.00     0.000 A 
ATOM      5  C5  BNZ d   1      -4.545   5.998   4.052  0.00  0.00     0.000 A 
ATOM      6  C6  BNZ d   1      -4.869   5.999   2.715  0.00  0.00     0.000 A 
ENDROOT
TORSDOF 0
ENDMDL
