MODEL 1
REMARK minimizedAffinity -2.61103177
REMARK minimizedRMSD -1
REMARK  0 active torsions:
REMARK  status: ('A' for Active; 'I' for Inactive)
ROOT
ATOM      1  C1  BNZ d   1      -5.974   5.990   3.148  0.00  0.00     0.000 A 
ATOM      2  C2  BNZ d   1      -5.999   5.726   4.492  0.00  0.00     0.000 A 
ATOM      3  C3  BNZ d   1      -5.627   4.501   4.972  0.00  0.00     0.000 A 
ATOM      4  C4  BNZ d   1      -5.270   3.531   4.106  0.00  0.00     0.000 A 
ATOM      5  C5  BNZ d   1      -5.248   3.778   2.748  0.00  0.00     0.000 A 
ATOM      6  C6  BNZ d   1      -5.586   5.024   2.271  0.00  0.00     0.000 A 
ENDROOT
TORSDOF 0
ENDMDL
