MODEL 1
REMARK minimizedAffinity -2.2837081
REMARK minimizedRMSD -1
REMARK  0 active torsions:
REMARK  status: ('A' for Active; 'I' for Inactive)
ROOT
ATOM      1  C1  BNZ d   1      -5.270   4.891   1.599  0.00  0.00     0.000 A 
ATOM      2  C2  BNZ d   1      -5.644   6.000   2.311  0.00  0.00     0.000 A 
ATOM      3  C3  BNZ d   1      -5.607   6.000   3.677  0.00  0.00     0.000 A 
ATOM      4  C4  BNZ d   1      -5.235   4.880   4.330  0.00  0.00     0.000 A 
ATOM      5  C5  BNZ d   1      -4.864   3.751   3.628  0.00  0.00     0.000 A 
ATOM      6  C6  BNZ d   1      -4.865   3.767   2.252  0.00  0.00     0.000 A 
ENDROOT
TORSDOF 0
ENDMDL
