MODEL 1
REMARK minimizedAffinity -1.89510286
REMARK minimizedRMSD -1
REMARK  0 active torsions:
REMARK  status: ('A' for Active; 'I' for Inactive)
ROOT
ATOM      1  C1  BNZ d   1      -5.973   4.338   5.999  0.00  0.00     0.000 A 
ATOM      2  C2  BNZ d   1      -5.757   2.986   5.998  0.00  0.00     0.000 A 
ATOM      3  C3  BNZ d   1      -5.556   2.310   4.827  0.00  0.00     0.000 A 
ATOM      4  C4  BNZ d   1      -5.611   2.979   3.658  0.00  0.00     0.000 A 
ATOM      5  C5  BNZ d   1      -5.836   4.341   3.641  0.00  0.00     0.000 A 
ATOM      6  C6  BNZ d   1      -5.999   5.024   4.824  0.00  0.00     0.000 A 
ENDROOT
TORSDOF 0
ENDMDL
