MODEL 1
REMARK minimizedAffinity -0.781201303
REMARK minimizedRMSD -1
REMARK  0 active torsions:
REMARK  status: ('A' for Active; 'I' for Inactive)
ROOT
ATOM      1  C1  BNZ d   1      -5.939   6.000   2.012  0.00  0.00     0.000 A 
ATOM      2  C2  BNZ d   1      -5.944   6.000   3.382  0.00  0.00     0.000 A 
ATOM      3  C3  BNZ d   1      -5.401   4.960   4.084  0.00  0.00     0.000 A 
ATOM      4  C4  BNZ d   1      -4.890   3.905   3.417  0.00  0.00     0.000 A 
ATOM      5  C5  BNZ d   1      -4.885   3.887   2.036  0.00  0.00     0.000 A 
ATOM      6  C6  BNZ d   1      -5.397   4.952   1.333  0.00  0.00     0.000 A 
ENDROOT
TORSDOF 0
ENDMDL
