MODEL 1
REMARK minimizedAffinity 2.23913217
REMARK minimizedRMSD -1
REMARK  0 active torsions:
REMARK  status: ('A' for Active; 'I' for Inactive)
ROOT
ATOM      1  C1  BNZ d   1      -1.635  -0.332   1.789  0.00  0.00     0.000 A 
ATOM      2  C2  BNZ d   1      -0.737   0.436   1.098  0.00  0.00     0.000 A 
ATOM      3  C3  BNZ d   1      -0.409   0.136  -0.195  0.00  0.00     0.000 A 
ATOM      4  C4  BNZ d   1      -0.949  -0.952  -0.781  0.00  0.00     0.000 A 
ATOM      5  C5  BNZ d   1      -1.849  -1.742  -0.094  0.00  0.00     0.000 A 
ATOM      6  C6  BNZ d   1      -2.206  -1.415   1.194  0.00  0.00     0.000 A 
ENDROOT
TORSDOF 0
ENDMDL
