MODEL 1
REMARK minimizedAffinity -1.23635781
REMARK minimizedRMSD -1
REMARK  0 active torsions:
REMARK  status: ('A' for Active; 'I' for Inactive)
ROOT
ATOM      1  C1  BNZ d   1      -5.611   5.144   3.389  0.00  0.00     0.000 A 
ATOM      2  C2  BNZ d   1      -5.998   6.000   4.385  0.00  0.00     0.000 A 
ATOM      3  C3  BNZ d   1      -5.999   5.597   5.692  0.00  0.00     0.000 A 
ATOM      4  C4  BNZ d   1      -5.652   4.330   5.996  0.00  0.00     0.000 A 
ATOM      5  C5  BNZ d   1      -5.268   3.453   5.001  0.00  0.00     0.000 A 
ATOM      6  C6  BNZ d   1      -5.231   3.873   3.691  0.00  0.00     0.000 A 
ENDROOT
TORSDOF 0
ENDMDL
