MODEL 1
REMARK minimizedAffinity -2.34142947
REMARK minimizedRMSD -1
REMARK  0 active torsions:
REMARK  status: ('A' for Active; 'I' for Inactive)
ROOT
ATOM      1  C1  BNZ d   1      -5.952   5.995   4.867  0.00  0.00     0.000 A 
ATOM      2  C2  BNZ d   1      -5.995   5.227   6.000  0.00  0.00     0.000 A 
ATOM      3  C3  BNZ d   1      -5.522   3.945   5.995  0.00  0.00     0.000 A 
ATOM      4  C4  BNZ d   1      -5.044   3.419   4.848  0.00  0.00     0.000 A 
ATOM      5  C5  BNZ d   1      -5.003   4.178   3.695  0.00  0.00     0.000 A 
ATOM      6  C6  BNZ d   1      -5.444   5.481   3.714  0.00  0.00     0.000 A 
ENDROOT
TORSDOF 0
ENDMDL
