MODEL 1
REMARK minimizedAffinity 4.74467897
REMARK minimizedRMSD -1
REMARK  3 active torsions:
REMARK  status: ('A' for Active; 'I' for Inactive)
REMARK    1  A    between atoms: C3'_2  and  C2'_3 
REMARK    2  A    between atoms: C2'_3  and  C1'_4 
REMARK    3  A    between atoms: C1'_4  and  C1_5 
ROOT
ATOM      1  C1  N4B d   1       5.266   5.289   1.049  0.00  0.00    -0.075 A 
ATOM      2  C2  N4B d   1       5.978   5.991   2.046  0.00  0.00     0.002 A 
ATOM      3  C3  N4B d   1       5.981   5.531   3.340  0.00  0.00     0.002 A 
ATOM      4  C4  N4B d   1       5.268   4.386   3.662  0.00  0.00    -0.004 A 
ATOM      5  C5  N4B d   1       4.604   3.699   2.688  0.00  0.00     0.002 A 
ATOM      6  C6  N4B d   1       4.595   4.148   1.383  0.00  0.00     0.002 A 
ENDROOT
BRANCH   1   7
ATOM      7  C1' N4B d   1       5.162   5.801  -0.362  0.00  0.00     0.057 C 
BRANCH   7   8
ATOM      8  C2' N4B d   1       3.691   5.987  -0.721  0.00  0.00     0.009 C 
BRANCH   8   9
ATOM      9  C3' N4B d   1       3.311   5.220  -1.976  0.00  0.00     0.004 C 
ATOM     10  C4' N4B d   1       2.216   5.887  -2.754  0.00  0.00     0.003 C 
ENDBRANCH   8   9
ENDBRANCH   7   8
ENDBRANCH   1   7
TORSDOF 3
ENDMDL
