MODEL 1
REMARK minimizedAffinity 15.259511
REMARK minimizedRMSD -1
REMARK  3 active torsions:
REMARK  status: ('A' for Active; 'I' for Inactive)
REMARK    1  A    between atoms: C3'_2  and  C2'_3 
REMARK    2  A    between atoms: C2'_3  and  C1'_4 
REMARK    3  A    between atoms: C1'_4  and  C1_5 
ROOT
ATOM      1  C1  N4B d   1      -3.421   4.023   3.998  0.00  0.00    -0.075 A 
ATOM      2  C2  N4B d   1      -4.568   4.793   4.291  0.00  0.00     0.002 A 
ATOM      3  C3  N4B d   1      -4.506   5.779   5.246  0.00  0.00     0.002 A 
ATOM      4  C4  N4B d   1      -3.320   5.999   5.929  0.00  0.00    -0.004 A 
ATOM      5  C5  N4B d   1      -2.210   5.268   5.621  0.00  0.00     0.002 A 
ATOM      6  C6  N4B d   1      -2.256   4.277   4.662  0.00  0.00     0.002 A 
ENDROOT
BRANCH   1   7
ATOM      7  C1' N4B d   1      -3.462   2.877   3.024  0.00  0.00     0.057 C 
BRANCH   7   8
ATOM      8  C2' N4B d   1      -2.648   1.715   3.583  0.00  0.00     0.009 C 
BRANCH   8   9
ATOM      9  C3' N4B d   1      -3.239   0.369   3.198  0.00  0.00     0.004 C 
ATOM     10  C4' N4B d   1      -2.898  -0.034   1.794  0.00  0.00     0.003 C 
ENDBRANCH   8   9
ENDBRANCH   7   8
ENDBRANCH   1   7
TORSDOF 3
ENDMDL
