MODEL 1
REMARK minimizedAffinity 7.44818544
REMARK minimizedRMSD -1
REMARK  3 active torsions:
REMARK  status: ('A' for Active; 'I' for Inactive)
REMARK    1  A    between atoms: C3'_2  and  C2'_3 
REMARK    2  A    between atoms: C2'_3  and  C1'_4 
REMARK    3  A    between atoms: C1'_4  and  C1_5 
ROOT
ATOM      1  C1  N4B d   1      -3.054   3.994   4.006  0.00  0.00    -0.075 A 
ATOM      2  C2  N4B d   1      -4.007   4.027   5.048  0.00  0.00     0.002 A 
ATOM      3  C3  N4B d   1      -3.967   5.031   5.984  0.00  0.00     0.002 A 
ATOM      4  C4  N4B d   1      -2.976   5.998   5.910  0.00  0.00    -0.004 A 
ATOM      5  C5  N4B d   1      -2.074   5.974   4.886  0.00  0.00     0.002 A 
ATOM      6  C6  N4B d   1      -2.106   4.973   3.936  0.00  0.00     0.002 A 
ENDROOT
BRANCH   1   7
ATOM      7  C1' N4B d   1      -3.006   2.869   3.009  0.00  0.00     0.057 C 
BRANCH   7   8
ATOM      8  C2' N4B d   1      -2.764   1.556   3.747  0.00  0.00     0.009 C 
BRANCH   8   9
ATOM      9  C3' N4B d   1      -2.808   0.361   2.810  0.00  0.00     0.004 C 
ATOM     10  C4' N4B d   1      -3.681  -0.746   3.322  0.00  0.00     0.003 C 
ENDBRANCH   8   9
ENDBRANCH   7   8
ENDBRANCH   1   7
TORSDOF 3
ENDMDL
