MODEL 1
REMARK minimizedAffinity 1.57515168
REMARK minimizedRMSD -1
REMARK  3 active torsions:
REMARK  status: ('A' for Active; 'I' for Inactive)
REMARK    1  A    between atoms: C3'_2  and  C2'_3 
REMARK    2  A    between atoms: C2'_3  and  C1'_4 
REMARK    3  A    between atoms: C1'_4  and  C1_5 
ROOT
ATOM      1  C1  N4B d   1       2.032   1.777  -2.189  0.00  0.00    -0.075 A 
ATOM      2  C2  N4B d   1       0.692   1.515  -2.550  0.00  0.00     0.002 A 
ATOM      3  C3  N4B d   1       0.135   0.290  -2.277  0.00  0.00     0.002 A 
ATOM      4  C4  N4B d   1       0.900  -0.691  -1.664  0.00  0.00    -0.004 A 
ATOM      5  C5  N4B d   1       2.186  -0.421  -1.295  0.00  0.00     0.002 A 
ATOM      6  C6  N4B d   1       2.757   0.807  -1.560  0.00  0.00     0.002 A 
ENDROOT
BRANCH   1   7
ATOM      7  C1' N4B d   1       2.711   3.072  -2.544  0.00  0.00     0.057 C 
BRANCH   7   8
ATOM      8  C2' N4B d   1       1.884   4.235  -2.005  0.00  0.00     0.009 C 
BRANCH   8   9
ATOM      9  C3' N4B d   1       2.650   5.047  -0.974  0.00  0.00     0.004 C 
ATOM     10  C4' N4B d   1       1.774   6.000  -0.218  0.00  0.00     0.003 C 
ENDBRANCH   8   9
ENDBRANCH   7   8
ENDBRANCH   1   7
TORSDOF 3
ENDMDL
