MODEL 1
REMARK minimizedAffinity 16.6105194
REMARK minimizedRMSD -1
REMARK  3 active torsions:
REMARK  status: ('A' for Active; 'I' for Inactive)
REMARK    1  A    between atoms: C3'_2  and  C2'_3 
REMARK    2  A    between atoms: C2'_3  and  C1'_4 
REMARK    3  A    between atoms: C1'_4  and  C1_5 
ROOT
ATOM      1  C1  N4B d   1      -3.283   2.361   2.855  0.00  0.00    -0.075 A 
ATOM      2  C2  N4B d   1      -2.222   1.450   3.052  0.00  0.00     0.002 A 
ATOM      3  C3  N4B d   1      -2.468   0.099   3.053  0.00  0.00     0.002 A 
ATOM      4  C4  N4B d   1      -3.764  -0.362   2.878  0.00  0.00    -0.004 A 
ATOM      5  C5  N4B d   1      -4.779   0.524   2.663  0.00  0.00     0.002 A 
ATOM      6  C6  N4B d   1      -4.546   1.884   2.655  0.00  0.00     0.002 A 
ENDROOT
BRANCH   1   7
ATOM      7  C1' N4B d   1      -3.076   3.849   2.931  0.00  0.00     0.057 C 
BRANCH   7   8
ATOM      8  C2' N4B d   1      -2.658   4.224   4.350  0.00  0.00     0.009 C 
BRANCH   8   9
ATOM      9  C3' N4B d   1      -2.837   5.708   4.621  0.00  0.00     0.004 C 
ATOM     10  C4' N4B d   1      -3.380   5.987   5.991  0.00  0.00     0.003 C 
ENDBRANCH   8   9
ENDBRANCH   7   8
ENDBRANCH   1   7
TORSDOF 3
ENDMDL
