MODEL 1
REMARK minimizedAffinity 11.8239498
REMARK minimizedRMSD -1
REMARK  3 active torsions:
REMARK  status: ('A' for Active; 'I' for Inactive)
REMARK    1  A    between atoms: C3'_2  and  C2'_3 
REMARK    2  A    between atoms: C2'_3  and  C1'_4 
REMARK    3  A    between atoms: C1'_4  and  C1_5 
ROOT
ATOM      1  C1  N4B d   1      -3.231   2.660   3.565  0.00  0.00    -0.075 A 
ATOM      2  C2  N4B d   1      -4.475   2.235   3.047  0.00  0.00     0.002 A 
ATOM      3  C3  N4B d   1      -4.638   0.937   2.631  0.00  0.00     0.002 A 
ATOM      4  C4  N4B d   1      -3.571   0.053   2.706  0.00  0.00    -0.004 A 
ATOM      5  C5  N4B d   1      -2.381   0.465   3.232  0.00  0.00     0.002 A 
ATOM      6  C6  N4B d   1      -2.204   1.766   3.657  0.00  0.00     0.002 A 
ENDROOT
BRANCH   1   7
ATOM      7  C1' N4B d   1      -2.979   4.092   3.952  0.00  0.00     0.057 C 
BRANCH   7   8
ATOM      8  C2' N4B d   1      -2.339   4.131   5.337  0.00  0.00     0.009 C 
BRANCH   8   9
ATOM      9  C3' N4B d   1      -2.500   5.489   5.998  0.00  0.00     0.004 C 
ATOM     10  C4' N4B d   1      -3.909   6.000   5.942  0.00  0.00     0.003 C 
ENDBRANCH   8   9
ENDBRANCH   7   8
ENDBRANCH   1   7
TORSDOF 3
ENDMDL
