MODEL 1
REMARK minimizedAffinity 3.55582714
REMARK minimizedRMSD -1
REMARK  3 active torsions:
REMARK  status: ('A' for Active; 'I' for Inactive)
REMARK    1  A    between atoms: C3'_2  and  C2'_3 
REMARK    2  A    between atoms: C2'_3  and  C1'_4 
REMARK    3  A    between atoms: C1'_4  and  C1_5 
ROOT
ATOM      1  C1  N4B d   1       5.334   5.099   1.837  0.00  0.00    -0.075 A 
ATOM      2  C2  N4B d   1       5.996   5.744   0.768  0.00  0.00     0.002 A 
ATOM      3  C3  N4B d   1       5.381   5.851  -0.455  0.00  0.00     0.002 A 
ATOM      4  C4  N4B d   1       4.118   5.307  -0.638  0.00  0.00    -0.004 A 
ATOM      5  C5  N4B d   1       3.476   4.708   0.406  0.00  0.00     0.002 A 
ATOM      6  C6  N4B d   1       4.080   4.597   1.642  0.00  0.00     0.002 A 
ENDROOT
BRANCH   1   7
ATOM      7  C1' N4B d   1       6.000   4.882   3.168  0.00  0.00     0.057 C 
BRANCH   7   8
ATOM      8  C2' N4B d   1       5.588   5.999   4.122  0.00  0.00     0.009 C 
BRANCH   8   9
ATOM      9  C3' N4B d   1       5.992   5.700   5.555  0.00  0.00     0.004 C 
ATOM     10  C4' N4B d   1       5.591   4.324   5.997  0.00  0.00     0.003 C 
ENDBRANCH   8   9
ENDBRANCH   7   8
ENDBRANCH   1   7
TORSDOF 3
ENDMDL
