MODEL 1
REMARK minimizedAffinity 7.86459875
REMARK minimizedRMSD -1
REMARK  3 active torsions:
REMARK  status: ('A' for Active; 'I' for Inactive)
REMARK    1  A    between atoms: C3'_2  and  C2'_3 
REMARK    2  A    between atoms: C2'_3  and  C1'_4 
REMARK    3  A    between atoms: C1'_4  and  C1_5 
ROOT
ATOM      1  C1  N4B d   1       1.664   2.991  -1.751  0.00  0.00    -0.075 A 
ATOM      2  C2  N4B d   1       0.846   1.938  -1.286  0.00  0.00     0.002 A 
ATOM      3  C3  N4B d   1       0.418   0.966  -2.156  0.00  0.00     0.002 A 
ATOM      4  C4  N4B d   1       0.778   1.035  -3.493  0.00  0.00    -0.004 A 
ATOM      5  C5  N4B d   1       1.590   2.042  -3.929  0.00  0.00     0.002 A 
ATOM      6  C6  N4B d   1       2.031   3.024  -3.065  0.00  0.00     0.002 A 
ENDROOT
BRANCH   1   7
ATOM      7  C1' N4B d   1       2.086   4.124  -0.855  0.00  0.00     0.057 C 
BRANCH   7   8
ATOM      8  C2' N4B d   1       1.833   3.734   0.598  0.00  0.00     0.009 C 
BRANCH   8   9
ATOM      9  C3' N4B d   1       3.122   3.653   1.398  0.00  0.00     0.004 C 
ATOM     10  C4' N4B d   1       3.225   2.395   2.208  0.00  0.00     0.003 C 
ENDBRANCH   8   9
ENDBRANCH   7   8
ENDBRANCH   1   7
TORSDOF 3
ENDMDL
