MODEL 1
REMARK minimizedAffinity 2.07332778
REMARK minimizedRMSD -1
REMARK  3 active torsions:
REMARK  status: ('A' for Active; 'I' for Inactive)
REMARK    1  A    between atoms: C3'_2  and  C2'_3 
REMARK    2  A    between atoms: C2'_3  and  C1'_4 
REMARK    3  A    between atoms: C1'_4  and  C1_5 
ROOT
ATOM      1  C1  N4B d   1       2.085  -0.054  -1.927  0.00  0.00    -0.075 A 
ATOM      2  C2  N4B d   1       0.802   0.499  -1.722  0.00  0.00     0.002 A 
ATOM      3  C3  N4B d   1       0.363   1.530  -2.516  0.00  0.00     0.002 A 
ATOM      4  C4  N4B d   1       1.193   2.034  -3.506  0.00  0.00    -0.004 A 
ATOM      5  C5  N4B d   1       2.421   1.478  -3.715  0.00  0.00     0.002 A 
ATOM      6  C6  N4B d   1       2.874   0.439  -2.926  0.00  0.00     0.002 A 
ENDROOT
BRANCH   1   7
ATOM      7  C1' N4B d   1       2.642  -1.124  -1.029  0.00  0.00     0.057 C 
BRANCH   7   8
ATOM      8  C2' N4B d   1       1.555  -2.156  -0.745  0.00  0.00     0.009 C 
BRANCH   8   9
ATOM      9  C3' N4B d   1       1.860  -2.976   0.497  0.00  0.00     0.004 C 
ATOM     10  C4' N4B d   1       0.676  -3.760   0.980  0.00  0.00     0.003 C 
ENDBRANCH   8   9
ENDBRANCH   7   8
ENDBRANCH   1   7
TORSDOF 3
ENDMDL
