MODEL 1
REMARK minimizedAffinity 2.51894379
REMARK minimizedRMSD -1
REMARK  3 active torsions:
REMARK  status: ('A' for Active; 'I' for Inactive)
REMARK    1  A    between atoms: C3'_2  and  C2'_3 
REMARK    2  A    between atoms: C2'_3  and  C1'_4 
REMARK    3  A    between atoms: C1'_4  and  C1_5 
ROOT
ATOM      1  C1  N4B d   1       1.348   1.617  -3.108  0.00  0.00    -0.075 A 
ATOM      2  C2  N4B d   1       1.260   2.741  -2.258  0.00  0.00     0.002 A 
ATOM      3  C3  N4B d   1       0.582   2.650  -1.067  0.00  0.00     0.002 A 
ATOM      4  C4  N4B d   1      -0.028   1.456  -0.715  0.00  0.00    -0.004 A 
ATOM      5  C5  N4B d   1       0.083   0.367  -1.530  0.00  0.00     0.002 A 
ATOM      6  C6  N4B d   1       0.765   0.443  -2.728  0.00  0.00     0.002 A 
ENDROOT
BRANCH   1   7
ATOM      7  C1' N4B d   1       2.004   1.692  -4.460  0.00  0.00     0.057 C 
BRANCH   7   8
ATOM      8  C2' N4B d   1       2.568   3.095  -4.665  0.00  0.00     0.009 C 
BRANCH   8   9
ATOM      9  C3' N4B d   1       2.139   3.691  -5.995  0.00  0.00     0.004 C 
ATOM     10  C4' N4B d   1       2.134   5.190  -5.985  0.00  0.00     0.003 C 
ENDBRANCH   8   9
ENDBRANCH   7   8
ENDBRANCH   1   7
TORSDOF 3
ENDMDL
