MODEL 1
REMARK minimizedAffinity 4.31968021
REMARK minimizedRMSD -1
REMARK  3 active torsions:
REMARK  status: ('A' for Active; 'I' for Inactive)
REMARK    1  A    between atoms: C3'_2  and  C2'_3 
REMARK    2  A    between atoms: C2'_3  and  C1'_4 
REMARK    3  A    between atoms: C1'_4  and  C1_5 
ROOT
ATOM      1  C1  N4B d   1       1.682   1.945  -3.713  0.00  0.00    -0.075 A 
ATOM      2  C2  N4B d   1       1.809   3.329  -3.463  0.00  0.00     0.002 A 
ATOM      3  C3  N4B d   1       2.616   4.100  -4.263  0.00  0.00     0.002 A 
ATOM      4  C4  N4B d   1       3.317   3.509  -5.303  0.00  0.00    -0.004 A 
ATOM      5  C5  N4B d   1       3.169   2.176  -5.554  0.00  0.00     0.002 A 
ATOM      6  C6  N4B d   1       2.359   1.390  -4.761  0.00  0.00     0.002 A 
ENDROOT
BRANCH   1   7
ATOM      7  C1' N4B d   1       0.880   1.045  -2.813  0.00  0.00     0.057 C 
BRANCH   7   8
ATOM      8  C2' N4B d   1       0.275   1.876  -1.685  0.00  0.00     0.009 C 
BRANCH   8   9
ATOM      9  C3' N4B d   1      -0.989   1.244  -1.129  0.00  0.00     0.004 C 
ATOM     10  C4' N4B d   1      -1.933   2.251  -0.543  0.00  0.00     0.003 C 
ENDBRANCH   8   9
ENDBRANCH   7   8
ENDBRANCH   1   7
TORSDOF 3
ENDMDL
