MODEL 1
REMARK minimizedAffinity 3.03535652
REMARK minimizedRMSD -1
REMARK  3 active torsions:
REMARK  status: ('A' for Active; 'I' for Inactive)
REMARK    1  A    between atoms: C3'_2  and  C2'_3 
REMARK    2  A    between atoms: C2'_3  and  C1'_4 
REMARK    3  A    between atoms: C1'_4  and  C1_5 
ROOT
ATOM      1  C1  N4B d   1       2.680   2.769  -3.216  0.00  0.00    -0.075 A 
ATOM      2  C2  N4B d   1       1.821   2.750  -2.095  0.00  0.00     0.002 A 
ATOM      3  C3  N4B d   1       0.943   1.709  -1.921  0.00  0.00     0.002 A 
ATOM      4  C4  N4B d   1       0.893   0.690  -2.861  0.00  0.00    -0.004 A 
ATOM      5  C5  N4B d   1       1.743   0.703  -3.927  0.00  0.00     0.002 A 
ATOM      6  C6  N4B d   1       2.634   1.741  -4.112  0.00  0.00     0.002 A 
ENDROOT
BRANCH   1   7
ATOM      7  C1' N4B d   1       3.597   3.929  -3.494  0.00  0.00     0.057 C 
BRANCH   7   8
ATOM      8  C2' N4B d   1       3.648   4.833  -2.266  0.00  0.00     0.009 C 
BRANCH   8   9
ATOM      9  C3' N4B d   1       5.009   4.801  -1.593  0.00  0.00     0.004 C 
ATOM     10  C4' N4B d   1       5.991   3.922  -2.309  0.00  0.00     0.003 C 
ENDBRANCH   8   9
ENDBRANCH   7   8
ENDBRANCH   1   7
TORSDOF 3
ENDMDL
