MODEL 1
REMARK minimizedAffinity -7.26739168
REMARK minimizedRMSD -1
REMARK  0 active torsions:
REMARK  status: ('A' for Active; 'I' for Inactive)
ROOT
ATOM      1  C1  DEN d   1      -1.564   3.192  -0.316  0.00  0.00     0.130 A 
ATOM      2  C2  DEN d   1      -2.429   2.805   0.795  0.00  0.00    -0.031 A 
ATOM      3  C3  DEN d   1      -1.953   1.507   1.314  0.00  0.00     0.027 A 
ATOM      4  C4  DEN d   1       0.032   0.069   0.513  0.00  0.00     0.027 A 
ATOM      5  C5  DEN d   1       1.053  -0.022  -0.407  0.00  0.00    -0.003 A 
ATOM      6  C6  DEN d   1       1.251   0.927  -1.374  0.00  0.00     0.001 A 
ATOM      7  C7  DEN d   1       0.443   2.033  -1.416  0.00  0.00     0.017 A 
ATOM      8  C8  DEN d   1      -0.593   2.128  -0.497  0.00  0.00    -0.094 A 
ATOM      9  C9  DEN d   1      -0.770   1.163   0.481  0.00  0.00    -0.072 A 
ENDROOT
TORSDOF 0
ENDMDL
