MODEL 1
REMARK minimizedAffinity -7.07732582
REMARK minimizedRMSD -1
REMARK  0 active torsions:
REMARK  status: ('A' for Active; 'I' for Inactive)
ROOT
ATOM      1  C1  DEN d   1      -0.558  -0.376   1.284  0.00  0.00     0.130 A 
ATOM      2  C2  DEN d   1       0.329  -1.123   0.396  0.00  0.00    -0.031 A 
ATOM      3  C3  DEN d   1       0.578  -0.296  -0.802  0.00  0.00     0.027 A 
ATOM      4  C4  DEN d   1      -0.317   2.057  -1.364  0.00  0.00     0.027 A 
ATOM      5  C5  DEN d   1      -1.115   3.090  -0.922  0.00  0.00    -0.003 A 
ATOM      6  C6  DEN d   1      -1.804   3.026   0.260  0.00  0.00     0.001 A 
ATOM      7  C7  DEN d   1      -1.673   1.924   1.063  0.00  0.00     0.017 A 
ATOM      8  C8  DEN d   1      -0.877   0.876   0.621  0.00  0.00    -0.094 A 
ATOM      9  C9  DEN d   1      -0.178   0.965  -0.571  0.00  0.00    -0.072 A 
ENDROOT
TORSDOF 0
ENDMDL
