MODEL 1
REMARK minimizedAffinity -6.24207687
REMARK minimizedRMSD -1
REMARK  0 active torsions:
REMARK  status: ('A' for Active; 'I' for Inactive)
ROOT
ATOM      1  C1  DEN d   1      -1.916  -1.291  -1.689  0.00  0.00     0.130 A 
ATOM      2  C2  DEN d   1      -1.652  -2.599  -2.283  0.00  0.00    -0.031 A 
ATOM      3  C3  DEN d   1      -0.254  -2.609  -2.761  0.00  0.00     0.027 A 
ATOM      4  C4  DEN d   1       1.517  -0.739  -2.635  0.00  0.00     0.027 A 
ATOM      5  C5  DEN d   1       1.757   0.555  -2.228  0.00  0.00    -0.003 A 
ATOM      6  C6  DEN d   1       0.787   1.330  -1.650  0.00  0.00     0.001 A 
ATOM      7  C7  DEN d   1      -0.456   0.802  -1.419  0.00  0.00     0.017 A 
ATOM      8  C8  DEN d   1      -0.707  -0.500  -1.833  0.00  0.00    -0.094 A 
ATOM      9  C9  DEN d   1       0.290  -1.271  -2.405  0.00  0.00    -0.072 A 
ENDROOT
TORSDOF 0
ENDMDL
