MODEL 1
REMARK minimizedAffinity -2.19139099
REMARK minimizedRMSD -1
REMARK  0 active torsions:
REMARK  status: ('A' for Active; 'I' for Inactive)
ROOT
ATOM      1  C1  DEN d   1       0.417   2.173  -1.896  0.00  0.00     0.130 A 
ATOM      2  C2  DEN d   1      -0.458   3.002  -1.072  0.00  0.00    -0.031 A 
ATOM      3  C3  DEN d   1      -0.856   2.211   0.109  0.00  0.00     0.027 A 
ATOM      4  C4  DEN d   1      -0.202  -0.203   0.742  0.00  0.00     0.027 A 
ATOM      5  C5  DEN d   1       0.511  -1.313   0.347  0.00  0.00    -0.003 A 
ATOM      6  C6  DEN d   1       1.210  -1.350  -0.830  0.00  0.00     0.001 A 
ATOM      7  C7  DEN d   1       1.248  -0.241  -1.633  0.00  0.00     0.017 A 
ATOM      8  C8  DEN d   1       0.525   0.879  -1.245  0.00  0.00    -0.094 A 
ATOM      9  C9  DEN d   1      -0.166   0.902  -0.045  0.00  0.00    -0.072 A 
ENDROOT
TORSDOF 0
ENDMDL
