MODEL 1
REMARK minimizedAffinity -5.98746538
REMARK minimizedRMSD -1
REMARK  0 active torsions:
REMARK  status: ('A' for Active; 'I' for Inactive)
ROOT
ATOM      1  C1  DEN d   1       0.093  -0.288   0.725  0.00  0.00     0.130 A 
ATOM      2  C2  DEN d   1       1.185  -0.448  -0.231  0.00  0.00    -0.031 A 
ATOM      3  C3  DEN d   1       1.204   0.741  -1.106  0.00  0.00     0.027 A 
ATOM      4  C4  DEN d   1      -0.341   2.806  -1.072  0.00  0.00     0.027 A 
ATOM      5  C5  DEN d   1      -1.423   3.388  -0.449  0.00  0.00    -0.003 A 
ATOM      6  C6  DEN d   1      -2.090   2.776   0.578  0.00  0.00     0.001 A 
ATOM      7  C7  DEN d   1      -1.655   1.563   1.044  0.00  0.00     0.017 A 
ATOM      8  C8  DEN d   1      -0.570   0.966   0.416  0.00  0.00    -0.094 A 
ATOM      9  C9  DEN d   1       0.099   1.607  -0.613  0.00  0.00    -0.072 A 
ENDROOT
TORSDOF 0
ENDMDL
