MODEL 1
REMARK minimizedAffinity -6.98857164
REMARK minimizedRMSD -1
REMARK  0 active torsions:
REMARK  status: ('A' for Active; 'I' for Inactive)
ROOT
ATOM      1  C1  DEN d   1      -0.260   0.072   1.351  0.00  0.00     0.130 A 
ATOM      2  C2  DEN d   1       0.764  -0.239   0.358  0.00  0.00    -0.031 A 
ATOM      3  C3  DEN d   1       0.792   0.860  -0.628  0.00  0.00     0.027 A 
ATOM      4  C4  DEN d   1      -0.639   3.004  -0.710  0.00  0.00     0.027 A 
ATOM      5  C5  DEN d   1      -1.650   3.703  -0.089  0.00  0.00    -0.003 A 
ATOM      6  C6  DEN d   1      -2.287   3.229   1.028  0.00  0.00     0.001 A 
ATOM      7  C7  DEN d   1      -1.888   2.042   1.584  0.00  0.00     0.017 A 
ATOM      8  C8  DEN d   1      -0.874   1.328   0.958  0.00  0.00    -0.094 A 
ATOM      9  C9  DEN d   1      -0.235   1.830  -0.162  0.00  0.00    -0.072 A 
ENDROOT
TORSDOF 0
ENDMDL
