MODEL 1
REMARK minimizedAffinity -1.53652036
REMARK minimizedRMSD -1
REMARK  0 active torsions:
REMARK  status: ('A' for Active; 'I' for Inactive)
ROOT
ATOM      1  C1  DEN d   1      -0.415   3.203   0.700  0.00  0.00     0.130 A 
ATOM      2  C2  DEN d   1       0.183   3.369  -0.622  0.00  0.00    -0.031 A 
ATOM      3  C3  DEN d   1       0.469   2.026  -1.166  0.00  0.00     0.027 A 
ATOM      4  C4  DEN d   1       0.041  -0.282  -0.097  0.00  0.00     0.027 A 
ATOM      5  C5  DEN d   1      -0.438  -0.931   1.019  0.00  0.00    -0.003 A 
ATOM      6  C6  DEN d   1      -0.908  -0.252   2.113  0.00  0.00     0.001 A 
ATOM      7  C7  DEN d   1      -0.951   1.117   2.095  0.00  0.00     0.017 A 
ATOM      8  C8  DEN d   1      -0.463   1.778   0.975  0.00  0.00    -0.094 A 
ATOM      9  C9  DEN d   1      -0.003   1.074  -0.124  0.00  0.00    -0.072 A 
ENDROOT
TORSDOF 0
ENDMDL
