MODEL 1
REMARK minimizedAffinity -5.94340229
REMARK minimizedRMSD -1
REMARK  0 active torsions:
REMARK  status: ('A' for Active; 'I' for Inactive)
ROOT
ATOM      1  C1  DEN d   1       0.723  -1.783  -3.344  0.00  0.00     0.130 A 
ATOM      2  C2  DEN d   1       1.052  -3.011  -2.625  0.00  0.00    -0.031 A 
ATOM      3  C3  DEN d   1       1.062  -2.705  -1.181  0.00  0.00     0.027 A 
ATOM      4  C4  DEN d   1       0.597  -0.463   0.007  0.00  0.00     0.027 A 
ATOM      5  C5  DEN d   1       0.285   0.865  -0.184  0.00  0.00    -0.003 A 
ATOM      6  C6  DEN d   1       0.133   1.407  -1.433  0.00  0.00     0.001 A 
ATOM      7  C7  DEN d   1       0.247   0.606  -2.539  0.00  0.00     0.017 A 
ATOM      8  C8  DEN d   1       0.568  -0.732  -2.354  0.00  0.00    -0.094 A 
ATOM      9  C9  DEN d   1       0.706  -1.264  -1.083  0.00  0.00    -0.072 A 
ENDROOT
TORSDOF 0
ENDMDL
