MODEL 1
REMARK minimizedAffinity -6.27158308
REMARK minimizedRMSD -1
REMARK  0 active torsions:
REMARK  status: ('A' for Active; 'I' for Inactive)
ROOT
ATOM      1  C1  DEN d   1       0.865   0.692  -0.839  0.00  0.00     0.130 A 
ATOM      2  C2  DEN d   1       0.741  -0.466   0.042  0.00  0.00    -0.031 A 
ATOM      3  C3  DEN d   1      -0.249  -0.139   1.089  0.00  0.00     0.027 A 
ATOM      4  C4  DEN d   1      -1.597   2.033   1.425  0.00  0.00     0.027 A 
ATOM      5  C5  DEN d   1      -1.823   3.301   0.936  0.00  0.00    -0.003 A 
ATOM      6  C6  DEN d   1      -1.150   3.796  -0.149  0.00  0.00     0.001 A 
ATOM      7  C7  DEN d   1      -0.250   3.002  -0.810  0.00  0.00     0.017 A 
ATOM      8  C8  DEN d   1      -0.011   1.726  -0.318  0.00  0.00    -0.094 A 
ATOM      9  C9  DEN d   1      -0.711   1.239   0.773  0.00  0.00    -0.072 A 
ENDROOT
TORSDOF 0
ENDMDL
