MODEL 1
REMARK minimizedAffinity -4.83974743
REMARK minimizedRMSD -1
REMARK  0 active torsions:
REMARK  status: ('A' for Active; 'I' for Inactive)
ROOT
ATOM      1  C1  DEN d   1       0.206   3.042  -0.989  0.00  0.00     0.130 A 
ATOM      2  C2  DEN d   1      -0.383   4.280  -0.487  0.00  0.00    -0.031 A 
ATOM      3  C3  DEN d   1      -1.256   3.940   0.655  0.00  0.00     0.027 A 
ATOM      4  C4  DEN d   1      -1.745   1.629   1.691  0.00  0.00     0.027 A 
ATOM      5  C5  DEN d   1      -1.485   0.280   1.599  0.00  0.00    -0.003 A 
ATOM      6  C6  DEN d   1      -0.676  -0.243   0.624  0.00  0.00     0.001 A 
ATOM      7  C7  DEN d   1      -0.063   0.594  -0.270  0.00  0.00     0.017 A 
ATOM      8  C8  DEN d   1      -0.326   1.955  -0.188  0.00  0.00    -0.094 A 
ATOM      9  C9  DEN d   1      -1.137   2.465   0.812  0.00  0.00    -0.072 A 
ENDROOT
TORSDOF 0
ENDMDL
