MODEL 1
REMARK minimizedAffinity -4.81213379
REMARK minimizedRMSD -1
REMARK  0 active torsions:
REMARK  status: ('A' for Active; 'I' for Inactive)
ROOT
ATOM      1  C1  DEN d   1      -0.267  -0.281   0.760  0.00  0.00     0.130 A 
ATOM      2  C2  DEN d   1       0.671  -0.499  -0.337  0.00  0.00    -0.031 A 
ATOM      3  C3  DEN d   1       0.776   0.758  -1.105  0.00  0.00     0.027 A 
ATOM      4  C4  DEN d   1      -0.414   3.010  -0.701  0.00  0.00     0.027 A 
ATOM      5  C5  DEN d   1      -1.314   3.676   0.101  0.00  0.00    -0.003 A 
ATOM      6  C6  DEN d   1      -1.948   3.065   1.150  0.00  0.00     0.001 A 
ATOM      7  C7  DEN d   1      -1.658   1.761   1.453  0.00  0.00     0.017 A 
ATOM      8  C8  DEN d   1      -0.757   1.081   0.644  0.00  0.00    -0.094 A 
ATOM      9  C9  DEN d   1      -0.117   1.719  -0.405  0.00  0.00    -0.072 A 
ENDROOT
TORSDOF 0
ENDMDL
