MODEL 1
REMARK minimizedAffinity -4.50361872
REMARK minimizedRMSD -1
REMARK  0 active torsions:
REMARK  status: ('A' for Active; 'I' for Inactive)
ROOT
ATOM      1  C1  DEN d   1       0.526   2.799  -0.809  0.00  0.00     0.130 A 
ATOM      2  C2  DEN d   1      -0.151   3.888  -0.110  0.00  0.00    -0.031 A 
ATOM      3  C3  DEN d   1      -0.792   3.328   1.096  0.00  0.00     0.027 A 
ATOM      4  C4  DEN d   1      -0.800   0.893   1.946  0.00  0.00     0.027 A 
ATOM      5  C5  DEN d   1      -0.371  -0.389   1.683  0.00  0.00    -0.003 A 
ATOM      6  C6  DEN d   1       0.353  -0.702   0.563  0.00  0.00     0.001 A 
ATOM      7  C7  DEN d   1       0.708   0.288  -0.314  0.00  0.00     0.017 A 
ATOM      8  C8  DEN d   1       0.272   1.582  -0.060  0.00  0.00    -0.094 A 
ATOM      9  C9  DEN d   1      -0.448   1.880   1.085  0.00  0.00    -0.072 A 
ENDROOT
TORSDOF 0
ENDMDL
