MODEL 1
REMARK minimizedAffinity -5.20269394
REMARK minimizedRMSD -1
REMARK  0 active torsions:
REMARK  status: ('A' for Active; 'I' for Inactive)
ROOT
ATOM      1  C1  DEN d   1       0.554   2.737  -1.035  0.00  0.00     0.130 A 
ATOM      2  C2  DEN d   1       0.298   4.068  -0.493  0.00  0.00    -0.031 A 
ATOM      3  C3  DEN d   1      -0.406   3.909   0.796  0.00  0.00     0.027 A 
ATOM      4  C4  DEN d   1      -1.117   1.741   1.999  0.00  0.00     0.027 A 
ATOM      5  C5  DEN d   1      -1.127   0.366   1.922  0.00  0.00    -0.003 A 
ATOM      6  C6  DEN d   1      -0.612  -0.309   0.847  0.00  0.00     0.001 A 
ATOM      7  C7  DEN d   1      -0.024   0.389  -0.175  0.00  0.00     0.017 A 
ATOM      8  C8  DEN d   1      -0.017   1.777  -0.107  0.00  0.00    -0.094 A 
ATOM      9  C9  DEN d   1      -0.532   2.440   0.994  0.00  0.00    -0.072 A 
ENDROOT
TORSDOF 0
ENDMDL
