MODEL 1
REMARK minimizedAffinity -3.76304483
REMARK minimizedRMSD -1
REMARK  3 active torsions:
REMARK  status: ('A' for Active; 'I' for Inactive)
REMARK    1  A    between atoms: C3'_2  and  C2'_3 
REMARK    2  A    between atoms: C2'_3  and  C1'_4 
REMARK    3  A    between atoms: C1'_4  and  C1_5 
ROOT
ATOM      1  C1  N4B d   1       0.258   0.352  -0.488  0.00  0.00    -0.075 A 
ATOM      2  C2  N4B d   1      -1.096   0.680  -0.253  0.00  0.00     0.002 A 
ATOM      3  C3  N4B d   1      -1.544   0.866   1.031  0.00  0.00     0.002 A 
ATOM      4  C4  N4B d   1      -0.666   0.712   2.093  0.00  0.00    -0.004 A 
ATOM      5  C5  N4B d   1       0.646   0.420   1.857  0.00  0.00     0.002 A 
ATOM      6  C6  N4B d   1       1.111   0.235   0.570  0.00  0.00     0.002 A 
ENDROOT
BRANCH   1   7
ATOM      7  C1' N4B d   1       0.775   0.055  -1.869  0.00  0.00     0.057 C 
BRANCH   7   8
ATOM      8  C2' N4B d   1       0.316  -1.339  -2.286  0.00  0.00     0.009 C 
BRANCH   8   9
ATOM      9  C3' N4B d   1       1.103  -1.865  -3.474  0.00  0.00     0.004 C 
ATOM     10  C4' N4B d   1       2.419  -1.168  -3.653  0.00  0.00     0.003 C 
ENDBRANCH   8   9
ENDBRANCH   7   8
ENDBRANCH   1   7
TORSDOF 3
ENDMDL
