MODEL 1
REMARK minimizedAffinity -4.25700045
REMARK minimizedRMSD -1
REMARK  3 active torsions:
REMARK  status: ('A' for Active; 'I' for Inactive)
REMARK    1  A    between atoms: C3'_2  and  C2'_3 
REMARK    2  A    between atoms: C2'_3  and  C1'_4 
REMARK    3  A    between atoms: C1'_4  and  C1_5 
ROOT
ATOM      1  C1  N4B d   1       0.260  -0.237  -1.887  0.00  0.00    -0.075 A 
ATOM      2  C2  N4B d   1      -0.380  -1.418  -2.322  0.00  0.00     0.002 A 
ATOM      3  C3  N4B d   1       0.236  -2.235  -3.238  0.00  0.00     0.002 A 
ATOM      4  C4  N4B d   1       1.477  -1.883  -3.746  0.00  0.00    -0.004 A 
ATOM      5  C5  N4B d   1       2.100  -0.753  -3.302  0.00  0.00     0.002 A 
ATOM      6  C6  N4B d   1       1.494   0.075  -2.378  0.00  0.00     0.002 A 
ENDROOT
BRANCH   1   7
ATOM      7  C1' N4B d   1      -0.412   0.732  -0.952  0.00  0.00     0.057 C 
BRANCH   7   8
ATOM      8  C2' N4B d   1      -0.516   0.100   0.433  0.00  0.00     0.009 C 
BRANCH   8   9
ATOM      9  C3' N4B d   1       0.826   0.068   1.145  0.00  0.00     0.004 C 
ATOM     10  C4' N4B d   1       0.725   0.451   2.591  0.00  0.00     0.003 C 
ENDBRANCH   8   9
ENDBRANCH   7   8
ENDBRANCH   1   7
TORSDOF 3
ENDMDL
