MODEL 1
REMARK minimizedAffinity -4.18996382
REMARK minimizedRMSD -1
REMARK  3 active torsions:
REMARK  status: ('A' for Active; 'I' for Inactive)
REMARK    1  A    between atoms: C3'_2  and  C2'_3 
REMARK    2  A    between atoms: C2'_3  and  C1'_4 
REMARK    3  A    between atoms: C1'_4  and  C1_5 
ROOT
ATOM      1  C1  N4B d   1       0.588  -0.422  -1.253  0.00  0.00    -0.075 A 
ATOM      2  C2  N4B d   1       1.626  -0.795  -2.134  0.00  0.00     0.002 A 
ATOM      3  C3  N4B d   1       1.375  -1.676  -3.158  0.00  0.00     0.002 A 
ATOM      4  C4  N4B d   1       0.103  -2.208  -3.308  0.00  0.00    -0.004 A 
ATOM      5  C5  N4B d   1      -0.900  -1.823  -2.468  0.00  0.00     0.002 A 
ATOM      6  C6  N4B d   1      -0.663  -0.936  -1.437  0.00  0.00     0.002 A 
ENDROOT
BRANCH   1   7
ATOM      7  C1' N4B d   1       0.834   0.470  -0.067  0.00  0.00     0.057 C 
BRANCH   7   8
ATOM      8  C2' N4B d   1       1.789  -0.229   0.896  0.00  0.00     0.009 C 
BRANCH   8   9
ATOM      9  C3' N4B d   1       1.092  -0.659   2.176  0.00  0.00     0.004 C 
ATOM     10  C4' N4B d   1      -0.113   0.177   2.489  0.00  0.00     0.003 C 
ENDBRANCH   8   9
ENDBRANCH   7   8
ENDBRANCH   1   7
TORSDOF 3
ENDMDL
