MODEL 1
REMARK minimizedAffinity -1.38028598
REMARK minimizedRMSD -1
REMARK  3 active torsions:
REMARK  status: ('A' for Active; 'I' for Inactive)
REMARK    1  A    between atoms: C3'_2  and  C2'_3 
REMARK    2  A    between atoms: C2'_3  and  C1'_4 
REMARK    3  A    between atoms: C1'_4  and  C1_5 
ROOT
ATOM      1  C1  N4B d   1       0.013   0.475  -0.101  0.00  0.00    -0.075 A 
ATOM      2  C2  N4B d   1      -0.896   0.587   0.974  0.00  0.00     0.002 A 
ATOM      3  C3  N4B d   1      -0.476   0.334   2.257  0.00  0.00     0.002 A 
ATOM      4  C4  N4B d   1       0.838  -0.049   2.486  0.00  0.00    -0.004 A 
ATOM      5  C5  N4B d   1       1.715  -0.129   1.445  0.00  0.00     0.002 A 
ATOM      6  C6  N4B d   1       1.308   0.126   0.151  0.00  0.00     0.002 A 
ENDROOT
BRANCH   1   7
ATOM      7  C1' N4B d   1      -0.421   0.658  -1.530  0.00  0.00     0.057 C 
BRANCH   7   8
ATOM      8  C2' N4B d   1       0.690   0.175  -2.457  0.00  0.00     0.009 C 
BRANCH   8   9
ATOM      9  C3' N4B d   1       0.315  -1.114  -3.169  0.00  0.00     0.004 C 
ATOM     10  C4' N4B d   1       1.508  -1.950  -3.524  0.00  0.00     0.003 C 
ENDBRANCH   8   9
ENDBRANCH   7   8
ENDBRANCH   1   7
TORSDOF 3
ENDMDL
