MODEL 1
REMARK minimizedAffinity -3.77564621
REMARK minimizedRMSD -1
REMARK  3 active torsions:
REMARK  status: ('A' for Active; 'I' for Inactive)
REMARK    1  A    between atoms: C3'_2  and  C2'_3 
REMARK    2  A    between atoms: C2'_3  and  C1'_4 
REMARK    3  A    between atoms: C1'_4  and  C1_5 
ROOT
ATOM      1  C1  N4B d   1       0.190   0.312  -0.291  0.00  0.00    -0.075 A 
ATOM      2  C2  N4B d   1      -1.162   0.134   0.077  0.00  0.00     0.002 A 
ATOM      3  C3  N4B d   1      -1.506   0.033   1.402  0.00  0.00     0.002 A 
ATOM      4  C4  N4B d   1      -0.517   0.088   2.373  0.00  0.00    -0.004 A 
ATOM      5  C5  N4B d   1       0.783   0.286   2.012  0.00  0.00     0.002 A 
ATOM      6  C6  N4B d   1       1.143   0.393   0.683  0.00  0.00     0.002 A 
ENDROOT
BRANCH   1   7
ATOM      7  C1' N4B d   1       0.624   0.342  -1.730  0.00  0.00     0.057 C 
BRANCH   7   8
ATOM      8  C2' N4B d   1       0.037  -0.865  -2.456  0.00  0.00     0.009 C 
BRANCH   8   9
ATOM      9  C3' N4B d   1       1.050  -1.522  -3.378  0.00  0.00     0.004 C 
ATOM     10  C4' N4B d   1       2.154  -0.591  -3.785  0.00  0.00     0.003 C 
ENDBRANCH   8   9
ENDBRANCH   7   8
ENDBRANCH   1   7
TORSDOF 3
ENDMDL
