MODEL 1
REMARK minimizedAffinity -2.71899581
REMARK minimizedRMSD -1
REMARK  3 active torsions:
REMARK  status: ('A' for Active; 'I' for Inactive)
REMARK    1  A    between atoms: C3'_2  and  C2'_3 
REMARK    2  A    between atoms: C2'_3  and  C1'_4 
REMARK    3  A    between atoms: C1'_4  and  C1_5 
ROOT
ATOM      1  C1  N4B d   1       4.103  -5.221   4.689  0.00  0.00    -0.075 A 
ATOM      2  C2  N4B d   1       2.864  -5.229   5.367  0.00  0.00     0.002 A 
ATOM      3  C3  N4B d   1       1.724  -5.620   4.708  0.00  0.00     0.002 A 
ATOM      4  C4  N4B d   1       1.795  -5.986   3.372  0.00  0.00    -0.004 A 
ATOM      5  C5  N4B d   1       3.000  -6.000   2.732  0.00  0.00     0.002 A 
ATOM      6  C6  N4B d   1       4.155  -5.614   3.383  0.00  0.00     0.002 A 
ENDROOT
BRANCH   1   7
ATOM      7  C1' N4B d   1       5.362  -4.720   5.343  0.00  0.00     0.057 C 
BRANCH   7   8
ATOM      8  C2' N4B d   1       5.587  -3.264   4.946  0.00  0.00     0.009 C 
BRANCH   8   9
ATOM      9  C3' N4B d   1       4.879  -2.913   3.649  0.00  0.00     0.004 C 
ATOM     10  C4' N4B d   1       4.884  -1.440   3.366  0.00  0.00     0.003 C 
ENDBRANCH   8   9
ENDBRANCH   7   8
ENDBRANCH   1   7
TORSDOF 3
ENDMDL
