MODEL 1
REMARK minimizedAffinity -4.66796637
REMARK minimizedRMSD -1
REMARK  3 active torsions:
REMARK  status: ('A' for Active; 'I' for Inactive)
REMARK    1  A    between atoms: C3'_2  and  C2'_3 
REMARK    2  A    between atoms: C2'_3  and  C1'_4 
REMARK    3  A    between atoms: C1'_4  and  C1_5 
ROOT
ATOM      1  C1  N4B d   1      -0.423   0.259   0.062  0.00  0.00    -0.075 A 
ATOM      2  C2  N4B d   1       0.739  -0.136   0.760  0.00  0.00     0.002 A 
ATOM      3  C3  N4B d   1       0.706  -0.275   2.126  0.00  0.00     0.002 A 
ATOM      4  C4  N4B d   1      -0.468  -0.006   2.814  0.00  0.00    -0.004 A 
ATOM      5  C5  N4B d   1      -1.593   0.351   2.130  0.00  0.00     0.002 A 
ATOM      6  C6  N4B d   1      -1.575   0.490   0.757  0.00  0.00     0.002 A 
ENDROOT
BRANCH   1   7
ATOM      7  C1' N4B d   1      -0.413   0.507  -1.421  0.00  0.00     0.057 C 
BRANCH   7   8
ATOM      8  C2' N4B d   1       0.640  -0.387  -2.071  0.00  0.00     0.009 C 
BRANCH   8   9
ATOM      9  C3' N4B d   1       0.081  -1.154  -3.256  0.00  0.00     0.004 C 
ATOM     10  C4' N4B d   1       1.121  -1.460  -4.293  0.00  0.00     0.003 C 
ENDBRANCH   8   9
ENDBRANCH   7   8
ENDBRANCH   1   7
TORSDOF 3
ENDMDL
