MODEL 1
REMARK minimizedAffinity -3.29699707
REMARK minimizedRMSD -1
REMARK  3 active torsions:
REMARK  status: ('A' for Active; 'I' for Inactive)
REMARK    1  A    between atoms: C3'_2  and  C2'_3 
REMARK    2  A    between atoms: C2'_3  and  C1'_4 
REMARK    3  A    between atoms: C1'_4  and  C1_5 
ROOT
ATOM      1  C1  N4B d   1       0.201  -0.045  -0.420  0.00  0.00    -0.075 A 
ATOM      2  C2  N4B d   1       1.326  -0.522   0.289  0.00  0.00     0.002 A 
ATOM      3  C3  N4B d   1       1.444  -0.275   1.635  0.00  0.00     0.002 A 
ATOM      4  C4  N4B d   1       0.465   0.460   2.286  0.00  0.00    -0.004 A 
ATOM      5  C5  N4B d   1      -0.630   0.895   1.599  0.00  0.00     0.002 A 
ATOM      6  C6  N4B d   1      -0.765   0.651   0.248  0.00  0.00     0.002 A 
ENDROOT
BRANCH   1   7
ATOM      7  C1' N4B d   1       0.070  -0.216  -1.909  0.00  0.00     0.057 C 
BRANCH   7   8
ATOM      8  C2' N4B d   1       1.450  -0.103  -2.550  0.00  0.00     0.009 C 
BRANCH   8   9
ATOM      9  C3' N4B d   1       1.773  -1.307  -3.418  0.00  0.00     0.004 C 
ATOM     10  C4' N4B d   1       0.562  -2.132  -3.741  0.00  0.00     0.003 C 
ENDBRANCH   8   9
ENDBRANCH   7   8
ENDBRANCH   1   7
TORSDOF 3
ENDMDL
