MODEL 1
REMARK minimizedAffinity -5.62770748
REMARK minimizedRMSD -1
REMARK  3 active torsions:
REMARK  status: ('A' for Active; 'I' for Inactive)
REMARK    1  A    between atoms: C3'_2  and  C2'_3 
REMARK    2  A    between atoms: C2'_3  and  C1'_4 
REMARK    3  A    between atoms: C1'_4  and  C1_5 
ROOT
ATOM      1  C1  N4B d   1       0.160  -0.290   0.363  0.00  0.00    -0.075 A 
ATOM      2  C2  N4B d   1      -1.239  -0.119   0.452  0.00  0.00     0.002 A 
ATOM      3  C3  N4B d   1      -1.821   0.153   1.666  0.00  0.00     0.002 A 
ATOM      4  C4  N4B d   1      -1.031   0.240   2.802  0.00  0.00    -0.004 A 
ATOM      5  C5  N4B d   1       0.323   0.098   2.703  0.00  0.00     0.002 A 
ATOM      6  C6  N4B d   1       0.922  -0.172   1.489  0.00  0.00     0.002 A 
ENDROOT
BRANCH   1   7
ATOM      7  C1' N4B d   1       0.832  -0.674  -0.927  0.00  0.00     0.057 C 
BRANCH   7   8
ATOM      8  C2' N4B d   1       0.108  -0.000  -2.089  0.00  0.00     0.009 C 
BRANCH   8   9
ATOM      9  C3' N4B d   1       0.268  -0.777  -3.385  0.00  0.00     0.004 C 
ATOM     10  C4' N4B d   1       1.471  -1.672  -3.381  0.00  0.00     0.003 C 
ENDBRANCH   8   9
ENDBRANCH   7   8
ENDBRANCH   1   7
TORSDOF 3
ENDMDL
