MODEL 1
REMARK minimizedAffinity 12.034524
REMARK minimizedRMSD -1
REMARK  1 active torsions:
REMARK  status: ('A' for Active; 'I' for Inactive)
REMARK    1  A    between atoms: C1_2  and  C2_3 
ROOT
ATOM      1  C2  UNL d   1       1.596  -1.857   2.849  0.00  0.00    -0.073 A 
ATOM      2  C3  UNL d   1       2.748  -1.881   2.055  0.00  0.00    -0.002 A 
ATOM      3  C4  UNL d   1       2.895  -0.984   0.997  0.00  0.00     0.004 A 
ATOM      4  C5  UNL d   1       1.895  -0.049   0.726  0.00  0.00    -0.004 A 
ATOM      5  C6  UNL d   1       0.741  -0.001   1.515  0.00  0.00    -0.075 A 
ATOM      6  C7  UNL d   1      -0.344   0.996   1.235  0.00  0.00     0.076 C 
ATOM      7  C8  UNL d   1       0.601  -0.908   2.574  0.00  0.00     0.001 A 
ENDROOT
BRANCH   1   8
ATOM      8  C1  UNL d   1       1.437  -2.821   3.996  0.00  0.00     0.053 C 
ATOM      9  C   UNL d   1       1.145  -2.104   5.305  0.00  0.00     0.018 C 
ENDBRANCH   1   8
TORSDOF 1
ENDMDL
