MODEL 1
REMARK minimizedAffinity 7.55762815
REMARK minimizedRMSD -1
REMARK  1 active torsions:
REMARK  status: ('A' for Active; 'I' for Inactive)
REMARK    1  A    between atoms: C1_2  and  C2_3 
ROOT
ATOM      1  C2  UNL d   1      -4.126  -1.275  -3.186  0.00  0.00    -0.073 A 
ATOM      2  C3  UNL d   1      -5.062  -1.492  -2.169  0.00  0.00    -0.002 A 
ATOM      3  C4  UNL d   1      -5.411  -0.458  -1.299  0.00  0.00     0.004 A 
ATOM      4  C5  UNL d   1      -4.834   0.804  -1.442  0.00  0.00    -0.004 A 
ATOM      5  C6  UNL d   1      -3.906   1.044  -2.460  0.00  0.00    -0.075 A 
ATOM      6  C7  UNL d   1      -3.275   2.395  -2.625  0.00  0.00     0.076 C 
ATOM      7  C8  UNL d   1      -3.558  -0.000  -3.327  0.00  0.00     0.001 A 
ENDROOT
BRANCH   1   8
ATOM      8  C1  UNL d   1      -3.750  -2.386  -4.132  0.00  0.00     0.053 C 
ATOM      9  C   UNL d   1      -4.967  -2.988  -4.816  0.00  0.00     0.018 C 
ENDBRANCH   1   8
TORSDOF 1
ENDMDL
