MODEL 1
REMARK minimizedAffinity 14.1585617
REMARK minimizedRMSD -1
REMARK  1 active torsions:
REMARK  status: ('A' for Active; 'I' for Inactive)
REMARK    1  A    between atoms: C1_2  and  C2_3 
ROOT
ATOM      1  C2  UNL d   1       0.664  -2.255   4.066  0.00  0.00    -0.073 A 
ATOM      2  C3  UNL d   1       0.843  -3.158   3.012  0.00  0.00    -0.002 A 
ATOM      3  C4  UNL d   1       1.284  -2.709   1.766  0.00  0.00     0.004 A 
ATOM      4  C5  UNL d   1       1.556  -1.356   1.563  0.00  0.00    -0.004 A 
ATOM      5  C6  UNL d   1       1.394  -0.440   2.607  0.00  0.00    -0.075 A 
ATOM      6  C7  UNL d   1       1.681   1.019   2.405  0.00  0.00     0.076 C 
ATOM      7  C8  UNL d   1       0.949  -0.898   3.855  0.00  0.00     0.001 A 
ENDROOT
BRANCH   1   8
ATOM      8  C1  UNL d   1       0.195  -2.735   5.414  0.00  0.00     0.053 C 
ATOM      9  C   UNL d   1       0.084  -4.251   5.472  0.00  0.00     0.018 C 
ENDBRANCH   1   8
TORSDOF 1
ENDMDL
