MODEL 1
REMARK minimizedAffinity -2.03872395
REMARK minimizedRMSD -1
REMARK  1 active torsions:
REMARK  status: ('A' for Active; 'I' for Inactive)
REMARK    1  A    between atoms: C1_2  and  C2_3 
ROOT
ATOM      1  C2  UNL d   1       3.935   2.328  -5.111  0.00  0.00    -0.073 A 
ATOM      2  C3  UNL d   1       4.878   1.795  -5.998  0.00  0.00    -0.002 A 
ATOM      3  C4  UNL d   1       5.236   0.449  -5.920  0.00  0.00     0.004 A 
ATOM      4  C5  UNL d   1       4.651  -0.379  -4.962  0.00  0.00    -0.004 A 
ATOM      5  C6  UNL d   1       3.698   0.132  -4.075  0.00  0.00    -0.075 A 
ATOM      6  C7  UNL d   1       3.062  -0.745  -3.037  0.00  0.00     0.076 C 
ATOM      7  C8  UNL d   1       3.346   1.486  -4.157  0.00  0.00     0.001 A 
ENDROOT
BRANCH   1   8
ATOM      8  C1  UNL d   1       3.540   3.780  -5.195  0.00  0.00     0.053 C 
ATOM      9  C   UNL d   1       4.564   4.606  -5.957  0.00  0.00     0.018 C 
ENDBRANCH   1   8
TORSDOF 1
ENDMDL
