MODEL 1
REMARK minimizedAffinity 12.4121437
REMARK minimizedRMSD -1
REMARK  1 active torsions:
REMARK  status: ('A' for Active; 'I' for Inactive)
REMARK    1  A    between atoms: C1_2  and  C2_3 
ROOT
ATOM      1  C2  UNL d   1       1.349   0.430   1.565  0.00  0.00    -0.073 A 
ATOM      2  C3  UNL d   1       2.064  -0.109   0.489  0.00  0.00    -0.002 A 
ATOM      3  C4  UNL d   1       2.386  -1.466   0.466  0.00  0.00     0.004 A 
ATOM      4  C5  UNL d   1       1.991  -2.299   1.513  0.00  0.00    -0.004 A 
ATOM      5  C6  UNL d   1       1.266  -1.781   2.591  0.00  0.00    -0.075 A 
ATOM      6  C7  UNL d   1       0.835  -2.663   3.727  0.00  0.00     0.076 C 
ATOM      7  C8  UNL d   1       0.949  -0.417   2.608  0.00  0.00     0.001 A 
ENDROOT
BRANCH   1   8
ATOM      8  C1  UNL d   1       0.994   1.894   1.591  0.00  0.00     0.053 C 
ATOM      9  C   UNL d   1      -0.385   2.157   1.006  0.00  0.00     0.018 C 
ENDBRANCH   1   8
TORSDOF 1
ENDMDL
