MODEL 1
REMARK minimizedAffinity -5.24684048
REMARK minimizedRMSD -1
REMARK  1 active torsions:
REMARK  status: ('A' for Active; 'I' for Inactive)
REMARK    1  A    between atoms: N_2  and  C1_3 
ROOT
ATOM      1  C1  UNL d   1       0.260  -0.102   0.298  0.00  0.00     0.143 A 
ATOM      2  C2  UNL d   1      -0.688  -0.535   1.232  0.00  0.00    -0.057 A 
ATOM      3  C3  UNL d   1      -0.956  -1.897   1.417  0.00  0.00     0.033 A 
ATOM      4  C4  UNL d   1      -0.299  -2.852   0.649  0.00  0.00    -0.042 A 
ATOM      5  C5  UNL d   1       0.630  -2.444  -0.303  0.00  0.00     0.033 A 
ATOM      6  C6  UNL d   1       0.897  -1.083  -0.478  0.00  0.00    -0.057 A 
ENDROOT
BRANCH   1   7
ATOM      7  N   UNL d   1       0.499   1.241  -0.002  0.00  0.00    -0.732 N 
ATOM      8  C   UNL d   1       1.844   1.774   0.027  0.00  0.00     0.284 C 
ATOM      9  H3  UNL d   1      -0.062   1.570  -0.784  0.00  0.00     0.395 HD
ENDBRANCH   1   7
TORSDOF 1
ENDMDL
