MODEL 1
REMARK minimizedAffinity -4.22562504
REMARK minimizedRMSD -1
REMARK  1 active torsions:
REMARK  status: ('A' for Active; 'I' for Inactive)
REMARK    1  A    between atoms: N_2  and  C1_3 
ROOT
ATOM      1  C1  UNL d   1      -0.202  -0.089  -0.150  0.00  0.00     0.143 A 
ATOM      2  C2  UNL d   1       0.823  -1.017  -0.365  0.00  0.00    -0.057 A 
ATOM      3  C3  UNL d   1       0.743  -2.319   0.143  0.00  0.00     0.033 A 
ATOM      4  C4  UNL d   1      -0.356  -2.709   0.902  0.00  0.00    -0.042 A 
ATOM      5  C5  UNL d   1      -1.375  -1.797   1.150  0.00  0.00     0.033 A 
ATOM      6  C6  UNL d   1      -1.291  -0.499   0.635  0.00  0.00    -0.057 A 
ENDROOT
BRANCH   1   7
ATOM      7  N   UNL d   1      -0.135   1.249  -0.544  0.00  0.00    -0.732 N 
ATOM      8  C   UNL d   1       0.696   2.190   0.176  0.00  0.00     0.284 C 
ATOM      9  H3  UNL d   1      -0.102   1.355  -1.555  0.00  0.00     0.395 HD
ENDBRANCH   1   7
TORSDOF 1
ENDMDL
