MODEL 1
REMARK minimizedAffinity -3.40564156
REMARK minimizedRMSD -1
REMARK  1 active torsions:
REMARK  status: ('A' for Active; 'I' for Inactive)
REMARK    1  A    between atoms: N_2  and  C1_3 
ROOT
ATOM      1  C1  UNL d   1       0.120   0.036  -0.111  0.00  0.00     0.143 A 
ATOM      2  C2  UNL d   1      -0.824  -0.122   0.909  0.00  0.00    -0.057 A 
ATOM      3  C3  UNL d   1      -1.129  -1.387   1.427  0.00  0.00     0.033 A 
ATOM      4  C4  UNL d   1      -0.513  -2.523   0.912  0.00  0.00    -0.042 A 
ATOM      5  C5  UNL d   1       0.410  -2.392  -0.119  0.00  0.00     0.033 A 
ATOM      6  C6  UNL d   1       0.715  -1.126  -0.628  0.00  0.00    -0.057 A 
ENDROOT
BRANCH   1   7
ATOM      7  N   UNL d   1       0.394   1.255  -0.735  0.00  0.00    -0.732 N 
ATOM      8  C   UNL d   1       0.838   2.395   0.037  0.00  0.00     0.284 C 
ATOM      9  H3  UNL d   1       0.882   1.137  -1.621  0.00  0.00     0.395 HD
ENDBRANCH   1   7
TORSDOF 1
ENDMDL
