MODEL 1
REMARK minimizedAffinity -4.6521492
REMARK minimizedRMSD -1
REMARK  1 active torsions:
REMARK  status: ('A' for Active; 'I' for Inactive)
REMARK    1  A    between atoms: N_2  and  C1_3 
ROOT
ATOM      1  C1  UNL d   1       0.354  -0.949  -0.965  0.00  0.00     0.143 A 
ATOM      2  C2  UNL d   1      -0.007  -1.507   0.266  0.00  0.00    -0.057 A 
ATOM      3  C3  UNL d   1      -0.221  -2.884   0.404  0.00  0.00     0.033 A 
ATOM      4  C4  UNL d   1      -0.107  -3.726  -0.698  0.00  0.00    -0.042 A 
ATOM      5  C5  UNL d   1       0.225  -3.190  -1.937  0.00  0.00     0.033 A 
ATOM      6  C6  UNL d   1       0.445  -1.815  -2.067  0.00  0.00    -0.057 A 
ENDROOT
BRANCH   1   7
ATOM      7  N   UNL d   1       0.485   0.423  -1.189  0.00  0.00    -0.732 N 
ATOM      8  C   UNL d   1      -0.088   1.378  -0.264  0.00  0.00     0.284 C 
ATOM      9  H3  UNL d   1       1.411   0.676  -1.526  0.00  0.00     0.395 HD
ENDBRANCH   1   7
TORSDOF 1
ENDMDL
