MODEL 1
REMARK minimizedAffinity -5.58341265
REMARK minimizedRMSD -1
REMARK  1 active torsions:
REMARK  status: ('A' for Active; 'I' for Inactive)
REMARK    1  A    between atoms: N_2  and  C1_3 
ROOT
ATOM      1  C1  UNL d   1      -0.028  -0.182   0.126  0.00  0.00     0.143 A 
ATOM      2  C2  UNL d   1      -0.903  -0.416   1.192  0.00  0.00    -0.057 A 
ATOM      3  C3  UNL d   1      -1.085  -1.703   1.714  0.00  0.00     0.033 A 
ATOM      4  C4  UNL d   1      -0.414  -2.787   1.157  0.00  0.00    -0.042 A 
ATOM      5  C5  UNL d   1       0.442  -2.582   0.081  0.00  0.00     0.033 A 
ATOM      6  C6  UNL d   1       0.625  -1.293  -0.431  0.00  0.00    -0.057 A 
ENDROOT
BRANCH   1   7
ATOM      7  N   UNL d   1       0.121   1.057  -0.500  0.00  0.00    -0.732 N 
ATOM      8  C   UNL d   1       0.719   2.172   0.204  0.00  0.00     0.284 C 
ATOM      9  H3  UNL d   1       0.419   0.970  -1.469  0.00  0.00     0.395 HD
ENDBRANCH   1   7
TORSDOF 1
ENDMDL
