MODEL 1
REMARK minimizedAffinity -4.56541109
REMARK minimizedRMSD -1
REMARK  1 active torsions:
REMARK  status: ('A' for Active; 'I' for Inactive)
REMARK    1  A    between atoms: N_2  and  C1_3 
ROOT
ATOM      1  C1  UNL d   1      -0.123   0.104  -0.032  0.00  0.00     0.143 A 
ATOM      2  C2  UNL d   1      -1.064  -0.135   0.975  0.00  0.00    -0.057 A 
ATOM      3  C3  UNL d   1      -1.210  -1.405   1.546  0.00  0.00     0.033 A 
ATOM      4  C4  UNL d   1      -0.436  -2.470   1.097  0.00  0.00    -0.042 A 
ATOM      5  C5  UNL d   1       0.488  -2.261   0.079  0.00  0.00     0.033 A 
ATOM      6  C6  UNL d   1       0.635  -0.989  -0.482  0.00  0.00    -0.057 A 
ENDROOT
BRANCH   1   7
ATOM      7  N   UNL d   1       0.002   1.320  -0.707  0.00  0.00    -0.732 N 
ATOM      8  C   UNL d   1       0.908   2.341  -0.226  0.00  0.00     0.284 C 
ATOM      9  H3  UNL d   1       0.005   1.205  -1.718  0.00  0.00     0.395 HD
ENDBRANCH   1   7
TORSDOF 1
ENDMDL
