MODEL 1
REMARK minimizedAffinity -1.26243639
REMARK minimizedRMSD -1
REMARK  1 active torsions:
REMARK  status: ('A' for Active; 'I' for Inactive)
REMARK    1  A    between atoms: N_2  and  C1_3 
ROOT
ATOM      1  C1  UNL d   1       0.820   1.571  -0.523  0.00  0.00     0.143 A 
ATOM      2  C2  UNL d   1       0.930   1.376  -1.904  0.00  0.00    -0.057 A 
ATOM      3  C3  UNL d   1       0.939   0.089  -2.457  0.00  0.00     0.033 A 
ATOM      4  C4  UNL d   1       0.868  -1.029  -1.633  0.00  0.00    -0.042 A 
ATOM      5  C5  UNL d   1       0.784  -0.859  -0.255  0.00  0.00     0.033 A 
ATOM      6  C6  UNL d   1       0.768   0.428   0.290  0.00  0.00    -0.057 A 
ENDROOT
BRANCH   1   7
ATOM      7  N   UNL d   1       0.904   2.821   0.095  0.00  0.00    -0.732 N 
ATOM      8  C   UNL d   1       2.044   3.161   0.918  0.00  0.00     0.284 C 
ATOM      9  H3  UNL d   1       0.588   3.576  -0.510  0.00  0.00     0.395 HD
ENDBRANCH   1   7
TORSDOF 1
ENDMDL
