MODEL 1
REMARK minimizedAffinity -2.23181129
REMARK minimizedRMSD -1
REMARK  1 active torsions:
REMARK  status: ('A' for Active; 'I' for Inactive)
REMARK    1  A    between atoms: N_2  and  C1_3 
ROOT
ATOM      1  C1  UNL d   1       0.379   0.764  -0.332  0.00  0.00     0.143 A 
ATOM      2  C2  UNL d   1       0.592   0.529  -1.695  0.00  0.00    -0.057 A 
ATOM      3  C3  UNL d   1       0.834  -0.762  -2.180  0.00  0.00     0.033 A 
ATOM      4  C4  UNL d   1       0.895  -1.840  -1.303  0.00  0.00    -0.042 A 
ATOM      5  C5  UNL d   1       0.711  -1.627   0.058  0.00  0.00     0.033 A 
ATOM      6  C6  UNL d   1       0.464  -0.336   0.535  0.00  0.00    -0.057 A 
ENDROOT
BRANCH   1   7
ATOM      7  N   UNL d   1       0.232   2.038   0.224  0.00  0.00    -0.732 N 
ATOM      8  C   UNL d   1       1.385   2.885   0.442  0.00  0.00     0.284 C 
ATOM      9  H3  UNL d   1      -0.582   2.528  -0.139  0.00  0.00     0.395 HD
ENDBRANCH   1   7
TORSDOF 1
ENDMDL
