MODEL 1
REMARK minimizedAffinity -4.28064728
REMARK minimizedRMSD -1
REMARK  1 active torsions:
REMARK  status: ('A' for Active; 'I' for Inactive)
REMARK    1  A    between atoms: N_2  and  C1_3 
ROOT
ATOM      1  C1  UNL d   1       0.987   1.901   0.373  0.00  0.00     0.143 A 
ATOM      2  C2  UNL d   1       1.743   2.779  -0.411  0.00  0.00    -0.057 A 
ATOM      3  C3  UNL d   1       2.433   3.854   0.163  0.00  0.00     0.033 A 
ATOM      4  C4  UNL d   1       2.355   4.086   1.532  0.00  0.00    -0.042 A 
ATOM      5  C5  UNL d   1       1.590   3.240   2.327  0.00  0.00     0.033 A 
ATOM      6  C6  UNL d   1       0.908   2.165   1.749  0.00  0.00    -0.057 A 
ENDROOT
BRANCH   1   7
ATOM      7  N   UNL d   1       0.199   0.873  -0.151  0.00  0.00    -0.732 N 
ATOM      8  C   UNL d   1       0.128  -0.412   0.510  0.00  0.00     0.284 C 
ATOM      9  H3  UNL d   1      -0.695   1.209  -0.502  0.00  0.00     0.395 HD
ENDBRANCH   1   7
TORSDOF 1
ENDMDL
