MODEL 1
REMARK minimizedAffinity -5.69293737
REMARK minimizedRMSD -1
REMARK  1 active torsions:
REMARK  status: ('A' for Active; 'I' for Inactive)
REMARK    1  A    between atoms: N_2  and  C1_3 
ROOT
ATOM      1  C1  UNL d   1       0.399  -0.824  -0.557  0.00  0.00     0.143 A 
ATOM      2  C2  UNL d   1       0.048  -1.531   0.598  0.00  0.00    -0.057 A 
ATOM      3  C3  UNL d   1      -0.147  -2.917   0.570  0.00  0.00     0.033 A 
ATOM      4  C4  UNL d   1      -0.023  -3.619  -0.625  0.00  0.00    -0.042 A 
ATOM      5  C5  UNL d   1       0.300  -2.933  -1.790  0.00  0.00     0.033 A 
ATOM      6  C6  UNL d   1       0.501  -1.550  -1.754  0.00  0.00    -0.057 A 
ENDROOT
BRANCH   1   7
ATOM      7  N   UNL d   1       0.510   0.567  -0.613  0.00  0.00    -0.732 N 
ATOM      8  C   UNL d   1       0.298   1.372   0.570  0.00  0.00     0.284 C 
ATOM      9  H3  UNL d   1       1.293   0.871  -1.188  0.00  0.00     0.395 HD
ENDBRANCH   1   7
TORSDOF 1
ENDMDL
