MODEL 1
REMARK minimizedAffinity -2.95986271
REMARK minimizedRMSD -1
REMARK  1 active torsions:
REMARK  status: ('A' for Active; 'I' for Inactive)
REMARK    1  A    between atoms: N_2  and  C1_3 
ROOT
ATOM      1  C1  UNL d   1      -0.311   0.077   0.337  0.00  0.00     0.143 A 
ATOM      2  C2  UNL d   1      -0.903  -0.007   1.601  0.00  0.00    -0.057 A 
ATOM      3  C3  UNL d   1      -1.304  -1.238   2.135  0.00  0.00     0.033 A 
ATOM      4  C4  UNL d   1      -1.146  -2.407   1.399  0.00  0.00    -0.042 A 
ATOM      5  C5  UNL d   1      -0.583  -2.345   0.129  0.00  0.00     0.033 A 
ATOM      6  C6  UNL d   1      -0.178  -1.114  -0.396  0.00  0.00    -0.057 A 
ENDROOT
BRANCH   1   7
ATOM      7  N   UNL d   1       0.019   1.281  -0.290  0.00  0.00    -0.732 N 
ATOM      8  C   UNL d   1       0.690   2.333   0.443  0.00  0.00     0.284 C 
ATOM      9  H3  UNL d   1       0.369   1.144  -1.235  0.00  0.00     0.395 HD
ENDBRANCH   1   7
TORSDOF 1
ENDMDL
