MODEL 1
REMARK minimizedAffinity -4.4398737
REMARK minimizedRMSD -1
REMARK  1 active torsions:
REMARK  status: ('A' for Active; 'I' for Inactive)
REMARK    1  A    between atoms: N_2  and  C1_3 
ROOT
ATOM      1  C1  UNL d   1      -0.230  -1.105   0.061  0.00  0.00     0.143 A 
ATOM      2  C2  UNL d   1      -0.097  -2.141   0.992  0.00  0.00    -0.057 A 
ATOM      3  C3  UNL d   1       0.278  -3.430   0.595  0.00  0.00     0.033 A 
ATOM      4  C4  UNL d   1       0.500  -3.713  -0.749  0.00  0.00    -0.042 A 
ATOM      5  C5  UNL d   1       0.350  -2.705  -1.694  0.00  0.00     0.033 A 
ATOM      6  C6  UNL d   1      -0.019  -1.418  -1.291  0.00  0.00    -0.057 A 
ENDROOT
BRANCH   1   7
ATOM      7  N   UNL d   1      -0.696   0.173   0.381  0.00  0.00    -0.732 N 
ATOM      8  C   UNL d   1      -0.127   1.344  -0.250  0.00  0.00     0.284 C 
ATOM      9  H3  UNL d   1      -1.708   0.204   0.479  0.00  0.00     0.395 HD
ENDBRANCH   1   7
TORSDOF 1
ENDMDL
