MODEL 1
REMARK minimizedAffinity -5.31920099
REMARK minimizedRMSD -1
REMARK  1 active torsions:
REMARK  status: ('A' for Active; 'I' for Inactive)
REMARK    1  A    between atoms: N_2  and  C1_3 
ROOT
ATOM      1  C1  UNL d   1      -0.022   0.018   0.354  0.00  0.00     0.143 A 
ATOM      2  C2  UNL d   1      -1.166  -0.374   1.058  0.00  0.00    -0.057 A 
ATOM      3  C3  UNL d   1      -1.475  -1.727   1.245  0.00  0.00     0.033 A 
ATOM      4  C4  UNL d   1      -0.658  -2.715   0.706  0.00  0.00    -0.042 A 
ATOM      5  C5  UNL d   1       0.471  -2.348  -0.018  0.00  0.00     0.033 A 
ATOM      6  C6  UNL d   1       0.778  -0.996  -0.196  0.00  0.00    -0.057 A 
ENDROOT
BRANCH   1   7
ATOM      7  N   UNL d   1       0.287   1.346   0.049  0.00  0.00    -0.732 N 
ATOM      8  C   UNL d   1       1.549   1.922   0.462  0.00  0.00     0.284 C 
ATOM      9  H3  UNL d   1      -0.001   1.605  -0.891  0.00  0.00     0.395 HD
ENDBRANCH   1   7
TORSDOF 1
ENDMDL
