MODEL 1
REMARK minimizedAffinity -3.04646111
REMARK minimizedRMSD -1
REMARK  1 active torsions:
REMARK  status: ('A' for Active; 'I' for Inactive)
REMARK    1  A    between atoms: N_2  and  C1_3 
ROOT
ATOM      1  C1  UNL d   1       0.151   1.603  -0.444  0.00  0.00     0.143 A 
ATOM      2  C2  UNL d   1       0.028   2.723   0.385  0.00  0.00    -0.057 A 
ATOM      3  C3  UNL d   1       1.023   3.707   0.430  0.00  0.00     0.033 A 
ATOM      4  C4  UNL d   1       2.177   3.572  -0.336  0.00  0.00    -0.042 A 
ATOM      5  C5  UNL d   1       2.332   2.455  -1.149  0.00  0.00     0.033 A 
ATOM      6  C6  UNL d   1       1.331   1.479  -1.194  0.00  0.00    -0.057 A 
ENDROOT
BRANCH   1   7
ATOM      7  N   UNL d   1      -0.758   0.542  -0.458  0.00  0.00    -0.732 N 
ATOM      8  C   UNL d   1      -1.135  -0.122   0.771  0.00  0.00     0.284 C 
ATOM      9  H3  UNL d   1      -1.532   0.703  -1.099  0.00  0.00     0.395 HD
ENDBRANCH   1   7
TORSDOF 1
ENDMDL
