MODEL 1
REMARK minimizedAffinity -2.86857033
REMARK minimizedRMSD -1
REMARK  1 active torsions:
REMARK  status: ('A' for Active; 'I' for Inactive)
REMARK    1  A    between atoms: N_2  and  C1_3 
ROOT
ATOM      1  C1  UNL d   1      -0.609  -0.021   0.655  0.00  0.00     0.143 A 
ATOM      2  C2  UNL d   1      -1.006   0.379   1.936  0.00  0.00    -0.057 A 
ATOM      3  C3  UNL d   1      -1.730  -0.479   2.773  0.00  0.00     0.033 A 
ATOM      4  C4  UNL d   1      -2.096  -1.746   2.331  0.00  0.00    -0.042 A 
ATOM      5  C5  UNL d   1      -1.734  -2.156   1.053  0.00  0.00     0.033 A 
ATOM      6  C6  UNL d   1      -1.005  -1.297   0.224  0.00  0.00    -0.057 A 
ENDROOT
BRANCH   1   7
ATOM      7  N   UNL d   1       0.026   0.821  -0.260  0.00  0.00    -0.732 N 
ATOM      8  C   UNL d   1       0.342   2.188   0.092  0.00  0.00     0.284 C 
ATOM      9  H3  UNL d   1       0.760   0.345  -0.781  0.00  0.00     0.395 HD
ENDBRANCH   1   7
TORSDOF 1
ENDMDL
