MODEL 1
REMARK minimizedAffinity 8.31768608
REMARK minimizedRMSD -1
REMARK  0 active torsions:
REMARK  status: ('A' for Active; 'I' for Inactive)
ROOT
ATOM      1  C1  BNZ d   1      -4.393   3.488  -1.388  0.00  0.00     0.000 A 
ATOM      2  C2  BNZ d   1      -3.823   2.555  -2.213  0.00  0.00     0.000 A 
ATOM      3  C3  BNZ d   1      -2.802   2.895  -3.055  0.00  0.00     0.000 A 
ATOM      4  C4  BNZ d   1      -2.380   4.175  -3.102  0.00  0.00     0.000 A 
ATOM      5  C5  BNZ d   1      -2.951   5.130  -2.284  0.00  0.00     0.000 A 
ATOM      6  C6  BNZ d   1      -3.952   4.775  -1.409  0.00  0.00     0.000 A 
ENDROOT
TORSDOF 0
ENDMDL
