MODEL 1
REMARK minimizedAffinity 4.72677612
REMARK minimizedRMSD -1
REMARK  0 active torsions:
REMARK  status: ('A' for Active; 'I' for Inactive)
ROOT
ATOM      1  C1  BNZ d   1      -4.184   4.230  -1.443  0.00  0.00     0.000 A 
ATOM      2  C2  BNZ d   1      -3.822   3.019  -1.970  0.00  0.00     0.000 A 
ATOM      3  C3  BNZ d   1      -2.836   2.933  -2.913  0.00  0.00     0.000 A 
ATOM      4  C4  BNZ d   1      -2.244   4.060  -3.358  0.00  0.00     0.000 A 
ATOM      5  C5  BNZ d   1      -2.605   5.289  -2.844  0.00  0.00     0.000 A 
ATOM      6  C6  BNZ d   1      -3.570   5.368  -1.866  0.00  0.00     0.000 A 
ENDROOT
TORSDOF 0
ENDMDL
