MODEL 1
REMARK minimizedAffinity 9.15281391
REMARK minimizedRMSD -1
REMARK  0 active torsions:
REMARK  status: ('A' for Active; 'I' for Inactive)
ROOT
ATOM      1  C1  BNZ d   1      -3.072   5.112  -2.124  0.00  0.00     0.000 A 
ATOM      2  C2  BNZ d   1      -2.087   4.509  -2.860  0.00  0.00     0.000 A 
ATOM      3  C3  BNZ d   1      -2.077   3.154  -3.040  0.00  0.00     0.000 A 
ATOM      4  C4  BNZ d   1      -3.027   2.400  -2.451  0.00  0.00     0.000 A 
ATOM      5  C5  BNZ d   1      -4.022   2.992  -1.698  0.00  0.00     0.000 A 
ATOM      6  C6  BNZ d   1      -4.051   4.360  -1.552  0.00  0.00     0.000 A 
ENDROOT
TORSDOF 0
ENDMDL
