MODEL 1
REMARK minimizedAffinity 6.68625021
REMARK minimizedRMSD -1
REMARK  0 active torsions:
REMARK  status: ('A' for Active; 'I' for Inactive)
ROOT
ATOM      1  C1  BNZ d   1      -3.736   3.093  -1.908  0.00  0.00     0.000 A 
ATOM      2  C2  BNZ d   1      -2.804   2.412  -2.645  0.00  0.00     0.000 A 
ATOM      3  C3  BNZ d   1      -1.828   3.081  -3.330  0.00  0.00     0.000 A 
ATOM      4  C4  BNZ d   1      -1.810   4.430  -3.310  0.00  0.00     0.000 A 
ATOM      5  C5  BNZ d   1      -2.749   5.131  -2.580  0.00  0.00     0.000 A 
ATOM      6  C6  BNZ d   1      -3.706   4.453  -1.860  0.00  0.00     0.000 A 
ENDROOT
TORSDOF 0
ENDMDL
