MODEL 1
REMARK minimizedAffinity -1.09474885
REMARK minimizedRMSD -1
REMARK  0 active torsions:
REMARK  status: ('A' for Active; 'I' for Inactive)
ROOT
ATOM      1  C1  BNZ d   1      -1.595  -2.798   2.693  0.00  0.00     0.000 A 
ATOM      2  C2  BNZ d   1      -0.349  -2.609   2.156  0.00  0.00     0.000 A 
ATOM      3  C3  BNZ d   1       0.469  -1.616   2.618  0.00  0.00     0.000 A 
ATOM      4  C4  BNZ d   1       0.026  -0.790   3.588  0.00  0.00     0.000 A 
ATOM      5  C5  BNZ d   1      -1.231  -0.961   4.133  0.00  0.00     0.000 A 
ATOM      6  C6  BNZ d   1      -2.036  -1.986   3.692  0.00  0.00     0.000 A 
ENDROOT
TORSDOF 0
ENDMDL
