MODEL 1
REMARK minimizedAffinity 6.52322149
REMARK minimizedRMSD -1
REMARK  0 active torsions:
REMARK  status: ('A' for Active; 'I' for Inactive)
ROOT
ATOM      1  C1  BNZ d   1       0.727  -1.901   2.390  0.00  0.00     0.000 A 
ATOM      2  C2  BNZ d   1      -0.079  -3.005   2.472  0.00  0.00     0.000 A 
ATOM      3  C3  BNZ d   1      -1.257  -2.962   3.165  0.00  0.00     0.000 A 
ATOM      4  C4  BNZ d   1      -1.607  -1.830   3.808  0.00  0.00     0.000 A 
ATOM      5  C5  BNZ d   1      -0.800  -0.711   3.743  0.00  0.00     0.000 A 
ATOM      6  C6  BNZ d   1       0.365  -0.746   3.012  0.00  0.00     0.000 A 
ENDROOT
TORSDOF 0
ENDMDL
