MODEL 1
REMARK minimizedAffinity 4.72162819
REMARK minimizedRMSD -1
REMARK  0 active torsions:
REMARK  status: ('A' for Active; 'I' for Inactive)
ROOT
ATOM      1  C1  BNZ d   1       2.279  -0.317   1.542  0.00  0.00     0.000 A 
ATOM      2  C2  BNZ d   1       1.253  -0.736   2.345  0.00  0.00     0.000 A 
ATOM      3  C3  BNZ d   1       0.845  -2.041   2.337  0.00  0.00     0.000 A 
ATOM      4  C4  BNZ d   1       1.437  -2.915   1.497  0.00  0.00     0.000 A 
ATOM      5  C5  BNZ d   1       2.468  -2.505   0.675  0.00  0.00     0.000 A 
ATOM      6  C6  BNZ d   1       2.901  -1.200   0.714  0.00  0.00     0.000 A 
ENDROOT
TORSDOF 0
ENDMDL
