MODEL 1
REMARK minimizedAffinity 6.69346857
REMARK minimizedRMSD -1
REMARK  0 active torsions:
REMARK  status: ('A' for Active; 'I' for Inactive)
ROOT
ATOM      1  C1  BNZ d   1       0.281  -0.378   3.305  0.00  0.00     0.000 A 
ATOM      2  C2  BNZ d   1       1.365  -0.487   2.475  0.00  0.00     0.000 A 
ATOM      3  C3  BNZ d   1       1.428  -1.476   1.533  0.00  0.00     0.000 A 
ATOM      4  C4  BNZ d   1       0.429  -2.377   1.449  0.00  0.00     0.000 A 
ATOM      5  C5  BNZ d   1      -0.666  -2.287   2.286  0.00  0.00     0.000 A 
ATOM      6  C6  BNZ d   1      -0.745  -1.267   3.206  0.00  0.00     0.000 A 
ENDROOT
TORSDOF 0
ENDMDL
