MODEL 1
REMARK minimizedAffinity 11.4152918
REMARK minimizedRMSD -1
REMARK  0 active torsions:
REMARK  status: ('A' for Active; 'I' for Inactive)
ROOT
ATOM      1  C1  BNZ d   1      -1.577   5.888  -3.576  0.00  0.00     0.000 A 
ATOM      2  C2  BNZ d   1      -1.728   4.931  -2.608  0.00  0.00     0.000 A 
ATOM      3  C3  BNZ d   1      -1.958   3.626  -2.943  0.00  0.00     0.000 A 
ATOM      4  C4  BNZ d   1      -2.076   3.286  -4.243  0.00  0.00     0.000 A 
ATOM      5  C5  BNZ d   1      -1.934   4.241  -5.231  0.00  0.00     0.000 A 
ATOM      6  C6  BNZ d   1      -1.664   5.547  -4.890  0.00  0.00     0.000 A 
ENDROOT
TORSDOF 0
ENDMDL
