MODEL 1
REMARK minimizedAffinity 4.56883049
REMARK minimizedRMSD -1
REMARK  0 active torsions:
REMARK  status: ('A' for Active; 'I' for Inactive)
ROOT
ATOM      1  C1  BNZ d   1      -3.975   4.277  -1.368  0.00  0.00     0.000 A 
ATOM      2  C2  BNZ d   1      -3.646   3.031  -1.830  0.00  0.00     0.000 A 
ATOM      3  C3  BNZ d   1      -2.644   2.866  -2.745  0.00  0.00     0.000 A 
ATOM      4  C4  BNZ d   1      -2.000   3.949  -3.226  0.00  0.00     0.000 A 
ATOM      5  C5  BNZ d   1      -2.327   5.213  -2.777  0.00  0.00     0.000 A 
ATOM      6  C6  BNZ d   1      -3.310   5.372  -1.827  0.00  0.00     0.000 A 
ENDROOT
TORSDOF 0
ENDMDL
