MODEL 1
REMARK minimizedAffinity 3.42514181
REMARK minimizedRMSD -1
REMARK  0 active torsions:
REMARK  status: ('A' for Active; 'I' for Inactive)
ROOT
ATOM      1  C1  BNZ d   1       1.695  -1.415   1.692  0.00  0.00     0.000 A 
ATOM      2  C2  BNZ d   1       1.435  -0.374   2.543  0.00  0.00     0.000 A 
ATOM      3  C3  BNZ d   1       0.413  -0.448   3.448  0.00  0.00     0.000 A 
ATOM      4  C4  BNZ d   1      -0.371  -1.545   3.474  0.00  0.00     0.000 A 
ATOM      5  C5  BNZ d   1      -0.127  -2.599   2.617  0.00  0.00     0.000 A 
ATOM      6  C6  BNZ d   1       0.926  -2.537   1.734  0.00  0.00     0.000 A 
ENDROOT
TORSDOF 0
ENDMDL
