MODEL 1
REMARK minimizedAffinity 2.51766348
REMARK minimizedRMSD -1
REMARK  0 active torsions:
REMARK  status: ('A' for Active; 'I' for Inactive)
ROOT
ATOM      1  C1  BNZ d   1       0.044  -2.732   2.860  0.00  0.00     0.000 A 
ATOM      2  C2  BNZ d   1       0.502  -1.516   3.295  0.00  0.00     0.000 A 
ATOM      3  C3  BNZ d   1      -0.185  -0.808   4.241  0.00  0.00     0.000 A 
ATOM      4  C4  BNZ d   1      -1.347  -1.295   4.721  0.00  0.00     0.000 A 
ATOM      5  C5  BNZ d   1      -1.826  -2.515   4.285  0.00  0.00     0.000 A 
ATOM      6  C6  BNZ d   1      -1.113  -3.243   3.362  0.00  0.00     0.000 A 
ENDROOT
TORSDOF 0
ENDMDL
