MODEL 1
REMARK minimizedAffinity 1.32787502
REMARK minimizedRMSD -1
REMARK  0 active torsions:
REMARK  status: ('A' for Active; 'I' for Inactive)
ROOT
ATOM      1  C1  BNZ d   1      -2.828   3.507  -3.188  0.00  0.00     0.000 A 
ATOM      2  C2  BNZ d   1      -2.872   3.006  -4.462  0.00  0.00     0.000 A 
ATOM      3  C3  BNZ d   1      -2.620   3.809  -5.539  0.00  0.00     0.000 A 
ATOM      4  C4  BNZ d   1      -2.363   5.118  -5.344  0.00  0.00     0.000 A 
ATOM      5  C5  BNZ d   1      -2.324   5.640  -4.067  0.00  0.00     0.000 A 
ATOM      6  C6  BNZ d   1      -2.540   4.821  -2.983  0.00  0.00     0.000 A 
ENDROOT
TORSDOF 0
ENDMDL
