MODEL 1
REMARK minimizedAffinity 4.6611433
REMARK minimizedRMSD -1
REMARK  0 active torsions:
REMARK  status: ('A' for Active; 'I' for Inactive)
ROOT
ATOM      1  C1  BNZ d   1      -0.378  -0.809   3.942  0.00  0.00     0.000 A 
ATOM      2  C2  BNZ d   1       0.817  -0.729   3.278  0.00  0.00     0.000 A 
ATOM      3  C3  BNZ d   1       1.114  -1.597   2.265  0.00  0.00     0.000 A 
ATOM      4  C4  BNZ d   1       0.234  -2.567   1.944  0.00  0.00     0.000 A 
ATOM      5  C5  BNZ d   1      -0.971  -2.666   2.610  0.00  0.00     0.000 A 
ATOM      6  C6  BNZ d   1      -1.283  -1.767   3.603  0.00  0.00     0.000 A 
ENDROOT
TORSDOF 0
ENDMDL
