MODEL 1
REMARK minimizedAffinity 7.9541297
REMARK minimizedRMSD -1
REMARK  0 active torsions:
REMARK  status: ('A' for Active; 'I' for Inactive)
ROOT
ATOM      1  C1  BNZ d   1      -3.319   4.969  -1.693  0.00  0.00     0.000 A 
ATOM      2  C2  BNZ d   1      -3.326   3.631  -1.986  0.00  0.00     0.000 A 
ATOM      3  C3  BNZ d   1      -2.550   3.132  -2.995  0.00  0.00     0.000 A 
ATOM      4  C4  BNZ d   1      -1.801   3.975  -3.734  0.00  0.00     0.000 A 
ATOM      5  C5  BNZ d   1      -1.791   5.328  -3.457  0.00  0.00     0.000 A 
ATOM      6  C6  BNZ d   1      -2.543   5.821  -2.416  0.00  0.00     0.000 A 
ENDROOT
TORSDOF 0
ENDMDL
