MODEL 1
REMARK minimizedAffinity 6.34781456
REMARK minimizedRMSD -1
REMARK  0 active torsions:
REMARK  status: ('A' for Active; 'I' for Inactive)
ROOT
ATOM      1  C1  BNZ d   1      -0.927  -0.484   3.898  0.00  0.00     0.000 A 
ATOM      2  C2  BNZ d   1      -2.075  -1.230   3.931  0.00  0.00     0.000 A 
ATOM      3  C3  BNZ d   1      -2.095  -2.505   3.438  0.00  0.00     0.000 A 
ATOM      4  C4  BNZ d   1      -0.980  -3.016   2.877  0.00  0.00     0.000 A 
ATOM      5  C5  BNZ d   1       0.183  -2.273   2.828  0.00  0.00     0.000 A 
ATOM      6  C6  BNZ d   1       0.209  -1.004   3.361  0.00  0.00     0.000 A 
ENDROOT
TORSDOF 0
ENDMDL
