MODEL 1
REMARK minimizedAffinity -2.24645066
REMARK minimizedRMSD -1
REMARK  0 active torsions:
REMARK  status: ('A' for Active; 'I' for Inactive)
ROOT
ATOM      1  C   UNL d   1       0.263  -2.655   1.080  0.00  0.00    -0.002 A 
ATOM      2  C1  UNL d   1       1.008  -1.777   0.306  0.00  0.00     0.010 A 
ATOM      3  C2  UNL d   1       0.587  -0.459   0.123  0.00  0.00     0.041 A 
ATOM      4  C3  UNL d   1      -0.607  -0.033   0.737  0.00  0.00    -0.075 A 
ATOM      5  S   UNL d   1      -1.317   1.536   0.653  0.00  0.00     0.015 SA
ATOM      6  C4  UNL d   1      -2.627   1.077   1.643  0.00  0.00     0.022 A 
ATOM      7  C5  UNL d   1      -2.540  -0.237   2.037  0.00  0.00     0.026 A 
ATOM      8  C6  UNL d   1      -1.375  -0.899   1.522  0.00  0.00    -0.082 A 
ATOM      9  C7  UNL d   1      -0.921  -2.229   1.688  0.00  0.00     0.045 A 
ENDROOT
TORSDOF 0
ENDMDL
