MODEL 1
REMARK minimizedAffinity -0.840509593
REMARK minimizedRMSD -1
REMARK  0 active torsions:
REMARK  status: ('A' for Active; 'I' for Inactive)
ROOT
ATOM      1  C   UNL d   1       0.390   1.416  -0.830  0.00  0.00    -0.002 A 
ATOM      2  C1  UNL d   1       0.959   0.154  -0.925  0.00  0.00     0.010 A 
ATOM      3  C2  UNL d   1       0.303  -0.962  -0.401  0.00  0.00     0.041 A 
ATOM      4  C3  UNL d   1      -0.947  -0.787   0.224  0.00  0.00    -0.075 A 
ATOM      5  S   UNL d   1      -1.933  -2.008   0.937  0.00  0.00     0.015 SA
ATOM      6  C4  UNL d   1      -3.133  -0.884   1.384  0.00  0.00     0.022 A 
ATOM      7  C5  UNL d   1      -2.806   0.397   1.007  0.00  0.00     0.026 A 
ATOM      8  C6  UNL d   1      -1.541   0.474   0.332  0.00  0.00    -0.082 A 
ATOM      9  C7  UNL d   1      -0.850   1.586  -0.209  0.00  0.00     0.045 A 
ENDROOT
TORSDOF 0
ENDMDL
