MODEL 1
REMARK minimizedAffinity -1.06575394
REMARK minimizedRMSD -1
REMARK  0 active torsions:
REMARK  status: ('A' for Active; 'I' for Inactive)
ROOT
ATOM      1  C   UNL d   1       1.304  -2.870   0.903  0.00  0.00    -0.002 A 
ATOM      2  C1  UNL d   1       1.650  -1.755   0.153  0.00  0.00     0.010 A 
ATOM      3  C2  UNL d   1       0.915  -0.572   0.260  0.00  0.00     0.041 A 
ATOM      4  C3  UNL d   1      -0.182  -0.528   1.142  0.00  0.00    -0.075 A 
ATOM      5  S   UNL d   1      -1.226   0.812   1.438  0.00  0.00     0.015 SA
ATOM      6  C4  UNL d   1      -2.154  -0.064   2.566  0.00  0.00     0.022 A 
ATOM      7  C5  UNL d   1      -1.694  -1.350   2.726  0.00  0.00     0.026 A 
ATOM      8  C6  UNL d   1      -0.549  -1.638   1.908  0.00  0.00    -0.082 A 
ATOM      9  C7  UNL d   1       0.214  -2.823   1.777  0.00  0.00     0.045 A 
ENDROOT
TORSDOF 0
ENDMDL
