MODEL 1
REMARK minimizedAffinity -3.57491851
REMARK minimizedRMSD -1
REMARK  0 active torsions:
REMARK  status: ('A' for Active; 'I' for Inactive)
ROOT
ATOM      1  C   UNL d   1      -0.934  -2.833   1.572  0.00  0.00    -0.002 A 
ATOM      2  C1  UNL d   1      -1.978  -2.136   2.162  0.00  0.00     0.010 A 
ATOM      3  C2  UNL d   1      -2.153  -0.773   1.912  0.00  0.00     0.041 A 
ATOM      4  C3  UNL d   1      -1.252  -0.118   1.049  0.00  0.00    -0.075 A 
ATOM      5  S   UNL d   1      -1.271   1.546   0.596  0.00  0.00     0.015 SA
ATOM      6  C4  UNL d   1       0.106   1.369  -0.392  0.00  0.00     0.022 A 
ATOM      7  C5  UNL d   1       0.582   0.079  -0.388  0.00  0.00     0.026 A 
ATOM      8  C6  UNL d   1      -0.194  -0.799   0.443  0.00  0.00    -0.082 A 
ATOM      9  C7  UNL d   1      -0.043  -2.180   0.717  0.00  0.00     0.045 A 
ENDROOT
TORSDOF 0
ENDMDL
