MODEL 1
REMARK minimizedAffinity -3.33252478
REMARK minimizedRMSD -1
REMARK  0 active torsions:
REMARK  status: ('A' for Active; 'I' for Inactive)
ROOT
ATOM      1  C   UNL d   1       0.393  -2.865   0.760  0.00  0.00    -0.002 A 
ATOM      2  C1  UNL d   1      -0.544  -2.224   1.558  0.00  0.00     0.010 A 
ATOM      3  C2  UNL d   1      -0.791  -0.858   1.406  0.00  0.00     0.041 A 
ATOM      4  C3  UNL d   1      -0.074  -0.141   0.428  0.00  0.00    -0.075 A 
ATOM      5  S   UNL d   1      -0.211   1.539   0.063  0.00  0.00     0.015 SA
ATOM      6  C4  UNL d   1       0.971   1.445  -1.162  0.00  0.00     0.022 A 
ATOM      7  C5  UNL d   1       1.468   0.171  -1.302  0.00  0.00     0.026 A 
ATOM      8  C6  UNL d   1       0.873  -0.764  -0.389  0.00  0.00    -0.082 A 
ATOM      9  C7  UNL d   1       1.101  -2.150  -0.210  0.00  0.00     0.045 A 
ENDROOT
TORSDOF 0
ENDMDL
