MODEL 1
REMARK minimizedAffinity -5.52319431
REMARK minimizedRMSD -1
REMARK  0 active torsions:
REMARK  status: ('A' for Active; 'I' for Inactive)
ROOT
ATOM      1  C   UNL d   1      -2.267  -1.289   2.009  0.00  0.00    -0.002 A 
ATOM      2  C1  UNL d   1      -2.627   0.030   1.771  0.00  0.00     0.010 A 
ATOM      3  C2  UNL d   1      -1.869   0.830   0.914  0.00  0.00     0.041 A 
ATOM      4  C3  UNL d   1      -0.733   0.275   0.292  0.00  0.00    -0.075 A 
ATOM      5  S   UNL d   1       0.345   1.065  -0.798  0.00  0.00     0.015 SA
ATOM      6  C4  UNL d   1       1.308  -0.331  -0.974  0.00  0.00     0.022 A 
ATOM      7  C5  UNL d   1       0.833  -1.382  -0.226  0.00  0.00     0.026 A 
ATOM      8  C6  UNL d   1      -0.351  -1.051   0.515  0.00  0.00    -0.082 A 
ATOM      9  C7  UNL d   1      -1.140  -1.835   1.390  0.00  0.00     0.045 A 
ENDROOT
TORSDOF 0
ENDMDL
