MODEL 1
REMARK minimizedAffinity -2.81326151
REMARK minimizedRMSD -1
REMARK  0 active torsions:
REMARK  status: ('A' for Active; 'I' for Inactive)
ROOT
ATOM      1  C   UNL d   1      -0.428  -2.499   1.283  0.00  0.00    -0.002 A 
ATOM      2  C1  UNL d   1      -1.365  -1.689   1.909  0.00  0.00     0.010 A 
ATOM      3  C2  UNL d   1      -1.455  -0.332   1.593  0.00  0.00     0.041 A 
ATOM      4  C3  UNL d   1      -0.580   0.203   0.627  0.00  0.00    -0.075 A 
ATOM      5  S   UNL d   1      -0.508   1.836   0.080  0.00  0.00     0.015 SA
ATOM      6  C4  UNL d   1       0.767   1.497  -0.999  0.00  0.00     0.022 A 
ATOM      7  C5  UNL d   1       1.142   0.175  -0.955  0.00  0.00     0.026 A 
ATOM      8  C6  UNL d   1       0.371  -0.593  -0.018  0.00  0.00    -0.082 A 
ATOM      9  C7  UNL d   1       0.438  -1.965   0.325  0.00  0.00     0.045 A 
ENDROOT
TORSDOF 0
ENDMDL
