MODEL 1
REMARK minimizedAffinity -3.7233572
REMARK minimizedRMSD -1
REMARK  0 active torsions:
REMARK  status: ('A' for Active; 'I' for Inactive)
ROOT
ATOM      1  C   UNL d   1      -0.820   1.760   0.781  0.00  0.00    -0.002 A 
ATOM      2  C1  UNL d   1       0.308   1.389   0.063  0.00  0.00     0.010 A 
ATOM      3  C2  UNL d   1       0.545   0.047  -0.244  0.00  0.00     0.041 A 
ATOM      4  C3  UNL d   1      -0.380  -0.924   0.186  0.00  0.00    -0.075 A 
ATOM      5  S   UNL d   1      -0.298  -2.626  -0.075  0.00  0.00     0.015 SA
ATOM      6  C4  UNL d   1      -1.758  -2.900   0.760  0.00  0.00     0.022 A 
ATOM      7  C5  UNL d   1      -2.308  -1.733   1.233  0.00  0.00     0.026 A 
ATOM      8  C6  UNL d   1      -1.524  -0.574   0.909  0.00  0.00    -0.082 A 
ATOM      9  C7  UNL d   1      -1.736   0.794   1.206  0.00  0.00     0.045 A 
ENDROOT
TORSDOF 0
ENDMDL
