MODEL 1
REMARK minimizedAffinity -4.40051889
REMARK minimizedRMSD -1
REMARK  0 active torsions:
REMARK  status: ('A' for Active; 'I' for Inactive)
ROOT
ATOM      1  C   UNL d   1      -2.059  -2.253   1.208  0.00  0.00    -0.002 A 
ATOM      2  C1  UNL d   1      -2.985  -1.238   1.405  0.00  0.00     0.010 A 
ATOM      3  C2  UNL d   1      -2.646   0.092   1.149  0.00  0.00     0.041 A 
ATOM      4  C3  UNL d   1      -1.349   0.388   0.685  0.00  0.00    -0.075 A 
ATOM      5  S   UNL d   1      -0.711   1.944   0.305  0.00  0.00     0.015 SA
ATOM      6  C4  UNL d   1       0.805   1.298  -0.130  0.00  0.00     0.022 A 
ATOM      7  C5  UNL d   1       0.841  -0.069   0.007  0.00  0.00     0.026 A 
ATOM      8  C6  UNL d   1      -0.400  -0.617   0.478  0.00  0.00    -0.082 A 
ATOM      9  C7  UNL d   1      -0.774  -1.955   0.747  0.00  0.00     0.045 A 
ENDROOT
TORSDOF 0
ENDMDL
