MODEL 1
REMARK minimizedAffinity 18.3231983
REMARK minimizedRMSD -1
REMARK  1 active torsions:
REMARK  status: ('A' for Active; 'I' for Inactive)
REMARK    1  A    between atoms: C1_2  and  C2_3 
ROOT
ATOM      1  C2  UNL d   1       0.649  -1.620  -4.858  0.00  0.00    -0.073 A 
ATOM      2  C3  UNL d   1       0.029  -2.553  -5.698  0.00  0.00    -0.002 A 
ATOM      3  C4  UNL d   1       0.662  -3.760  -6.000  0.00  0.00     0.004 A 
ATOM      4  C5  UNL d   1       1.915  -4.049  -5.461  0.00  0.00    -0.004 A 
ATOM      5  C6  UNL d   1       2.546  -3.136  -4.611  0.00  0.00    -0.075 A 
ATOM      6  C7  UNL d   1       3.895  -3.431  -4.025  0.00  0.00     0.076 C 
ATOM      7  C8  UNL d   1       1.906  -1.925  -4.314  0.00  0.00     0.001 A 
ENDROOT
BRANCH   1   8
ATOM      8  C1  UNL d   1      -0.032  -0.319  -4.524  0.00  0.00     0.053 C 
ATOM      9  C   UNL d   1       0.961   0.755  -4.110  0.00  0.00     0.018 C 
ENDBRANCH   1   8
TORSDOF 1
ENDMDL
