MODEL 1
REMARK minimizedAffinity 4.54795265
REMARK minimizedRMSD -1
REMARK  1 active torsions:
REMARK  status: ('A' for Active; 'I' for Inactive)
REMARK    1  A    between atoms: C1_2  and  C2_3 
ROOT
ATOM      1  C2  UNL d   1       0.060  -0.554   3.460  0.00  0.00    -0.073 A 
ATOM      2  C3  UNL d   1       0.268   0.549   4.296  0.00  0.00    -0.002 A 
ATOM      3  C4  UNL d   1      -0.619   1.626   4.277  0.00  0.00     0.004 A 
ATOM      4  C5  UNL d   1      -1.725   1.609   3.428  0.00  0.00    -0.004 A 
ATOM      5  C6  UNL d   1      -1.957   0.511   2.593  0.00  0.00    -0.075 A 
ATOM      6  C7  UNL d   1      -3.142   0.478   1.672  0.00  0.00     0.076 C 
ATOM      7  C8  UNL d   1      -1.060  -0.566   2.616  0.00  0.00     0.001 A 
ENDROOT
BRANCH   1   8
ATOM      8  C1  UNL d   1       1.012  -1.722   3.481  0.00  0.00     0.053 C 
ATOM      9  C   UNL d   1       0.908  -2.517   4.773  0.00  0.00     0.018 C 
ENDBRANCH   1   8
TORSDOF 1
ENDMDL
