MODEL 1
REMARK minimizedAffinity 7.32566404
REMARK minimizedRMSD -1
REMARK  1 active torsions:
REMARK  status: ('A' for Active; 'I' for Inactive)
REMARK    1  A    between atoms: C1_2  and  C2_3 
ROOT
ATOM      1  C2  UNL d   1       0.289   0.497   3.745  0.00  0.00    -0.073 A 
ATOM      2  C3  UNL d   1       0.659  -0.489   4.667  0.00  0.00    -0.002 A 
ATOM      3  C4  UNL d   1       1.028  -1.761   4.229  0.00  0.00     0.004 A 
ATOM      4  C5  UNL d   1       1.038  -2.059   2.866  0.00  0.00    -0.004 A 
ATOM      5  C6  UNL d   1       0.683  -1.083   1.929  0.00  0.00    -0.075 A 
ATOM      6  C7  UNL d   1       0.686  -1.388   0.459  0.00  0.00     0.076 C 
ATOM      7  C8  UNL d   1       0.311   0.191   2.377  0.00  0.00     0.001 A 
ENDROOT
BRANCH   1   8
ATOM      8  C1  UNL d   1      -0.104   1.874   4.214  0.00  0.00     0.053 C 
ATOM      9  C   UNL d   1       0.300   2.122   5.658  0.00  0.00     0.018 C 
ENDBRANCH   1   8
TORSDOF 1
ENDMDL
