MODEL 1
REMARK minimizedAffinity 6.35886335
REMARK minimizedRMSD -1
REMARK  1 active torsions:
REMARK  status: ('A' for Active; 'I' for Inactive)
REMARK    1  A    between atoms: C1_2  and  C2_3 
ROOT
ATOM      1  C2  UNL d   1       0.011  -0.812   2.442  0.00  0.00    -0.073 A 
ATOM      2  C3  UNL d   1       0.758  -1.460   3.432  0.00  0.00    -0.002 A 
ATOM      3  C4  UNL d   1       1.118  -0.785   4.599  0.00  0.00     0.004 A 
ATOM      4  C5  UNL d   1       0.729   0.541   4.791  0.00  0.00    -0.004 A 
ATOM      5  C6  UNL d   1      -0.027   1.202   3.818  0.00  0.00    -0.075 A 
ATOM      6  C7  UNL d   1      -0.451   2.629   4.009  0.00  0.00     0.076 C 
ATOM      7  C8  UNL d   1      -0.382   0.519   2.648  0.00  0.00     0.001 A 
ENDROOT
BRANCH   1   8
ATOM      8  C1  UNL d   1      -0.385  -1.538   1.183  0.00  0.00     0.053 C 
ATOM      9  C   UNL d   1       0.808  -1.805   0.279  0.00  0.00     0.018 C 
ENDBRANCH   1   8
TORSDOF 1
ENDMDL
