MODEL 1
REMARK minimizedAffinity 8.869771
REMARK minimizedRMSD -1
REMARK  1 active torsions:
REMARK  status: ('A' for Active; 'I' for Inactive)
REMARK    1  A    between atoms: C1_2  and  C2_3 
ROOT
ATOM      1  C2  UNL d   1       0.672  -1.867   3.266  0.00  0.00    -0.073 A 
ATOM      2  C3  UNL d   1       1.498  -0.739   3.336  0.00  0.00    -0.002 A 
ATOM      3  C4  UNL d   1       1.062   0.486   2.831  0.00  0.00     0.004 A 
ATOM      4  C5  UNL d   1      -0.204   0.599   2.257  0.00  0.00    -0.004 A 
ATOM      5  C6  UNL d   1      -1.048  -0.514   2.188  0.00  0.00    -0.075 A 
ATOM      6  C7  UNL d   1      -2.413  -0.410   1.572  0.00  0.00     0.076 C 
ATOM      7  C8  UNL d   1      -0.603  -1.742   2.696  0.00  0.00     0.001 A 
ENDROOT
BRANCH   1   8
ATOM      8  C1  UNL d   1       1.136  -3.191   3.816  0.00  0.00     0.053 C 
ATOM      9  C   UNL d   1       0.086  -3.838   4.705  0.00  0.00     0.018 C 
ENDBRANCH   1   8
TORSDOF 1
ENDMDL
