MODEL 1
REMARK minimizedAffinity 15.2275419
REMARK minimizedRMSD -1
REMARK  1 active torsions:
REMARK  status: ('A' for Active; 'I' for Inactive)
REMARK    1  A    between atoms: C1_2  and  C2_3 
ROOT
ATOM      1  C2  UNL d   1      -1.426  -1.016   2.549  0.00  0.00    -0.073 A 
ATOM      2  C3  UNL d   1      -0.636   0.093   2.226  0.00  0.00    -0.002 A 
ATOM      3  C4  UNL d   1       0.703   0.142   2.615  0.00  0.00     0.004 A 
ATOM      4  C5  UNL d   1       1.267  -0.919   3.323  0.00  0.00    -0.004 A 
ATOM      5  C6  UNL d   1       0.497  -2.042   3.645  0.00  0.00    -0.075 A 
ATOM      6  C7  UNL d   1       1.088  -3.191   4.408  0.00  0.00     0.076 C 
ATOM      7  C8  UNL d   1      -0.848  -2.082   3.253  0.00  0.00     0.001 A 
ENDROOT
BRANCH   1   8
ATOM      8  C1  UNL d   1      -2.871  -1.075   2.125  0.00  0.00     0.053 C 
ATOM      9  C   UNL d   1      -3.624  -2.196   2.824  0.00  0.00     0.018 C 
ENDBRANCH   1   8
TORSDOF 1
ENDMDL
