MODEL 1
REMARK minimizedAffinity 10.2713137
REMARK minimizedRMSD -1
REMARK  1 active torsions:
REMARK  status: ('A' for Active; 'I' for Inactive)
REMARK    1  A    between atoms: C1_2  and  C2_3 
ROOT
ATOM      1  C2  UNL d   1       0.420  -1.346   3.143  0.00  0.00    -0.073 A 
ATOM      2  C3  UNL d   1       0.951  -0.080   3.413  0.00  0.00    -0.002 A 
ATOM      3  C4  UNL d   1       0.205   1.069   3.146  0.00  0.00     0.004 A 
ATOM      4  C5  UNL d   1      -1.079   0.964   2.613  0.00  0.00    -0.004 A 
ATOM      5  C6  UNL d   1      -1.632  -0.293   2.347  0.00  0.00    -0.075 A 
ATOM      6  C7  UNL d   1      -3.012  -0.423   1.772  0.00  0.00     0.076 C 
ATOM      7  C8  UNL d   1      -0.876  -1.442   2.616  0.00  0.00     0.001 A 
ENDROOT
BRANCH   1   8
ATOM      8  C1  UNL d   1       1.219  -2.590   3.436  0.00  0.00     0.053 C 
ATOM      9  C   UNL d   1       0.855  -3.197   4.781  0.00  0.00     0.018 C 
ENDBRANCH   1   8
TORSDOF 1
ENDMDL
