MODEL 1
REMARK minimizedAffinity 12.9746456
REMARK minimizedRMSD -1
REMARK  1 active torsions:
REMARK  status: ('A' for Active; 'I' for Inactive)
REMARK    1  A    between atoms: C1_2  and  C2_3 
ROOT
ATOM      1  C2  UNL d   1      -0.054  -0.477   2.838  0.00  0.00    -0.073 A 
ATOM      2  C3  UNL d   1      -0.360   0.889   2.817  0.00  0.00    -0.002 A 
ATOM      3  C4  UNL d   1      -1.689   1.314   2.825  0.00  0.00     0.004 A 
ATOM      4  C5  UNL d   1      -2.725   0.380   2.862  0.00  0.00    -0.004 A 
ATOM      5  C6  UNL d   1      -2.439  -0.989   2.896  0.00  0.00    -0.075 A 
ATOM      6  C7  UNL d   1      -3.541  -2.006   2.933  0.00  0.00     0.076 C 
ATOM      7  C8  UNL d   1      -1.102  -1.408   2.884  0.00  0.00     0.001 A 
ENDROOT
BRANCH   1   8
ATOM      8  C1  UNL d   1       1.379  -0.940   2.836  0.00  0.00     0.053 C 
ATOM      9  C   UNL d   1       2.355   0.225   2.879  0.00  0.00     0.018 C 
ENDBRANCH   1   8
TORSDOF 1
ENDMDL
