MODEL 1
REMARK minimizedAffinity 2.48156595
REMARK minimizedRMSD -1
REMARK  0 active torsions:
REMARK  status: ('A' for Active; 'I' for Inactive)
ROOT
ATOM      1  C1  BNZ d   1      -2.083   0.754   0.552  0.00  0.00     0.000 A 
ATOM      2  C2  BNZ d   1      -1.830   2.072   0.826  0.00  0.00     0.000 A 
ATOM      3  C3  BNZ d   1      -0.562   2.574   0.737  0.00  0.00     0.000 A 
ATOM      4  C4  BNZ d   1       0.456   1.751   0.413  0.00  0.00     0.000 A 
ATOM      5  C5  BNZ d   1       0.219   0.418   0.143  0.00  0.00     0.000 A 
ATOM      6  C6  BNZ d   1      -1.065  -0.076   0.196  0.00  0.00     0.000 A 
ENDROOT
TORSDOF 0
ENDMDL
