MODEL 1
REMARK minimizedAffinity 2.52545238
REMARK minimizedRMSD -1
REMARK  0 active torsions:
REMARK  status: ('A' for Active; 'I' for Inactive)
ROOT
ATOM      1  C1  BNZ d   1       1.192   1.911   0.433  0.00  0.00     0.000 A 
ATOM      2  C2  BNZ d   1       0.044   2.173  -0.266  0.00  0.00     0.000 A 
ATOM      3  C3  BNZ d   1      -1.064   2.664   0.367  0.00  0.00     0.000 A 
ATOM      4  C4  BNZ d   1      -1.035   2.854   1.702  0.00  0.00     0.000 A 
ATOM      5  C5  BNZ d   1       0.112   2.586   2.421  0.00  0.00     0.000 A 
ATOM      6  C6  BNZ d   1       1.238   2.129   1.775  0.00  0.00     0.000 A 
ENDROOT
TORSDOF 0
ENDMDL
