MODEL 1
REMARK minimizedAffinity -4.25731754
REMARK minimizedRMSD -1
REMARK  0 active torsions:
REMARK  status: ('A' for Active; 'I' for Inactive)
ROOT
ATOM      1  C1  BNZ d   1       1.190  -1.950  -1.293  0.00  0.00     0.000 A 
ATOM      2  C2  BNZ d   1       2.042  -1.068  -1.901  0.00  0.00     0.000 A 
ATOM      3  C3  BNZ d   1       2.321   0.142  -1.330  0.00  0.00     0.000 A 
ATOM      4  C4  BNZ d   1       1.717   0.485  -0.174  0.00  0.00     0.000 A 
ATOM      5  C5  BNZ d   1       0.848  -0.390   0.446  0.00  0.00     0.000 A 
ATOM      6  C6  BNZ d   1       0.599  -1.623  -0.112  0.00  0.00     0.000 A 
ENDROOT
TORSDOF 0
ENDMDL
