MODEL 1
REMARK minimizedAffinity -1.38628411
REMARK minimizedRMSD -1
REMARK  0 active torsions:
REMARK  status: ('A' for Active; 'I' for Inactive)
ROOT
ATOM      1  C1  BNZ d   1       0.456  -5.236  -3.286  0.00  0.00     0.000 A 
ATOM      2  C2  BNZ d   1       0.563  -3.884  -3.475  0.00  0.00     0.000 A 
ATOM      3  C3  BNZ d   1       1.775  -3.258  -3.384  0.00  0.00     0.000 A 
ATOM      4  C4  BNZ d   1       2.870  -3.977  -3.065  0.00  0.00     0.000 A 
ATOM      5  C5  BNZ d   1       2.778  -5.339  -2.862  0.00  0.00     0.000 A 
ATOM      6  C6  BNZ d   1       1.563  -5.972  -2.993  0.00  0.00     0.000 A 
ENDROOT
TORSDOF 0
ENDMDL
