MODEL 1
REMARK minimizedAffinity 0.072419323
REMARK minimizedRMSD -1
REMARK  0 active torsions:
REMARK  status: ('A' for Active; 'I' for Inactive)
ROOT
ATOM      1  C1  BNZ d   1      -1.605   0.056   1.183  0.00  0.00     0.000 A 
ATOM      2  C2  BNZ d   1      -2.066   0.618   0.023  0.00  0.00     0.000 A 
ATOM      3  C3  BNZ d   1      -3.390   0.926  -0.127  0.00  0.00     0.000 A 
ATOM      4  C4  BNZ d   1      -4.255   0.635   0.865  0.00  0.00     0.000 A 
ATOM      5  C5  BNZ d   1      -3.806   0.059   2.037  0.00  0.00     0.000 A 
ATOM      6  C6  BNZ d   1      -2.467  -0.214   2.200  0.00  0.00     0.000 A 
ENDROOT
TORSDOF 0
ENDMDL
