MODEL 1
REMARK minimizedAffinity -2.85799599
REMARK minimizedRMSD -1
REMARK  0 active torsions:
REMARK  status: ('A' for Active; 'I' for Inactive)
ROOT
ATOM      1  C1  BNZ d   1      -0.352  -0.779   1.120  0.00  0.00     0.000 A 
ATOM      2  C2  BNZ d   1      -1.445   0.036   1.250  0.00  0.00     0.000 A 
ATOM      3  C3  BNZ d   1      -1.333   1.388   1.084  0.00  0.00     0.000 A 
ATOM      4  C4  BNZ d   1      -0.123   1.927   0.827  0.00  0.00     0.000 A 
ATOM      5  C5  BNZ d   1       0.989   1.119   0.701  0.00  0.00     0.000 A 
ATOM      6  C6  BNZ d   1       0.866  -0.245   0.831  0.00  0.00     0.000 A 
ENDROOT
TORSDOF 0
ENDMDL
