MODEL 1
REMARK minimizedAffinity -0.180009201
REMARK minimizedRMSD -1
REMARK  0 active torsions:
REMARK  status: ('A' for Active; 'I' for Inactive)
ROOT
ATOM      1  C1  BNZ d   1       4.595   3.817  -4.841  0.00  0.00     0.000 A 
ATOM      2  C2  BNZ d   1       4.151   3.206  -3.698  0.00  0.00     0.000 A 
ATOM      3  C3  BNZ d   1       3.009   2.455  -3.705  0.00  0.00     0.000 A 
ATOM      4  C4  BNZ d   1       2.291   2.349  -4.842  0.00  0.00     0.000 A 
ATOM      5  C5  BNZ d   1       2.721   2.966  -6.000  0.00  0.00     0.000 A 
ATOM      6  C6  BNZ d   1       3.892   3.689  -5.999  0.00  0.00     0.000 A 
ENDROOT
TORSDOF 0
ENDMDL
