MODEL 1
REMARK minimizedAffinity 0.47114706
REMARK minimizedRMSD -1
REMARK  0 active torsions:
REMARK  status: ('A' for Active; 'I' for Inactive)
ROOT
ATOM      1  C1  BNZ d   1      -0.897   0.990  -1.094  0.00  0.00     0.000 A 
ATOM      2  C2  BNZ d   1       0.156   1.215  -1.940  0.00  0.00     0.000 A 
ATOM      3  C3  BNZ d   1       1.430   0.878  -1.577  0.00  0.00     0.000 A 
ATOM      4  C4  BNZ d   1       1.655   0.355  -0.354  0.00  0.00     0.000 A 
ATOM      5  C5  BNZ d   1       0.605   0.131   0.514  0.00  0.00     0.000 A 
ATOM      6  C6  BNZ d   1      -0.681   0.435   0.130  0.00  0.00     0.000 A 
ENDROOT
TORSDOF 0
ENDMDL
