MODEL 1
REMARK minimizedAffinity -1.492769
REMARK minimizedRMSD -1
REMARK  0 active torsions:
REMARK  status: ('A' for Active; 'I' for Inactive)
ROOT
ATOM      1  C1  BNZ d   1      -0.618  -0.025   0.450  0.00  0.00     0.000 A 
ATOM      2  C2  BNZ d   1      -1.501   0.978   0.748  0.00  0.00     0.000 A 
ATOM      3  C3  BNZ d   1      -1.055   2.218   1.112  0.00  0.00     0.000 A 
ATOM      4  C4  BNZ d   1       0.271   2.441   1.218  0.00  0.00     0.000 A 
ATOM      5  C5  BNZ d   1       1.173   1.437   0.930  0.00  0.00     0.000 A 
ATOM      6  C6  BNZ d   1       0.721   0.201   0.526  0.00  0.00     0.000 A 
ENDROOT
TORSDOF 0
ENDMDL
