MODEL 1
REMARK minimizedAffinity 0.9931041
REMARK minimizedRMSD -1
REMARK  0 active torsions:
REMARK  status: ('A' for Active; 'I' for Inactive)
ROOT
ATOM      1  C1  BNZ d   1       1.037   0.106   0.401  0.00  0.00     0.000 A 
ATOM      2  C2  BNZ d   1      -0.327   0.106   0.280  0.00  0.00     0.000 A 
ATOM      3  C3  BNZ d   1      -1.055   1.230   0.552  0.00  0.00     0.000 A 
ATOM      4  C4  BNZ d   1      -0.422   2.341   0.983  0.00  0.00     0.000 A 
ATOM      5  C5  BNZ d   1       0.951   2.354   1.120  0.00  0.00     0.000 A 
ATOM      6  C6  BNZ d   1       1.684   1.232   0.808  0.00  0.00     0.000 A 
ENDROOT
TORSDOF 0
ENDMDL
