MODEL 1
REMARK minimizedAffinity -1.09787893
REMARK minimizedRMSD -1
REMARK  0 active torsions:
REMARK  status: ('A' for Active; 'I' for Inactive)
ROOT
ATOM      1  C1  BNZ d   1      -0.078   1.837   0.576  0.00  0.00     0.000 A 
ATOM      2  C2  BNZ d   1      -1.436   1.784   0.743  0.00  0.00     0.000 A 
ATOM      3  C3  BNZ d   1      -2.064   0.597   0.996  0.00  0.00     0.000 A 
ATOM      4  C4  BNZ d   1      -1.340  -0.540   1.042  0.00  0.00     0.000 A 
ATOM      5  C5  BNZ d   1       0.029  -0.504   0.866  0.00  0.00     0.000 A 
ATOM      6  C6  BNZ d   1       0.663   0.698   0.651  0.00  0.00     0.000 A 
ENDROOT
TORSDOF 0
ENDMDL
