MODEL 1
REMARK minimizedAffinity -2.15420485
REMARK minimizedRMSD -1
REMARK  0 active torsions:
REMARK  status: ('A' for Active; 'I' for Inactive)
ROOT
ATOM      1  C1  BNZ d   1      -3.837   3.608  -5.993  0.00  0.00     0.000 A 
ATOM      2  C2  BNZ d   1      -3.177   4.808  -5.997  0.00  0.00     0.000 A 
ATOM      3  C3  BNZ d   1      -3.868   5.987  -5.968  0.00  0.00     0.000 A 
ATOM      4  C4  BNZ d   1      -5.216   5.965  -5.977  0.00  0.00     0.000 A 
ATOM      5  C5  BNZ d   1      -5.897   4.764  -5.983  0.00  0.00     0.000 A 
ATOM      6  C6  BNZ d   1      -5.198   3.579  -5.972  0.00  0.00     0.000 A 
ENDROOT
TORSDOF 0
ENDMDL
