MODEL 1
REMARK minimizedAffinity 0.739827693
REMARK minimizedRMSD -1
REMARK  0 active torsions:
REMARK  status: ('A' for Active; 'I' for Inactive)
ROOT
ATOM      1  C1  BNZ d   1      -5.749   3.780  -5.888  0.00  0.00     0.000 A 
ATOM      2  C2  BNZ d   1      -4.473   3.285  -5.900  0.00  0.00     0.000 A 
ATOM      3  C3  BNZ d   1      -3.396   4.126  -5.927  0.00  0.00     0.000 A 
ATOM      4  C4  BNZ d   1      -3.596   5.458  -5.983  0.00  0.00     0.000 A 
ATOM      5  C5  BNZ d   1      -4.877   5.973  -5.981  0.00  0.00     0.000 A 
ATOM      6  C6  BNZ d   1      -5.958   5.125  -5.915  0.00  0.00     0.000 A 
ENDROOT
TORSDOF 0
ENDMDL
