MODEL 1
REMARK minimizedAffinity -3.32481027
REMARK minimizedRMSD -1
REMARK  0 active torsions:
REMARK  status: ('A' for Active; 'I' for Inactive)
ROOT
ATOM      1  N1  IND d   1       0.863  -0.166   0.512  0.00  0.00    -0.196 N 
ATOM      2  C2  IND d   1       1.406  -0.128   1.767  0.00  0.00     0.054 A 
ATOM      3  C3  IND d   1       0.789   0.813   2.517  0.00  0.00    -0.031 A 
ATOM      4  C4  IND d   1      -1.200   2.334   1.923  0.00  0.00     0.051 A 
ATOM      5  C5  IND d   1      -2.013   2.688   0.882  0.00  0.00    -0.031 A 
ATOM      6  C6  IND d   1      -1.907   2.094  -0.359  0.00  0.00     0.015 A 
ATOM      7  C7  IND d   1      -0.990   1.113  -0.604  0.00  0.00    -0.016 A 
ATOM      8  C8  IND d   1      -0.158   0.756   0.448  0.00  0.00    -0.047 A 
ATOM      9  C9  IND d   1      -0.232   1.384   1.698  0.00  0.00    -0.096 A 
ATOM     10  HN1 IND d   1       1.117  -0.680  -0.129  0.00  0.00     0.298 HD
ENDROOT
TORSDOF 0
ENDMDL
