MODEL 1
REMARK minimizedAffinity -5.26484823
REMARK minimizedRMSD -1
REMARK  0 active torsions:
REMARK  status: ('A' for Active; 'I' for Inactive)
ROOT
ATOM      1  N1  IND d   1       0.433   0.044   0.202  0.00  0.00    -0.196 N 
ATOM      2  C2  IND d   1       0.508  -0.106   1.559  0.00  0.00     0.054 A 
ATOM      3  C3  IND d   1       0.006   0.985   2.180  0.00  0.00    -0.031 A 
ATOM      4  C4  IND d   1      -1.082   3.088   1.170  0.00  0.00     0.051 A 
ATOM      5  C5  IND d   1      -1.344   3.697  -0.025  0.00  0.00    -0.031 A 
ATOM      6  C6  IND d   1      -1.023   3.106  -1.230  0.00  0.00     0.015 A 
ATOM      7  C7  IND d   1      -0.436   1.873  -1.285  0.00  0.00    -0.016 A 
ATOM      8  C8  IND d   1      -0.162   1.255  -0.073  0.00  0.00    -0.047 A 
ATOM      9  C9  IND d   1      -0.447   1.869   1.153  0.00  0.00    -0.096 A 
ATOM     10  HN1 IND d   1       0.710  -0.524  -0.381  0.00  0.00     0.298 HD
ENDROOT
TORSDOF 0
ENDMDL
