MODEL 1
REMARK minimizedAffinity -1.72781777
REMARK minimizedRMSD -1
REMARK  0 active torsions:
REMARK  status: ('A' for Active; 'I' for Inactive)
ROOT
ATOM      1  N1  IND d   1       0.907  -0.079  -0.264  0.00  0.00    -0.196 N 
ATOM      2  C2  IND d   1       0.212  -0.300  -1.420  0.00  0.00     0.054 A 
ATOM      3  C3  IND d   1      -0.898   0.472  -1.456  0.00  0.00    -0.031 A 
ATOM      4  C4  IND d   1      -1.713   2.244   0.224  0.00  0.00     0.051 A 
ATOM      5  C5  IND d   1      -1.431   2.775   1.452  0.00  0.00    -0.031 A 
ATOM      6  C6  IND d   1      -0.331   2.376   2.183  0.00  0.00     0.015 A 
ATOM      7  C7  IND d   1       0.537   1.435   1.708  0.00  0.00    -0.016 A 
ATOM      8  C8  IND d   1       0.250   0.888   0.465  0.00  0.00    -0.047 A 
ATOM      9  C9  IND d   1      -0.888   1.258  -0.263  0.00  0.00    -0.096 A 
ATOM     10  HN1 IND d   1       1.633  -0.477  -0.031  0.00  0.00     0.298 HD
ENDROOT
TORSDOF 0
ENDMDL
