MODEL 1
REMARK minimizedAffinity -0.876880467
REMARK minimizedRMSD -1
REMARK  0 active torsions:
REMARK  status: ('A' for Active; 'I' for Inactive)
ROOT
ATOM      1  N1  IND d   1       0.556  -6.000  -0.294  0.00  0.00    -0.196 N 
ATOM      2  C2  IND d   1       1.867  -5.752   0.005  0.00  0.00     0.054 A 
ATOM      3  C3  IND d   1       2.203  -4.495  -0.360  0.00  0.00    -0.031 A 
ATOM      4  C4  IND d   1       0.735  -2.637  -1.371  0.00  0.00     0.051 A 
ATOM      5  C5  IND d   1      -0.520  -2.401  -1.856  0.00  0.00    -0.031 A 
ATOM      6  C6  IND d   1      -1.502  -3.371  -1.843  0.00  0.00     0.015 A 
ATOM      7  C7  IND d   1      -1.266  -4.615  -1.331  0.00  0.00    -0.016 A 
ATOM      8  C8  IND d   1       0.009  -4.861  -0.844  0.00  0.00    -0.047 A 
ATOM      9  C9  IND d   1       1.022  -3.894  -0.893  0.00  0.00    -0.096 A 
ATOM     10  HN1 IND d   1       0.143  -6.742  -0.161  0.00  0.00     0.298 HD
ENDROOT
TORSDOF 0
ENDMDL
