MODEL 1
REMARK minimizedAffinity -4.9033289
REMARK minimizedRMSD -1
REMARK  0 active torsions:
REMARK  status: ('A' for Active; 'I' for Inactive)
ROOT
ATOM      1  N1  IND d   1       3.664  -0.958   0.795  0.00  0.00    -0.196 N 
ATOM      2  C2  IND d   1       4.391  -1.544  -0.203  0.00  0.00     0.054 A 
ATOM      3  C3  IND d   1       3.601  -1.810  -1.267  0.00  0.00    -0.031 A 
ATOM      4  C4  IND d   1       1.107  -1.279  -1.626  0.00  0.00     0.051 A 
ATOM      5  C5  IND d   1       0.008  -0.782  -0.983  0.00  0.00    -0.031 A 
ATOM      6  C6  IND d   1       0.074  -0.307   0.311  0.00  0.00     0.015 A 
ATOM      7  C7  IND d   1       1.248  -0.300   1.009  0.00  0.00    -0.016 A 
ATOM      8  C8  IND d   1       2.365  -0.810   0.362  0.00  0.00    -0.047 A 
ATOM      9  C9  IND d   1       2.295  -1.333  -0.936  0.00  0.00    -0.096 A 
ATOM     10  HN1 IND d   1       3.967  -0.722   1.564  0.00  0.00     0.298 HD
ENDROOT
TORSDOF 0
ENDMDL
