MODEL 1
REMARK minimizedAffinity -5.11277628
REMARK minimizedRMSD -1
REMARK  2 active torsions:
REMARK  status: ('A' for Active; 'I' for Inactive)
REMARK    1  A    between atoms: C2'_3  and  C1'_4 
REMARK    2  A    between atoms: C1'_4  and  C1_5 
ROOT
ATOM      1  C1  I4B d   1       0.475   0.238  -0.070  0.00  0.00    -0.075 A 
ATOM      2  C2  I4B d   1      -0.312   0.149   1.052  0.00  0.00     0.003 A 
ATOM      3  C3  I4B d   1      -0.712  -1.117   1.544  0.00  0.00     0.002 A 
ATOM      4  C4  I4B d   1      -0.347  -2.258   0.859  0.00  0.00    -0.004 A 
ATOM      5  C5  I4B d   1       0.469  -2.168  -0.265  0.00  0.00     0.002 A 
ATOM      6  C6  I4B d   1       0.893  -0.913  -0.725  0.00  0.00     0.003 A 
ENDROOT
BRANCH   1   7
ATOM      7  C1' I4B d   1       0.851   1.592  -0.580  0.00  0.00     0.060 C 
BRANCH   7   8
ATOM      8  C2' I4B d   1       1.762   2.240   0.442  0.00  0.00    -0.013 C 
ATOM      9  C4' I4B d   1       3.114   2.545  -0.147  0.00  0.00     0.013 C 
ATOM     10  C3' I4B d   1       1.092   3.488   0.934  0.00  0.00     0.013 C 
ENDBRANCH   7   8
ENDBRANCH   1   7
TORSDOF 2
ENDMDL
