MODEL 1
REMARK minimizedAffinity -4.89496088
REMARK minimizedRMSD -1
REMARK  2 active torsions:
REMARK  status: ('A' for Active; 'I' for Inactive)
REMARK    1  A    between atoms: C2'_3  and  C1'_4 
REMARK    2  A    between atoms: C1'_4  and  C1_5 
ROOT
ATOM      1  C1  I4B d   1       0.024   0.080  -0.276  0.00  0.00    -0.075 A 
ATOM      2  C2  I4B d   1       0.731  -0.950  -0.844  0.00  0.00     0.003 A 
ATOM      3  C3  I4B d   1       0.555  -2.276  -0.380  0.00  0.00     0.002 A 
ATOM      4  C4  I4B d   1      -0.295  -2.518   0.680  0.00  0.00    -0.004 A 
ATOM      5  C5  I4B d   1      -1.028  -1.475   1.240  0.00  0.00     0.002 A 
ATOM      6  C6  I4B d   1      -0.878  -0.170   0.750  0.00  0.00     0.003 A 
ENDROOT
BRANCH   1   7
ATOM      7  C1' I4B d   1       0.259   1.473  -0.769  0.00  0.00     0.060 C 
BRANCH   7   8
ATOM      8  C2' I4B d   1       1.189   2.163   0.208  0.00  0.00    -0.013 C 
ATOM      9  C4' I4B d   1       2.453   2.619  -0.472  0.00  0.00     0.013 C 
ATOM     10  C3' I4B d   1       0.450   3.321   0.811  0.00  0.00     0.013 C 
ENDBRANCH   7   8
ENDBRANCH   1   7
TORSDOF 2
ENDMDL
