MODEL 1
REMARK minimizedAffinity -4.95815325
REMARK minimizedRMSD -1
REMARK  2 active torsions:
REMARK  status: ('A' for Active; 'I' for Inactive)
REMARK    1  A    between atoms: C2'_3  and  C1'_4 
REMARK    2  A    between atoms: C1'_4  and  C1_5 
ROOT
ATOM      1  C1  I4B d   1      -0.046   0.590  -0.432  0.00  0.00    -0.075 A 
ATOM      2  C2  I4B d   1       0.534  -0.512  -1.010  0.00  0.00     0.003 A 
ATOM      3  C3  I4B d   1       0.311  -1.801  -0.469  0.00  0.00     0.002 A 
ATOM      4  C4  I4B d   1      -0.453  -1.936   0.672  0.00  0.00    -0.004 A 
ATOM      5  C5  I4B d   1      -1.059  -0.821   1.243  0.00  0.00     0.002 A 
ATOM      6  C6  I4B d   1      -0.865   0.449   0.681  0.00  0.00     0.003 A 
ENDROOT
BRANCH   1   7
ATOM      7  C1' I4B d   1       0.238   1.940  -1.010  0.00  0.00     0.060 C 
BRANCH   7   8
ATOM      8  C2' I4B d   1       0.923   2.770   0.057  0.00  0.00    -0.013 C 
ATOM      9  C4' I4B d   1       2.312   3.165  -0.368  0.00  0.00     0.013 C 
ATOM     10  C3' I4B d   1       0.073   3.977   0.321  0.00  0.00     0.013 C 
ENDBRANCH   7   8
ENDBRANCH   1   7
TORSDOF 2
ENDMDL
