MODEL 1
REMARK minimizedAffinity -6.65396214
REMARK minimizedRMSD -1
REMARK  2 active torsions:
REMARK  status: ('A' for Active; 'I' for Inactive)
REMARK    1  A    between atoms: C2'_3  and  C1'_4 
REMARK    2  A    between atoms: C1'_4  and  C1_5 
ROOT
ATOM      1  C1  I4B d   1       0.054  -0.059   0.045  0.00  0.00    -0.075 A 
ATOM      2  C2  I4B d   1       0.396  -1.139  -0.731  0.00  0.00     0.003 A 
ATOM      3  C3  I4B d   1       0.214  -2.455  -0.241  0.00  0.00     0.002 A 
ATOM      4  C4  I4B d   1      -0.263  -2.643   1.040  0.00  0.00    -0.004 A 
ATOM      5  C5  I4B d   1      -0.632  -1.548   1.816  0.00  0.00     0.002 A 
ATOM      6  C6  I4B d   1      -0.484  -0.248   1.311  0.00  0.00     0.003 A 
ENDROOT
BRANCH   1   7
ATOM      7  C1' I4B d   1       0.290   1.317  -0.491  0.00  0.00     0.060 C 
BRANCH   7   8
ATOM      8  C2' I4B d   1       1.005   2.118   0.579  0.00  0.00    -0.013 C 
ATOM      9  C4' I4B d   1       2.447   2.351   0.213  0.00  0.00     0.013 C 
ATOM     10  C3' I4B d   1       0.273   3.415   0.753  0.00  0.00     0.013 C 
ENDBRANCH   7   8
ENDBRANCH   1   7
TORSDOF 2
ENDMDL
