MODEL 1
REMARK minimizedAffinity -2.43413401
REMARK minimizedRMSD -1
REMARK  2 active torsions:
REMARK  status: ('A' for Active; 'I' for Inactive)
REMARK    1  A    between atoms: C2'_3  and  C1'_4 
REMARK    2  A    between atoms: C1'_4  and  C1_5 
ROOT
ATOM      1  C1  I4B d   1       0.037   1.380  -0.010  0.00  0.00    -0.075 A 
ATOM      2  C2  I4B d   1       0.484   0.536  -0.997  0.00  0.00     0.003 A 
ATOM      3  C3  I4B d   1       0.220  -0.853  -0.921  0.00  0.00     0.002 A 
ATOM      4  C4  I4B d   1      -0.445  -1.359   0.176  0.00  0.00    -0.004 A 
ATOM      5  C5  I4B d   1      -0.917  -0.500   1.165  0.00  0.00     0.002 A 
ATOM      6  C6  I4B d   1      -0.686   0.880   1.065  0.00  0.00     0.003 A 
ENDROOT
BRANCH   1   7
ATOM      7  C1' I4B d   1       0.362   2.837  -0.106  0.00  0.00     0.060 C 
BRANCH   7   8
ATOM      8  C2' I4B d   1       1.617   3.089   0.705  0.00  0.00    -0.013 C 
ATOM      9  C4' I4B d   1       2.711   3.671  -0.150  0.00  0.00     0.013 C 
ATOM     10  C3' I4B d   1       1.261   4.012   1.832  0.00  0.00     0.013 C 
ENDBRANCH   7   8
ENDBRANCH   1   7
TORSDOF 2
ENDMDL
