MODEL 1
REMARK minimizedAffinity -2.75267839
REMARK minimizedRMSD -1
REMARK  2 active torsions:
REMARK  status: ('A' for Active; 'I' for Inactive)
REMARK    1  A    between atoms: C2'_3  and  C1'_4 
REMARK    2  A    between atoms: C1'_4  and  C1_5 
ROOT
ATOM      1  C1  I4B d   1       0.067   0.151  -0.316  0.00  0.00    -0.075 A 
ATOM      2  C2  I4B d   1       0.621  -0.903  -0.998  0.00  0.00     0.003 A 
ATOM      3  C3  I4B d   1       0.348  -2.234  -0.598  0.00  0.00     0.002 A 
ATOM      4  C4  I4B d   1      -0.438  -2.462   0.513  0.00  0.00    -0.004 A 
ATOM      5  C5  I4B d   1      -1.018  -1.392   1.190  0.00  0.00     0.002 A 
ATOM      6  C6  I4B d   1      -0.774  -0.078   0.766  0.00  0.00     0.003 A 
ENDROOT
BRANCH   1   7
ATOM      7  C1' I4B d   1       0.403   1.544  -0.745  0.00  0.00     0.060 C 
BRANCH   7   8
ATOM      8  C2' I4B d   1       1.225   2.186   0.354  0.00  0.00    -0.013 C 
ATOM      9  C4' I4B d   1       2.620   2.498  -0.121  0.00  0.00     0.013 C 
ATOM     10  C3' I4B d   1       0.514   3.429   0.798  0.00  0.00     0.013 C 
ENDBRANCH   7   8
ENDBRANCH   1   7
TORSDOF 2
ENDMDL
