MODEL 1
REMARK minimizedAffinity -3.63928246
REMARK minimizedRMSD -1
REMARK  2 active torsions:
REMARK  status: ('A' for Active; 'I' for Inactive)
REMARK    1  A    between atoms: C2'_3  and  C1'_4 
REMARK    2  A    between atoms: C1'_4  and  C1_5 
ROOT
ATOM      1  C1  I4B d   1       0.139   0.071  -0.050  0.00  0.00    -0.075 A 
ATOM      2  C2  I4B d   1      -0.078   0.084   1.305  0.00  0.00     0.003 A 
ATOM      3  C3  I4B d   1      -0.492  -1.094   1.972  0.00  0.00     0.002 A 
ATOM      4  C4  I4B d   1      -0.724  -2.242   1.243  0.00  0.00    -0.004 A 
ATOM      5  C5  I4B d   1      -0.481  -2.260  -0.128  0.00  0.00     0.002 A 
ATOM      6  C6  I4B d   1      -0.035  -1.100  -0.777  0.00  0.00     0.003 A 
ENDROOT
BRANCH   1   7
ATOM      7  C1' I4B d   1       0.545   1.342  -0.728  0.00  0.00     0.060 C 
BRANCH   7   8
ATOM      8  C2' I4B d   1       1.256   2.208   0.292  0.00  0.00    -0.013 C 
ATOM      9  C4' I4B d   1       2.673   2.493  -0.130  0.00  0.00     0.013 C 
ATOM     10  C3' I4B d   1       0.472   3.476   0.449  0.00  0.00     0.013 C 
ENDBRANCH   7   8
ENDBRANCH   1   7
TORSDOF 2
ENDMDL
