MODEL 1
REMARK minimizedAffinity -4.12295771
REMARK minimizedRMSD -1
REMARK  2 active torsions:
REMARK  status: ('A' for Active; 'I' for Inactive)
REMARK    1  A    between atoms: C2'_3  and  C1'_4 
REMARK    2  A    between atoms: C1'_4  and  C1_5 
ROOT
ATOM      1  C1  I4B d   1       0.118   0.125  -0.627  0.00  0.00    -0.075 A 
ATOM      2  C2  I4B d   1       0.445  -0.457  -1.826  0.00  0.00     0.003 A 
ATOM      3  C3  I4B d   1       0.442  -1.867  -1.959  0.00  0.00     0.002 A 
ATOM      4  C4  I4B d   1       0.158  -2.652  -0.860  0.00  0.00    -0.004 A 
ATOM      5  C5  I4B d   1      -0.196  -2.059   0.349  0.00  0.00     0.002 A 
ATOM      6  C6  I4B d   1      -0.228  -0.662   0.463  0.00  0.00     0.003 A 
ENDROOT
BRANCH   1   7
ATOM      7  C1' I4B d   1       0.163   1.616  -0.514  0.00  0.00     0.060 C 
BRANCH   7   8
ATOM      8  C2' I4B d   1       1.275   1.977   0.451  0.00  0.00    -0.013 C 
ATOM      9  C4' I4B d   1       2.582   2.170  -0.271  0.00  0.00     0.013 C 
ATOM     10  C3' I4B d   1       0.869   3.225   1.178  0.00  0.00     0.013 C 
ENDBRANCH   7   8
ENDBRANCH   1   7
TORSDOF 2
ENDMDL
