MODEL 1
REMARK minimizedAffinity -5.09905338
REMARK minimizedRMSD -1
REMARK  2 active torsions:
REMARK  status: ('A' for Active; 'I' for Inactive)
REMARK    1  A    between atoms: C2'_3  and  C1'_4 
REMARK    2  A    between atoms: C1'_4  and  C1_5 
ROOT
ATOM      1  C1  I4B d   1       0.220  -1.107   0.722  0.00  0.00    -0.075 A 
ATOM      2  C2  I4B d   1      -0.987  -0.727   1.252  0.00  0.00     0.003 A 
ATOM      3  C3  I4B d   1      -2.054  -1.655   1.332  0.00  0.00     0.002 A 
ATOM      4  C4  I4B d   1      -1.887  -2.928   0.827  0.00  0.00    -0.004 A 
ATOM      5  C5  I4B d   1      -0.655  -3.318   0.311  0.00  0.00     0.002 A 
ATOM      6  C6  I4B d   1       0.410  -2.406   0.269  0.00  0.00     0.003 A 
ENDROOT
BRANCH   1   7
ATOM      7  C1' I4B d   1       1.315  -0.092   0.623  0.00  0.00     0.060 C 
BRANCH   7   8
ATOM      8  C2' I4B d   1       0.778   1.101  -0.141  0.00  0.00    -0.013 C 
ATOM      9  C4' I4B d   1       1.690   2.292  -0.003  0.00  0.00     0.013 C 
ATOM     10  C3' I4B d   1       0.624   0.700  -1.577  0.00  0.00     0.013 C 
ENDBRANCH   7   8
ENDBRANCH   1   7
TORSDOF 2
ENDMDL
