MODEL 1
REMARK minimizedAffinity -0.545639813
REMARK minimizedRMSD -1
REMARK  0 active torsions:
REMARK  status: ('A' for Active; 'I' for Inactive)
ROOT
ATOM      1  C1  BNZ d   1      -3.775   3.524  -3.321  0.00  0.00     0.000 A 
ATOM      2  C2  BNZ d   1      -3.785   4.886  -3.175  0.00  0.00     0.000 A 
ATOM      3  C3  BNZ d   1      -4.905   5.613  -3.471  0.00  0.00     0.000 A 
ATOM      4  C4  BNZ d   1      -5.997   4.983  -3.949  0.00  0.00     0.000 A 
ATOM      5  C5  BNZ d   1      -5.999   3.612  -4.110  0.00  0.00     0.000 A 
ATOM      6  C6  BNZ d   1      -4.884   2.879  -3.774  0.00  0.00     0.000 A 
ENDROOT
TORSDOF 0
ENDMDL
