MODEL 1
REMARK minimizedAffinity -0.565141559
REMARK minimizedRMSD -1
REMARK  0 active torsions:
REMARK  status: ('A' for Active; 'I' for Inactive)
ROOT
ATOM      1  C1  BNZ d   1      -0.428  -0.261  -1.476  0.00  0.00     0.000 A 
ATOM      2  C2  BNZ d   1      -0.099   0.786  -0.657  0.00  0.00     0.000 A 
ATOM      3  C3  BNZ d   1      -0.623   2.031  -0.867  0.00  0.00     0.000 A 
ATOM      4  C4  BNZ d   1      -1.443   2.236  -1.919  0.00  0.00     0.000 A 
ATOM      5  C5  BNZ d   1      -1.776   1.192  -2.759  0.00  0.00     0.000 A 
ATOM      6  C6  BNZ d   1      -1.278  -0.068  -2.521  0.00  0.00     0.000 A 
ENDROOT
TORSDOF 0
ENDMDL
