MODEL 1
REMARK minimizedAffinity 2.62494659
REMARK minimizedRMSD -1
REMARK  0 active torsions:
REMARK  status: ('A' for Active; 'I' for Inactive)
ROOT
ATOM      1  C1  BNZ d   1      -0.749   5.058   0.394  0.00  0.00     0.000 A 
ATOM      2  C2  BNZ d   1      -1.561   5.999  -0.180  0.00  0.00     0.000 A 
ATOM      3  C3  BNZ d   1      -1.789   6.000  -1.527  0.00  0.00     0.000 A 
ATOM      4  C4  BNZ d   1      -1.174   5.085  -2.304  0.00  0.00     0.000 A 
ATOM      5  C5  BNZ d   1      -0.345   4.134  -1.742  0.00  0.00     0.000 A 
ATOM      6  C6  BNZ d   1      -0.149   4.113  -0.380  0.00  0.00     0.000 A 
ENDROOT
TORSDOF 0
ENDMDL
