MODEL 1
REMARK minimizedAffinity -1.82283568
REMARK minimizedRMSD -1
REMARK  0 active torsions:
REMARK  status: ('A' for Active; 'I' for Inactive)
ROOT
ATOM      1  C1  BNZ d   1      -0.738   4.811  -0.819  0.00  0.00     0.000 A 
ATOM      2  C2  BNZ d   1      -1.927   4.667  -1.482  0.00  0.00     0.000 A 
ATOM      3  C3  BNZ d   1      -2.368   3.432  -1.869  0.00  0.00     0.000 A 
ATOM      4  C4  BNZ d   1      -1.601   2.349  -1.628  0.00  0.00     0.000 A 
ATOM      5  C5  BNZ d   1      -0.395   2.479  -0.969  0.00  0.00     0.000 A 
ATOM      6  C6  BNZ d   1       0.027   3.719  -0.547  0.00  0.00     0.000 A 
ENDROOT
TORSDOF 0
ENDMDL
