MODEL 1
REMARK minimizedAffinity -2.53334522
REMARK minimizedRMSD -1
REMARK  0 active torsions:
REMARK  status: ('A' for Active; 'I' for Inactive)
ROOT
ATOM      1  C1  BNZ d   1       1.016   4.082  -0.728  0.00  0.00     0.000 A 
ATOM      2  C2  BNZ d   1       0.535   4.837  -1.764  0.00  0.00     0.000 A 
ATOM      3  C3  BNZ d   1      -0.715   5.386  -1.709  0.00  0.00     0.000 A 
ATOM      4  C4  BNZ d   1      -1.498   5.146  -0.638  0.00  0.00     0.000 A 
ATOM      5  C5  BNZ d   1      -1.032   4.379   0.411  0.00  0.00     0.000 A 
ATOM      6  C6  BNZ d   1       0.242   3.860   0.370  0.00  0.00     0.000 A 
ENDROOT
TORSDOF 0
ENDMDL
