MODEL 1
REMARK minimizedAffinity 2.12899351
REMARK minimizedRMSD -1
REMARK  0 active torsions:
REMARK  status: ('A' for Active; 'I' for Inactive)
ROOT
ATOM      1  C1  BNZ d   1       0.779   5.153  -2.541  0.00  0.00     0.000 A 
ATOM      2  C2  BNZ d   1       1.011   4.619  -1.302  0.00  0.00     0.000 A 
ATOM      3  C3  BNZ d   1      -0.027   4.239  -0.498  0.00  0.00     0.000 A 
ATOM      4  C4  BNZ d   1      -1.295   4.431  -0.918  0.00  0.00     0.000 A 
ATOM      5  C5  BNZ d   1      -1.545   4.977  -2.161  0.00  0.00     0.000 A 
ATOM      6  C6  BNZ d   1      -0.497   5.322  -2.983  0.00  0.00     0.000 A 
ENDROOT
TORSDOF 0
ENDMDL
