MODEL 1
REMARK minimizedAffinity 1.17151093
REMARK minimizedRMSD -1
REMARK  0 active torsions:
REMARK  status: ('A' for Active; 'I' for Inactive)
ROOT
ATOM      1  C1  BNZ d   1       0.065   2.671   0.671  0.00  0.00     0.000 A 
ATOM      2  C2  BNZ d   1       0.205   2.271   1.973  0.00  0.00     0.000 A 
ATOM      3  C3  BNZ d   1       1.348   2.546   2.671  0.00  0.00     0.000 A 
ATOM      4  C4  BNZ d   1       2.364   3.184   2.054  0.00  0.00     0.000 A 
ATOM      5  C5  BNZ d   1       2.242   3.584   0.739  0.00  0.00     0.000 A 
ATOM      6  C6  BNZ d   1       1.075   3.340   0.052  0.00  0.00     0.000 A 
ENDROOT
TORSDOF 0
ENDMDL
