MODEL 1
REMARK minimizedAffinity 7.2859683
REMARK minimizedRMSD -1
REMARK  0 active torsions:
REMARK  status: ('A' for Active; 'I' for Inactive)
ROOT
ATOM      1  C1  BNZ d   1       0.127   3.369   0.525  0.00  0.00     0.000 A 
ATOM      2  C2  BNZ d   1       0.125   2.642   1.685  0.00  0.00     0.000 A 
ATOM      3  C3  BNZ d   1       0.855   3.048   2.767  0.00  0.00     0.000 A 
ATOM      4  C4  BNZ d   1       1.616   4.157   2.675  0.00  0.00     0.000 A 
ATOM      5  C5  BNZ d   1       1.636   4.896   1.509  0.00  0.00     0.000 A 
ATOM      6  C6  BNZ d   1       0.870   4.506   0.435  0.00  0.00     0.000 A 
ENDROOT
TORSDOF 0
ENDMDL
