MODEL 1
REMARK minimizedAffinity 1.30045223
REMARK minimizedRMSD -1
REMARK  0 active torsions:
REMARK  status: ('A' for Active; 'I' for Inactive)
ROOT
ATOM      1  C1  BNZ d   1      -1.118   1.268   3.248  0.00  0.00     0.000 A 
ATOM      2  C2  BNZ d   1      -1.287   2.235   2.293  0.00  0.00     0.000 A 
ATOM      3  C3  BNZ d   1      -0.208   2.849   1.720  0.00  0.00     0.000 A 
ATOM      4  C4  BNZ d   1       1.035   2.524   2.131  0.00  0.00     0.000 A 
ATOM      5  C5  BNZ d   1       1.221   1.558   3.100  0.00  0.00     0.000 A 
ATOM      6  C6  BNZ d   1       0.134   0.915   3.646  0.00  0.00     0.000 A 
ENDROOT
TORSDOF 0
ENDMDL
