MODEL 1
REMARK minimizedAffinity 0.458803058
REMARK minimizedRMSD -1
REMARK  0 active torsions:
REMARK  status: ('A' for Active; 'I' for Inactive)
ROOT
ATOM      1  C1  BNZ d   1      -5.992  -1.372   4.653  0.00  0.00     0.000 A 
ATOM      2  C2  BNZ d   1      -5.987  -0.582   3.534  0.00  0.00     0.000 A 
ATOM      3  C3  BNZ d   1      -5.957   0.780   3.639  0.00  0.00     0.000 A 
ATOM      4  C4  BNZ d   1      -5.973   1.351   4.860  0.00  0.00     0.000 A 
ATOM      5  C5  BNZ d   1      -5.987   0.569   5.998  0.00  0.00     0.000 A 
ATOM      6  C6  BNZ d   1      -5.978  -0.802   5.889  0.00  0.00     0.000 A 
ENDROOT
TORSDOF 0
ENDMDL
