MODEL 1
REMARK minimizedAffinity 0.55465883
REMARK minimizedRMSD -1
REMARK  0 active torsions:
REMARK  status: ('A' for Active; 'I' for Inactive)
ROOT
ATOM      1  C1  BNZ d   1      -1.030   5.103  -1.836  0.00  0.00     0.000 A 
ATOM      2  C2  BNZ d   1      -0.675   3.781  -1.886  0.00  0.00     0.000 A 
ATOM      3  C3  BNZ d   1      -0.206   3.139  -0.774  0.00  0.00     0.000 A 
ATOM      4  C4  BNZ d   1      -0.055   3.829   0.375  0.00  0.00     0.000 A 
ATOM      5  C5  BNZ d   1      -0.399   5.164   0.439  0.00  0.00     0.000 A 
ATOM      6  C6  BNZ d   1      -0.908   5.797  -0.672  0.00  0.00     0.000 A 
ENDROOT
TORSDOF 0
ENDMDL
