MODEL 1
REMARK minimizedAffinity 4.7362318
REMARK minimizedRMSD -1
REMARK  1 active torsions:
REMARK  status: ('A' for Active; 'I' for Inactive)
REMARK    1  A    between atoms: C3_4  and  O_7 
ROOT
ATOM      1  C   UNL d   1      -2.693   5.984  -1.844  0.00  0.00    -0.033 A 
ATOM      2  C1  UNL d   1      -1.384   5.986  -1.357  0.00  0.00     0.039 A 
ATOM      3  C2  UNL d   1      -0.307   5.992  -2.245  0.00  0.00    -0.080 A 
ATOM      4  C3  UNL d   1      -0.552   5.998  -3.616  0.00  0.00     0.150 A 
ATOM      5  C4  UNL d   1      -1.853   6.000  -4.107  0.00  0.00    -0.007 A 
ATOM      6  C5  UNL d   1      -2.927   5.992  -3.219  0.00  0.00     0.039 A 
ENDROOT
BRANCH   4   7
ATOM      7  O   UNL d   1       0.467   5.999  -4.521  0.00  0.00    -0.526 OA
ATOM      8  H5  UNL d   1       1.309   5.968  -4.037  0.00  0.00     0.418 HD
ENDBRANCH   4   7
TORSDOF 1
ENDMDL
