MODEL 1
REMARK minimizedAffinity 2.04606652
REMARK minimizedRMSD -1
REMARK  1 active torsions:
REMARK  status: ('A' for Active; 'I' for Inactive)
REMARK    1  A    between atoms: C3_4  and  O_7 
ROOT
ATOM      1  C   UNL d   1       0.852  -0.207  -0.455  0.00  0.00    -0.033 A 
ATOM      2  C1  UNL d   1       1.391   0.531  -1.510  0.00  0.00     0.039 A 
ATOM      3  C2  UNL d   1       1.571   1.909  -1.380  0.00  0.00    -0.080 A 
ATOM      4  C3  UNL d   1       1.210   2.536  -0.191  0.00  0.00     0.150 A 
ATOM      5  C4  UNL d   1       0.677   1.807   0.866  0.00  0.00    -0.007 A 
ATOM      6  C5  UNL d   1       0.496   0.431   0.734  0.00  0.00     0.039 A 
ENDROOT
BRANCH   4   7
ATOM      7  O   UNL d   1       1.363   3.880  -0.019  0.00  0.00    -0.526 OA
ATOM      8  H5  UNL d   1       1.716   4.258  -0.842  0.00  0.00     0.418 HD
ENDBRANCH   4   7
TORSDOF 1
ENDMDL
