MODEL 1
REMARK minimizedAffinity -0.827639759
REMARK minimizedRMSD -1
REMARK  1 active torsions:
REMARK  status: ('A' for Active; 'I' for Inactive)
REMARK    1  A    between atoms: C3_4  and  O_7 
ROOT
ATOM      1  C   UNL d   1      -0.117   5.961  -4.507  0.00  0.00    -0.033 A 
ATOM      2  C1  UNL d   1       0.405   5.962  -5.802  0.00  0.00     0.039 A 
ATOM      3  C2  UNL d   1       1.787   5.973  -6.000  0.00  0.00    -0.080 A 
ATOM      4  C3  UNL d   1       2.635   5.982  -4.896  0.00  0.00     0.150 A 
ATOM      5  C4  UNL d   1       2.123   5.977  -3.603  0.00  0.00    -0.007 A 
ATOM      6  C5  UNL d   1       0.742   5.967  -3.407  0.00  0.00     0.039 A 
ENDROOT
BRANCH   4   7
ATOM      7  O   UNL d   1       3.991   5.998  -5.039  0.00  0.00    -0.526 OA
ATOM      8  H5  UNL d   1       4.199   6.029  -5.988  0.00  0.00     0.418 HD
ENDBRANCH   4   7
TORSDOF 1
ENDMDL
