MODEL 1
REMARK minimizedAffinity -3.64796448
REMARK minimizedRMSD -1
REMARK  1 active torsions:
REMARK  status: ('A' for Active; 'I' for Inactive)
REMARK    1  A    between atoms: C3_4  and  O_7 
ROOT
ATOM      1  C   UNL d   1      -0.276   6.000  -4.251  0.00  0.00    -0.033 A 
ATOM      2  C1  UNL d   1      -1.100   5.985  -5.378  0.00  0.00     0.039 A 
ATOM      3  C2  UNL d   1      -2.487   5.927  -5.231  0.00  0.00    -0.080 A 
ATOM      4  C3  UNL d   1      -3.037   5.886  -3.953  0.00  0.00     0.150 A 
ATOM      5  C4  UNL d   1      -2.223   5.904  -2.825  0.00  0.00    -0.007 A 
ATOM      6  C5  UNL d   1      -0.838   5.961  -2.974  0.00  0.00     0.039 A 
ENDROOT
BRANCH   4   7
ATOM      7  O   UNL d   1      -4.385   5.824  -3.759  0.00  0.00    -0.526 OA
ATOM      8  H5  UNL d   1      -4.820   5.789  -4.627  0.00  0.00     0.418 HD
ENDBRANCH   4   7
TORSDOF 1
ENDMDL
