MODEL 1
REMARK minimizedAffinity -1.51549792
REMARK minimizedRMSD -1
REMARK  1 active torsions:
REMARK  status: ('A' for Active; 'I' for Inactive)
REMARK    1  A    between atoms: C3_4  and  O_7 
ROOT
ATOM      1  C   UNL d   1       1.350   6.000  -4.251  0.00  0.00    -0.033 A 
ATOM      2  C1  UNL d   1       1.018   5.992  -5.608  0.00  0.00     0.039 A 
ATOM      3  C2  UNL d   1      -0.322   5.980  -6.000  0.00  0.00    -0.080 A 
ATOM      4  C3  UNL d   1      -1.318   5.977  -5.028  0.00  0.00     0.150 A 
ATOM      5  C4  UNL d   1      -0.995   5.989  -3.675  0.00  0.00    -0.007 A 
ATOM      6  C5  UNL d   1       0.344   6.000  -3.285  0.00  0.00     0.039 A 
ENDROOT
BRANCH   4   7
ATOM      7  O   UNL d   1      -2.640   5.961  -5.362  0.00  0.00    -0.526 OA
ATOM      8  H5  UNL d   1      -2.712   5.925  -6.331  0.00  0.00     0.418 HD
ENDBRANCH   4   7
TORSDOF 1
ENDMDL
