MODEL 1
REMARK minimizedAffinity -1.98225009
REMARK minimizedRMSD -1
REMARK  1 active torsions:
REMARK  status: ('A' for Active; 'I' for Inactive)
REMARK    1  A    between atoms: C3_4  and  O_7 
ROOT
ATOM      1  C   UNL d   1       1.023   5.266  -4.869  0.00  0.00    -0.033 A 
ATOM      2  C1  UNL d   1       0.762   5.999  -3.709  0.00  0.00     0.039 A 
ATOM      3  C2  UNL d   1      -0.519   6.000  -3.155  0.00  0.00    -0.080 A 
ATOM      4  C3  UNL d   1      -1.529   5.264  -3.768  0.00  0.00     0.150 A 
ATOM      5  C4  UNL d   1      -1.276   4.529  -4.921  0.00  0.00    -0.007 A 
ATOM      6  C5  UNL d   1       0.004   4.530  -5.474  0.00  0.00     0.039 A 
ENDROOT
BRANCH   4   7
ATOM      7  O   UNL d   1      -2.797   5.238  -3.266  0.00  0.00    -0.526 OA
ATOM      8  H5  UNL d   1      -2.830   5.815  -2.485  0.00  0.00     0.418 HD
ENDBRANCH   4   7
TORSDOF 1
ENDMDL
