MODEL 1
REMARK minimizedAffinity 0.718854487
REMARK minimizedRMSD -1
REMARK  1 active torsions:
REMARK  status: ('A' for Active; 'I' for Inactive)
REMARK    1  A    between atoms: C3_4  and  O_7 
ROOT
ATOM      1  C   UNL d   1       6.000   5.021  -4.922  0.00  0.00    -0.033 A 
ATOM      2  C1  UNL d   1       5.346   5.974  -5.705  0.00  0.00     0.039 A 
ATOM      3  C2  UNL d   1       3.951   5.999  -5.758  0.00  0.00    -0.080 A 
ATOM      4  C3  UNL d   1       3.223   5.067  -5.023  0.00  0.00     0.150 A 
ATOM      5  C4  UNL d   1       3.868   4.117  -4.238  0.00  0.00    -0.007 A 
ATOM      6  C5  UNL d   1       5.261   4.093  -4.187  0.00  0.00     0.039 A 
ENDROOT
BRANCH   4   7
ATOM      7  O   UNL d   1       1.860   5.049  -5.046  0.00  0.00    -0.526 OA
ATOM      8  H5  UNL d   1       1.553   5.743  -5.653  0.00  0.00     0.418 HD
ENDBRANCH   4   7
TORSDOF 1
ENDMDL
