MODEL 1
REMARK minimizedAffinity 0.227552295
REMARK minimizedRMSD -1
REMARK  1 active torsions:
REMARK  status: ('A' for Active; 'I' for Inactive)
REMARK    1  A    between atoms: C3_4  and  O_7 
ROOT
ATOM      1  C   UNL d   1       1.656   2.334  -0.580  0.00  0.00    -0.033 A 
ATOM      2  C1  UNL d   1       1.517   2.085   0.787  0.00  0.00     0.039 A 
ATOM      3  C2  UNL d   1       1.004   0.864   1.228  0.00  0.00    -0.080 A 
ATOM      4  C3  UNL d   1       0.636  -0.100   0.293  0.00  0.00     0.150 A 
ATOM      5  C4  UNL d   1       0.775   0.139  -1.070  0.00  0.00    -0.007 A 
ATOM      6  C5  UNL d   1       1.286   1.360  -1.509  0.00  0.00     0.039 A 
ENDROOT
BRANCH   4   7
ATOM      7  O   UNL d   1       0.126  -1.305   0.675  0.00  0.00    -0.526 OA
ATOM      8  H5  UNL d   1       0.061  -1.318   1.645  0.00  0.00     0.418 HD
ENDBRANCH   4   7
TORSDOF 1
ENDMDL
