MODEL 1
REMARK minimizedAffinity 0.57005769
REMARK minimizedRMSD -1
REMARK  1 active torsions:
REMARK  status: ('A' for Active; 'I' for Inactive)
REMARK    1  A    between atoms: C3_4  and  O_7 
ROOT
ATOM      1  C   UNL d   1      -2.903   5.961  -2.189  0.00  0.00    -0.033 A 
ATOM      2  C1  UNL d   1      -1.511   5.985  -2.295  0.00  0.00     0.039 A 
ATOM      3  C2  UNL d   1      -0.905   5.998  -3.553  0.00  0.00    -0.080 A 
ATOM      4  C3  UNL d   1      -1.701   5.987  -4.695  0.00  0.00     0.150 A 
ATOM      5  C4  UNL d   1      -3.088   5.966  -4.597  0.00  0.00    -0.007 A 
ATOM      6  C5  UNL d   1      -3.692   5.953  -3.340  0.00  0.00     0.039 A 
ENDROOT
BRANCH   4   7
ATOM      7  O   UNL d   1      -1.155   5.995  -5.944  0.00  0.00    -0.526 OA
ATOM      8  H5  UNL d   1      -0.187   5.980  -5.857  0.00  0.00     0.418 HD
ENDBRANCH   4   7
TORSDOF 1
ENDMDL
