MODEL 1
REMARK minimizedAffinity 3.55324078
REMARK minimizedRMSD -1
REMARK  1 active torsions:
REMARK  status: ('A' for Active; 'I' for Inactive)
REMARK    1  A    between atoms: C3_4  and  O_7 
ROOT
ATOM      1  C   UNL d   1       1.289   1.818  -0.617  0.00  0.00    -0.033 A 
ATOM      2  C1  UNL d   1       0.831   0.558  -0.227  0.00  0.00     0.039 A 
ATOM      3  C2  UNL d   1       0.340   0.360   1.065  0.00  0.00    -0.080 A 
ATOM      4  C3  UNL d   1       0.310   1.429   1.956  0.00  0.00     0.150 A 
ATOM      5  C4  UNL d   1       0.761   2.688   1.573  0.00  0.00    -0.007 A 
ATOM      6  C5  UNL d   1       1.252   2.884   0.283  0.00  0.00     0.039 A 
ENDROOT
BRANCH   4   7
ATOM      7  O   UNL d   1      -0.156   1.284   3.228  0.00  0.00    -0.526 OA
ATOM      8  H5  UNL d   1      -0.406   0.354   3.360  0.00  0.00     0.418 HD
ENDBRANCH   4   7
TORSDOF 1
ENDMDL
