MODEL 1
REMARK minimizedAffinity -2.37571955
REMARK minimizedRMSD -1
REMARK  1 active torsions:
REMARK  status: ('A' for Active; 'I' for Inactive)
REMARK    1  A    between atoms: C3_4  and  O_7 
ROOT
ATOM      1  C   UNL d   1       0.352   5.993  -3.145  0.00  0.00    -0.033 A 
ATOM      2  C1  UNL d   1       0.038   5.995  -4.505  0.00  0.00     0.039 A 
ATOM      3  C2  UNL d   1      -1.296   5.996  -4.916  0.00  0.00    -0.080 A 
ATOM      4  C3  UNL d   1      -2.306   5.997  -3.958  0.00  0.00     0.150 A 
ATOM      5  C4  UNL d   1      -2.001   6.000  -2.601  0.00  0.00    -0.007 A 
ATOM      6  C5  UNL d   1      -0.668   5.997  -2.192  0.00  0.00     0.039 A 
ENDROOT
BRANCH   4   7
ATOM      7  O   UNL d   1      -3.623   5.993  -4.311  0.00  0.00    -0.526 OA
ATOM      8  H5  UNL d   1      -3.682   5.963  -5.280  0.00  0.00     0.418 HD
ENDBRANCH   4   7
TORSDOF 1
ENDMDL
