MODEL 1
REMARK minimizedAffinity -2.78707504
REMARK minimizedRMSD -1
REMARK  1 active torsions:
REMARK  status: ('A' for Active; 'I' for Inactive)
REMARK    1  A    between atoms: C3_4  and  O_7 
ROOT
ATOM      1  C   UNL d   1      -1.887   5.978  -3.965  0.00  0.00    -0.033 A 
ATOM      2  C1  UNL d   1      -1.414   5.970  -2.652  0.00  0.00     0.039 A 
ATOM      3  C2  UNL d   1      -2.313   5.977  -1.584  0.00  0.00    -0.080 A 
ATOM      4  C3  UNL d   1      -3.681   5.989  -1.842  0.00  0.00     0.150 A 
ATOM      5  C4  UNL d   1      -4.160   5.992  -3.148  0.00  0.00    -0.007 A 
ATOM      6  C5  UNL d   1      -3.260   5.987  -4.214  0.00  0.00     0.039 A 
ENDROOT
BRANCH   4   7
ATOM      7  O   UNL d   1      -4.597   6.000  -0.833  0.00  0.00    -0.526 OA
ATOM      8  H5  UNL d   1      -4.121   6.025   0.014  0.00  0.00     0.418 HD
ENDBRANCH   4   7
TORSDOF 1
ENDMDL
