MODEL 1
REMARK minimizedAffinity 2.25080681
REMARK minimizedRMSD -1
REMARK  1 active torsions:
REMARK  status: ('A' for Active; 'I' for Inactive)
REMARK    1  A    between atoms: C3_4  and  O_7 
ROOT
ATOM      1  C   UNL d   1       1.908   2.068  -0.522  0.00  0.00    -0.033 A 
ATOM      2  C1  UNL d   1       1.756   0.751  -0.085  0.00  0.00     0.039 A 
ATOM      3  C2  UNL d   1       0.988   0.473   1.048  0.00  0.00    -0.080 A 
ATOM      4  C3  UNL d   1       0.377   1.520   1.732  0.00  0.00     0.150 A 
ATOM      5  C4  UNL d   1       0.521   2.835   1.300  0.00  0.00    -0.007 A 
ATOM      6  C5  UNL d   1       1.289   3.110   0.169  0.00  0.00     0.039 A 
ENDROOT
BRANCH   4   7
ATOM      7  O   UNL d   1      -0.378   1.299   2.846  0.00  0.00    -0.526 OA
ATOM      8  H5  UNL d   1      -0.364   0.348   3.043  0.00  0.00     0.418 HD
ENDBRANCH   4   7
TORSDOF 1
ENDMDL
