MODEL 1
REMARK minimizedAffinity -2.66245556
REMARK minimizedRMSD -1
REMARK  1 active torsions:
REMARK  status: ('A' for Active; 'I' for Inactive)
REMARK    1  A    between atoms: C3_4  and  O_7 
ROOT
ATOM      1  C   UNL d   1       0.908   0.177  -0.460  0.00  0.00    -0.033 A 
ATOM      2  C1  UNL d   1       1.561   1.246  -1.076  0.00  0.00     0.039 A 
ATOM      3  C2  UNL d   1       1.658   2.476  -0.423  0.00  0.00    -0.080 A 
ATOM      4  C3  UNL d   1       1.100   2.624   0.843  0.00  0.00     0.150 A 
ATOM      5  C4  UNL d   1       0.451   1.562   1.465  0.00  0.00    -0.007 A 
ATOM      6  C5  UNL d   1       0.354   0.334   0.811  0.00  0.00     0.039 A 
ENDROOT
BRANCH   4   7
ATOM      7  O   UNL d   1       1.165   3.807   1.518  0.00  0.00    -0.526 OA
ATOM      8  H5  UNL d   1       1.616   4.458   0.954  0.00  0.00     0.418 HD
ENDBRANCH   4   7
TORSDOF 1
ENDMDL
