MODEL 1
REMARK minimizedAffinity -2.76634288
REMARK minimizedRMSD -1
REMARK  1 active torsions:
REMARK  status: ('A' for Active; 'I' for Inactive)
REMARK    1  A    between atoms: C3_4  and  O_7 
ROOT
ATOM      1  C   UNL d   1      -2.504   5.816  -1.739  0.00  0.00    -0.033 A 
ATOM      2  C1  UNL d   1      -3.398   5.999  -2.796  0.00  0.00     0.039 A 
ATOM      3  C2  UNL d   1      -2.935   5.999  -4.113  0.00  0.00    -0.080 A 
ATOM      4  C3  UNL d   1      -1.577   5.814  -4.359  0.00  0.00     0.150 A 
ATOM      5  C4  UNL d   1      -0.682   5.627  -3.312  0.00  0.00    -0.007 A 
ATOM      6  C5  UNL d   1      -1.146   5.629  -1.997  0.00  0.00     0.039 A 
ENDROOT
BRANCH   4   7
ATOM      7  O   UNL d   1      -1.077   5.811  -5.628  0.00  0.00    -0.526 OA
ATOM      8  H5  UNL d   1      -1.807   5.980  -6.247  0.00  0.00     0.418 HD
ENDBRANCH   4   7
TORSDOF 1
ENDMDL
