MODEL 1
REMARK minimizedAffinity -1.89920354
REMARK minimizedRMSD -1
REMARK  1 active torsions:
REMARK  status: ('A' for Active; 'I' for Inactive)
REMARK    1  A    between atoms: C3_4  and  O_7 
ROOT
ATOM      1  C   UNL d   1       0.930   1.403  -0.206  0.00  0.00    -0.033 A 
ATOM      2  C1  UNL d   1       0.934   2.598   0.515  0.00  0.00     0.039 A 
ATOM      3  C2  UNL d   1       0.433   2.631   1.818  0.00  0.00    -0.080 A 
ATOM      4  C3  UNL d   1      -0.067   1.463   2.387  0.00  0.00     0.150 A 
ATOM      5  C4  UNL d   1      -0.070   0.268   1.676  0.00  0.00    -0.007 A 
ATOM      6  C5  UNL d   1       0.429   0.237   0.375  0.00  0.00     0.039 A 
ENDROOT
BRANCH   4   7
ATOM      7  O   UNL d   1      -0.571   1.447   3.654  0.00  0.00    -0.526 OA
ATOM      8  H5  UNL d   1      -0.530   2.349   4.013  0.00  0.00     0.418 HD
ENDBRANCH   4   7
TORSDOF 1
ENDMDL
