MODEL 1
REMARK minimizedAffinity 2.26322508
REMARK minimizedRMSD -1
REMARK  1 active torsions:
REMARK  status: ('A' for Active; 'I' for Inactive)
REMARK    1  A    between atoms: C3_4  and  O_7 
ROOT
ATOM      1  C   UNL d   1       1.275   2.696  -0.377  0.00  0.00    -0.033 A 
ATOM      2  C1  UNL d   1       1.136   2.466   0.993  0.00  0.00     0.039 A 
ATOM      3  C2  UNL d   1       0.730   1.213   1.455  0.00  0.00    -0.080 A 
ATOM      4  C3  UNL d   1       0.466   0.199   0.538  0.00  0.00     0.150 A 
ATOM      5  C4  UNL d   1       0.606   0.420  -0.828  0.00  0.00    -0.007 A 
ATOM      6  C5  UNL d   1       1.012   1.672  -1.287  0.00  0.00     0.039 A 
ENDROOT
BRANCH   4   7
ATOM      7  O   UNL d   1       0.062  -1.039   0.941  0.00  0.00    -0.526 OA
ATOM      8  H5  UNL d   1      -0.018  -1.036   1.909  0.00  0.00     0.418 HD
ENDBRANCH   4   7
TORSDOF 1
ENDMDL
