MODEL 1
REMARK minimizedAffinity 6.15106106
REMARK minimizedRMSD -1
REMARK  1 active torsions:
REMARK  status: ('A' for Active; 'I' for Inactive)
REMARK    1  A    between atoms: C3_4  and  O_7 
ROOT
ATOM      1  C   UNL d   1       1.636   2.666  -1.178  0.00  0.00    -0.033 A 
ATOM      2  C1  UNL d   1       1.710   3.163   0.125  0.00  0.00     0.039 A 
ATOM      3  C2  UNL d   1       1.239   2.398   1.194  0.00  0.00    -0.080 A 
ATOM      4  C3  UNL d   1       0.698   1.139   0.947  0.00  0.00     0.150 A 
ATOM      5  C4  UNL d   1       0.625   0.636  -0.348  0.00  0.00    -0.007 A 
ATOM      6  C5  UNL d   1       1.095   1.402  -1.414  0.00  0.00     0.039 A 
ENDROOT
BRANCH   4   7
ATOM      7  O   UNL d   1       0.221   0.358   1.957  0.00  0.00    -0.526 OA
ATOM      8  H5  UNL d   1       0.310   0.846   2.792  0.00  0.00     0.418 HD
ENDBRANCH   4   7
TORSDOF 1
ENDMDL
