MODEL 1
REMARK minimizedAffinity 1.12305975
REMARK minimizedRMSD -1
REMARK  1 active torsions:
REMARK  status: ('A' for Active; 'I' for Inactive)
REMARK    1  A    between atoms: C3_4  and  O_7 
ROOT
ATOM      1  C   UNL d   1      -1.142   5.997  -3.914  0.00  0.00    -0.033 A 
ATOM      2  C1  UNL d   1      -2.403   5.999  -4.513  0.00  0.00     0.039 A 
ATOM      3  C2  UNL d   1      -3.554   5.999  -3.723  0.00  0.00    -0.080 A 
ATOM      4  C3  UNL d   1      -3.430   5.998  -2.336  0.00  0.00     0.150 A 
ATOM      5  C4  UNL d   1      -2.178   6.000  -1.732  0.00  0.00    -0.007 A 
ATOM      6  C5  UNL d   1      -1.029   5.999  -2.523  0.00  0.00     0.039 A 
ENDROOT
BRANCH   4   7
ATOM      7  O   UNL d   1      -4.525   5.993  -1.524  0.00  0.00    -0.526 OA
ATOM      8  H5  UNL d   1      -5.321   5.964  -2.080  0.00  0.00     0.418 HD
ENDBRANCH   4   7
TORSDOF 1
ENDMDL
