MODEL 1
REMARK minimizedAffinity 14.4310789
REMARK minimizedRMSD -1
REMARK  1 active torsions:
REMARK  status: ('A' for Active; 'I' for Inactive)
REMARK    1  A    between atoms: C1_2  and  C2_3 
ROOT
ATOM      1  C2  UNL d   1      -1.520  -4.680   4.171  0.00  0.00    -0.077 A 
ATOM      2  C3  UNL d   1      -1.218  -3.458   3.554  0.00  0.00     0.002 A 
ATOM      3  C4  UNL d   1      -1.586  -2.253   4.156  0.00  0.00     0.002 A 
ATOM      4  C5  UNL d   1      -2.253  -2.258   5.379  0.00  0.00    -0.004 A 
ATOM      5  C6  UNL d   1      -2.560  -3.468   6.000  0.00  0.00     0.002 A 
ATOM      6  C7  UNL d   1      -2.194  -4.674   5.399  0.00  0.00     0.002 A 
ENDROOT
BRANCH   1   7
ATOM      7  C1  UNL d   1      -1.081  -5.979   3.548  0.00  0.00     0.055 C 
ATOM      8  C   UNL d   1       0.422  -5.999   3.311  0.00  0.00     0.019 C 
ENDBRANCH   1   7
TORSDOF 1
ENDMDL
