MODEL 1
REMARK minimizedAffinity 21.5884113
REMARK minimizedRMSD -1
REMARK  1 active torsions:
REMARK  status: ('A' for Active; 'I' for Inactive)
REMARK    1  A    between atoms: C1_2  and  C2_3 
ROOT
ATOM      1  C2  UNL d   1       3.513   2.801  -0.799  0.00  0.00    -0.077 A 
ATOM      2  C3  UNL d   1       3.699   2.733   0.589  0.00  0.00     0.002 A 
ATOM      3  C4  UNL d   1       4.481   3.686   1.244  0.00  0.00     0.002 A 
ATOM      4  C5  UNL d   1       5.079   4.716   0.521  0.00  0.00    -0.004 A 
ATOM      5  C6  UNL d   1       4.902   4.791  -0.860  0.00  0.00     0.002 A 
ATOM      6  C7  UNL d   1       4.122   3.839  -1.517  0.00  0.00     0.002 A 
ENDROOT
BRANCH   1   7
ATOM      7  C1  UNL d   1       2.630   1.803  -1.501  0.00  0.00     0.055 C 
ATOM      8  C   UNL d   1       2.912   0.385  -1.027  0.00  0.00     0.019 C 
ENDBRANCH   1   7
TORSDOF 1
ENDMDL
