MODEL 1
REMARK minimizedAffinity 11.3726711
REMARK minimizedRMSD -1
REMARK  1 active torsions:
REMARK  status: ('A' for Active; 'I' for Inactive)
REMARK    1  A    between atoms: C1_2  and  C2_3 
ROOT
ATOM      1  C2  UNL d   1       3.894   3.399   5.835  0.00  0.00    -0.077 A 
ATOM      2  C3  UNL d   1       3.100   4.547   5.706  0.00  0.00     0.002 A 
ATOM      3  C4  UNL d   1       3.685   5.815   5.709  0.00  0.00     0.002 A 
ATOM      4  C5  UNL d   1       5.066   5.946   5.836  0.00  0.00    -0.004 A 
ATOM      5  C6  UNL d   1       5.864   4.811   5.967  0.00  0.00     0.002 A 
ATOM      6  C7  UNL d   1       5.281   3.543   5.965  0.00  0.00     0.002 A 
ENDROOT
BRANCH   1   7
ATOM      7  C1  UNL d   1       3.271   2.029   5.782  0.00  0.00     0.055 C 
ATOM      8  C   UNL d   1       3.704   1.271   4.536  0.00  0.00     0.019 C 
ENDBRANCH   1   7
TORSDOF 1
ENDMDL
