MODEL 1
REMARK minimizedAffinity 8.94267368
REMARK minimizedRMSD -1
REMARK  1 active torsions:
REMARK  status: ('A' for Active; 'I' for Inactive)
REMARK    1  A    between atoms: C1_2  and  C2_3 
ROOT
ATOM      1  C2  UNL d   1       5.264   3.606   5.209  0.00  0.00    -0.077 A 
ATOM      2  C3  UNL d   1       5.984   4.809   5.218  0.00  0.00     0.002 A 
ATOM      3  C4  UNL d   1       5.367   5.999   5.607  0.00  0.00     0.002 A 
ATOM      4  C5  UNL d   1       4.028   5.997   5.994  0.00  0.00    -0.004 A 
ATOM      5  C6  UNL d   1       3.303   4.807   5.987  0.00  0.00     0.002 A 
ATOM      6  C7  UNL d   1       3.918   3.616   5.597  0.00  0.00     0.002 A 
ENDROOT
BRANCH   1   7
ATOM      7  C1  UNL d   1       5.942   2.313   4.837  0.00  0.00     0.055 C 
ATOM      8  C   UNL d   1       5.650   1.931   3.394  0.00  0.00     0.019 C 
ENDBRANCH   1   7
TORSDOF 1
ENDMDL
