MODEL 1
REMARK minimizedAffinity 7.04485893
REMARK minimizedRMSD -1
REMARK  1 active torsions:
REMARK  status: ('A' for Active; 'I' for Inactive)
REMARK    1  A    between atoms: C1_2  and  C2_3 
ROOT
ATOM      1  C2  UNL d   1       3.683   3.312   5.915  0.00  0.00    -0.077 A 
ATOM      2  C3  UNL d   1       5.056   3.040   5.834  0.00  0.00     0.002 A 
ATOM      3  C4  UNL d   1       5.984   4.083   5.832  0.00  0.00     0.002 A 
ATOM      4  C5  UNL d   1       5.549   5.404   5.914  0.00  0.00    -0.004 A 
ATOM      5  C6  UNL d   1       4.186   5.685   5.993  0.00  0.00     0.002 A 
ATOM      6  C7  UNL d   1       3.257   4.644   5.994  0.00  0.00     0.002 A 
ENDROOT
BRANCH   1   7
ATOM      7  C1  UNL d   1       2.684   2.186   5.967  0.00  0.00     0.055 C 
ATOM      8  C   UNL d   1       3.377   0.831   5.999  0.00  0.00     0.019 C 
ENDBRANCH   1   7
TORSDOF 1
ENDMDL
