MODEL 1
REMARK minimizedAffinity 5.84889078
REMARK minimizedRMSD -1
REMARK  1 active torsions:
REMARK  status: ('A' for Active; 'I' for Inactive)
REMARK    1  A    between atoms: C1_2  and  C2_3 
ROOT
ATOM      1  C2  UNL d   1       3.482   5.206   5.939  0.00  0.00    -0.077 A 
ATOM      2  C3  UNL d   1       3.453   3.804   5.930  0.00  0.00     0.002 A 
ATOM      3  C4  UNL d   1       4.643   3.073   5.945  0.00  0.00     0.002 A 
ATOM      4  C5  UNL d   1       5.868   3.735   5.975  0.00  0.00    -0.004 A 
ATOM      5  C6  UNL d   1       5.907   5.129   5.982  0.00  0.00     0.002 A 
ATOM      6  C7  UNL d   1       4.719   5.861   5.965  0.00  0.00     0.002 A 
ENDROOT
BRANCH   1   7
ATOM      7  C1  UNL d   1       2.199   5.995   5.972  0.00  0.00     0.055 C 
ATOM      8  C   UNL d   1       1.517   5.999   4.612  0.00  0.00     0.019 C 
ENDBRANCH   1   7
TORSDOF 1
ENDMDL
