MODEL 1
REMARK minimizedAffinity 19.3954201
REMARK minimizedRMSD -1
REMARK  1 active torsions:
REMARK  status: ('A' for Active; 'I' for Inactive)
REMARK    1  A    between atoms: C1_2  and  C2_3 
ROOT
ATOM      1  C2  UNL d   1      -0.596  -3.838   0.412  0.00  0.00    -0.077 A 
ATOM      2  C3  UNL d   1      -0.621  -2.443   0.555  0.00  0.00     0.002 A 
ATOM      3  C4  UNL d   1      -0.889  -1.626  -0.544  0.00  0.00     0.002 A 
ATOM      4  C5  UNL d   1      -1.139  -2.193  -1.792  0.00  0.00    -0.004 A 
ATOM      5  C6  UNL d   1      -1.114  -3.578  -1.945  0.00  0.00     0.002 A 
ATOM      6  C7  UNL d   1      -0.845  -4.397  -0.847  0.00  0.00     0.002 A 
ENDROOT
BRANCH   1   7
ATOM      7  C1  UNL d   1      -0.355  -4.723   1.607  0.00  0.00     0.055 C 
ATOM      8  C   UNL d   1      -1.181  -5.999   1.526  0.00  0.00     0.019 C 
ENDBRANCH   1   7
TORSDOF 1
ENDMDL
