MODEL 1
REMARK minimizedAffinity 7.93251419
REMARK minimizedRMSD -1
REMARK  1 active torsions:
REMARK  status: ('A' for Active; 'I' for Inactive)
REMARK    1  A    between atoms: C1_2  and  C2_3 
ROOT
ATOM      1  C2  UNL d   1      -1.954  -1.990  -0.479  0.00  0.00    -0.077 A 
ATOM      2  C3  UNL d   1      -2.151  -1.136   0.614  0.00  0.00     0.002 A 
ATOM      3  C4  UNL d   1      -1.693  -1.495   1.883  0.00  0.00     0.002 A 
ATOM      4  C5  UNL d   1      -1.031  -2.707   2.069  0.00  0.00    -0.004 A 
ATOM      5  C6  UNL d   1      -0.832  -3.565   0.988  0.00  0.00     0.002 A 
ATOM      6  C7  UNL d   1      -1.290  -3.208  -0.280  0.00  0.00     0.002 A 
ENDROOT
BRANCH   1   7
ATOM      7  C1  UNL d   1      -2.404  -1.582  -1.858  0.00  0.00     0.055 C 
ATOM      8  C   UNL d   1      -1.859  -2.526  -2.920  0.00  0.00     0.019 C 
ENDBRANCH   1   7
TORSDOF 1
ENDMDL
