MODEL 1
REMARK minimizedAffinity 11.3773031
REMARK minimizedRMSD -1
REMARK  1 active torsions:
REMARK  status: ('A' for Active; 'I' for Inactive)
REMARK    1  A    between atoms: C1_2  and  C2_3 
ROOT
ATOM      1  C2  UNL d   1       5.043   3.715   4.152  0.00  0.00    -0.077 A 
ATOM      2  C3  UNL d   1       3.881   3.770   4.934  0.00  0.00     0.002 A 
ATOM      3  C4  UNL d   1       3.677   4.827   5.823  0.00  0.00     0.002 A 
ATOM      4  C5  UNL d   1       4.629   5.838   5.935  0.00  0.00    -0.004 A 
ATOM      5  C6  UNL d   1       5.789   5.791   5.163  0.00  0.00     0.002 A 
ATOM      6  C7  UNL d   1       5.995   4.735   4.275  0.00  0.00     0.002 A 
ENDROOT
BRANCH   1   7
ATOM      7  C1  UNL d   1       5.242   2.601   3.157  0.00  0.00     0.055 C 
ATOM      8  C   UNL d   1       4.882   3.048   1.748  0.00  0.00     0.019 C 
ENDBRANCH   1   7
TORSDOF 1
ENDMDL
