MODEL 1
REMARK minimizedAffinity 6.20466518
REMARK minimizedRMSD -1
REMARK  1 active torsions:
REMARK  status: ('A' for Active; 'I' for Inactive)
REMARK    1  A    between atoms: C1_2  and  C2_3 
ROOT
ATOM      1  C2  UNL d   1       5.286   3.690   4.505  0.00  0.00    -0.077 A 
ATOM      2  C3  UNL d   1       5.794   4.997   4.524  0.00  0.00     0.002 A 
ATOM      3  C4  UNL d   1       5.156   5.992   5.267  0.00  0.00     0.002 A 
ATOM      4  C5  UNL d   1       4.010   5.690   6.000  0.00  0.00    -0.004 A 
ATOM      5  C6  UNL d   1       3.496   4.394   5.986  0.00  0.00     0.002 A 
ATOM      6  C7  UNL d   1       4.131   3.398   5.243  0.00  0.00     0.002 A 
ENDROOT
BRANCH   1   7
ATOM      7  C1  UNL d   1       6.000   2.604   3.744  0.00  0.00     0.055 C 
ATOM      8  C   UNL d   1       5.531   2.543   2.297  0.00  0.00     0.019 C 
ENDBRANCH   1   7
TORSDOF 1
ENDMDL
