MODEL 1
REMARK minimizedAffinity 14.9331474
REMARK minimizedRMSD -1
REMARK  1 active torsions:
REMARK  status: ('A' for Active; 'I' for Inactive)
REMARK    1  A    between atoms: C1_2  and  C2_3 
ROOT
ATOM      1  C2  UNL d   1       3.894   0.971  -1.783  0.00  0.00    -0.077 A 
ATOM      2  C3  UNL d   1       3.776  -0.410  -1.574  0.00  0.00     0.002 A 
ATOM      3  C4  UNL d   1       4.701  -1.292  -2.136  0.00  0.00     0.002 A 
ATOM      4  C5  UNL d   1       5.753  -0.802  -2.907  0.00  0.00    -0.004 A 
ATOM      5  C6  UNL d   1       5.878   0.570  -3.123  0.00  0.00     0.002 A 
ATOM      6  C7  UNL d   1       4.954   1.453  -2.563  0.00  0.00     0.002 A 
ENDROOT
BRANCH   1   7
ATOM      7  C1  UNL d   1       2.926   1.927  -1.137  0.00  0.00     0.055 C 
ATOM      8  C   UNL d   1       3.656   3.036  -0.393  0.00  0.00     0.019 C 
ENDBRANCH   1   7
TORSDOF 1
ENDMDL
