MODEL 1
REMARK minimizedAffinity 8.46352959
REMARK minimizedRMSD -1
REMARK  1 active torsions:
REMARK  status: ('A' for Active; 'I' for Inactive)
REMARK    1  A    between atoms: C1_2  and  C2_3 
ROOT
ATOM      1  C2  UNL d   1       4.971   3.410   4.296  0.00  0.00    -0.077 A 
ATOM      2  C3  UNL d   1       5.999   4.267   4.713  0.00  0.00     0.002 A 
ATOM      3  C4  UNL d   1       5.722   5.342   5.560  0.00  0.00     0.002 A 
ATOM      4  C5  UNL d   1       4.419   5.568   5.999  0.00  0.00    -0.004 A 
ATOM      5  C6  UNL d   1       3.390   4.723   5.588  0.00  0.00     0.002 A 
ATOM      6  C7  UNL d   1       3.664   3.648   4.740  0.00  0.00     0.002 A 
ENDROOT
BRANCH   1   7
ATOM      7  C1  UNL d   1       5.275   2.221   3.422  0.00  0.00     0.055 C 
ATOM      8  C   UNL d   1       5.021   2.533   1.954  0.00  0.00     0.019 C 
ENDBRANCH   1   7
TORSDOF 1
ENDMDL
