MODEL 1
REMARK minimizedAffinity -5.31016207
REMARK minimizedRMSD -1
REMARK  0 active torsions:
REMARK  status: ('A' for Active; 'I' for Inactive)
ROOT
ATOM      1  C   UNL d   1       6.000   5.967  -1.868  0.00  0.00     0.077 C 
ATOM      2  C1  UNL d   1       5.037   5.370  -2.851  0.00  0.00    -0.074 A 
ATOM      3  C2  UNL d   1       3.714   5.817  -2.923  0.00  0.00    -0.005 A 
ATOM      4  C3  UNL d   1       2.832   5.258  -3.849  0.00  0.00     0.006 A 
ATOM      5  C4  UNL d   1       3.264   4.249  -4.710  0.00  0.00    -0.005 A 
ATOM      6  C5  UNL d   1       4.584   3.790  -4.653  0.00  0.00    -0.074 A 
ATOM      7  C6  UNL d   1       5.067   2.713  -5.579  0.00  0.00     0.077 C 
ATOM      8  C7  UNL d   1       5.466   4.361  -3.725  0.00  0.00    -0.001 A 
ENDROOT
TORSDOF 0
ENDMDL
