MODEL 1
REMARK minimizedAffinity -3.72483921
REMARK minimizedRMSD -1
REMARK  0 active torsions:
REMARK  status: ('A' for Active; 'I' for Inactive)
ROOT
ATOM      1  C   UNL d   1       3.709   5.234  -2.441  0.00  0.00     0.077 C 
ATOM      2  C1  UNL d   1       4.505   4.976  -3.685  0.00  0.00    -0.074 A 
ATOM      3  C2  UNL d   1       5.235   6.000  -4.298  0.00  0.00    -0.005 A 
ATOM      4  C3  UNL d   1       5.978   5.742  -5.449  0.00  0.00     0.006 A 
ATOM      5  C4  UNL d   1       6.000   4.460  -6.000  0.00  0.00    -0.005 A 
ATOM      6  C5  UNL d   1       5.277   3.423  -5.401  0.00  0.00    -0.074 A 
ATOM      7  C6  UNL d   1       5.297   2.037  -5.974  0.00  0.00     0.077 C 
ATOM      8  C7  UNL d   1       4.538   3.689  -4.240  0.00  0.00    -0.001 A 
ENDROOT
TORSDOF 0
ENDMDL
