MODEL 1
REMARK minimizedAffinity 0.194370642
REMARK minimizedRMSD -1
REMARK  0 active torsions:
REMARK  status: ('A' for Active; 'I' for Inactive)
ROOT
ATOM      1  C   UNL d   1      -0.438  -2.770  -2.266  0.00  0.00     0.077 C 
ATOM      2  C1  UNL d   1       0.435  -1.617  -1.872  0.00  0.00    -0.074 A 
ATOM      3  C2  UNL d   1      -0.109  -0.349  -1.639  0.00  0.00    -0.005 A 
ATOM      4  C3  UNL d   1       0.715   0.712  -1.264  0.00  0.00     0.006 A 
ATOM      5  C4  UNL d   1       2.089   0.517  -1.118  0.00  0.00    -0.005 A 
ATOM      6  C5  UNL d   1       2.651  -0.743  -1.345  0.00  0.00    -0.074 A 
ATOM      7  C6  UNL d   1       4.124  -0.972  -1.182  0.00  0.00     0.077 C 
ATOM      8  C7  UNL d   1       1.815  -1.806  -1.715  0.00  0.00    -0.001 A 
ENDROOT
TORSDOF 0
ENDMDL
