MODEL 1
REMARK minimizedAffinity 1.89951873
REMARK minimizedRMSD -1
REMARK  0 active torsions:
REMARK  status: ('A' for Active; 'I' for Inactive)
ROOT
ATOM      1  C   UNL d   1       2.781  -2.951  -4.818  0.00  0.00     0.077 C 
ATOM      2  C1  UNL d   1       3.903  -3.231  -3.863  0.00  0.00    -0.074 A 
ATOM      3  C2  UNL d   1       4.959  -4.075  -4.222  0.00  0.00    -0.005 A 
ATOM      4  C3  UNL d   1       6.000  -4.319  -3.327  0.00  0.00     0.006 A 
ATOM      5  C4  UNL d   1       5.996  -3.722  -2.065  0.00  0.00    -0.005 A 
ATOM      6  C5  UNL d   1       4.949  -2.875  -1.689  0.00  0.00    -0.074 A 
ATOM      7  C6  UNL d   1       4.935  -2.218  -0.340  0.00  0.00     0.077 C 
ATOM      8  C7  UNL d   1       3.910  -2.630  -2.597  0.00  0.00    -0.001 A 
ENDROOT
TORSDOF 0
ENDMDL
