MODEL 1
REMARK minimizedAffinity 6.02010584
REMARK minimizedRMSD -1
REMARK  0 active torsions:
REMARK  status: ('A' for Active; 'I' for Inactive)
ROOT
ATOM      1  C   UNL d   1       6.000   6.000  -1.411  0.00  0.00     0.077 C 
ATOM      2  C1  UNL d   1       5.313   4.921  -2.195  0.00  0.00    -0.074 A 
ATOM      3  C2  UNL d   1       5.997   3.762  -2.575  0.00  0.00    -0.005 A 
ATOM      4  C3  UNL d   1       5.342   2.763  -3.295  0.00  0.00     0.006 A 
ATOM      5  C4  UNL d   1       3.998   2.913  -3.642  0.00  0.00    -0.005 A 
ATOM      6  C5  UNL d   1       3.298   4.064  -3.269  0.00  0.00    -0.074 A 
ATOM      7  C6  UNL d   1       1.851   4.237  -3.625  0.00  0.00     0.077 C 
ATOM      8  C7  UNL d   1       3.961   5.061  -2.540  0.00  0.00    -0.001 A 
ENDROOT
TORSDOF 0
ENDMDL
