MODEL 1
REMARK minimizedAffinity 0.393796414
REMARK minimizedRMSD -1
REMARK  0 active torsions:
REMARK  status: ('A' for Active; 'I' for Inactive)
ROOT
ATOM      1  C   UNL d   1       6.000  -3.754  -0.889  0.00  0.00     0.077 C 
ATOM      2  C1  UNL d   1       5.236  -3.430  -2.138  0.00  0.00    -0.074 A 
ATOM      3  C2  UNL d   1       5.769  -3.710  -3.400  0.00  0.00    -0.005 A 
ATOM      4  C3  UNL d   1       5.042  -3.411  -4.552  0.00  0.00     0.006 A 
ATOM      5  C4  UNL d   1       3.777  -2.830  -4.455  0.00  0.00    -0.005 A 
ATOM      6  C5  UNL d   1       3.227  -2.544  -3.201  0.00  0.00    -0.074 A 
ATOM      7  C6  UNL d   1       1.865  -1.929  -3.078  0.00  0.00     0.077 C 
ATOM      8  C7  UNL d   1       3.961  -2.854  -2.048  0.00  0.00    -0.001 A 
ENDROOT
TORSDOF 0
ENDMDL
