MODEL 1
REMARK minimizedAffinity 7.36764002
REMARK minimizedRMSD -1
REMARK  0 active torsions:
REMARK  status: ('A' for Active; 'I' for Inactive)
ROOT
ATOM      1  C   UNL d   1       2.316  -4.181  -4.527  0.00  0.00     0.077 C 
ATOM      2  C1  UNL d   1       1.044  -3.589  -3.997  0.00  0.00    -0.074 A 
ATOM      3  C2  UNL d   1      -0.129  -3.607  -4.757  0.00  0.00    -0.005 A 
ATOM      4  C3  UNL d   1      -1.307  -3.060  -4.247  0.00  0.00     0.006 A 
ATOM      5  C4  UNL d   1      -1.323  -2.491  -2.974  0.00  0.00    -0.005 A 
ATOM      6  C5  UNL d   1      -0.159  -2.464  -2.198  0.00  0.00    -0.074 A 
ATOM      7  C6  UNL d   1      -0.162  -1.864  -0.823  0.00  0.00     0.077 C 
ATOM      8  C7  UNL d   1       1.018  -3.022  -2.715  0.00  0.00    -0.001 A 
ENDROOT
TORSDOF 0
ENDMDL
