MODEL 1
REMARK minimizedAffinity 7.13389683
REMARK minimizedRMSD -1
REMARK  0 active torsions:
REMARK  status: ('A' for Active; 'I' for Inactive)
ROOT
ATOM      1  C   UNL d   1      -0.248  -2.285  -1.926  0.00  0.00     0.077 C 
ATOM      2  C1  UNL d   1       0.022  -2.940  -3.248  0.00  0.00    -0.074 A 
ATOM      3  C2  UNL d   1      -1.026  -3.281  -4.109  0.00  0.00    -0.005 A 
ATOM      4  C3  UNL d   1      -0.758  -3.882  -5.339  0.00  0.00     0.006 A 
ATOM      5  C4  UNL d   1       0.558  -4.146  -5.721  0.00  0.00    -0.005 A 
ATOM      6  C5  UNL d   1       1.619  -3.810  -4.873  0.00  0.00    -0.074 A 
ATOM      7  C6  UNL d   1       3.040  -4.078  -5.272  0.00  0.00     0.077 C 
ATOM      8  C7  UNL d   1       1.342  -3.201  -3.642  0.00  0.00    -0.001 A 
ENDROOT
TORSDOF 0
ENDMDL
