MODEL 1
REMARK minimizedAffinity 4.184062
REMARK minimizedRMSD -1
REMARK  0 active torsions:
REMARK  status: ('A' for Active; 'I' for Inactive)
ROOT
ATOM      1  C   UNL d   1       1.689  -2.628  -3.762  0.00  0.00     0.077 C 
ATOM      2  C1  UNL d   1       3.189  -2.647  -3.755  0.00  0.00    -0.074 A 
ATOM      3  C2  UNL d   1       3.915  -2.543  -4.945  0.00  0.00    -0.005 A 
ATOM      4  C3  UNL d   1       5.309  -2.552  -4.922  0.00  0.00     0.006 A 
ATOM      5  C4  UNL d   1       5.991  -2.665  -3.710  0.00  0.00    -0.005 A 
ATOM      6  C5  UNL d   1       5.282  -2.769  -2.509  0.00  0.00    -0.074 A 
ATOM      7  C6  UNL d   1       5.999  -2.881  -1.196  0.00  0.00     0.077 C 
ATOM      8  C7  UNL d   1       3.881  -2.752  -2.540  0.00  0.00    -0.001 A 
ENDROOT
TORSDOF 0
ENDMDL
