MODEL 1
REMARK minimizedAffinity -1.9732585
REMARK minimizedRMSD -1
REMARK  0 active torsions:
REMARK  status: ('A' for Active; 'I' for Inactive)
ROOT
ATOM      1  C   UNL d   1       4.873   3.047  -5.834  0.00  0.00     0.077 C 
ATOM      2  C1  UNL d   1       4.429   3.810  -4.621  0.00  0.00    -0.074 A 
ATOM      3  C2  UNL d   1       3.089   3.806  -4.220  0.00  0.00    -0.005 A 
ATOM      4  C3  UNL d   1       2.693   4.513  -3.085  0.00  0.00     0.006 A 
ATOM      5  C4  UNL d   1       3.630   5.229  -2.340  0.00  0.00    -0.005 A 
ATOM      6  C5  UNL d   1       4.975   5.243  -2.725  0.00  0.00    -0.074 A 
ATOM      7  C6  UNL d   1       5.997   6.000  -1.930  0.00  0.00     0.077 C 
ATOM      8  C7  UNL d   1       5.366   4.525  -3.863  0.00  0.00    -0.001 A 
ENDROOT
TORSDOF 0
ENDMDL
