MODEL 1
REMARK minimizedAffinity 3.19988894
REMARK minimizedRMSD -1
REMARK  0 active torsions:
REMARK  status: ('A' for Active; 'I' for Inactive)
ROOT
ATOM      1  C   UNL d   1       6.000  -4.135  -1.865  0.00  0.00     0.077 C 
ATOM      2  C1  UNL d   1       5.308  -3.179  -2.790  0.00  0.00    -0.074 A 
ATOM      3  C2  UNL d   1       5.949  -2.019  -3.236  0.00  0.00    -0.005 A 
ATOM      4  C3  UNL d   1       5.296  -1.143  -4.104  0.00  0.00     0.006 A 
ATOM      5  C4  UNL d   1       3.998  -1.419  -4.535  0.00  0.00    -0.005 A 
ATOM      6  C5  UNL d   1       3.341  -2.575  -4.100  0.00  0.00    -0.074 A 
ATOM      7  C6  UNL d   1       1.949  -2.892  -4.561  0.00  0.00     0.077 C 
ATOM      8  C7  UNL d   1       4.006  -3.453  -3.234  0.00  0.00    -0.001 A 
ENDROOT
TORSDOF 0
ENDMDL
