MODEL 1
REMARK minimizedAffinity 8.33615685
REMARK minimizedRMSD -1
REMARK  0 active torsions:
REMARK  status: ('A' for Active; 'I' for Inactive)
ROOT
ATOM      1  C   UNL d   1       2.406   1.517  -5.232  0.00  0.00     0.077 C 
ATOM      2  C1  UNL d   1       3.605   0.720  -4.814  0.00  0.00    -0.074 A 
ATOM      3  C2  UNL d   1       4.890   1.269  -4.874  0.00  0.00    -0.005 A 
ATOM      4  C3  UNL d   1       5.995   0.519  -4.473  0.00  0.00     0.006 A 
ATOM      5  C4  UNL d   1       5.827  -0.786  -4.008  0.00  0.00    -0.005 A 
ATOM      6  C5  UNL d   1       4.550  -1.351  -3.939  0.00  0.00    -0.074 A 
ATOM      7  C6  UNL d   1       4.351  -2.749  -3.433  0.00  0.00     0.077 C 
ATOM      8  C7  UNL d   1       3.444  -0.589  -4.338  0.00  0.00    -0.001 A 
ENDROOT
TORSDOF 0
ENDMDL
