MODEL 1
REMARK minimizedAffinity 14.7391109
REMARK minimizedRMSD -1
REMARK  0 active torsions:
REMARK  status: ('A' for Active; 'I' for Inactive)
ROOT
ATOM      1  C   UNL d   1       3.052  -1.604   2.126  0.00  0.00     0.077 C 
ATOM      2  C1  UNL d   1       3.485  -2.089   3.478  0.00  0.00    -0.074 A 
ATOM      3  C2  UNL d   1       2.882  -1.605   4.643  0.00  0.00    -0.005 A 
ATOM      4  C3  UNL d   1       3.289  -2.074   5.892  0.00  0.00     0.006 A 
ATOM      5  C4  UNL d   1       4.302  -3.029   5.989  0.00  0.00    -0.005 A 
ATOM      6  C5  UNL d   1       4.916  -3.525   4.834  0.00  0.00    -0.074 A 
ATOM      7  C6  UNL d   1       5.999  -4.559   4.920  0.00  0.00     0.077 C 
ATOM      8  C7  UNL d   1       4.496  -3.055   3.582  0.00  0.00    -0.001 A 
ENDROOT
TORSDOF 0
ENDMDL
