MODEL 1
REMARK minimizedAffinity 0.630405188
REMARK minimizedRMSD -1
REMARK  0 active torsions:
REMARK  status: ('A' for Active; 'I' for Inactive)
ROOT
ATOM      1  C   UNL d   1       5.519   5.172  -0.976  0.00  0.00     0.077 C 
ATOM      2  C1  UNL d   1       5.652   4.936  -2.451  0.00  0.00    -0.074 A 
ATOM      3  C2  UNL d   1       5.868   6.000  -3.333  0.00  0.00    -0.005 A 
ATOM      4  C3  UNL d   1       6.000   5.763  -4.701  0.00  0.00     0.006 A 
ATOM      5  C4  UNL d   1       5.917   4.463  -5.201  0.00  0.00    -0.005 A 
ATOM      6  C5  UNL d   1       5.703   3.387  -4.334  0.00  0.00    -0.074 A 
ATOM      7  C6  UNL d   1       5.621   1.982  -4.854  0.00  0.00     0.077 C 
ATOM      8  C7  UNL d   1       5.579   3.632  -2.960  0.00  0.00    -0.001 A 
ENDROOT
TORSDOF 0
ENDMDL
