MODEL 1
REMARK minimizedAffinity 5.91019821
REMARK minimizedRMSD -1
REMARK  0 active torsions:
REMARK  status: ('A' for Active; 'I' for Inactive)
ROOT
ATOM      1  C   UNL d   1       1.337   3.984   0.502  0.00  0.00     0.077 C 
ATOM      2  C1  UNL d   1       2.182   4.460  -0.642  0.00  0.00    -0.074 A 
ATOM      3  C2  UNL d   1       1.644   4.592  -1.926  0.00  0.00    -0.005 A 
ATOM      4  C3  UNL d   1       2.440   5.045  -2.979  0.00  0.00     0.006 A 
ATOM      5  C4  UNL d   1       3.779   5.371  -2.758  0.00  0.00    -0.005 A 
ATOM      6  C5  UNL d   1       4.333   5.246  -1.480  0.00  0.00    -0.074 A 
ATOM      7  C6  UNL d   1       5.768   5.601  -1.224  0.00  0.00     0.077 C 
ATOM      8  C7  UNL d   1       3.526   4.797  -0.427  0.00  0.00    -0.001 A 
ENDROOT
TORSDOF 0
ENDMDL
