MODEL 1
REMARK minimizedAffinity 8.92268467
REMARK minimizedRMSD -1
REMARK  0 active torsions:
REMARK  status: ('A' for Active; 'I' for Inactive)
ROOT
ATOM      1  C   UNL d   1      -4.745  -3.257   1.744  0.00  0.00     0.077 C 
ATOM      2  C1  UNL d   1      -3.694  -2.926   0.727  0.00  0.00    -0.074 A 
ATOM      3  C2  UNL d   1      -2.369  -2.694   1.112  0.00  0.00    -0.005 A 
ATOM      4  C3  UNL d   1      -1.401  -2.396   0.153  0.00  0.00     0.006 A 
ATOM      5  C4  UNL d   1      -1.746  -2.327  -1.197  0.00  0.00    -0.005 A 
ATOM      6  C5  UNL d   1      -3.065  -2.556  -1.600  0.00  0.00    -0.074 A 
ATOM      7  C6  UNL d   1      -3.451  -2.495  -3.048  0.00  0.00     0.077 C 
ATOM      8  C7  UNL d   1      -4.031  -2.862  -0.632  0.00  0.00    -0.001 A 
ENDROOT
TORSDOF 0
ENDMDL
