MODEL 1
REMARK minimizedAffinity 6.07242489
REMARK minimizedRMSD -1
REMARK  0 active torsions:
REMARK  status: ('A' for Active; 'I' for Inactive)
ROOT
ATOM      1  C   UNL d   1       1.950   2.165  -4.440  0.00  0.00     0.077 C 
ATOM      2  C1  UNL d   1       2.492   3.504  -4.037  0.00  0.00    -0.074 A 
ATOM      3  C2  UNL d   1       1.922   4.686  -4.522  0.00  0.00    -0.005 A 
ATOM      4  C3  UNL d   1       2.431   5.924  -4.131  0.00  0.00     0.006 A 
ATOM      5  C4  UNL d   1       3.513   5.994  -3.253  0.00  0.00    -0.005 A 
ATOM      6  C5  UNL d   1       4.096   4.823  -2.758  0.00  0.00    -0.074 A 
ATOM      7  C6  UNL d   1       5.253   4.880  -1.805  0.00  0.00     0.077 C 
ATOM      8  C7  UNL d   1       3.574   3.583  -3.150  0.00  0.00    -0.001 A 
ENDROOT
TORSDOF 0
ENDMDL
