MODEL 1
REMARK minimizedAffinity 14.0395136
REMARK minimizedRMSD -1
REMARK  0 active torsions:
REMARK  status: ('A' for Active; 'I' for Inactive)
ROOT
ATOM      1  C   UNL d   1      -1.117  -2.234   2.410  0.00  0.00     0.077 C 
ATOM      2  C1  UNL d   1      -1.631  -1.593   3.665  0.00  0.00    -0.074 A 
ATOM      3  C2  UNL d   1      -1.794  -2.336   4.838  0.00  0.00    -0.005 A 
ATOM      4  C3  UNL d   1      -2.264  -1.724   5.999  0.00  0.00     0.006 A 
ATOM      5  C4  UNL d   1      -2.576  -0.364   6.000  0.00  0.00    -0.005 A 
ATOM      6  C5  UNL d   1      -2.420   0.396   4.836  0.00  0.00    -0.074 A 
ATOM      7  C6  UNL d   1      -2.741   1.861   4.822  0.00  0.00     0.077 C 
ATOM      8  C7  UNL d   1      -1.940  -0.225   3.675  0.00  0.00    -0.001 A 
ENDROOT
TORSDOF 0
ENDMDL
