MODEL 1
REMARK minimizedAffinity -1.91585541
REMARK minimizedRMSD -1
REMARK  0 active torsions:
REMARK  status: ('A' for Active; 'I' for Inactive)
ROOT
ATOM      1  C   UNL d   1       0.548  -0.457   0.064  0.00  0.00     0.124 A 
ATOM      2  C1  UNL d   1       0.660  -0.162   1.415  0.00  0.00     0.062 A 
ATOM      3  C2  UNL d   1       0.062   0.983   1.934  0.00  0.00     0.162 A 
ATOM      4  C3  UNL d   1      -0.654   1.842   1.101  0.00  0.00    -0.034 A 
ATOM      5  C4  UNL d   1      -0.761   1.540  -0.258  0.00  0.00     0.162 A 
ATOM      6  C5  UNL d   1      -0.163   0.394  -0.771  0.00  0.00     0.062 A 
ATOM      7  F   UNL d   1      -0.272   0.111  -2.078  0.00  0.00    -0.097 F 
ATOM      8  F1  UNL d   1      -1.443   2.344  -1.087  0.00  0.00    -0.096 F 
ATOM      9  I   UNL d   1      -1.549   3.555   1.873  0.00  0.00    -0.060 I 
ATOM     10  F2  UNL d   1       0.187   1.242   3.244  0.00  0.00    -0.096 F 
ATOM     11  F3  UNL d   1       1.346  -0.983   2.224  0.00  0.00    -0.097 F 
ATOM     12  F4  UNL d   1       1.124  -1.559  -0.433  0.00  0.00    -0.092 F 
ENDROOT
TORSDOF 0
ENDMDL
