MODEL 1
REMARK minimizedAffinity -1.58618653
REMARK minimizedRMSD -1
REMARK  0 active torsions:
REMARK  status: ('A' for Active; 'I' for Inactive)
ROOT
ATOM      1  C   UNL d   1      -0.675   2.304   1.466  0.00  0.00     0.124 A 
ATOM      2  C1  UNL d   1       0.165   1.376   2.066  0.00  0.00     0.062 A 
ATOM      3  C2  UNL d   1       0.261   0.085   1.554  0.00  0.00     0.162 A 
ATOM      4  C3  UNL d   1      -0.484  -0.285   0.435  0.00  0.00    -0.034 A 
ATOM      5  C4  UNL d   1      -1.328   0.654  -0.163  0.00  0.00     0.162 A 
ATOM      6  C5  UNL d   1      -1.420   1.942   0.353  0.00  0.00     0.062 A 
ATOM      7  F   UNL d   1      -2.232   2.838  -0.228  0.00  0.00    -0.097 F 
ATOM      8  F1  UNL d   1      -2.058   0.331  -1.240  0.00  0.00    -0.096 F 
ATOM      9  I   UNL d   1      -0.344  -2.214  -0.334  0.00  0.00    -0.060 I 
ATOM     10  F2  UNL d   1       1.080  -0.791   2.154  0.00  0.00    -0.096 F 
ATOM     11  F3  UNL d   1       0.885   1.723   3.142  0.00  0.00    -0.097 F 
ATOM     12  F4  UNL d   1      -0.766   3.545   1.962  0.00  0.00    -0.092 F 
ENDROOT
TORSDOF 0
ENDMDL
