MODEL 1
REMARK minimizedAffinity -3.13617945
REMARK minimizedRMSD -1
REMARK  0 active torsions:
REMARK  status: ('A' for Active; 'I' for Inactive)
ROOT
ATOM      1  C   UNL d   1      -1.338   2.926  -0.789  0.00  0.00     0.124 A 
ATOM      2  C1  UNL d   1      -0.739   1.901  -1.508  0.00  0.00     0.062 A 
ATOM      3  C2  UNL d   1      -0.110   0.853  -0.843  0.00  0.00     0.162 A 
ATOM      4  C3  UNL d   1      -0.077   0.824   0.551  0.00  0.00    -0.034 A 
ATOM      5  C4  UNL d   1      -0.681   1.858   1.269  0.00  0.00     0.162 A 
ATOM      6  C5  UNL d   1      -1.308   2.903   0.599  0.00  0.00     0.062 A 
ATOM      7  F   UNL d   1      -1.886   3.892   1.296  0.00  0.00    -0.097 F 
ATOM      8  F1  UNL d   1      -0.668   1.861   2.610  0.00  0.00    -0.096 F 
ATOM      9  I   UNL d   1       0.863  -0.742   1.550  0.00  0.00    -0.060 I 
ATOM     10  F2  UNL d   1       0.460  -0.124  -1.564  0.00  0.00    -0.096 F 
ATOM     11  F3  UNL d   1      -0.766   1.921  -2.849  0.00  0.00    -0.097 F 
ATOM     12  F4  UNL d   1      -1.942   3.933  -1.431  0.00  0.00    -0.092 F 
ENDROOT
TORSDOF 0
ENDMDL
