MODEL 1
REMARK minimizedAffinity 1.86543846
REMARK minimizedRMSD -1
REMARK  0 active torsions:
REMARK  status: ('A' for Active; 'I' for Inactive)
ROOT
ATOM      1  C   UNL d   1       0.171   1.418   0.443  0.00  0.00     0.124 A 
ATOM      2  C1  UNL d   1       0.987   0.326   0.182  0.00  0.00     0.062 A 
ATOM      3  C2  UNL d   1       1.412  -0.495   1.224  0.00  0.00     0.162 A 
ATOM      4  C3  UNL d   1       1.021  -0.226   2.535  0.00  0.00    -0.034 A 
ATOM      5  C4  UNL d   1       0.201   0.875   2.789  0.00  0.00     0.162 A 
ATOM      6  C5  UNL d   1      -0.221   1.692   1.745  0.00  0.00     0.062 A 
ATOM      7  F   UNL d   1      -1.009   2.747   1.999  0.00  0.00    -0.097 F 
ATOM      8  F1  UNL d   1      -0.194   1.162   4.039  0.00  0.00    -0.096 F 
ATOM      9  I   UNL d   1       1.654  -1.450   4.095  0.00  0.00    -0.060 I 
ATOM     10  F2  UNL d   1       2.200  -1.543   0.943  0.00  0.00    -0.096 F 
ATOM     11  F3  UNL d   1       1.368   0.060  -1.075  0.00  0.00    -0.097 F 
ATOM     12  F4  UNL d   1      -0.235   2.206  -0.561  0.00  0.00    -0.092 F 
ENDROOT
TORSDOF 0
ENDMDL
