MODEL 1
REMARK minimizedAffinity 12.1432781
REMARK minimizedRMSD -1
REMARK  0 active torsions:
REMARK  status: ('A' for Active; 'I' for Inactive)
ROOT
ATOM      1  C   UNL d   1      -1.888   1.314  -0.797  0.00  0.00     0.124 A 
ATOM      2  C1  UNL d   1      -2.729   0.231  -0.583  0.00  0.00     0.062 A 
ATOM      3  C2  UNL d   1      -2.463  -0.993  -1.190  0.00  0.00     0.162 A 
ATOM      4  C3  UNL d   1      -1.349  -1.141  -2.017  0.00  0.00    -0.034 A 
ATOM      5  C4  UNL d   1      -0.507  -0.047  -2.227  0.00  0.00     0.162 A 
ATOM      6  C5  UNL d   1      -0.778   1.174  -1.618  0.00  0.00     0.062 A 
ATOM      7  F   UNL d   1       0.036   2.220  -1.826  0.00  0.00    -0.097 F 
ATOM      8  F1  UNL d   1       0.572  -0.154  -3.016  0.00  0.00    -0.096 F 
ATOM      9  I   UNL d   1      -0.947  -2.969  -2.926  0.00  0.00    -0.060 I 
ATOM     10  F2  UNL d   1      -3.293  -2.022  -0.966  0.00  0.00    -0.096 F 
ATOM     11  F3  UNL d   1      -3.802   0.364   0.209  0.00  0.00    -0.097 F 
ATOM     12  F4  UNL d   1      -2.147   2.491  -0.212  0.00  0.00    -0.092 F 
ENDROOT
TORSDOF 0
ENDMDL
