MODEL 1
REMARK minimizedAffinity -2.59193349
REMARK minimizedRMSD -1
REMARK  0 active torsions:
REMARK  status: ('A' for Active; 'I' for Inactive)
ROOT
ATOM      1  C   UNL d   1      -0.803   2.019   0.989  0.00  0.00     0.124 A 
ATOM      2  C1  UNL d   1      -0.092   1.245   1.895  0.00  0.00     0.062 A 
ATOM      3  C2  UNL d   1       0.378  -0.011   1.525  0.00  0.00     0.162 A 
ATOM      4  C3  UNL d   1       0.140  -0.502   0.242  0.00  0.00    -0.034 A 
ATOM      5  C4  UNL d   1      -0.577   0.282  -0.664  0.00  0.00     0.162 A 
ATOM      6  C5  UNL d   1      -1.045   1.537  -0.290  0.00  0.00     0.062 A 
ATOM      7  F   UNL d   1      -1.731   2.283  -1.167  0.00  0.00    -0.097 F 
ATOM      8  F1  UNL d   1      -0.824  -0.160  -1.907  0.00  0.00    -0.096 F 
ATOM      9  I   UNL d   1       0.841  -2.381  -0.315  0.00  0.00    -0.060 I 
ATOM     10  F2  UNL d   1       1.062  -0.738   2.422  0.00  0.00    -0.096 F 
ATOM     11  F3  UNL d   1       0.142   1.709   3.131  0.00  0.00    -0.097 F 
ATOM     12  F4  UNL d   1      -1.255   3.228   1.347  0.00  0.00    -0.092 F 
ENDROOT
TORSDOF 0
ENDMDL
