MODEL 1
REMARK minimizedAffinity -5.2135458
REMARK minimizedRMSD -1
REMARK  2 active torsions:
REMARK  status: ('A' for Active; 'I' for Inactive)
REMARK    1  A    between atoms: C2'_3  and  C1'_4 
REMARK    2  A    between atoms: C1'_4  and  C1_5 
ROOT
ATOM      1  C1  I4B d   1      -1.071   0.299  -0.345  0.00  0.00    -0.075 A 
ATOM      2  C2  I4B d   1       0.285   0.352  -0.142  0.00  0.00     0.003 A 
ATOM      3  C3  I4B d   1       0.836  -0.048   1.100  0.00  0.00     0.002 A 
ATOM      4  C4  I4B d   1      -0.004  -0.444   2.120  0.00  0.00    -0.004 A 
ATOM      5  C5  I4B d   1      -1.377  -0.519   1.905  0.00  0.00     0.002 A 
ATOM      6  C6  I4B d   1      -1.914  -0.157   0.661  0.00  0.00     0.003 A 
ENDROOT
BRANCH   1   7
ATOM      7  C1' I4B d   1      -1.622   0.760  -1.657  0.00  0.00     0.060 C 
BRANCH   7   8
ATOM      8  C2' I4B d   1      -1.204   2.202  -1.857  0.00  0.00    -0.013 C 
ATOM      9  C4' I4B d   1      -0.248   2.337  -3.013  0.00  0.00     0.013 C 
ATOM     10  C3' I4B d   1      -2.443   3.017  -2.082  0.00  0.00     0.013 C 
ENDBRANCH   7   8
ENDBRANCH   1   7
TORSDOF 2
ENDMDL
