MODEL 1
REMARK minimizedAffinity -1.61077368
REMARK minimizedRMSD -1
REMARK  2 active torsions:
REMARK  status: ('A' for Active; 'I' for Inactive)
REMARK    1  A    between atoms: C2'_3  and  C1'_4 
REMARK    2  A    between atoms: C1'_4  and  C1_5 
ROOT
ATOM      1  C1  I4B d   1       0.036   0.544   1.042  0.00  0.00    -0.075 A 
ATOM      2  C2  I4B d   1      -0.534  -0.597   1.549  0.00  0.00     0.003 A 
ATOM      3  C3  I4B d   1      -0.101  -1.117   2.793  0.00  0.00     0.002 A 
ATOM      4  C4  I4B d   1       0.932  -0.498   3.466  0.00  0.00    -0.004 A 
ATOM      5  C5  I4B d   1       1.493   0.671   2.961  0.00  0.00     0.002 A 
ATOM      6  C6  I4B d   1       1.034   1.203   1.747  0.00  0.00     0.003 A 
ENDROOT
BRANCH   1   7
ATOM      7  C1' I4B d   1      -0.423   1.048  -0.290  0.00  0.00     0.060 C 
BRANCH   7   8
ATOM      8  C2' I4B d   1      -0.181  -0.045  -1.311  0.00  0.00    -0.013 C 
ATOM      9  C4' I4B d   1       1.049  -0.845  -0.973  0.00  0.00     0.013 C 
ATOM     10  C3' I4B d   1      -1.400  -0.918  -1.352  0.00  0.00     0.013 C 
ENDBRANCH   7   8
ENDBRANCH   1   7
TORSDOF 2
ENDMDL
