MODEL 1
REMARK minimizedAffinity -4.02087116
REMARK minimizedRMSD -1
REMARK  0 active torsions:
REMARK  status: ('A' for Active; 'I' for Inactive)
ROOT
ATOM      1  C   UNL d   1       1.876  -1.942   1.395  0.00  0.00     0.124 A 
ATOM      2  C1  UNL d   1       2.714  -0.872   1.111  0.00  0.00     0.062 A 
ATOM      3  C2  UNL d   1       2.180   0.392   0.876  0.00  0.00     0.162 A 
ATOM      4  C3  UNL d   1       0.800   0.593   0.925  0.00  0.00    -0.034 A 
ATOM      5  C4  UNL d   1      -0.036  -0.488   1.211  0.00  0.00     0.162 A 
ATOM      6  C5  UNL d   1       0.503  -1.749   1.445  0.00  0.00     0.062 A 
ATOM      7  F   UNL d   1      -0.308  -2.781   1.719  0.00  0.00    -0.097 F 
ATOM      8  F1  UNL d   1      -1.366  -0.329   1.265  0.00  0.00    -0.096 F 
ATOM      9  I   UNL d   1      -0.002   2.481   0.574  0.00  0.00    -0.060 I 
ATOM     10  F2  UNL d   1       3.013   1.407   0.604  0.00  0.00    -0.096 F 
ATOM     11  F3  UNL d   1       4.041  -1.056   1.062  0.00  0.00    -0.097 F 
ATOM     12  F4  UNL d   1       2.393  -3.157   1.620  0.00  0.00    -0.092 F 
ENDROOT
TORSDOF 0
ENDMDL
