MODEL 1
REMARK minimizedAffinity 6.79146862
REMARK minimizedRMSD -1
REMARK  0 active torsions:
REMARK  status: ('A' for Active; 'I' for Inactive)
ROOT
ATOM      1  C   UNL d   1       1.659  -0.230   2.016  0.00  0.00     0.124 A 
ATOM      2  C1  UNL d   1       1.628   1.040   1.459  0.00  0.00     0.062 A 
ATOM      3  C2  UNL d   1       0.678   1.358   0.493  0.00  0.00     0.162 A 
ATOM      4  C3  UNL d   1      -0.250   0.404   0.078  0.00  0.00    -0.034 A 
ATOM      5  C4  UNL d   1      -0.212  -0.873   0.642  0.00  0.00     0.162 A 
ATOM      6  C5  UNL d   1       0.739  -1.186   1.607  0.00  0.00     0.062 A 
ATOM      7  F   UNL d   1       0.768  -2.414   2.144  0.00  0.00    -0.097 F 
ATOM      8  F1  UNL d   1      -1.090  -1.815   0.265  0.00  0.00    -0.096 F 
ATOM      9  I   UNL d   1      -1.672   0.875  -1.367  0.00  0.00    -0.060 I 
ATOM     10  F2  UNL d   1       0.672   2.594  -0.028  0.00  0.00    -0.096 F 
ATOM     11  F3  UNL d   1       2.517   1.965   1.852  0.00  0.00    -0.097 F 
ATOM     12  F4  UNL d   1       2.575  -0.534   2.945  0.00  0.00    -0.092 F 
ENDROOT
TORSDOF 0
ENDMDL
