MODEL 1
REMARK minimizedAffinity -2.06657481
REMARK minimizedRMSD -1
REMARK  0 active torsions:
REMARK  status: ('A' for Active; 'I' for Inactive)
ROOT
ATOM      1  C   UNL d   1       2.299  -0.197   1.035  0.00  0.00     0.124 A 
ATOM      2  C1  UNL d   1       2.114   1.113   0.615  0.00  0.00     0.062 A 
ATOM      3  C2  UNL d   1       0.863   1.537   0.175  0.00  0.00     0.162 A 
ATOM      4  C3  UNL d   1      -0.213   0.651   0.155  0.00  0.00    -0.034 A 
ATOM      5  C4  UNL d   1      -0.020  -0.665   0.578  0.00  0.00     0.162 A 
ATOM      6  C5  UNL d   1       1.232  -1.085   1.016  0.00  0.00     0.062 A 
ATOM      7  F   UNL d   1       1.409  -2.351   1.422  0.00  0.00    -0.097 F 
ATOM      8  F1  UNL d   1      -1.033  -1.544   0.571  0.00  0.00    -0.096 F 
ATOM      9  I   UNL d   1      -2.085   1.282  -0.501  0.00  0.00    -0.060 I 
ATOM     10  F2  UNL d   1       0.714   2.809  -0.225  0.00  0.00    -0.096 F 
ATOM     11  F3  UNL d   1       3.143   1.972   0.631  0.00  0.00    -0.097 F 
ATOM     12  F4  UNL d   1       3.503  -0.603   1.456  0.00  0.00    -0.092 F 
ENDROOT
TORSDOF 0
ENDMDL
