MODEL 1
REMARK minimizedAffinity -0.147526219
REMARK minimizedRMSD -1
REMARK  0 active torsions:
REMARK  status: ('A' for Active; 'I' for Inactive)
ROOT
ATOM      1  C   UNL d   1       2.913  -0.087   0.763  0.00  0.00     0.124 A 
ATOM      2  C1  UNL d   1       2.174   1.069   0.550  0.00  0.00     0.062 A 
ATOM      3  C2  UNL d   1       0.826   0.987   0.214  0.00  0.00     0.162 A 
ATOM      4  C3  UNL d   1       0.207  -0.257   0.089  0.00  0.00    -0.034 A 
ATOM      5  C4  UNL d   1       0.956  -1.415   0.303  0.00  0.00     0.162 A 
ATOM      6  C5  UNL d   1       2.303  -1.327   0.639  0.00  0.00     0.062 A 
ATOM      7  F   UNL d   1       3.015  -2.445   0.843  0.00  0.00    -0.097 F 
ATOM      8  F1  UNL d   1       0.392  -2.627   0.190  0.00  0.00    -0.096 F 
ATOM      9  I   UNL d   1      -1.809  -0.385  -0.414  0.00  0.00    -0.060 I 
ATOM     10  F2  UNL d   1       0.137   2.120   0.015  0.00  0.00    -0.096 F 
ATOM     11  F3  UNL d   1       2.761   2.269   0.669  0.00  0.00    -0.097 F 
ATOM     12  F4  UNL d   1       4.210  -0.005   1.085  0.00  0.00    -0.092 F 
ENDROOT
TORSDOF 0
ENDMDL
