MODEL 1
REMARK minimizedAffinity 1.37074769
REMARK minimizedRMSD -1
REMARK  0 active torsions:
REMARK  status: ('A' for Active; 'I' for Inactive)
ROOT
ATOM      1  C   UNL d   1       1.138  -1.331   0.872  0.00  0.00     0.124 A 
ATOM      2  C1  UNL d   1       2.173  -0.441   1.125  0.00  0.00     0.062 A 
ATOM      3  C2  UNL d   1       1.945   0.931   1.075  0.00  0.00     0.162 A 
ATOM      4  C3  UNL d   1       0.675   1.423   0.771  0.00  0.00    -0.034 A 
ATOM      5  C4  UNL d   1      -0.361   0.522   0.516  0.00  0.00     0.162 A 
ATOM      6  C5  UNL d   1      -0.127  -0.849   0.568  0.00  0.00     0.062 A 
ATOM      7  F   UNL d   1      -1.129  -1.707   0.323  0.00  0.00    -0.097 F 
ATOM      8  F1  UNL d   1      -1.593   0.960   0.221  0.00  0.00    -0.096 F 
ATOM      9  I   UNL d   1       0.330   3.473   0.695  0.00  0.00    -0.060 I 
ATOM     10  F2  UNL d   1       2.963   1.767   1.324  0.00  0.00    -0.096 F 
ATOM     11  F3  UNL d   1       3.396  -0.905   1.418  0.00  0.00    -0.097 F 
ATOM     12  F4  UNL d   1       1.360  -2.650   0.920  0.00  0.00    -0.092 F 
ENDROOT
TORSDOF 0
ENDMDL
