MODEL 1
REMARK minimizedAffinity 1.79815543
REMARK minimizedRMSD -1
REMARK  0 active torsions:
REMARK  status: ('A' for Active; 'I' for Inactive)
ROOT
ATOM      1  C   UNL d   1      -1.694  -0.179  -0.559  0.00  0.00     0.124 A 
ATOM      2  C1  UNL d   1      -1.350  -0.868   0.596  0.00  0.00     0.062 A 
ATOM      3  C2  UNL d   1      -0.027  -0.897   1.026  0.00  0.00     0.162 A 
ATOM      4  C3  UNL d   1       0.964  -0.234   0.301  0.00  0.00    -0.034 A 
ATOM      5  C4  UNL d   1       0.611   0.456  -0.861  0.00  0.00     0.162 A 
ATOM      6  C5  UNL d   1      -0.714   0.482  -1.286  0.00  0.00     0.062 A 
ATOM      7  F   UNL d   1      -1.044   1.148  -2.402  0.00  0.00    -0.097 F 
ATOM      8  F1  UNL d   1       1.537   1.104  -1.582  0.00  0.00    -0.096 F 
ATOM      9  I   UNL d   1       2.944  -0.275   0.940  0.00  0.00    -0.060 I 
ATOM     10  F2  UNL d   1       0.277  -1.570   2.146  0.00  0.00    -0.096 F 
ATOM     11  F3  UNL d   1      -2.295  -1.508   1.299  0.00  0.00    -0.097 F 
ATOM     12  F4  UNL d   1      -2.968  -0.154  -0.971  0.00  0.00    -0.092 F 
ENDROOT
TORSDOF 0
ENDMDL
