MODEL 1
REMARK minimizedAffinity -0.582809329
REMARK minimizedRMSD -1
REMARK  0 active torsions:
REMARK  status: ('A' for Active; 'I' for Inactive)
ROOT
ATOM      1  C   UNL d   1       1.978  -1.669   0.976  0.00  0.00     0.124 A 
ATOM      2  C1  UNL d   1       1.841  -0.321   0.674  0.00  0.00     0.062 A 
ATOM      3  C2  UNL d   1       0.584   0.277   0.700  0.00  0.00     0.162 A 
ATOM      4  C3  UNL d   1      -0.545  -0.472   1.031  0.00  0.00    -0.034 A 
ATOM      5  C4  UNL d   1      -0.399  -1.827   1.333  0.00  0.00     0.162 A 
ATOM      6  C5  UNL d   1       0.859  -2.421   1.305  0.00  0.00     0.062 A 
ATOM      7  F   UNL d   1       0.991  -3.723   1.597  0.00  0.00    -0.097 F 
ATOM      8  F1  UNL d   1      -1.463  -2.577   1.655  0.00  0.00    -0.096 F 
ATOM      9  I   UNL d   1      -2.426   0.419   1.071  0.00  0.00    -0.060 I 
ATOM     10  F2  UNL d   1       0.480   1.581   0.404  0.00  0.00    -0.096 F 
ATOM     11  F3  UNL d   1       2.920   0.407   0.355  0.00  0.00    -0.097 F 
ATOM     12  F4  UNL d   1       3.189  -2.242   0.949  0.00  0.00    -0.092 F 
ENDROOT
TORSDOF 0
ENDMDL
