MODEL 1
REMARK minimizedAffinity -5.53597593
REMARK minimizedRMSD -1
REMARK  0 active torsions:
REMARK  status: ('A' for Active; 'I' for Inactive)
ROOT
ATOM      1  C   UNL d   1       1.711  -1.372   0.591  0.00  0.00     0.124 A 
ATOM      2  C1  UNL d   1       1.895  -0.686  -0.602  0.00  0.00     0.062 A 
ATOM      3  C2  UNL d   1       0.798  -0.186  -1.298  0.00  0.00     0.162 A 
ATOM      4  C3  UNL d   1      -0.493  -0.369  -0.802  0.00  0.00    -0.034 A 
ATOM      5  C4  UNL d   1      -0.670  -1.060   0.398  0.00  0.00     0.162 A 
ATOM      6  C5  UNL d   1       0.430  -1.558   1.090  0.00  0.00     0.062 A 
ATOM      7  F   UNL d   1       0.251  -2.220   2.242  0.00  0.00    -0.097 F 
ATOM      8  F1  UNL d   1      -1.897  -1.254   0.904  0.00  0.00    -0.096 F 
ATOM      9  I   UNL d   1      -2.136   0.377  -1.839  0.00  0.00    -0.060 I 
ATOM     10  F2  UNL d   1       1.004   0.472  -2.448  0.00  0.00    -0.096 F 
ATOM     11  F3  UNL d   1       3.132  -0.506  -1.087  0.00  0.00    -0.097 F 
ATOM     12  F4  UNL d   1       2.769  -1.853   1.257  0.00  0.00    -0.092 F 
ENDROOT
TORSDOF 0
ENDMDL
