MODEL 1
REMARK minimizedAffinity 0.768236697
REMARK minimizedRMSD -1
REMARK  0 active torsions:
REMARK  status: ('A' for Active; 'I' for Inactive)
ROOT
ATOM      1  C   UNL d   1       2.319  -0.536   0.926  0.00  0.00     0.124 A 
ATOM      2  C1  UNL d   1       1.314  -1.457   0.661  0.00  0.00     0.062 A 
ATOM      3  C2  UNL d   1       0.090  -1.030   0.155  0.00  0.00     0.162 A 
ATOM      4  C3  UNL d   1      -0.138   0.324  -0.089  0.00  0.00    -0.034 A 
ATOM      5  C4  UNL d   1       0.877   1.244   0.181  0.00  0.00     0.162 A 
ATOM      6  C5  UNL d   1       2.099   0.813   0.686  0.00  0.00     0.062 A 
ATOM      7  F   UNL d   1       3.068   1.704   0.942  0.00  0.00    -0.097 F 
ATOM      8  F1  UNL d   1       0.691   2.554  -0.043  0.00  0.00    -0.096 F 
ATOM      9  I   UNL d   1      -1.968   0.965  -0.845  0.00  0.00    -0.060 I 
ATOM     10  F2  UNL d   1      -0.863  -1.942  -0.092  0.00  0.00    -0.096 F 
ATOM     11  F3  UNL d   1       1.524  -2.761   0.893  0.00  0.00    -0.097 F 
ATOM     12  F4  UNL d   1       3.496  -0.949   1.413  0.00  0.00    -0.092 F 
ENDROOT
TORSDOF 0
ENDMDL
