MODEL 1
REMARK minimizedAffinity 1.14761555
REMARK minimizedRMSD -1
REMARK  0 active torsions:
REMARK  status: ('A' for Active; 'I' for Inactive)
ROOT
ATOM      1  C   UNL d   1       0.379   0.127   0.798  0.00  0.00     0.124 A 
ATOM      2  C1  UNL d   1      -0.432  -0.998   0.835  0.00  0.00     0.062 A 
ATOM      3  C2  UNL d   1      -1.448  -1.161  -0.102  0.00  0.00     0.162 A 
ATOM      4  C3  UNL d   1      -1.658  -0.195  -1.086  0.00  0.00    -0.034 A 
ATOM      5  C4  UNL d   1      -0.839   0.935  -1.117  0.00  0.00     0.162 A 
ATOM      6  C5  UNL d   1       0.175   1.092  -0.178  0.00  0.00     0.062 A 
ATOM      7  F   UNL d   1       0.958   2.180  -0.217  0.00  0.00    -0.097 F 
ATOM      8  F1  UNL d   1      -1.013   1.882  -2.050  0.00  0.00    -0.096 F 
ATOM      9  I   UNL d   1      -3.177  -0.434  -2.489  0.00  0.00    -0.060 I 
ATOM     10  F2  UNL d   1      -2.217  -2.258  -0.041  0.00  0.00    -0.096 F 
ATOM     11  F3  UNL d   1      -0.238  -1.932   1.778  0.00  0.00    -0.097 F 
ATOM     12  F4  UNL d   1       1.356   0.281   1.701  0.00  0.00    -0.092 F 
ENDROOT
TORSDOF 0
ENDMDL
