MODEL 1
REMARK minimizedAffinity -2.51998949
REMARK minimizedRMSD -1
REMARK  0 active torsions:
REMARK  status: ('A' for Active; 'I' for Inactive)
ROOT
ATOM      1  C   UNL d   1      -0.147  -2.485   0.492  0.00  0.00     0.020 A 
ATOM      2  C1  UNL d   1       1.245  -2.495   0.583  0.00  0.00     0.020 A 
ATOM      3  C2  UNL d   1       1.970  -1.332   0.316  0.00  0.00     0.034 A 
ATOM      4  C3  UNL d   1       1.304  -0.154  -0.043  0.00  0.00     0.017 A 
ATOM      5  C4  UNL d   1      -0.093  -0.145  -0.134  0.00  0.00     0.017 A 
ATOM      6  C5  UNL d   1      -0.814  -1.313   0.135  0.00  0.00     0.034 A 
ATOM      7 Cl   UNL d   1      -0.985   1.269  -0.570  0.00  0.00    -0.070 Cl
ATOM      8 Cl1  UNL d   1       2.264   1.248  -0.359  0.00  0.00    -0.070 Cl
ENDROOT
TORSDOF 0
ENDMDL
