MODEL 1
REMARK minimizedAffinity -5.47304249
REMARK minimizedRMSD -1
REMARK  0 active torsions:
REMARK  status: ('A' for Active; 'I' for Inactive)
ROOT
ATOM      1  C   UNL d   1      -0.372   1.091  -0.376  0.00  0.00     0.020 A 
ATOM      2  C1  UNL d   1       0.885   0.644  -0.779  0.00  0.00     0.020 A 
ATOM      3  C2  UNL d   1       1.454  -0.479  -0.174  0.00  0.00     0.034 A 
ATOM      4  C3  UNL d   1       0.766  -1.157   0.838  0.00  0.00     0.017 A 
ATOM      5  C4  UNL d   1      -0.496  -0.708   1.242  0.00  0.00     0.017 A 
ATOM      6  C5  UNL d   1      -1.062   0.417   0.633  0.00  0.00     0.034 A 
ATOM      7 Cl   UNL d   1      -1.406  -1.493   2.484  0.00  0.00    -0.070 Cl
ATOM      8 Cl1  UNL d   1       1.529  -2.538   1.543  0.00  0.00    -0.070 Cl
ENDROOT
TORSDOF 0
ENDMDL
