MODEL 1
REMARK minimizedAffinity -0.655364275
REMARK minimizedRMSD -1
REMARK  0 active torsions:
REMARK  status: ('A' for Active; 'I' for Inactive)
ROOT
ATOM      1  C   UNL d   1       2.299  -0.576  -0.147  0.00  0.00     0.020 A 
ATOM      2  C1  UNL d   1       2.288  -1.578   0.822  0.00  0.00     0.020 A 
ATOM      3  C2  UNL d   1       1.164  -1.754   1.632  0.00  0.00     0.034 A 
ATOM      4  C3  UNL d   1       0.047  -0.926   1.474  0.00  0.00     0.017 A 
ATOM      5  C4  UNL d   1       0.059   0.080   0.501  0.00  0.00     0.017 A 
ATOM      6  C5  UNL d   1       1.187   0.251  -0.307  0.00  0.00     0.034 A 
ATOM      7 Cl   UNL d   1      -1.282   1.140   0.247  0.00  0.00    -0.070 Cl
ATOM      8 Cl1  UNL d   1      -1.309  -1.200   2.510  0.00  0.00    -0.070 Cl
ENDROOT
TORSDOF 0
ENDMDL
