MODEL 1
REMARK minimizedAffinity -5.49288034
REMARK minimizedRMSD -1
REMARK  0 active torsions:
REMARK  status: ('A' for Active; 'I' for Inactive)
ROOT
ATOM      1  C   UNL d   1       0.914  -2.758   2.250  0.00  0.00     0.020 A 
ATOM      2  C1  UNL d   1       1.636  -2.481   1.090  0.00  0.00     0.020 A 
ATOM      3  C2  UNL d   1       1.272  -1.401   0.282  0.00  0.00     0.034 A 
ATOM      4  C3  UNL d   1       0.182  -0.596   0.633  0.00  0.00     0.017 A 
ATOM      5  C4  UNL d   1      -0.542  -0.876   1.798  0.00  0.00     0.017 A 
ATOM      6  C5  UNL d   1      -0.173  -1.957   2.603  0.00  0.00     0.034 A 
ATOM      7 Cl   UNL d   1      -1.898   0.073   2.296  0.00  0.00    -0.070 Cl
ATOM      8 Cl1  UNL d   1      -0.212   0.722  -0.412  0.00  0.00    -0.070 Cl
ENDROOT
TORSDOF 0
ENDMDL
