MODEL 1
REMARK minimizedAffinity -5.44218683
REMARK minimizedRMSD -1
REMARK  0 active torsions:
REMARK  status: ('A' for Active; 'I' for Inactive)
ROOT
ATOM      1  C   UNL d   1       1.259  -2.686   0.725  0.00  0.00     0.020 A 
ATOM      2  C1  UNL d   1      -0.046  -2.444   1.152  0.00  0.00     0.020 A 
ATOM      3  C2  UNL d   1      -0.655  -1.218   0.875  0.00  0.00     0.034 A 
ATOM      4  C3  UNL d   1       0.040  -0.230   0.169  0.00  0.00     0.017 A 
ATOM      5  C4  UNL d   1       1.350  -0.474  -0.260  0.00  0.00     0.017 A 
ATOM      6  C5  UNL d   1       1.955  -1.703   0.020  0.00  0.00     0.034 A 
ATOM      7 Cl   UNL d   1       2.271   0.696  -1.137  0.00  0.00    -0.070 Cl
ATOM      8 Cl1  UNL d   1      -0.776   1.262  -0.139  0.00  0.00    -0.070 Cl
ENDROOT
TORSDOF 0
ENDMDL
