MODEL 1
REMARK minimizedAffinity -4.65388536
REMARK minimizedRMSD -1
REMARK  0 active torsions:
REMARK  status: ('A' for Active; 'I' for Inactive)
ROOT
ATOM      1  C   UNL d   1       1.893  -2.809   1.191  0.00  0.00     0.020 A 
ATOM      2  C1  UNL d   1       0.700  -2.419   1.797  0.00  0.00     0.020 A 
ATOM      3  C2  UNL d   1      -0.064  -1.392   1.238  0.00  0.00     0.034 A 
ATOM      4  C3  UNL d   1       0.364  -0.753   0.069  0.00  0.00     0.017 A 
ATOM      5  C4  UNL d   1       1.563  -1.145  -0.539  0.00  0.00     0.017 A 
ATOM      6  C5  UNL d   1       2.324  -2.174   0.026  0.00  0.00     0.034 A 
ATOM      7 Cl   UNL d   1       2.156  -0.403  -1.982  0.00  0.00    -0.070 Cl
ATOM      8 Cl1  UNL d   1      -0.630   0.508  -0.568  0.00  0.00    -0.070 Cl
ENDROOT
TORSDOF 0
ENDMDL
