MODEL 1
REMARK minimizedAffinity -4.04227924
REMARK minimizedRMSD -1
REMARK  0 active torsions:
REMARK  status: ('A' for Active; 'I' for Inactive)
ROOT
ATOM      1  C   UNL d   1       1.375   0.536  -0.203  0.00  0.00     0.020 A 
ATOM      2  C1  UNL d   1       0.134   0.979   0.254  0.00  0.00     0.020 A 
ATOM      3  C2  UNL d   1      -0.688   0.119   0.984  0.00  0.00     0.034 A 
ATOM      4  C3  UNL d   1      -0.271  -1.189   1.260  0.00  0.00     0.017 A 
ATOM      5  C4  UNL d   1       0.975  -1.632   0.801  0.00  0.00     0.017 A 
ATOM      6  C5  UNL d   1       1.794  -0.766   0.070  0.00  0.00     0.034 A 
ATOM      7 Cl   UNL d   1       1.558  -3.231   1.102  0.00  0.00    -0.070 Cl
ATOM      8 Cl1  UNL d   1      -1.338  -2.198   2.170  0.00  0.00    -0.070 Cl
ENDROOT
TORSDOF 0
ENDMDL
