MODEL 1
REMARK minimizedAffinity -3.95767999
REMARK minimizedRMSD -1
REMARK  0 active torsions:
REMARK  status: ('A' for Active; 'I' for Inactive)
ROOT
ATOM      1  C   UNL d   1       1.168   0.309  -0.963  0.00  0.00     0.020 A 
ATOM      2  C1  UNL d   1      -0.038   0.807  -0.473  0.00  0.00     0.020 A 
ATOM      3  C2  UNL d   1      -0.665   0.182   0.607  0.00  0.00     0.034 A 
ATOM      4  C3  UNL d   1      -0.085  -0.945   1.201  0.00  0.00     0.017 A 
ATOM      5  C4  UNL d   1       1.126  -1.445   0.708  0.00  0.00     0.017 A 
ATOM      6  C5  UNL d   1       1.749  -0.815  -0.374  0.00  0.00     0.034 A 
ATOM      7 Cl   UNL d   1       1.902  -2.831   1.389  0.00  0.00    -0.070 Cl
ATOM      8 Cl1  UNL d   1      -0.915  -1.667   2.533  0.00  0.00    -0.070 Cl
ENDROOT
TORSDOF 0
ENDMDL
