MODEL 1
REMARK minimizedAffinity -3.95795417
REMARK minimizedRMSD -1
REMARK  0 active torsions:
REMARK  status: ('A' for Active; 'I' for Inactive)
ROOT
ATOM      1  C   UNL d   1      -0.428  -1.832   2.879  0.00  0.00     0.020 A 
ATOM      2  C1  UNL d   1       0.736  -2.426   2.395  0.00  0.00     0.020 A 
ATOM      3  C2  UNL d   1       1.373  -1.899   1.269  0.00  0.00     0.034 A 
ATOM      4  C3  UNL d   1       0.846  -0.774   0.625  0.00  0.00     0.017 A 
ATOM      5  C4  UNL d   1      -0.323  -0.178   1.112  0.00  0.00     0.017 A 
ATOM      6  C5  UNL d   1      -0.957  -0.710   2.239  0.00  0.00     0.034 A 
ATOM      7 Cl   UNL d   1      -1.033   1.212   0.370  0.00  0.00    -0.070 Cl
ATOM      8 Cl1  UNL d   1       1.686  -0.175  -0.762  0.00  0.00    -0.070 Cl
ENDROOT
TORSDOF 0
ENDMDL
