MODEL 1
REMARK minimizedAffinity -2.41340899
REMARK minimizedRMSD -1
REMARK  0 active torsions:
REMARK  status: ('A' for Active; 'I' for Inactive)
ROOT
ATOM      1  C   UNL d   1      -1.318   0.973   0.378  0.00  0.00     0.020 A 
ATOM      2  C1  UNL d   1      -1.589  -0.097   1.229  0.00  0.00     0.020 A 
ATOM      3  C2  UNL d   1      -0.635  -1.100   1.415  0.00  0.00     0.034 A 
ATOM      4  C3  UNL d   1       0.594  -1.035   0.748  0.00  0.00     0.017 A 
ATOM      5  C4  UNL d   1       0.864   0.040  -0.106  0.00  0.00     0.017 A 
ATOM      6  C5  UNL d   1      -0.094   1.042  -0.289  0.00  0.00     0.034 A 
ATOM      7 Cl   UNL d   1       2.358   0.190  -0.963  0.00  0.00    -0.070 Cl
ATOM      8 Cl1  UNL d   1       1.727  -2.310   1.025  0.00  0.00    -0.070 Cl
ENDROOT
TORSDOF 0
ENDMDL
