MODEL 1
REMARK minimizedAffinity -3.86428785
REMARK minimizedRMSD -1
REMARK  0 active torsions:
REMARK  status: ('A' for Active; 'I' for Inactive)
ROOT
ATOM      1  C   UNL d   1       2.055  -2.242   0.475  0.00  0.00     0.020 A 
ATOM      2  C1  UNL d   1       1.621  -2.953   1.592  0.00  0.00     0.020 A 
ATOM      3  C2  UNL d   1       0.468  -2.553   2.271  0.00  0.00     0.034 A 
ATOM      4  C3  UNL d   1      -0.256  -1.438   1.832  0.00  0.00     0.017 A 
ATOM      5  C4  UNL d   1       0.181  -0.724   0.710  0.00  0.00     0.017 A 
ATOM      6  C5  UNL d   1       1.336  -1.129   0.034  0.00  0.00     0.034 A 
ATOM      7 Cl   UNL d   1      -0.659   0.662   0.108  0.00  0.00    -0.070 Cl
ATOM      8 Cl1  UNL d   1      -1.673  -0.999   2.718  0.00  0.00    -0.070 Cl
ENDROOT
TORSDOF 0
ENDMDL
