MODEL 1
REMARK minimizedAffinity -4.59062481
REMARK minimizedRMSD -1
REMARK  0 active torsions:
REMARK  status: ('A' for Active; 'I' for Inactive)
ROOT
ATOM      1  C   UNL d   1       0.939  -2.858   1.703  0.00  0.00     0.020 A 
ATOM      2  C1  UNL d   1      -0.002  -2.239   2.524  0.00  0.00     0.020 A 
ATOM      3  C2  UNL d   1      -0.609  -1.049   2.117  0.00  0.00     0.034 A 
ATOM      4  C3  UNL d   1      -0.275  -0.474   0.885  0.00  0.00     0.017 A 
ATOM      5  C4  UNL d   1       0.670  -1.096   0.061  0.00  0.00     0.017 A 
ATOM      6  C5  UNL d   1       1.275  -2.287   0.474  0.00  0.00     0.034 A 
ATOM      7 Cl   UNL d   1       1.133  -0.447  -1.472  0.00  0.00    -0.070 Cl
ATOM      8 Cl1  UNL d   1      -1.065   0.999   0.445  0.00  0.00    -0.070 Cl
ENDROOT
TORSDOF 0
ENDMDL
