MODEL 1
REMARK minimizedAffinity -3.37857866
REMARK minimizedRMSD -1
REMARK  0 active torsions:
REMARK  status: ('A' for Active; 'I' for Inactive)
ROOT
ATOM      1  C   UNL d   1       1.554   0.433  -0.330  0.00  0.00     0.020 A 
ATOM      2  C1  UNL d   1       0.335   1.007   0.028  0.00  0.00     0.020 A 
ATOM      3  C2  UNL d   1      -0.623   0.248   0.703  0.00  0.00     0.034 A 
ATOM      4  C3  UNL d   1      -0.364  -1.090   1.021  0.00  0.00     0.017 A 
ATOM      5  C4  UNL d   1       0.860  -1.666   0.661  0.00  0.00     0.017 A 
ATOM      6  C5  UNL d   1       1.816  -0.901  -0.014  0.00  0.00     0.034 A 
ATOM      7 Cl   UNL d   1       1.251  -3.311   1.019  0.00  0.00    -0.070 Cl
ATOM      8 Cl1  UNL d   1      -1.595  -1.970   1.856  0.00  0.00    -0.070 Cl
ENDROOT
TORSDOF 0
ENDMDL
