MODEL 1
REMARK minimizedAffinity -3.32940459
REMARK minimizedRMSD -1
REMARK  0 active torsions:
REMARK  status: ('A' for Active; 'I' for Inactive)
ROOT
ATOM      1  C   UNL d   1       0.075  -2.614   1.184  0.00  0.00     0.020 A 
ATOM      2  C1  UNL d   1       1.434  -2.699   0.886  0.00  0.00     0.020 A 
ATOM      3  C2  UNL d   1       2.072  -1.647   0.227  0.00  0.00     0.034 A 
ATOM      4  C3  UNL d   1       1.351  -0.504  -0.138  0.00  0.00     0.017 A 
ATOM      5  C4  UNL d   1      -0.014  -0.419   0.161  0.00  0.00     0.017 A 
ATOM      6  C5  UNL d   1      -0.648  -1.476   0.822  0.00  0.00     0.034 A 
ATOM      7 Cl   UNL d   1      -0.970   0.959  -0.256  0.00  0.00    -0.070 Cl
ATOM      8 Cl1  UNL d   1       2.204   0.760  -0.951  0.00  0.00    -0.070 Cl
ENDROOT
TORSDOF 0
ENDMDL
