MODEL 1
REMARK minimizedAffinity 10.7530861
REMARK minimizedRMSD -1
REMARK  0 active torsions:
REMARK  status: ('A' for Active; 'I' for Inactive)
ROOT
ATOM      1  C1  DEN d   1      -4.496  -4.372  -1.495  0.00  0.00     0.130 A 
ATOM      2  C2  DEN d   1      -4.394  -5.795  -1.810  0.00  0.00    -0.031 A 
ATOM      3  C3  DEN d   1      -3.164  -6.000  -2.601  0.00  0.00     0.027 A 
ATOM      4  C4  DEN d   1      -1.415  -4.263  -3.362  0.00  0.00     0.027 A 
ATOM      5  C5  DEN d   1      -1.079  -2.927  -3.345  0.00  0.00    -0.003 A 
ATOM      6  C6  DEN d   1      -1.868  -1.983  -2.744  0.00  0.00     0.001 A 
ATOM      7  C7  DEN d   1      -3.012  -2.367  -2.096  0.00  0.00     0.017 A 
ATOM      8  C8  DEN d   1      -3.362  -3.711  -2.116  0.00  0.00    -0.094 A 
ATOM      9  C9  DEN d   1      -2.544  -4.652  -2.717  0.00  0.00    -0.072 A 
ENDROOT
TORSDOF 0
ENDMDL
