MODEL 1
REMARK minimizedAffinity 5.40081406
REMARK minimizedRMSD -1
REMARK  0 active torsions:
REMARK  status: ('A' for Active; 'I' for Inactive)
ROOT
ATOM      1  C1  DEN d   1      -0.485   2.725   1.901  0.00  0.00     0.130 A 
ATOM      2  C2  DEN d   1       0.865   2.170   1.937  0.00  0.00    -0.031 A 
ATOM      3  C3  DEN d   1       0.773   0.778   2.423  0.00  0.00     0.027 A 
ATOM      4  C4  DEN d   1      -1.318  -0.564   3.114  0.00  0.00     0.027 A 
ATOM      5  C5  DEN d   1      -2.687  -0.513   3.263  0.00  0.00    -0.003 A 
ATOM      6  C6  DEN d   1      -3.407   0.623   3.004  0.00  0.00     0.001 A 
ATOM      7  C7  DEN d   1      -2.768   1.741   2.538  0.00  0.00     0.017 A 
ATOM      8  C8  DEN d   1      -1.387   1.699   2.391  0.00  0.00    -0.094 A 
ATOM      9  C9  DEN d   1      -0.678   0.537   2.647  0.00  0.00    -0.072 A 
ENDROOT
TORSDOF 0
ENDMDL
