MODEL 1
REMARK minimizedAffinity 13.3031445
REMARK minimizedRMSD -1
REMARK  0 active torsions:
REMARK  status: ('A' for Active; 'I' for Inactive)
ROOT
ATOM      1  C1  DEN d   1       3.943   2.608  -0.127  0.00  0.00     0.130 A 
ATOM      2  C2  DEN d   1       4.856   1.477   0.009  0.00  0.00    -0.031 A 
ATOM      3  C3  DEN d   1       4.177   0.436   0.808  0.00  0.00     0.027 A 
ATOM      4  C4  DEN d   1       1.812   0.465   1.836  0.00  0.00     0.027 A 
ATOM      5  C5  DEN d   1       0.667   1.215   1.998  0.00  0.00    -0.003 A 
ATOM      6  C6  DEN d   1       0.548   2.483   1.496  0.00  0.00     0.001 A 
ATOM      7  C7  DEN d   1       1.575   3.025   0.768  0.00  0.00     0.017 A 
ATOM      8  C8  DEN d   1       2.735   2.279   0.607  0.00  0.00    -0.094 A 
ATOM      9  C9  DEN d   1       2.831   0.993   1.112  0.00  0.00    -0.072 A 
ENDROOT
TORSDOF 0
ENDMDL
