MODEL 1
REMARK minimizedAffinity 13.3402138
REMARK minimizedRMSD -1
REMARK  0 active torsions:
REMARK  status: ('A' for Active; 'I' for Inactive)
ROOT
ATOM      1  C1  DEN d   1      -0.126   0.718   2.754  0.00  0.00     0.130 A 
ATOM      2  C2  DEN d   1      -0.780   1.983   2.430  0.00  0.00    -0.031 A 
ATOM      3  C3  DEN d   1       0.145   2.773   1.593  0.00  0.00     0.027 A 
ATOM      4  C4  DEN d   1       2.510   2.162   0.767  0.00  0.00     0.027 A 
ATOM      5  C5  DEN d   1       3.495   1.200   0.795  0.00  0.00    -0.003 A 
ATOM      6  C6  DEN d   1       3.357   0.033   1.499  0.00  0.00     0.001 A 
ATOM      7  C7  DEN d   1       2.189  -0.221   2.169  0.00  0.00     0.017 A 
ATOM      8  C8  DEN d   1       1.194   0.748   2.152  0.00  0.00    -0.094 A 
ATOM      9  C9  DEN d   1       1.349   1.916   1.424  0.00  0.00    -0.072 A 
ENDROOT
TORSDOF 0
ENDMDL
