MODEL 1
REMARK minimizedAffinity 4.71964073
REMARK minimizedRMSD -1
REMARK  0 active torsions:
REMARK  status: ('A' for Active; 'I' for Inactive)
ROOT
ATOM      1  C1  DEN d   1      -4.804  -4.477  -1.763  0.00  0.00     0.130 A 
ATOM      2  C2  DEN d   1      -5.295  -5.124  -2.977  0.00  0.00    -0.031 A 
ATOM      3  C3  DEN d   1      -4.458  -4.669  -4.106  0.00  0.00     0.027 A 
ATOM      4  C4  DEN d   1      -2.460  -3.039  -4.091  0.00  0.00     0.027 A 
ATOM      5  C5  DEN d   1      -1.680  -2.226  -3.299  0.00  0.00    -0.003 A 
ATOM      6  C6  DEN d   1      -1.906  -2.081  -1.955  0.00  0.00     0.001 A 
ATOM      7  C7  DEN d   1      -2.910  -2.795  -1.356  0.00  0.00     0.017 A 
ATOM      8  C8  DEN d   1      -3.705  -3.611  -2.149  0.00  0.00    -0.094 A 
ATOM      9  C9  DEN d   1      -3.453  -3.753  -3.503  0.00  0.00    -0.072 A 
ENDROOT
TORSDOF 0
ENDMDL
