MODEL 1
REMARK minimizedAffinity 3.57500815
REMARK minimizedRMSD -1
REMARK  0 active torsions:
REMARK  status: ('A' for Active; 'I' for Inactive)
ROOT
ATOM      1  C1  DEN d   1       2.212   0.000   1.504  0.00  0.00     0.130 A 
ATOM      2  C2  DEN d   1       1.415   1.009   0.813  0.00  0.00    -0.031 A 
ATOM      3  C3  DEN d   1       2.327   2.077   0.355  0.00  0.00     0.027 A 
ATOM      4  C4  DEN d   1       4.883   2.261   0.643  0.00  0.00     0.027 A 
ATOM      5  C5  DEN d   1       6.000   1.652   1.171  0.00  0.00    -0.003 A 
ATOM      6  C6  DEN d   1       5.929   0.477   1.871  0.00  0.00     0.001 A 
ATOM      7  C7  DEN d   1       4.720  -0.151   2.023  0.00  0.00     0.017 A 
ATOM      8  C8  DEN d   1       3.589   0.461   1.500  0.00  0.00    -0.094 A 
ATOM      9  C9  DEN d   1       3.683   1.643   0.785  0.00  0.00    -0.072 A 
ENDROOT
TORSDOF 0
ENDMDL
