MODEL 1
REMARK minimizedAffinity -3.47504854
REMARK minimizedRMSD -1
REMARK  0 active torsions:
REMARK  status: ('A' for Active; 'I' for Inactive)
ROOT
ATOM      1  C1  DEN d   1      -5.901   4.721   6.000  0.00  0.00     0.130 A 
ATOM      2  C2  DEN d   1      -6.000   5.715   4.935  0.00  0.00    -0.031 A 
ATOM      3  C3  DEN d   1      -5.672   5.050   3.658  0.00  0.00     0.027 A 
ATOM      4  C4  DEN d   1      -5.028   2.589   3.228  0.00  0.00     0.027 A 
ATOM      5  C5  DEN d   1      -4.801   1.368   3.824  0.00  0.00    -0.003 A 
ATOM      6  C6  DEN d   1      -4.891   1.188   5.178  0.00  0.00     0.001 A 
ATOM      7  C7  DEN d   1      -5.260   2.237   5.979  0.00  0.00     0.017 A 
ATOM      8  C8  DEN d   1      -5.483   3.473   5.387  0.00  0.00    -0.094 A 
ATOM      9  C9  DEN d   1      -5.399   3.631   4.014  0.00  0.00    -0.072 A 
ENDROOT
TORSDOF 0
ENDMDL
