MODEL 1
REMARK minimizedAffinity 9.38565159
REMARK minimizedRMSD -1
REMARK  0 active torsions:
REMARK  status: ('A' for Active; 'I' for Inactive)
ROOT
ATOM      1  C1  DEN d   1      -4.255   0.306   2.675  0.00  0.00     0.130 A 
ATOM      2  C2  DEN d   1      -4.017   1.656   3.177  0.00  0.00    -0.031 A 
ATOM      3  C3  DEN d   1      -4.498   1.716   4.572  0.00  0.00     0.027 A 
ATOM      4  C4  DEN d   1      -5.579  -0.143   5.996  0.00  0.00     0.027 A 
ATOM      5  C5  DEN d   1      -5.999  -1.455   5.998  0.00  0.00    -0.003 A 
ATOM      6  C6  DEN d   1      -5.898  -2.255   4.892  0.00  0.00     0.001 A 
ATOM      7  C7  DEN d   1      -5.324  -1.765   3.749  0.00  0.00     0.017 A 
ATOM      8  C8  DEN d   1      -4.906  -0.441   3.737  0.00  0.00    -0.094 A 
ATOM      9  C9  DEN d   1      -5.005   0.349   4.869  0.00  0.00    -0.072 A 
ENDROOT
TORSDOF 0
ENDMDL
