MODEL 1
REMARK minimizedAffinity 13.0728168
REMARK minimizedRMSD -1
REMARK  0 active torsions:
REMARK  status: ('A' for Active; 'I' for Inactive)
ROOT
ATOM      1  C1  DEN d   1      -1.516  -3.841  -3.004  0.00  0.00     0.130 A 
ATOM      2  C2  DEN d   1      -2.790  -3.218  -2.656  0.00  0.00    -0.031 A 
ATOM      3  C3  DEN d   1      -2.593  -2.437  -1.418  0.00  0.00     0.027 A 
ATOM      4  C4  DEN d   1      -0.450  -2.130  -0.017  0.00  0.00     0.027 A 
ATOM      5  C5  DEN d   1       0.880  -2.474   0.091  0.00  0.00    -0.003 A 
ATOM      6  C6  DEN d   1       1.490  -3.318  -0.799  0.00  0.00     0.001 A 
ATOM      7  C7  DEN d   1       0.781  -3.811  -1.862  0.00  0.00     0.017 A 
ATOM      8  C8  DEN d   1      -0.562  -3.475  -1.973  0.00  0.00    -0.094 A 
ATOM      9  C9  DEN d   1      -1.157  -2.610  -1.071  0.00  0.00    -0.072 A 
ENDROOT
TORSDOF 0
ENDMDL
