MODEL 1
REMARK minimizedAffinity 19.3053951
REMARK minimizedRMSD -1
REMARK  0 active torsions:
REMARK  status: ('A' for Active; 'I' for Inactive)
ROOT
ATOM      1  C1  DEN d   1       2.923   0.135   3.772  0.00  0.00     0.130 A 
ATOM      2  C2  DEN d   1       1.573   0.455   4.230  0.00  0.00    -0.031 A 
ATOM      3  C3  DEN d   1       0.791   0.909   3.063  0.00  0.00     0.027 A 
ATOM      4  C4  DEN d   1       1.533   1.143   0.603  0.00  0.00     0.027 A 
ATOM      5  C5  DEN d   1       2.590   1.001  -0.269  0.00  0.00    -0.003 A 
ATOM      6  C6  DEN d   1       3.830   0.596   0.147  0.00  0.00     0.001 A 
ATOM      7  C7  DEN d   1       4.034   0.275   1.464  0.00  0.00     0.017 A 
ATOM      8  C8  DEN d   1       2.975   0.423   2.350  0.00  0.00    -0.094 A 
ATOM      9  C9  DEN d   1       1.725   0.822   1.908  0.00  0.00    -0.072 A 
ENDROOT
TORSDOF 0
ENDMDL
