MODEL 1
REMARK minimizedAffinity 11.2409544
REMARK minimizedRMSD -1
REMARK  0 active torsions:
REMARK  status: ('A' for Active; 'I' for Inactive)
ROOT
ATOM      1  C1  DEN d   1      -0.614  -4.006  -3.043  0.00  0.00     0.130 A 
ATOM      2  C2  DEN d   1      -1.841  -3.747  -3.792  0.00  0.00    -0.031 A 
ATOM      3  C3  DEN d   1      -2.840  -3.197  -2.855  0.00  0.00     0.027 A 
ATOM      4  C4  DEN d   1      -2.608  -2.718  -0.331  0.00  0.00     0.027 A 
ATOM      5  C5  DEN d   1      -1.757  -2.786   0.751  0.00  0.00    -0.003 A 
ATOM      6  C6  DEN d   1      -0.489  -3.293   0.652  0.00  0.00     0.001 A 
ATOM      7  C7  DEN d   1      -0.018  -3.710  -0.565  0.00  0.00     0.017 A 
ATOM      8  C8  DEN d   1      -0.871  -3.651  -1.659  0.00  0.00    -0.094 A 
ATOM      9  C9  DEN d   1      -2.146  -3.125  -1.541  0.00  0.00    -0.072 A 
ENDROOT
TORSDOF 0
ENDMDL
