MODEL 1
REMARK minimizedAffinity 16.1047211
REMARK minimizedRMSD -1
REMARK  0 active torsions:
REMARK  status: ('A' for Active; 'I' for Inactive)
ROOT
ATOM      1  C1  DEN d   1      -0.575  -2.576  -1.949  0.00  0.00     0.130 A 
ATOM      2  C2  DEN d   1      -1.856  -1.875  -1.987  0.00  0.00    -0.031 A 
ATOM      3  C3  DEN d   1      -2.203  -1.636  -3.403  0.00  0.00     0.027 A 
ATOM      4  C4  DEN d   1      -0.891  -2.282  -5.527  0.00  0.00     0.027 A 
ATOM      5  C5  DEN d   1       0.256  -2.880  -5.999  0.00  0.00    -0.003 A 
ATOM      6  C6  DEN d   1       1.216  -3.383  -5.161  0.00  0.00     0.001 A 
ATOM      7  C7  DEN d   1       1.023  -3.339  -3.806  0.00  0.00     0.017 A 
ATOM      8  C8  DEN d   1      -0.128  -2.732  -3.322  0.00  0.00    -0.094 A 
ATOM      9  C9  DEN d   1      -1.091  -2.239  -4.186  0.00  0.00    -0.072 A 
ENDROOT
TORSDOF 0
ENDMDL
