MODEL 1
REMARK minimizedAffinity 17.2943859
REMARK minimizedRMSD -1
REMARK  0 active torsions:
REMARK  status: ('A' for Active; 'I' for Inactive)
ROOT
ATOM      1  C1  DEN d   1       3.551  -0.110   2.419  0.00  0.00     0.130 A 
ATOM      2  C2  DEN d   1       3.510   0.583   1.135  0.00  0.00    -0.031 A 
ATOM      3  C3  DEN d   1       2.315   1.450   1.122  0.00  0.00     0.027 A 
ATOM      4  C4  DEN d   1       0.536   1.789   2.958  0.00  0.00     0.027 A 
ATOM      5  C5  DEN d   1       0.140   1.407   4.221  0.00  0.00    -0.003 A 
ATOM      6  C6  DEN d   1       0.828   0.476   4.952  0.00  0.00     0.001 A 
ATOM      7  C7  DEN d   1       1.976  -0.073   4.444  0.00  0.00     0.017 A 
ATOM      8  C8  DEN d   1       2.378   0.301   3.169  0.00  0.00    -0.094 A 
ATOM      9  C9  DEN d   1       1.675   1.254   2.450  0.00  0.00    -0.072 A 
ENDROOT
TORSDOF 0
ENDMDL
