MODEL 1
REMARK minimizedAffinity 9.29050541
REMARK minimizedRMSD -1
REMARK  0 active torsions:
REMARK  status: ('A' for Active; 'I' for Inactive)
ROOT
ATOM      1  C1  DEN d   1       4.402  -0.581   3.075  0.00  0.00     0.130 A 
ATOM      2  C2  DEN d   1       5.485  -0.515   2.097  0.00  0.00    -0.031 A 
ATOM      3  C3  DEN d   1       4.982   0.199   0.906  0.00  0.00     0.027 A 
ATOM      4  C4  DEN d   1       2.646   1.208   0.486  0.00  0.00     0.027 A 
ATOM      5  C5  DEN d   1       1.390   1.391   1.019  0.00  0.00    -0.003 A 
ATOM      6  C6  DEN d   1       1.041   0.904   2.251  0.00  0.00     0.001 A 
ATOM      7  C7  DEN d   1       1.975   0.248   3.010  0.00  0.00     0.017 A 
ATOM      8  C8  DEN d   1       3.241   0.053   2.476  0.00  0.00    -0.094 A 
ATOM      9  C9  DEN d   1       3.578   0.564   1.234  0.00  0.00    -0.072 A 
ENDROOT
TORSDOF 0
ENDMDL
