MODEL 1
REMARK minimizedAffinity 8.59047508
REMARK minimizedRMSD -1
REMARK  0 active torsions:
REMARK  status: ('A' for Active; 'I' for Inactive)
ROOT
ATOM      1  C1  DEN d   1      -2.206  -2.725   0.867  0.00  0.00     0.130 A 
ATOM      2  C2  DEN d   1      -0.902  -3.004   1.462  0.00  0.00    -0.031 A 
ATOM      3  C3  DEN d   1      -0.010  -3.500   0.394  0.00  0.00     0.027 A 
ATOM      4  C4  DEN d   1      -0.519  -3.855  -2.110  0.00  0.00     0.027 A 
ATOM      5  C5  DEN d   1      -1.492  -3.768  -3.081  0.00  0.00    -0.003 A 
ATOM      6  C6  DEN d   1      -2.770  -3.363  -2.800  0.00  0.00     0.001 A 
ATOM      7  C7  DEN d   1      -3.097  -2.986  -1.525  0.00  0.00     0.017 A 
ATOM      8  C8  DEN d   1      -2.124  -3.079  -0.538  0.00  0.00    -0.094 A 
ATOM      9  C9  DEN d   1      -0.834  -3.479  -0.845  0.00  0.00    -0.072 A 
ENDROOT
TORSDOF 0
ENDMDL
