MODEL 1
REMARK minimizedAffinity 1.23246181
REMARK minimizedRMSD -1
REMARK  1 active torsions:
REMARK  status: ('A' for Active; 'I' for Inactive)
REMARK    1  A    between atoms: C1_2  and  C2_3 
ROOT
ATOM      1  C2  UNL d   1      -0.339   0.096  -1.966  0.00  0.00    -0.081 A 
ATOM      2  C3  UNL d   1       0.337  -0.488  -0.888  0.00  0.00     0.006 A 
ATOM      3  C4  UNL d   1      -0.074  -0.240   0.424  0.00  0.00     0.002 A 
ATOM      4  C5  UNL d   1      -1.171   0.590   0.679  0.00  0.00    -0.080 A 
ATOM      5  C6  UNL d   1      -1.641   0.841   2.081  0.00  0.00     0.076 C 
ATOM      6  C7  UNL d   1      -1.835   1.188  -0.397  0.00  0.00     0.002 A 
ATOM      7  C8  UNL d   1      -1.424   0.940  -1.709  0.00  0.00     0.006 A 
ENDROOT
BRANCH   1   8
ATOM      8  C1  UNL d   1       0.062  -0.221  -3.384  0.00  0.00     0.054 C 
ATOM      9  C   UNL d   1       0.498   1.032  -4.130  0.00  0.00     0.018 C 
ENDBRANCH   1   8
TORSDOF 1
ENDMDL
