MODEL 1
REMARK minimizedAffinity -4.73396826
REMARK minimizedRMSD -1
REMARK  1 active torsions:
REMARK  status: ('A' for Active; 'I' for Inactive)
REMARK    1  A    between atoms: C1_2  and  C2_3 
ROOT
ATOM      1  C2  UNL d   1       0.951  -0.162  -2.672  0.00  0.00    -0.081 A 
ATOM      2  C3  UNL d   1       2.295   0.090  -2.369  0.00  0.00     0.006 A 
ATOM      3  C4  UNL d   1       2.718   0.173  -1.040  0.00  0.00     0.002 A 
ATOM      4  C5  UNL d   1       1.807  -0.003   0.007  0.00  0.00    -0.080 A 
ATOM      5  C6  UNL d   1       2.253   0.054   1.438  0.00  0.00     0.076 C 
ATOM      6  C7  UNL d   1       0.461  -0.237  -0.295  0.00  0.00     0.002 A 
ATOM      7  C8  UNL d   1       0.037  -0.319  -1.624  0.00  0.00     0.006 A 
ENDROOT
BRANCH   1   8
ATOM      8  C1  UNL d   1       0.504  -0.316  -4.103  0.00  0.00     0.054 C 
ATOM      9  C   UNL d   1      -0.896   0.245  -4.308  0.00  0.00     0.018 C 
ENDBRANCH   1   8
TORSDOF 1
ENDMDL
