MODEL 1
REMARK minimizedAffinity -4.80540466
REMARK minimizedRMSD -1
REMARK  1 active torsions:
REMARK  status: ('A' for Active; 'I' for Inactive)
REMARK    1  A    between atoms: C1_2  and  C2_3 
ROOT
ATOM      1  C2  UNL d   1       0.061   0.271  -0.020  0.00  0.00    -0.081 A 
ATOM      2  C3  UNL d   1       1.229   0.167   0.745  0.00  0.00     0.006 A 
ATOM      3  C4  UNL d   1       1.192   0.370   2.127  0.00  0.00     0.002 A 
ATOM      4  C5  UNL d   1      -0.015   0.671   2.767  0.00  0.00    -0.080 A 
ATOM      5  C6  UNL d   1      -0.075   0.861   4.254  0.00  0.00     0.076 C 
ATOM      6  C7  UNL d   1      -1.179   0.792   2.001  0.00  0.00     0.002 A 
ATOM      7  C8  UNL d   1      -1.142   0.590   0.619  0.00  0.00     0.006 A 
ENDROOT
BRANCH   1   8
ATOM      8  C1  UNL d   1       0.087  -0.010  -1.501  0.00  0.00     0.054 C 
ATOM      9  C   UNL d   1       0.983   0.976  -2.236  0.00  0.00     0.018 C 
ENDBRANCH   1   8
TORSDOF 1
ENDMDL
