MODEL 1
REMARK minimizedAffinity -3.09015465
REMARK minimizedRMSD -1
REMARK  1 active torsions:
REMARK  status: ('A' for Active; 'I' for Inactive)
REMARK    1  A    between atoms: C1_2  and  C2_3 
ROOT
ATOM      1  C2  UNL d   1      -0.254  -0.249  -0.609  0.00  0.00    -0.081 A 
ATOM      2  C3  UNL d   1       0.968   0.046   0.007  0.00  0.00     0.006 A 
ATOM      3  C4  UNL d   1       1.000   0.685   1.248  0.00  0.00     0.002 A 
ATOM      4  C5  UNL d   1      -0.189   1.033   1.899  0.00  0.00    -0.080 A 
ATOM      5  C6  UNL d   1      -0.169   1.692   3.246  0.00  0.00     0.076 C 
ATOM      6  C7  UNL d   1      -1.410   0.754   1.276  0.00  0.00     0.002 A 
ATOM      7  C8  UNL d   1      -1.443   0.115   0.034  0.00  0.00     0.006 A 
ENDROOT
BRANCH   1   8
ATOM      8  C1  UNL d   1      -0.293  -0.996  -1.917  0.00  0.00     0.054 C 
ATOM      9  C   UNL d   1       0.226  -0.136  -3.061  0.00  0.00     0.018 C 
ENDBRANCH   1   8
TORSDOF 1
ENDMDL
