MODEL 1
REMARK minimizedAffinity -3.01315141
REMARK minimizedRMSD -1
REMARK  1 active torsions:
REMARK  status: ('A' for Active; 'I' for Inactive)
REMARK    1  A    between atoms: C1_2  and  C2_3 
ROOT
ATOM      1  C2  UNL d   1       0.171  -0.373  -0.284  0.00  0.00    -0.081 A 
ATOM      2  C3  UNL d   1       1.112   0.372   0.436  0.00  0.00     0.006 A 
ATOM      3  C4  UNL d   1       0.795   0.886   1.695  0.00  0.00     0.002 A 
ATOM      4  C5  UNL d   1      -0.465   0.657   2.259  0.00  0.00    -0.080 A 
ATOM      5  C6  UNL d   1      -0.807   1.177   3.623  0.00  0.00     0.076 C 
ATOM      6  C7  UNL d   1      -1.411  -0.073   1.532  0.00  0.00     0.002 A 
ATOM      7  C8  UNL d   1      -1.095  -0.587   0.272  0.00  0.00     0.006 A 
ENDROOT
BRANCH   1   8
ATOM      8  C1  UNL d   1       0.531  -0.983  -1.615  0.00  0.00     0.054 C 
ATOM      9  C   UNL d   1       0.896   0.087  -2.634  0.00  0.00     0.018 C 
ENDBRANCH   1   8
TORSDOF 1
ENDMDL
