MODEL 1
REMARK minimizedAffinity 19.0374813
REMARK minimizedRMSD -1
REMARK  1 active torsions:
REMARK  status: ('A' for Active; 'I' for Inactive)
REMARK    1  A    between atoms: C1_2  and  C2_3 
ROOT
ATOM      1  C2  UNL d   1       1.673   0.661   0.752  0.00  0.00    -0.076 A 
ATOM      2  C3  UNL d   1       2.542   1.652   1.241  0.00  0.00     0.004 A 
ATOM      3  C4  UNL d   1       3.701   1.995   0.548  0.00  0.00    -0.003 A 
ATOM      4  C5  UNL d   1       4.011   1.354  -0.646  0.00  0.00     0.000 A 
ATOM      5  C6  UNL d   1       3.151   0.381  -1.156  0.00  0.00     0.000 A 
ATOM      6  C7  UNL d   1       1.970   0.035  -0.478  0.00  0.00    -0.073 A 
ATOM      7  C8  UNL d   1       1.082  -1.025  -1.070  0.00  0.00     0.078 C 
ENDROOT
BRANCH   1   8
ATOM      8  C1  UNL d   1       0.444   0.312   1.560  0.00  0.00     0.053 C 
ATOM      9  C   UNL d   1       0.269   1.213   2.773  0.00  0.00     0.018 C 
ENDBRANCH   1   8
TORSDOF 1
ENDMDL
