MODEL 1
REMARK minimizedAffinity 18.1379128
REMARK minimizedRMSD -1
REMARK  1 active torsions:
REMARK  status: ('A' for Active; 'I' for Inactive)
REMARK    1  A    between atoms: C1_2  and  C2_3 
ROOT
ATOM      1  C2  UNL d   1       2.499   1.931  -1.841  0.00  0.00    -0.076 A 
ATOM      2  C3  UNL d   1       2.404   3.329  -1.954  0.00  0.00     0.004 A 
ATOM      3  C4  UNL d   1       2.588   4.153  -0.846  0.00  0.00    -0.003 A 
ATOM      4  C5  UNL d   1       2.872   3.593   0.395  0.00  0.00     0.000 A 
ATOM      5  C6  UNL d   1       2.987   2.209   0.523  0.00  0.00     0.000 A 
ATOM      6  C7  UNL d   1       2.820   1.365  -0.589  0.00  0.00    -0.073 A 
ATOM      7  C8  UNL d   1       2.949  -0.121  -0.393  0.00  0.00     0.078 C 
ENDROOT
BRANCH   1   8
ATOM      8  C1  UNL d   1       2.262   1.087  -3.072  0.00  0.00     0.053 C 
ATOM      9  C   UNL d   1       1.263   1.719  -4.029  0.00  0.00     0.018 C 
ENDBRANCH   1   8
TORSDOF 1
ENDMDL
