MODEL 1
REMARK minimizedAffinity -0.896023333
REMARK minimizedRMSD -1
REMARK  1 active torsions:
REMARK  status: ('A' for Active; 'I' for Inactive)
REMARK    1  A    between atoms: C1_2  and  C2_3 
ROOT
ATOM      1  C2  UNL d   1       2.501  -3.473  -1.720  0.00  0.00    -0.076 A 
ATOM      2  C3  UNL d   1       3.853  -3.809  -1.534  0.00  0.00     0.004 A 
ATOM      3  C4  UNL d   1       4.339  -5.061  -1.905  0.00  0.00    -0.003 A 
ATOM      4  C5  UNL d   1       3.481  -5.998  -2.469  0.00  0.00     0.000 A 
ATOM      5  C6  UNL d   1       2.140  -5.676  -2.677  0.00  0.00     0.000 A 
ATOM      6  C7  UNL d   1       1.637  -4.412  -2.324  0.00  0.00    -0.073 A 
ATOM      7  C8  UNL d   1       0.182  -4.121  -2.565  0.00  0.00     0.078 C 
ENDROOT
BRANCH   1   8
ATOM      8  C1  UNL d   1       2.024  -2.109  -1.273  0.00  0.00     0.053 C 
ATOM      9  C   UNL d   1       2.041  -1.088  -2.400  0.00  0.00     0.018 C 
ENDBRANCH   1   8
TORSDOF 1
ENDMDL
