MODEL 1
REMARK minimizedAffinity 15.9786997
REMARK minimizedRMSD -1
REMARK  1 active torsions:
REMARK  status: ('A' for Active; 'I' for Inactive)
REMARK    1  A    between atoms: C1_2  and  C2_3 
ROOT
ATOM      1  C2  UNL d   1      -2.703   1.469   2.679  0.00  0.00    -0.076 A 
ATOM      2  C3  UNL d   1      -1.887   2.598   2.491  0.00  0.00     0.004 A 
ATOM      3  C4  UNL d   1      -0.524   2.463   2.233  0.00  0.00    -0.003 A 
ATOM      4  C5  UNL d   1       0.045   1.196   2.157  0.00  0.00     0.000 A 
ATOM      5  C6  UNL d   1      -0.754   0.065   2.323  0.00  0.00     0.000 A 
ATOM      6  C7  UNL d   1      -2.133   0.183   2.568  0.00  0.00    -0.073 A 
ATOM      7  C8  UNL d   1      -2.945  -1.071   2.745  0.00  0.00     0.078 C 
ENDROOT
BRANCH   1   8
ATOM      8  C1  UNL d   1      -4.170   1.678   2.983  0.00  0.00     0.053 C 
ATOM      9  C   UNL d   1      -4.435   2.997   3.693  0.00  0.00     0.018 C 
ENDBRANCH   1   8
TORSDOF 1
ENDMDL
