MODEL 1
REMARK minimizedAffinity 11.1773691
REMARK minimizedRMSD -1
REMARK  1 active torsions:
REMARK  status: ('A' for Active; 'I' for Inactive)
REMARK    1  A    between atoms: C1_2  and  C2_3 
ROOT
ATOM      1  C2  UNL d   1       0.514   0.801   1.268  0.00  0.00    -0.076 A 
ATOM      2  C3  UNL d   1      -0.800   0.475   0.892  0.00  0.00     0.004 A 
ATOM      3  C4  UNL d   1      -1.893   0.970   1.602  0.00  0.00    -0.003 A 
ATOM      4  C5  UNL d   1      -1.689   1.799   2.699  0.00  0.00     0.000 A 
ATOM      5  C6  UNL d   1      -0.392   2.147   3.075  0.00  0.00     0.000 A 
ATOM      6  C7  UNL d   1       0.720   1.670   2.361  0.00  0.00    -0.073 A 
ATOM      7  C8  UNL d   1       2.097   2.072   2.814  0.00  0.00     0.078 C 
ENDROOT
BRANCH   1   8
ATOM      8  C1  UNL d   1       1.661   0.212   0.477  0.00  0.00     0.053 C 
ATOM      9  C   UNL d   1       1.249  -0.198  -0.928  0.00  0.00     0.018 C 
ENDBRANCH   1   8
TORSDOF 1
ENDMDL
