MODEL 1
REMARK minimizedAffinity 13.5811768
REMARK minimizedRMSD -1
REMARK  1 active torsions:
REMARK  status: ('A' for Active; 'I' for Inactive)
REMARK    1  A    between atoms: C1_2  and  C2_3 
ROOT
ATOM      1  C2  UNL d   1       1.050   0.799   1.085  0.00  0.00    -0.076 A 
ATOM      2  C3  UNL d   1       0.546  -0.071   0.102  0.00  0.00     0.004 A 
ATOM      3  C4  UNL d   1       1.322  -0.439  -0.996  0.00  0.00    -0.003 A 
ATOM      4  C5  UNL d   1       2.615   0.055  -1.128  0.00  0.00     0.000 A 
ATOM      5  C6  UNL d   1       3.138   0.904  -0.153  0.00  0.00     0.000 A 
ATOM      6  C7  UNL d   1       2.374   1.273   0.968  0.00  0.00    -0.073 A 
ATOM      7  C8  UNL d   1       2.986   2.196   1.986  0.00  0.00     0.078 C 
ENDROOT
BRANCH   1   8
ATOM      8  C1  UNL d   1       0.152   1.185   2.239  0.00  0.00     0.053 C 
ATOM      9  C   UNL d   1      -1.324   1.082   1.888  0.00  0.00     0.018 C 
ENDBRANCH   1   8
TORSDOF 1
ENDMDL
