MODEL 1
REMARK minimizedAffinity 12.5854578
REMARK minimizedRMSD -1
REMARK  1 active torsions:
REMARK  status: ('A' for Active; 'I' for Inactive)
REMARK    1  A    between atoms: C1_2  and  C2_3 
ROOT
ATOM      1  C2  UNL d   1       2.795   0.199  -0.318  0.00  0.00    -0.076 A 
ATOM      2  C3  UNL d   1       1.828   0.786  -1.153  0.00  0.00     0.004 A 
ATOM      3  C4  UNL d   1       1.261   0.071  -2.207  0.00  0.00    -0.003 A 
ATOM      4  C5  UNL d   1       1.652  -1.242  -2.443  0.00  0.00     0.000 A 
ATOM      5  C6  UNL d   1       2.597  -1.846  -1.614  0.00  0.00     0.000 A 
ATOM      6  C7  UNL d   1       3.166  -1.145  -0.537  0.00  0.00    -0.073 A 
ATOM      7  C8  UNL d   1       4.184  -1.844   0.321  0.00  0.00     0.078 C 
ENDROOT
BRANCH   1   8
ATOM      8  C1  UNL d   1       3.394   1.031   0.793  0.00  0.00     0.053 C 
ATOM      9  C   UNL d   1       2.337   1.619   1.715  0.00  0.00     0.018 C 
ENDBRANCH   1   8
TORSDOF 1
ENDMDL
