MODEL 1
REMARK minimizedAffinity 14.7573166
REMARK minimizedRMSD -1
REMARK  1 active torsions:
REMARK  status: ('A' for Active; 'I' for Inactive)
REMARK    1  A    between atoms: C1_2  and  C2_3 
ROOT
ATOM      1  C2  UNL d   1      -3.110   1.657   4.005  0.00  0.00    -0.076 A 
ATOM      2  C3  UNL d   1      -4.346   1.950   3.402  0.00  0.00     0.004 A 
ATOM      3  C4  UNL d   1      -5.309   2.705   4.068  0.00  0.00    -0.003 A 
ATOM      4  C5  UNL d   1      -5.052   3.181   5.349  0.00  0.00     0.000 A 
ATOM      5  C6  UNL d   1      -3.825   2.916   5.956  0.00  0.00     0.000 A 
ATOM      6  C7  UNL d   1      -2.837   2.169   5.292  0.00  0.00    -0.073 A 
ATOM      7  C8  UNL d   1      -1.534   1.908   5.996  0.00  0.00     0.078 C 
ENDROOT
BRANCH   1   8
ATOM      8  C1  UNL d   1      -2.115   0.810   3.245  0.00  0.00     0.053 C 
ATOM      9  C   UNL d   1      -1.295   1.623   2.255  0.00  0.00     0.018 C 
ENDBRANCH   1   8
TORSDOF 1
ENDMDL
