MODEL 1
REMARK minimizedAffinity 16.4807434
REMARK minimizedRMSD -1
REMARK  1 active torsions:
REMARK  status: ('A' for Active; 'I' for Inactive)
REMARK    1  A    between atoms: C1_2  and  C2_3 
ROOT
ATOM      1  C2  UNL d   1       0.472   5.955  -1.512  0.00  0.00    -0.076 A 
ATOM      2  C3  UNL d   1       1.516   5.917  -2.453  0.00  0.00     0.004 A 
ATOM      3  C4  UNL d   1       2.849   5.926  -2.046  0.00  0.00    -0.003 A 
ATOM      4  C5  UNL d   1       3.160   5.973  -0.692  0.00  0.00     0.000 A 
ATOM      5  C6  UNL d   1       2.138   5.993   0.256  0.00  0.00     0.000 A 
ATOM      6  C7  UNL d   1       0.788   5.968  -0.137  0.00  0.00    -0.073 A 
ATOM      7  C8  UNL d   1      -0.274   5.998   0.928  0.00  0.00     0.078 C 
ENDROOT
BRANCH   1   8
ATOM      8  C1  UNL d   1      -0.954   5.971  -2.013  0.00  0.00     0.053 C 
ATOM      9  C   UNL d   1      -1.061   5.585  -3.480  0.00  0.00     0.018 C 
ENDBRANCH   1   8
TORSDOF 1
ENDMDL
