MODEL 1
REMARK minimizedAffinity 20.1568508
REMARK minimizedRMSD -1
REMARK  1 active torsions:
REMARK  status: ('A' for Active; 'I' for Inactive)
REMARK    1  A    between atoms: C1_2  and  C2_3 
ROOT
ATOM      1  C2  UNL d   1      -1.762  -4.013  -3.573  0.00  0.00    -0.076 A 
ATOM      2  C3  UNL d   1      -3.070  -3.498  -3.584  0.00  0.00     0.004 A 
ATOM      3  C4  UNL d   1      -3.746  -3.283  -4.783  0.00  0.00    -0.003 A 
ATOM      4  C5  UNL d   1      -3.126  -3.579  -5.992  0.00  0.00     0.000 A 
ATOM      5  C6  UNL d   1      -1.835  -4.107  -6.000  0.00  0.00     0.000 A 
ATOM      6  C7  UNL d   1      -1.145  -4.345  -4.799  0.00  0.00    -0.073 A 
ATOM      7  C8  UNL d   1       0.247  -4.910  -4.866  0.00  0.00     0.078 C 
ENDROOT
BRANCH   1   8
ATOM      8  C1  UNL d   1      -1.068  -4.201  -2.243  0.00  0.00     0.053 C 
ATOM      9  C   UNL d   1       0.398  -3.798  -2.289  0.00  0.00     0.018 C 
ENDBRANCH   1   8
TORSDOF 1
ENDMDL
