MODEL 1
REMARK minimizedAffinity 17.4218826
REMARK minimizedRMSD -1
REMARK  1 active torsions:
REMARK  status: ('A' for Active; 'I' for Inactive)
REMARK    1  A    between atoms: C1_2  and  C2_3 
ROOT
ATOM      1  C2  UNL d   1       1.732   0.163  -2.494  0.00  0.00    -0.076 A 
ATOM      2  C3  UNL d   1       2.578   1.256  -2.236  0.00  0.00     0.004 A 
ATOM      3  C4  UNL d   1       2.947   1.585  -0.933  0.00  0.00    -0.003 A 
ATOM      4  C5  UNL d   1       2.477   0.826   0.133  0.00  0.00     0.000 A 
ATOM      5  C6  UNL d   1       1.651  -0.272  -0.106  0.00  0.00     0.000 A 
ATOM      6  C7  UNL d   1       1.283  -0.627  -1.415  0.00  0.00    -0.073 A 
ATOM      7  C8  UNL d   1       0.385  -1.818  -1.614  0.00  0.00     0.078 C 
ENDROOT
BRANCH   1   8
ATOM      8  C1  UNL d   1       1.344  -0.129  -3.926  0.00  0.00     0.053 C 
ATOM      9  C   UNL d   1       2.090  -1.323  -4.500  0.00  0.00     0.018 C 
ENDBRANCH   1   8
TORSDOF 1
ENDMDL
