MODEL 1
REMARK minimizedAffinity 4.18898344
REMARK minimizedRMSD -1
REMARK  0 active torsions:
REMARK  status: ('A' for Active; 'I' for Inactive)
ROOT
ATOM      1  C1  BNZ d   1      -5.252   2.465  -4.800  0.00  0.00     0.000 A 
ATOM      2  C2  BNZ d   1      -4.799   3.690  -4.388  0.00  0.00     0.000 A 
ATOM      3  C3  BNZ d   1      -4.814   4.034  -3.065  0.00  0.00     0.000 A 
ATOM      4  C4  BNZ d   1      -5.319   3.169  -2.162  0.00  0.00     0.000 A 
ATOM      5  C5  BNZ d   1      -5.788   1.934  -2.562  0.00  0.00     0.000 A 
ATOM      6  C6  BNZ d   1      -5.735   1.576  -3.890  0.00  0.00     0.000 A 
ENDROOT
TORSDOF 0
ENDMDL
