MODEL 1
REMARK minimizedAffinity 3.51162434
REMARK minimizedRMSD -1
REMARK  0 active torsions:
REMARK  status: ('A' for Active; 'I' for Inactive)
ROOT
ATOM      1  C1  BNZ d   1      -5.999   1.001  -2.762  0.00  0.00     0.000 A 
ATOM      2  C2  BNZ d   1      -6.000   0.878  -4.126  0.00  0.00     0.000 A 
ATOM      3  C3  BNZ d   1      -5.971   1.984  -4.929  0.00  0.00     0.000 A 
ATOM      4  C4  BNZ d   1      -5.982   3.211  -4.368  0.00  0.00     0.000 A 
ATOM      5  C5  BNZ d   1      -5.991   3.351  -2.994  0.00  0.00     0.000 A 
ATOM      6  C6  BNZ d   1      -5.981   2.235  -2.189  0.00  0.00     0.000 A 
ENDROOT
TORSDOF 0
ENDMDL
