MODEL 1
REMARK minimizedAffinity -0.284581393
REMARK minimizedRMSD -1
REMARK  0 active torsions:
REMARK  status: ('A' for Active; 'I' for Inactive)
ROOT
ATOM      1  C1  BNZ d   1      -5.921   2.576  -4.128  0.00  0.00     0.000 A 
ATOM      2  C2  BNZ d   1      -5.799   3.843  -3.622  0.00  0.00     0.000 A 
ATOM      3  C3  BNZ d   1      -5.743   4.055  -2.273  0.00  0.00     0.000 A 
ATOM      4  C4  BNZ d   1      -5.849   3.006  -1.432  0.00  0.00     0.000 A 
ATOM      5  C5  BNZ d   1      -5.981   1.724  -1.927  0.00  0.00     0.000 A 
ATOM      6  C6  BNZ d   1      -5.998   1.510  -3.286  0.00  0.00     0.000 A 
ENDROOT
TORSDOF 0
ENDMDL
