MODEL 1
REMARK minimizedAffinity -2.19813967
REMARK minimizedRMSD -1
REMARK  0 active torsions:
REMARK  status: ('A' for Active; 'I' for Inactive)
ROOT
ATOM      1  C1  BNZ d   1      -6.000   1.736  -2.407  0.00  0.00     0.000 A 
ATOM      2  C2  BNZ d   1      -6.000   1.623  -3.772  0.00  0.00     0.000 A 
ATOM      3  C3  BNZ d   1      -5.975   2.735  -4.567  0.00  0.00     0.000 A 
ATOM      4  C4  BNZ d   1      -5.991   3.957  -3.998  0.00  0.00     0.000 A 
ATOM      5  C5  BNZ d   1      -6.000   4.088  -2.623  0.00  0.00     0.000 A 
ATOM      6  C6  BNZ d   1      -5.985   2.967  -1.826  0.00  0.00     0.000 A 
ENDROOT
TORSDOF 0
ENDMDL
