MODEL 1
REMARK minimizedAffinity 5.99520636
REMARK minimizedRMSD -1
REMARK  0 active torsions:
REMARK  status: ('A' for Active; 'I' for Inactive)
ROOT
ATOM      1  C1  BNZ d   1      -1.433   4.348  -1.709  0.00  0.00     0.000 A 
ATOM      2  C2  BNZ d   1      -0.692   3.262  -1.328  0.00  0.00     0.000 A 
ATOM      3  C3  BNZ d   1       0.082   3.303  -0.201  0.00  0.00     0.000 A 
ATOM      4  C4  BNZ d   1       0.144   4.442   0.519  0.00  0.00     0.000 A 
ATOM      5  C5  BNZ d   1      -0.590   5.548   0.142  0.00  0.00     0.000 A 
ATOM      6  C6  BNZ d   1      -1.398   5.491  -0.971  0.00  0.00     0.000 A 
ENDROOT
TORSDOF 0
ENDMDL
