MODEL 1
REMARK minimizedAffinity 3.39270759
REMARK minimizedRMSD -1
REMARK  0 active torsions:
REMARK  status: ('A' for Active; 'I' for Inactive)
ROOT
ATOM      1  C   UNL d   1      -5.997  -0.851   5.980  0.00  0.00     0.172 C 
ATOM      2  N   UNL d   1      -5.997  -1.237   4.589  0.00  0.00    -0.070 N 
ATOM      3  C1  UNL d   1      -5.997  -2.523   4.117  0.00  0.00    -0.004 A 
ATOM      4  C2  UNL d   1      -5.997  -2.467   2.740  0.00  0.00    -0.047 A 
ATOM      5  C3  UNL d   1      -5.997  -1.101   2.372  0.00  0.00    -0.047 A 
ATOM      6  C4  UNL d   1      -5.997  -0.362   3.536  0.00  0.00    -0.004 A 
ENDROOT
TORSDOF 0
ENDMDL
