MODEL 1
REMARK minimizedAffinity 1.99031281
REMARK minimizedRMSD -1
REMARK  0 active torsions:
REMARK  status: ('A' for Active; 'I' for Inactive)
ROOT
ATOM      1  C   UNL d   1      -5.958  -3.318   2.636  0.00  0.00     0.172 C 
ATOM      2  N   UNL d   1      -5.959  -2.529   3.845  0.00  0.00    -0.070 N 
ATOM      3  C1  UNL d   1      -5.952  -1.161   3.906  0.00  0.00    -0.004 A 
ATOM      4  C2  UNL d   1      -5.956  -0.798   5.236  0.00  0.00    -0.047 A 
ATOM      5  C3  UNL d   1      -5.966  -1.989   6.000  0.00  0.00    -0.047 A 
ATOM      6  C4  UNL d   1      -5.967  -3.046   5.114  0.00  0.00    -0.004 A 
ENDROOT
TORSDOF 0
ENDMDL
