MODEL 1
REMARK minimizedAffinity -2.5319941
REMARK minimizedRMSD -1
REMARK  0 active torsions:
REMARK  status: ('A' for Active; 'I' for Inactive)
ROOT
ATOM      1  C   UNL d   1      -0.115   2.202   1.931  0.00  0.00     0.172 C 
ATOM      2  N   UNL d   1       0.026   1.439   0.713  0.00  0.00    -0.070 N 
ATOM      3  C1  UNL d   1       0.332   0.107   0.636  0.00  0.00    -0.004 A 
ATOM      4  C2  UNL d   1       0.373  -0.241  -0.696  0.00  0.00    -0.047 A 
ATOM      5  C3  UNL d   1       0.082   0.924  -1.447  0.00  0.00    -0.047 A 
ATOM      6  C4  UNL d   1      -0.128   1.949  -0.549  0.00  0.00    -0.004 A 
ENDROOT
TORSDOF 0
ENDMDL
