MODEL 1
REMARK minimizedAffinity -1.10818291
REMARK minimizedRMSD -1
REMARK  0 active torsions:
REMARK  status: ('A' for Active; 'I' for Inactive)
ROOT
ATOM      1  C   UNL d   1      -0.266   1.126  -0.988  0.00  0.00     0.172 C 
ATOM      2  N   UNL d   1      -0.126   1.996   0.156  0.00  0.00    -0.070 N 
ATOM      3  C1  UNL d   1      -0.316   1.634   1.463  0.00  0.00    -0.004 A 
ATOM      4  C2  UNL d   1      -0.087   2.744   2.246  0.00  0.00    -0.047 A 
ATOM      5  C3  UNL d   1       0.251   3.811   1.380  0.00  0.00    -0.047 A 
ATOM      6  C4  UNL d   1       0.219   3.320   0.092  0.00  0.00    -0.004 A 
ENDROOT
TORSDOF 0
ENDMDL
