MODEL 1
REMARK minimizedAffinity 0.0252385605
REMARK minimizedRMSD -1
REMARK  0 active torsions:
REMARK  status: ('A' for Active; 'I' for Inactive)
ROOT
ATOM      1  C   UNL d   1       0.143   0.872  -1.197  0.00  0.00     0.172 C 
ATOM      2  N   UNL d   1       0.546   0.723   0.182  0.00  0.00    -0.070 N 
ATOM      3  C1  UNL d   1       0.385   1.661   1.167  0.00  0.00    -0.004 A 
ATOM      4  C2  UNL d   1       0.897   1.138   2.335  0.00  0.00    -0.047 A 
ATOM      5  C3  UNL d   1       1.383  -0.158   2.042  0.00  0.00    -0.047 A 
ATOM      6  C4  UNL d   1       1.154  -0.389   0.702  0.00  0.00    -0.004 A 
ENDROOT
TORSDOF 0
ENDMDL
