MODEL 1
REMARK minimizedAffinity -2.54943514
REMARK minimizedRMSD -1
REMARK  1 active torsions:
REMARK  status: ('A' for Active; 'I' for Inactive)
REMARK    1  A    between atoms: C3_4  and  O_7 
ROOT
ATOM      1  C   UNL d   1       0.207  -1.817  -0.385  0.00  0.00    -0.033 A 
ATOM      2  C1  UNL d   1       1.583  -1.740  -0.165  0.00  0.00     0.039 A 
ATOM      3  C2  UNL d   1       2.174  -0.515   0.151  0.00  0.00    -0.080 A 
ATOM      4  C3  UNL d   1       1.378   0.624   0.243  0.00  0.00     0.150 A 
ATOM      5  C4  UNL d   1       0.006   0.553   0.029  0.00  0.00    -0.007 A 
ATOM      6  C5  UNL d   1      -0.582  -0.671  -0.287  0.00  0.00     0.039 A 
ENDROOT
BRANCH   4   7
ATOM      7  O   UNL d   1       1.910   1.842   0.544  0.00  0.00    -0.526 OA
ATOM      8  H5  UNL d   1       2.872   1.744   0.637  0.00  0.00     0.418 HD
ENDBRANCH   4   7
TORSDOF 1
ENDMDL
