MODEL 1
REMARK minimizedAffinity -3.76525712
REMARK minimizedRMSD -1
REMARK  1 active torsions:
REMARK  status: ('A' for Active; 'I' for Inactive)
REMARK    1  A    between atoms: C3_4  and  O_7 
ROOT
ATOM      1  C   UNL d   1      -1.030  -0.047  -0.897  0.00  0.00    -0.033 A 
ATOM      2  C1  UNL d   1      -0.646  -1.256  -1.479  0.00  0.00     0.039 A 
ATOM      3  C2  UNL d   1       0.592  -1.821  -1.167  0.00  0.00    -0.080 A 
ATOM      4  C3  UNL d   1       1.434  -1.169  -0.271  0.00  0.00     0.150 A 
ATOM      5  C4  UNL d   1       1.056   0.034   0.317  0.00  0.00    -0.007 A 
ATOM      6  C5  UNL d   1      -0.180   0.598   0.002  0.00  0.00     0.039 A 
ENDROOT
BRANCH   4   7
ATOM      7  O   UNL d   1       2.654  -1.680   0.062  0.00  0.00    -0.526 OA
ATOM      8  H5  UNL d   1       2.792  -2.499  -0.442  0.00  0.00     0.418 HD
ENDBRANCH   4   7
TORSDOF 1
ENDMDL
