MODEL 1
REMARK minimizedAffinity -1.11352861
REMARK minimizedRMSD -1
REMARK  1 active torsions:
REMARK  status: ('A' for Active; 'I' for Inactive)
REMARK    1  A    between atoms: C3_4  and  O_7 
ROOT
ATOM      1  C   UNL d   1      -3.692  -0.115   0.590  0.00  0.00    -0.033 A 
ATOM      2  C1  UNL d   1      -3.045   0.822  -0.218  0.00  0.00     0.039 A 
ATOM      3  C2  UNL d   1      -2.733   2.085   0.288  0.00  0.00    -0.080 A 
ATOM      4  C3  UNL d   1      -3.071   2.398   1.602  0.00  0.00     0.150 A 
ATOM      5  C4  UNL d   1      -3.712   1.467   2.414  0.00  0.00    -0.007 A 
ATOM      6  C5  UNL d   1      -4.024   0.207   1.906  0.00  0.00     0.039 A 
ENDROOT
BRANCH   4   7
ATOM      7  O   UNL d   1      -2.791   3.619   2.139  0.00  0.00    -0.526 OA
ATOM      8  H5  UNL d   1      -2.373   4.168   1.454  0.00  0.00     0.418 HD
ENDBRANCH   4   7
TORSDOF 1
ENDMDL
