MODEL 1
REMARK minimizedAffinity -2.42475772
REMARK minimizedRMSD -1
REMARK  1 active torsions:
REMARK  status: ('A' for Active; 'I' for Inactive)
REMARK    1  A    between atoms: C3_4  and  O_7 
ROOT
ATOM      1  C   UNL d   1       1.369  -2.037  -0.451  0.00  0.00    -0.033 A 
ATOM      2  C1  UNL d   1       0.320  -1.117  -0.435  0.00  0.00     0.039 A 
ATOM      3  C2  UNL d   1       0.586   0.246  -0.290  0.00  0.00    -0.080 A 
ATOM      4  C3  UNL d   1       1.905   0.675  -0.164  0.00  0.00     0.150 A 
ATOM      5  C4  UNL d   1       2.955  -0.237  -0.183  0.00  0.00    -0.007 A 
ATOM      6  C5  UNL d   1       2.687  -1.597  -0.327  0.00  0.00     0.039 A 
ENDROOT
BRANCH   4   7
ATOM      7  O   UNL d   1       2.214   1.994  -0.015  0.00  0.00    -0.526 OA
ATOM      8  H5  UNL d   1       1.387   2.503   0.009  0.00  0.00     0.418 HD
ENDBRANCH   4   7
TORSDOF 1
ENDMDL
