MODEL 1
REMARK minimizedAffinity -4.87876415
REMARK minimizedRMSD -1
REMARK  1 active torsions:
REMARK  status: ('A' for Active; 'I' for Inactive)
REMARK    1  A    between atoms: C3_4  and  O_7 
ROOT
ATOM      1  C   UNL d   1       1.238  -1.381   0.092  0.00  0.00    -0.033 A 
ATOM      2  C1  UNL d   1       2.629  -1.413  -0.023  0.00  0.00     0.039 A 
ATOM      3  C2  UNL d   1       3.353  -0.221  -0.093  0.00  0.00    -0.080 A 
ATOM      4  C3  UNL d   1       2.674   0.994  -0.047  0.00  0.00     0.150 A 
ATOM      5  C4  UNL d   1       1.289   1.033   0.072  0.00  0.00    -0.007 A 
ATOM      6  C5  UNL d   1       0.568  -0.159   0.141  0.00  0.00     0.039 A 
ENDROOT
BRANCH   4   7
ATOM      7  O   UNL d   1       3.337   2.184  -0.117  0.00  0.00    -0.526 OA
ATOM      8  H5  UNL d   1       4.285   2.002  -0.226  0.00  0.00     0.418 HD
ENDBRANCH   4   7
TORSDOF 1
ENDMDL
