MODEL 1
REMARK minimizedAffinity 1.11784339
REMARK minimizedRMSD -1
REMARK  1 active torsions:
REMARK  status: ('A' for Active; 'I' for Inactive)
REMARK    1  A    between atoms: C3_4  and  O_7 
ROOT
ATOM      1  C   UNL d   1      -2.908   0.467  -0.697  0.00  0.00    -0.033 A 
ATOM      2  C1  UNL d   1      -4.215   0.739  -0.288  0.00  0.00     0.039 A 
ATOM      3  C2  UNL d   1      -4.541   0.722   1.069  0.00  0.00    -0.080 A 
ATOM      4  C3  UNL d   1      -3.553   0.434   2.006  0.00  0.00     0.150 A 
ATOM      5  C4  UNL d   1      -2.248   0.166   1.606  0.00  0.00    -0.007 A 
ATOM      6  C5  UNL d   1      -1.924   0.182   0.250  0.00  0.00     0.039 A 
ENDROOT
BRANCH   4   7
ATOM      7  O   UNL d   1      -3.825   0.402   3.342  0.00  0.00    -0.526 OA
ATOM      8  H5  UNL d   1      -4.773   0.578   3.467  0.00  0.00     0.418 HD
ENDBRANCH   4   7
TORSDOF 1
ENDMDL
