MODEL 1
REMARK minimizedAffinity -3.75970721
REMARK minimizedRMSD -1
REMARK  1 active torsions:
REMARK  status: ('A' for Active; 'I' for Inactive)
REMARK    1  A    between atoms: C3_4  and  O_7 
ROOT
ATOM      1  C   UNL d   1      -0.127  -0.561  -0.922  0.00  0.00    -0.033 A 
ATOM      2  C1  UNL d   1       0.277  -1.884  -1.113  0.00  0.00     0.039 A 
ATOM      3  C2  UNL d   1       1.570  -2.278  -0.762  0.00  0.00    -0.080 A 
ATOM      4  C3  UNL d   1       2.446  -1.342  -0.220  0.00  0.00     0.150 A 
ATOM      5  C4  UNL d   1       2.049  -0.024  -0.023  0.00  0.00    -0.007 A 
ATOM      6  C5  UNL d   1       0.758   0.369  -0.375  0.00  0.00     0.039 A 
ENDROOT
BRANCH   4   7
ATOM      7  O   UNL d   1       3.719  -1.679   0.134  0.00  0.00    -0.526 OA
ATOM      8  H5  UNL d   1       3.862  -2.615  -0.086  0.00  0.00     0.418 HD
ENDBRANCH   4   7
TORSDOF 1
ENDMDL
