MODEL 1
REMARK minimizedAffinity 8.36886501
REMARK minimizedRMSD -1
REMARK  3 active torsions:
REMARK  status: ('A' for Active; 'I' for Inactive)
REMARK    1  A    between atoms: C3'_2  and  C2'_3 
REMARK    2  A    between atoms: C2'_3  and  C1'_4 
REMARK    3  A    between atoms: C1'_4  and  C1_5 
ROOT
ATOM      1  C1  N4B d   1       3.895   2.239   1.929  0.00  0.00    -0.075 A 
ATOM      2  C2  N4B d   1       5.141   2.330   1.270  0.00  0.00     0.002 A 
ATOM      3  C3  N4B d   1       5.284   1.827   0.000  0.00  0.00     0.002 A 
ATOM      4  C4  N4B d   1       4.206   1.215  -0.621  0.00  0.00    -0.004 A 
ATOM      5  C5  N4B d   1       2.999   1.153   0.013  0.00  0.00     0.002 A 
ATOM      6  C6  N4B d   1       2.840   1.658   1.288  0.00  0.00     0.002 A 
ENDROOT
BRANCH   1   7
ATOM      7  C1' N4B d   1       3.714   2.697   3.350  0.00  0.00     0.057 C 
BRANCH   7   8
ATOM      8  C2' N4B d   1       2.604   1.878   4.003  0.00  0.00     0.009 C 
BRANCH   8   9
ATOM      9  C3' N4B d   1       2.711   1.880   5.518  0.00  0.00     0.004 C 
ATOM     10  C4' N4B d   1       4.131   1.879   6.000  0.00  0.00     0.003 C 
ENDBRANCH   8   9
ENDBRANCH   7   8
ENDBRANCH   1   7
TORSDOF 3
ENDMDL
