MODEL 1
REMARK minimizedAffinity 3.84323072
REMARK minimizedRMSD -1
REMARK  3 active torsions:
REMARK  status: ('A' for Active; 'I' for Inactive)
REMARK    1  A    between atoms: C3'_2  and  C2'_3 
REMARK    2  A    between atoms: C2'_3  and  C1'_4 
REMARK    3  A    between atoms: C1'_4  and  C1_5 
ROOT
ATOM      1  C1  N4B d   1      -1.514   1.356  -0.809  0.00  0.00    -0.075 A 
ATOM      2  C2  N4B d   1      -2.369   1.823   0.213  0.00  0.00     0.002 A 
ATOM      3  C3  N4B d   1      -3.617   1.270   0.370  0.00  0.00     0.002 A 
ATOM      4  C4  N4B d   1      -4.036   0.268  -0.491  0.00  0.00    -0.004 A 
ATOM      5  C5  N4B d   1      -3.195  -0.194  -1.461  0.00  0.00     0.002 A 
ATOM      6  C6  N4B d   1      -1.937   0.349  -1.627  0.00  0.00     0.002 A 
ENDROOT
BRANCH   1   7
ATOM      7  C1' N4B d   1      -0.175   1.988  -1.074  0.00  0.00     0.057 C 
BRANCH   7   8
ATOM      8  C2' N4B d   1       0.877   1.318  -0.196  0.00  0.00     0.009 C 
BRANCH   8   9
ATOM      9  C3' N4B d   1       2.196   1.135  -0.927  0.00  0.00     0.004 C 
ATOM     10  C4' N4B d   1       3.154   0.252  -0.186  0.00  0.00     0.003 C 
ENDBRANCH   8   9
ENDBRANCH   7   8
ENDBRANCH   1   7
TORSDOF 3
ENDMDL
