MODEL 1
REMARK minimizedAffinity -1.33082044
REMARK minimizedRMSD -1
REMARK  3 active torsions:
REMARK  status: ('A' for Active; 'I' for Inactive)
REMARK    1  A    between atoms: C3'_2  and  C2'_3 
REMARK    2  A    between atoms: C2'_3  and  C1'_4 
REMARK    3  A    between atoms: C1'_4  and  C1_5 
ROOT
ATOM      1  C1  N4B d   1       3.378   3.255   4.742  0.00  0.00    -0.075 A 
ATOM      2  C2  N4B d   1       2.979   4.068   5.825  0.00  0.00     0.002 A 
ATOM      3  C3  N4B d   1       2.896   5.430   5.667  0.00  0.00     0.002 A 
ATOM      4  C4  N4B d   1       3.224   6.000   4.446  0.00  0.00    -0.004 A 
ATOM      5  C5  N4B d   1       3.584   5.205   3.397  0.00  0.00     0.002 A 
ATOM      6  C6  N4B d   1       3.668   3.835   3.540  0.00  0.00     0.002 A 
ENDROOT
BRANCH   1   7
ATOM      7  C1' N4B d   1       3.566   1.770   4.891  0.00  0.00     0.057 C 
BRANCH   7   8
ATOM      8  C2' N4B d   1       2.237   1.135   5.290  0.00  0.00     0.009 C 
BRANCH   8   9
ATOM      9  C3' N4B d   1       1.960  -0.140   4.512  0.00  0.00     0.004 C 
ATOM     10  C4' N4B d   1       0.703  -0.062   3.697  0.00  0.00     0.003 C 
ENDBRANCH   8   9
ENDBRANCH   7   8
ENDBRANCH   1   7
TORSDOF 3
ENDMDL
