MODEL 1
REMARK minimizedAffinity 10.1204872
REMARK minimizedRMSD -1
REMARK  0 active torsions:
REMARK  status: ('A' for Active; 'I' for Inactive)
ROOT
ATOM      1  C2' OXE d   1       2.981  -3.699   0.021  0.00  0.00     0.078 C 
ATOM      2  C1' OXE d   1       1.079  -3.605  -2.041  0.00  0.00     0.078 C 
ATOM      3  C1  OXE d   1       1.518  -2.299  -1.430  0.00  0.00    -0.078 A 
ATOM      4  C2  OXE d   1       2.415  -2.357  -0.390  0.00  0.00    -0.078 A 
ATOM      5  C3  OXE d   1       2.895  -1.179   0.174  0.00  0.00     0.003 A 
ATOM      6  C4  OXE d   1       2.358   0.058  -0.205  0.00  0.00    -0.002 A 
ATOM      7  C5  OXE d   1       1.415   0.137  -1.235  0.00  0.00    -0.002 A 
ATOM      8  C6  OXE d   1       1.017  -1.026  -1.885  0.00  0.00     0.003 A 
ENDROOT
TORSDOF 0
ENDMDL
