MODEL 1
REMARK minimizedAffinity 18.5117588
REMARK minimizedRMSD -1
REMARK  0 active torsions:
REMARK  status: ('A' for Active; 'I' for Inactive)
ROOT
ATOM      1  C2' OXE d   1       3.582  -2.018  -0.068  0.00  0.00     0.078 C 
ATOM      2  C1' OXE d   1       1.470  -1.078  -1.660  0.00  0.00     0.078 C 
ATOM      3  C1  OXE d   1       2.508  -0.081  -1.208  0.00  0.00    -0.078 A 
ATOM      4  C2  OXE d   1       3.512  -0.541  -0.390  0.00  0.00    -0.078 A 
ATOM      5  C3  OXE d   1       4.525   0.325   0.010  0.00  0.00     0.003 A 
ATOM      6  C4  OXE d   1       4.448   1.692  -0.284  0.00  0.00    -0.002 A 
ATOM      7  C5  OXE d   1       3.411   2.188  -1.082  0.00  0.00    -0.002 A 
ATOM      8  C6  OXE d   1       2.459   1.309  -1.587  0.00  0.00     0.003 A 
ENDROOT
TORSDOF 0
ENDMDL
