MODEL 1
REMARK minimizedAffinity 21.1109314
REMARK minimizedRMSD -1
REMARK  0 active torsions:
REMARK  status: ('A' for Active; 'I' for Inactive)
ROOT
ATOM      1  C2' OXE d   1       1.931  -4.212  -0.401  0.00  0.00     0.078 C 
ATOM      2  C1' OXE d   1       0.445  -3.505  -2.676  0.00  0.00     0.078 C 
ATOM      3  C1  OXE d   1       1.257  -2.427  -2.003  0.00  0.00    -0.078 A 
ATOM      4  C2  OXE d   1       1.944  -2.770  -0.863  0.00  0.00    -0.078 A 
ATOM      5  C3  OXE d   1       2.751  -1.827  -0.234  0.00  0.00     0.003 A 
ATOM      6  C4  OXE d   1       2.749  -0.494  -0.662  0.00  0.00    -0.002 A 
ATOM      7  C5  OXE d   1       2.026  -0.114  -1.797  0.00  0.00    -0.002 A 
ATOM      8  C6  OXE d   1       1.310  -1.075  -2.502  0.00  0.00     0.003 A 
ENDROOT
TORSDOF 0
ENDMDL
