MODEL 1
REMARK minimizedAffinity 12.1067429
REMARK minimizedRMSD -1
REMARK  0 active torsions:
REMARK  status: ('A' for Active; 'I' for Inactive)
ROOT
ATOM      1  C2' OXE d   1       5.995  -5.999  -0.015  0.00  0.00     0.078 C 
ATOM      2  C1' OXE d   1       5.996  -3.194   0.089  0.00  0.00     0.078 C 
ATOM      3  C1  OXE d   1       4.662  -3.897   0.091  0.00  0.00    -0.078 A 
ATOM      4  C2  OXE d   1       4.670  -5.268  -0.007  0.00  0.00    -0.078 A 
ATOM      5  C3  OXE d   1       3.469  -5.970   0.045  0.00  0.00     0.003 A 
ATOM      6  C4  OXE d   1       2.247  -5.285   0.042  0.00  0.00    -0.002 A 
ATOM      7  C5  OXE d   1       2.216  -3.888   0.102  0.00  0.00    -0.002 A 
ATOM      8  C6  OXE d   1       3.412  -3.182   0.170  0.00  0.00     0.003 A 
ENDROOT
TORSDOF 0
ENDMDL
