MODEL 1
REMARK minimizedAffinity 1.78789568
REMARK minimizedRMSD -1
REMARK  0 active torsions:
REMARK  status: ('A' for Active; 'I' for Inactive)
ROOT
ATOM      1  C2' OXE d   1       1.926  -3.047  -2.743  0.00  0.00     0.078 C 
ATOM      2  C1' OXE d   1       2.957  -3.020  -0.132  0.00  0.00     0.078 C 
ATOM      3  C1  OXE d   1       2.594  -1.697  -0.759  0.00  0.00    -0.078 A 
ATOM      4  C2  OXE d   1       2.134  -1.716  -2.053  0.00  0.00    -0.078 A 
ATOM      5  C3  OXE d   1       1.733  -0.529  -2.660  0.00  0.00     0.003 A 
ATOM      6  C4  OXE d   1       1.938   0.699  -2.019  0.00  0.00    -0.002 A 
ATOM      7  C5  OXE d   1       2.442   0.744  -0.715  0.00  0.00    -0.002 A 
ATOM      8  C6  OXE d   1       2.734  -0.445  -0.056  0.00  0.00     0.003 A 
ENDROOT
TORSDOF 0
ENDMDL
