MODEL 1
REMARK minimizedAffinity 24.1202774
REMARK minimizedRMSD -1
REMARK  0 active torsions:
REMARK  status: ('A' for Active; 'I' for Inactive)
ROOT
ATOM      1  C2' OXE d   1       3.905  -5.903   0.789  0.00  0.00     0.078 C 
ATOM      2  C1' OXE d   1       5.711  -3.755   0.761  0.00  0.00     0.078 C 
ATOM      3  C1  OXE d   1       4.251  -3.449   0.539  0.00  0.00    -0.078 A 
ATOM      4  C2  OXE d   1       3.380  -4.512   0.508  0.00  0.00    -0.078 A 
ATOM      5  C3  OXE d   1       2.015  -4.280   0.362  0.00  0.00     0.003 A 
ATOM      6  C4  OXE d   1       1.540  -2.991   0.093  0.00  0.00    -0.002 A 
ATOM      7  C5  OXE d   1       2.415  -1.900   0.080  0.00  0.00    -0.002 A 
ATOM      8  C6  OXE d   1       3.764  -2.106   0.344  0.00  0.00     0.003 A 
ENDROOT
TORSDOF 0
ENDMDL
