MODEL 1
REMARK minimizedAffinity 19.2916107
REMARK minimizedRMSD -1
REMARK  0 active torsions:
REMARK  status: ('A' for Active; 'I' for Inactive)
ROOT
ATOM      1  C2' OXE d   1      -0.329   1.445   3.396  0.00  0.00     0.078 C 
ATOM      2  C1' OXE d   1      -0.530   2.572   5.959  0.00  0.00     0.078 C 
ATOM      3  C1  OXE d   1      -1.807   2.159   5.269  0.00  0.00    -0.078 A 
ATOM      4  C2  OXE d   1      -1.702   1.651   3.997  0.00  0.00    -0.078 A 
ATOM      5  C3  OXE d   1      -2.844   1.204   3.337  0.00  0.00     0.003 A 
ATOM      6  C4  OXE d   1      -4.111   1.408   3.896  0.00  0.00    -0.002 A 
ATOM      7  C5  OXE d   1      -4.243   1.960   5.175  0.00  0.00    -0.002 A 
ATOM      8  C6  OXE d   1      -3.100   2.300   5.891  0.00  0.00     0.003 A 
ENDROOT
TORSDOF 0
ENDMDL
