MODEL 1
REMARK minimizedAffinity 17.0234146
REMARK minimizedRMSD -1
REMARK  0 active torsions:
REMARK  status: ('A' for Active; 'I' for Inactive)
ROOT
ATOM      1  C2' OXE d   1       2.864  -0.128  -0.740  0.00  0.00     0.078 C 
ATOM      2  C1' OXE d   1       2.148   1.180  -3.118  0.00  0.00     0.078 C 
ATOM      3  C1  OXE d   1       2.425   2.030  -1.904  0.00  0.00    -0.078 A 
ATOM      4  C2  OXE d   1       2.729   1.379  -0.732  0.00  0.00    -0.078 A 
ATOM      5  C3  OXE d   1       3.047   2.118   0.404  0.00  0.00     0.003 A 
ATOM      6  C4  OXE d   1       2.910   3.511   0.405  0.00  0.00    -0.002 A 
ATOM      7  C5  OXE d   1       2.563   4.191  -0.767  0.00  0.00    -0.002 A 
ATOM      8  C6  OXE d   1       2.359   3.470  -1.938  0.00  0.00     0.003 A 
ENDROOT
TORSDOF 0
ENDMDL
