MODEL 1
REMARK minimizedAffinity 22.8617249
REMARK minimizedRMSD -1
REMARK  0 active torsions:
REMARK  status: ('A' for Active; 'I' for Inactive)
ROOT
ATOM      1  C2' OXE d   1       3.207   1.157  -0.509  0.00  0.00     0.078 C 
ATOM      2  C1' OXE d   1       1.230  -0.526  -1.577  0.00  0.00     0.078 C 
ATOM      3  C1  OXE d   1       2.375  -1.168  -0.835  0.00  0.00    -0.078 A 
ATOM      4  C2  OXE d   1       3.362  -0.340  -0.356  0.00  0.00    -0.078 A 
ATOM      5  C3  OXE d   1       4.413  -0.876   0.384  0.00  0.00     0.003 A 
ATOM      6  C4  OXE d   1       4.554  -2.263   0.512  0.00  0.00    -0.002 A 
ATOM      7  C5  OXE d   1       3.581  -3.126  -0.002  0.00  0.00    -0.002 A 
ATOM      8  C6  OXE d   1       2.466  -2.594  -0.640  0.00  0.00     0.003 A 
ENDROOT
TORSDOF 0
ENDMDL
