MODEL 1
REMARK minimizedAffinity 13.7252998
REMARK minimizedRMSD -1
REMARK  0 active torsions:
REMARK  status: ('A' for Active; 'I' for Inactive)
ROOT
ATOM      1  C2' OXE d   1      -3.714   2.030   3.004  0.00  0.00     0.078 C 
ATOM      2  C1' OXE d   1      -3.019  -0.678   2.747  0.00  0.00     0.078 C 
ATOM      3  C1  OXE d   1      -1.938   0.350   2.525  0.00  0.00    -0.078 A 
ATOM      4  C2  OXE d   1      -2.297   1.673   2.607  0.00  0.00    -0.078 A 
ATOM      5  C3  OXE d   1      -1.327   2.661   2.465  0.00  0.00     0.003 A 
ATOM      6  C4  OXE d   1      -0.022   2.323   2.087  0.00  0.00    -0.002 A 
ATOM      7  C5  OXE d   1       0.356   0.983   1.959  0.00  0.00    -0.002 A 
ATOM      8  C6  OXE d   1      -0.578  -0.016   2.216  0.00  0.00     0.003 A 
ENDROOT
TORSDOF 0
ENDMDL
