MODEL 1
REMARK minimizedAffinity 16.7181549
REMARK minimizedRMSD -1
REMARK  0 active torsions:
REMARK  status: ('A' for Active; 'I' for Inactive)
ROOT
ATOM      1  C2' OXE d   1      -4.304   1.988   3.076  0.00  0.00     0.078 C 
ATOM      2  C1' OXE d   1      -3.400  -0.653   3.372  0.00  0.00     0.078 C 
ATOM      3  C1  OXE d   1      -2.388   0.398   2.990  0.00  0.00    -0.078 A 
ATOM      4  C2  OXE d   1      -2.848   1.680   2.802  0.00  0.00    -0.078 A 
ATOM      5  C3  OXE d   1      -1.947   2.698   2.503  0.00  0.00     0.003 A 
ATOM      6  C4  OXE d   1      -0.604   2.402   2.241  0.00  0.00    -0.002 A 
ATOM      7  C5  OXE d   1      -0.123   1.097   2.388  0.00  0.00    -0.002 A 
ATOM      8  C6  OXE d   1      -0.991   0.093   2.803  0.00  0.00     0.003 A 
ENDROOT
TORSDOF 0
ENDMDL
