MODEL 1
REMARK minimizedAffinity 12.9877901
REMARK minimizedRMSD -1
REMARK  0 active torsions:
REMARK  status: ('A' for Active; 'I' for Inactive)
ROOT
ATOM      1  C2' OXE d   1      -4.785   3.576   5.999  0.00  0.00     0.078 C 
ATOM      2  C1' OXE d   1      -6.000   3.015   3.531  0.00  0.00     0.078 C 
ATOM      3  C1  OXE d   1      -4.688   2.338   3.840  0.00  0.00    -0.078 A 
ATOM      4  C2  OXE d   1      -4.077   2.654   5.029  0.00  0.00    -0.078 A 
ATOM      5  C3  OXE d   1      -2.893   2.017   5.387  0.00  0.00     0.003 A 
ATOM      6  C4  OXE d   1      -2.240   1.173   4.481  0.00  0.00    -0.002 A 
ATOM      7  C5  OXE d   1      -2.825   0.869   3.247  0.00  0.00    -0.002 A 
ATOM      8  C6  OXE d   1      -4.066   1.408   2.929  0.00  0.00     0.003 A 
ENDROOT
TORSDOF 0
ENDMDL
