MODEL 1
REMARK minimizedAffinity 10.4324636
REMARK minimizedRMSD -1
REMARK  0 active torsions:
REMARK  status: ('A' for Active; 'I' for Inactive)
ROOT
ATOM      1  C2' OXE d   1       1.729   1.956   2.976  0.00  0.00     0.078 C 
ATOM      2  C1' OXE d   1       1.393   0.274   0.754  0.00  0.00     0.078 C 
ATOM      3  C1  OXE d   1       0.153   0.813   1.422  0.00  0.00    -0.078 A 
ATOM      4  C2  OXE d   1       0.325   1.597   2.537  0.00  0.00    -0.078 A 
ATOM      5  C3  OXE d   1      -0.783   2.165   3.159  0.00  0.00     0.003 A 
ATOM      6  C4  OXE d   1      -2.078   1.821   2.753  0.00  0.00    -0.002 A 
ATOM      7  C5  OXE d   1      -2.277   0.991   1.644  0.00  0.00    -0.002 A 
ATOM      8  C6  OXE d   1      -1.174   0.515   0.943  0.00  0.00     0.003 A 
ENDROOT
TORSDOF 0
ENDMDL
