MODEL 1
REMARK minimizedAffinity 12.2543402
REMARK minimizedRMSD -1
REMARK  0 active torsions:
REMARK  status: ('A' for Active; 'I' for Inactive)
ROOT
ATOM      1  C2' OXE d   1       2.731   5.999  -2.613  0.00  0.00     0.078 C 
ATOM      2  C1' OXE d   1      -0.076   5.979  -2.594  0.00  0.00     0.078 C 
ATOM      3  C1  OXE d   1       0.637   5.981  -1.265  0.00  0.00    -0.078 A 
ATOM      4  C2  OXE d   1       2.010   5.944  -1.284  0.00  0.00    -0.078 A 
ATOM      5  C3  OXE d   1       2.718   6.000  -0.086  0.00  0.00     0.003 A 
ATOM      6  C4  OXE d   1       2.044   5.938   1.139  0.00  0.00    -0.002 A 
ATOM      7  C5  OXE d   1       0.646   5.935   1.181  0.00  0.00    -0.002 A 
ATOM      8  C6  OXE d   1      -0.072   6.000  -0.009  0.00  0.00     0.003 A 
ENDROOT
TORSDOF 0
ENDMDL
