MODEL 1
REMARK minimizedAffinity 18.3573036
REMARK minimizedRMSD -1
REMARK  0 active torsions:
REMARK  status: ('A' for Active; 'I' for Inactive)
ROOT
ATOM      1  C2' OXE d   1      -1.192  -4.157  -1.976  0.00  0.00     0.078 C 
ATOM      2  C1' OXE d   1       0.381  -4.993  -4.145  0.00  0.00     0.078 C 
ATOM      3  C1  OXE d   1      -0.964  -4.381  -4.446  0.00  0.00    -0.078 A 
ATOM      4  C2  OXE d   1      -1.747  -4.018  -3.377  0.00  0.00    -0.078 A 
ATOM      5  C3  OXE d   1      -2.974  -3.399  -3.599  0.00  0.00     0.003 A 
ATOM      6  C4  OXE d   1      -3.484  -3.283  -4.898  0.00  0.00    -0.002 A 
ATOM      7  C5  OXE d   1      -2.720  -3.683  -5.999  0.00  0.00    -0.002 A 
ATOM      8  C6  OXE d   1      -1.443  -4.194  -5.793  0.00  0.00     0.003 A 
ENDROOT
TORSDOF 0
ENDMDL
