MODEL 1
REMARK minimizedAffinity 10.8392954
REMARK minimizedRMSD -1
REMARK  0 active torsions:
REMARK  status: ('A' for Active; 'I' for Inactive)
ROOT
ATOM      1  C2' OXE d   1      -5.251   3.747   3.193  0.00  0.00     0.078 C 
ATOM      2  C1' OXE d   1      -5.247   3.731   6.000  0.00  0.00     0.078 C 
ATOM      3  C1  OXE d   1      -4.460   2.658   5.289  0.00  0.00    -0.078 A 
ATOM      4  C2  OXE d   1      -4.506   2.646   3.916  0.00  0.00    -0.078 A 
ATOM      5  C3  OXE d   1      -3.755   1.711   3.209  0.00  0.00     0.003 A 
ATOM      6  C4  OXE d   1      -3.076   0.690   3.886  0.00  0.00    -0.002 A 
ATOM      7  C5  OXE d   1      -3.049   0.660   5.284  0.00  0.00    -0.002 A 
ATOM      8  C6  OXE d   1      -3.700   1.660   5.999  0.00  0.00     0.003 A 
ENDROOT
TORSDOF 0
ENDMDL
