MODEL 1
REMARK minimizedAffinity 15.0391502
REMARK minimizedRMSD -1
REMARK  0 active torsions:
REMARK  status: ('A' for Active; 'I' for Inactive)
ROOT
ATOM      1  C2' OXE d   1       1.591  -0.527  -3.764  0.00  0.00     0.078 C 
ATOM      2  C1' OXE d   1       0.445  -1.873  -1.584  0.00  0.00     0.078 C 
ATOM      3  C1  OXE d   1       1.280  -0.651  -1.296  0.00  0.00    -0.078 A 
ATOM      4  C2  OXE d   1       1.875  -0.025  -2.365  0.00  0.00    -0.078 A 
ATOM      5  C3  OXE d   1       2.611   1.138  -2.161  0.00  0.00     0.003 A 
ATOM      6  C4  OXE d   1       2.878   1.590  -0.862  0.00  0.00    -0.002 A 
ATOM      7  C5  OXE d   1       2.314   0.944   0.243  0.00  0.00    -0.002 A 
ATOM      8  C6  OXE d   1       1.479  -0.149   0.042  0.00  0.00     0.003 A 
ENDROOT
TORSDOF 0
ENDMDL
