MODEL 1
REMARK minimizedAffinity 7.73635864
REMARK minimizedRMSD -1
REMARK  0 active torsions:
REMARK  status: ('A' for Active; 'I' for Inactive)
ROOT
ATOM      1  O1  BZF d   1       1.749  -1.373   3.587  0.00  0.00    -0.204 OA
ATOM      2  C2  BZF d   1       0.732  -1.145   2.680  0.00  0.00     0.174 A 
ATOM      3  C3  BZF d   1       0.943  -1.836   1.541  0.00  0.00    -0.012 A 
ATOM      4  C3A BZF d   1       2.121  -2.611   1.783  0.00  0.00    -0.107 A 
ATOM      5  C4  BZF d   1       2.824  -3.511   1.034  0.00  0.00     0.055 A 
ATOM      6  C5  BZF d   1       3.972  -4.036   1.537  0.00  0.00    -0.016 A 
ATOM      7  C6  BZF d   1       4.448  -3.680   2.782  0.00  0.00     0.022 A 
ATOM      8  C7  BZF d   1       3.783  -2.796   3.564  0.00  0.00     0.029 A 
ATOM      9  C7A BZF d   1       2.605  -2.288   3.072  0.00  0.00     0.058 A 
ENDROOT
TORSDOF 0
ENDMDL
