MODEL 1
REMARK minimizedAffinity -0.251768231
REMARK minimizedRMSD -1
REMARK  0 active torsions:
REMARK  status: ('A' for Active; 'I' for Inactive)
ROOT
ATOM      1  O1  BZF d   1       2.319  -0.801  -0.804  0.00  0.00    -0.204 OA
ATOM      2  C2  BZF d   1       2.707   0.474  -1.170  0.00  0.00     0.174 A 
ATOM      3  C3  BZF d   1       4.020   0.662  -0.929  0.00  0.00    -0.012 A 
ATOM      4  C3A BZF d   1       4.502  -0.602  -0.464  0.00  0.00    -0.107 A 
ATOM      5  C4  BZF d   1       5.732  -1.053  -0.076  0.00  0.00     0.055 A 
ATOM      6  C5  BZF d   1       5.852  -2.322   0.394  0.00  0.00    -0.016 A 
ATOM      7  C6  BZF d   1       4.764  -3.165   0.495  0.00  0.00     0.022 A 
ATOM      8  C7  BZF d   1       3.525  -2.764   0.119  0.00  0.00     0.029 A 
ATOM      9  C7A BZF d   1       3.407  -1.493  -0.388  0.00  0.00     0.058 A 
ENDROOT
TORSDOF 0
ENDMDL
