MODEL 1
REMARK minimizedAffinity -1.33975828
REMARK minimizedRMSD -1
REMARK  0 active torsions:
REMARK  status: ('A' for Active; 'I' for Inactive)
ROOT
ATOM      1  O1  BZF d   1       1.702  -0.989  -0.163  0.00  0.00    -0.204 OA
ATOM      2  C2  BZF d   1       2.521  -0.165  -0.910  0.00  0.00     0.174 A 
ATOM      3  C3  BZF d   1       3.776  -0.656  -0.961  0.00  0.00    -0.012 A 
ATOM      4  C3A BZF d   1       3.717  -1.910  -0.274  0.00  0.00    -0.107 A 
ATOM      5  C4  BZF d   1       4.643  -2.877  -0.005  0.00  0.00     0.055 A 
ATOM      6  C5  BZF d   1       4.280  -3.947   0.751  0.00  0.00    -0.016 A 
ATOM      7  C6  BZF d   1       3.003  -4.079   1.257  0.00  0.00     0.022 A 
ATOM      8  C7  BZF d   1       2.049  -3.148   1.012  0.00  0.00     0.029 A 
ATOM      9  C7A BZF d   1       2.404  -2.082   0.221  0.00  0.00     0.058 A 
ENDROOT
TORSDOF 0
ENDMDL
