MODEL 1
REMARK minimizedAffinity 5.86903667
REMARK minimizedRMSD -1
REMARK  0 active torsions:
REMARK  status: ('A' for Active; 'I' for Inactive)
ROOT
ATOM      1  O1  BZF d   1       2.918  -2.335  -0.220  0.00  0.00    -0.204 OA
ATOM      2  C2  BZF d   1       1.821  -1.809   0.434  0.00  0.00     0.174 A 
ATOM      3  C3  BZF d   1       1.876  -2.079   1.755  0.00  0.00    -0.012 A 
ATOM      4  C3A BZF d   1       3.130  -2.740   1.951  0.00  0.00    -0.107 A 
ATOM      5  C4  BZF d   1       3.764  -3.242   3.051  0.00  0.00     0.055 A 
ATOM      6  C5  BZF d   1       4.946  -3.893   2.893  0.00  0.00    -0.016 A 
ATOM      7  C6  BZF d   1       5.519  -4.065   1.650  0.00  0.00     0.022 A 
ATOM      8  C7  BZF d   1       4.930  -3.580   0.530  0.00  0.00     0.029 A 
ATOM      9  C7A BZF d   1       3.752  -2.893   0.690  0.00  0.00     0.058 A 
ENDROOT
TORSDOF 0
ENDMDL
