MODEL 1
REMARK minimizedAffinity 1.00694942
REMARK minimizedRMSD -1
REMARK  0 active torsions:
REMARK  status: ('A' for Active; 'I' for Inactive)
ROOT
ATOM      1  O1  BZF d   1      -1.067  -2.331   3.403  0.00  0.00    -0.204 OA
ATOM      2  C2  BZF d   1      -0.681  -3.621   3.713  0.00  0.00     0.174 A 
ATOM      3  C3  BZF d   1       0.399  -3.985   2.991  0.00  0.00    -0.012 A 
ATOM      4  C3A BZF d   1       0.763  -2.819   2.246  0.00  0.00    -0.107 A 
ATOM      5  C4  BZF d   1       1.765  -2.547   1.359  0.00  0.00     0.055 A 
ATOM      6  C5  BZF d   1       1.799  -1.331   0.753  0.00  0.00    -0.016 A 
ATOM      7  C6  BZF d   1       0.845  -0.367   1.006  0.00  0.00     0.022 A 
ATOM      8  C7  BZF d   1      -0.165  -0.589   1.882  0.00  0.00     0.029 A 
ATOM      9  C7A BZF d   1      -0.183  -1.805   2.521  0.00  0.00     0.058 A 
ENDROOT
TORSDOF 0
ENDMDL
