MODEL 1
REMARK minimizedAffinity 1.77114046
REMARK minimizedRMSD -1
REMARK  0 active torsions:
REMARK  status: ('A' for Active; 'I' for Inactive)
ROOT
ATOM      1  O1  BZF d   1       1.688  -2.870   1.362  0.00  0.00    -0.204 OA
ATOM      2  C2  BZF d   1       1.086  -3.339   2.514  0.00  0.00     0.174 A 
ATOM      3  C3  BZF d   1       0.065  -2.537   2.880  0.00  0.00    -0.012 A 
ATOM      4  C3A BZF d   1      -0.032  -1.554   1.845  0.00  0.00    -0.107 A 
ATOM      5  C4  BZF d   1      -0.865  -0.493   1.633  0.00  0.00     0.055 A 
ATOM      6  C5  BZF d   1      -0.647   0.314   0.561  0.00  0.00    -0.016 A 
ATOM      7  C6  BZF d   1       0.396   0.092  -0.314  0.00  0.00     0.022 A 
ATOM      8  C7  BZF d   1       1.245  -0.951  -0.148  0.00  0.00     0.029 A 
ATOM      9  C7A BZF d   1       1.008  -1.787   0.915  0.00  0.00     0.058 A 
ENDROOT
TORSDOF 0
ENDMDL
