MODEL 1
REMARK minimizedAffinity 8.10791397
REMARK minimizedRMSD -1
REMARK  0 active torsions:
REMARK  status: ('A' for Active; 'I' for Inactive)
ROOT
ATOM      1  O1  BZF d   1      -0.534  -1.710   3.347  0.00  0.00    -0.204 OA
ATOM      2  C2  BZF d   1       0.653  -2.263   2.906  0.00  0.00     0.174 A 
ATOM      3  C3  BZF d   1       0.968  -1.803   1.678  0.00  0.00    -0.012 A 
ATOM      4  C3A BZF d   1      -0.041  -0.837   1.368  0.00  0.00    -0.107 A 
ATOM      5  C4  BZF d   1      -0.264  -0.024   0.293  0.00  0.00     0.055 A 
ATOM      6  C5  BZF d   1      -1.380   0.750   0.272  0.00  0.00    -0.016 A 
ATOM      7  C6  BZF d   1      -2.296   0.733   1.303  0.00  0.00     0.022 A 
ATOM      8  C7  BZF d   1      -2.115  -0.052   2.393  0.00  0.00     0.029 A 
ATOM      9  C7A BZF d   1      -0.971  -0.811   2.433  0.00  0.00     0.058 A 
ENDROOT
TORSDOF 0
ENDMDL
