MODEL 1
REMARK minimizedAffinity 2.1536653
REMARK minimizedRMSD -1
REMARK  0 active torsions:
REMARK  status: ('A' for Active; 'I' for Inactive)
ROOT
ATOM      1  O1  BZF d   1       1.631  -3.011   1.031  0.00  0.00    -0.204 OA
ATOM      2  C2  BZF d   1       1.964  -4.342   1.191  0.00  0.00     0.174 A 
ATOM      3  C3  BZF d   1       1.210  -4.912   2.152  0.00  0.00    -0.012 A 
ATOM      4  C3A BZF d   1       0.288  -3.896   2.559  0.00  0.00    -0.107 A 
ATOM      5  C4  BZF d   1      -0.727  -3.860   3.472  0.00  0.00     0.055 A 
ATOM      6  C5  BZF d   1      -1.387  -2.691   3.680  0.00  0.00    -0.016 A 
ATOM      7  C6  BZF d   1      -1.056  -1.539   2.998  0.00  0.00     0.022 A 
ATOM      8  C7  BZF d   1      -0.060  -1.526   2.079  0.00  0.00     0.029 A 
ATOM      9  C7A BZF d   1       0.588  -2.714   1.843  0.00  0.00     0.058 A 
ENDROOT
TORSDOF 0
ENDMDL
