MODEL 1
REMARK minimizedAffinity 10.9850235
REMARK minimizedRMSD -1
REMARK  1 active torsions:
REMARK  status: ('A' for Active; 'I' for Inactive)
REMARK    1  A    between atoms: C1_2  and  C2_3 
ROOT
ATOM      1  C2  UNL d   1      -3.749   3.437  -5.210  0.00  0.00    -0.073 A 
ATOM      2  C3  UNL d   1      -2.662   3.047  -6.000  0.00  0.00    -0.002 A 
ATOM      3  C4  UNL d   1      -1.970   1.868  -5.716  0.00  0.00     0.004 A 
ATOM      4  C5  UNL d   1      -2.362   1.065  -4.644  0.00  0.00    -0.004 A 
ATOM      5  C6  UNL d   1      -3.454   1.432  -3.850  0.00  0.00    -0.075 A 
ATOM      6  C7  UNL d   1      -3.886   0.581  -2.693  0.00  0.00     0.076 C 
ATOM      7  C8  UNL d   1      -4.141   2.618  -4.141  0.00  0.00     0.001 A 
ENDROOT
BRANCH   1   8
ATOM      8  C1  UNL d   1      -4.503   4.705  -5.517  0.00  0.00     0.053 C 
ATOM      9  C   UNL d   1      -3.702   5.946  -5.155  0.00  0.00     0.018 C 
ENDBRANCH   1   8
TORSDOF 1
ENDMDL
