MODEL 1
REMARK minimizedAffinity 9.58018017
REMARK minimizedRMSD -1
REMARK  1 active torsions:
REMARK  status: ('A' for Active; 'I' for Inactive)
REMARK    1  A    between atoms: C1_2  and  C2_3 
ROOT
ATOM      1  C2  UNL d   1      -0.879   1.517  -2.770  0.00  0.00    -0.073 A 
ATOM      2  C3  UNL d   1      -1.992   2.363  -2.801  0.00  0.00    -0.002 A 
ATOM      3  C4  UNL d   1      -2.169   3.333  -1.813  0.00  0.00     0.004 A 
ATOM      4  C5  UNL d   1      -1.231   3.471  -0.789  0.00  0.00    -0.004 A 
ATOM      5  C6  UNL d   1      -0.106   2.642  -0.747  0.00  0.00    -0.075 A 
ATOM      6  C7  UNL d   1       0.911   2.776   0.348  0.00  0.00     0.076 C 
ATOM      7  C8  UNL d   1       0.063   1.669  -1.742  0.00  0.00     0.001 A 
ENDROOT
BRANCH   1   8
ATOM      8  C1  UNL d   1      -0.681   0.472  -3.838  0.00  0.00     0.053 C 
ATOM      9  C   UNL d   1      -1.691   0.611  -4.965  0.00  0.00     0.018 C 
ENDBRANCH   1   8
TORSDOF 1
ENDMDL
