MODEL 1
REMARK minimizedAffinity 5.4519124
REMARK minimizedRMSD -1
REMARK  1 active torsions:
REMARK  status: ('A' for Active; 'I' for Inactive)
REMARK    1  A    between atoms: C1_2  and  C2_3 
ROOT
ATOM      1  C2  UNL d   1       1.060   4.851  -0.849  0.00  0.00    -0.081 A 
ATOM      2  C3  UNL d   1       1.963   5.223   0.155  0.00  0.00     0.006 A 
ATOM      3  C4  UNL d   1       1.992   4.537   1.371  0.00  0.00     0.002 A 
ATOM      4  C5  UNL d   1       1.125   3.464   1.601  0.00  0.00    -0.080 A 
ATOM      5  C6  UNL d   1       1.166   2.700   2.891  0.00  0.00     0.076 C 
ATOM      6  C7  UNL d   1       0.210   3.104   0.606  0.00  0.00     0.002 A 
ATOM      7  C8  UNL d   1       0.180   3.790  -0.610  0.00  0.00     0.006 A 
ENDROOT
BRANCH   1   8
ATOM      8  C1  UNL d   1       1.070   5.548  -2.186  0.00  0.00     0.054 C 
ATOM      9  C   UNL d   1      -0.333   5.961  -2.605  0.00  0.00     0.018 C 
ENDBRANCH   1   8
TORSDOF 1
ENDMDL
