MODEL 1
REMARK minimizedAffinity -1.81561029
REMARK minimizedRMSD -1
REMARK  1 active torsions:
REMARK  status: ('A' for Active; 'I' for Inactive)
REMARK    1  A    between atoms: C1_2  and  C2_3 
ROOT
ATOM      1  C2  UNL d   1      -1.362  -1.176  -2.109  0.00  0.00    -0.081 A 
ATOM      2  C3  UNL d   1      -1.389  -0.867  -3.474  0.00  0.00     0.006 A 
ATOM      3  C4  UNL d   1      -2.032   0.288  -3.926  0.00  0.00     0.002 A 
ATOM      4  C5  UNL d   1      -2.651   1.156  -3.021  0.00  0.00    -0.080 A 
ATOM      5  C6  UNL d   1      -3.318   2.415  -3.491  0.00  0.00     0.076 C 
ATOM      6  C7  UNL d   1      -2.639   0.839  -1.659  0.00  0.00     0.002 A 
ATOM      7  C8  UNL d   1      -1.997  -0.316  -1.206  0.00  0.00     0.006 A 
ENDROOT
BRANCH   1   8
ATOM      8  C1  UNL d   1      -0.615  -2.387  -1.611  0.00  0.00     0.054 C 
ATOM      9  C   UNL d   1      -0.975  -3.628  -2.415  0.00  0.00     0.018 C 
ENDBRANCH   1   8
TORSDOF 1
ENDMDL
