MODEL 1
REMARK minimizedAffinity 5.90571308
REMARK minimizedRMSD -1
REMARK  1 active torsions:
REMARK  status: ('A' for Active; 'I' for Inactive)
REMARK    1  A    between atoms: C1_2  and  C2_3 
ROOT
ATOM      1  C2  UNL d   1       1.652  -3.031  -0.634  0.00  0.00    -0.081 A 
ATOM      2  C3  UNL d   1       1.184  -4.349  -0.562  0.00  0.00     0.006 A 
ATOM      3  C4  UNL d   1      -0.056  -4.691  -1.107  0.00  0.00     0.002 A 
ATOM      4  C5  UNL d   1      -0.844  -3.724  -1.739  0.00  0.00    -0.080 A 
ATOM      5  C6  UNL d   1      -2.164  -4.084  -2.354  0.00  0.00     0.076 C 
ATOM      6  C7  UNL d   1      -0.385  -2.404  -1.795  0.00  0.00     0.002 A 
ATOM      7  C8  UNL d   1       0.855  -2.061  -1.250  0.00  0.00     0.006 A 
ENDROOT
BRANCH   1   8
ATOM      8  C1  UNL d   1       3.017  -2.673  -0.105  0.00  0.00     0.054 C 
ATOM      9  C   UNL d   1       3.608  -1.488  -0.856  0.00  0.00     0.018 C 
ENDBRANCH   1   8
TORSDOF 1
ENDMDL
