MODEL 1
REMARK minimizedAffinity -3.95218611
REMARK minimizedRMSD -1
REMARK  1 active torsions:
REMARK  status: ('A' for Active; 'I' for Inactive)
REMARK    1  A    between atoms: C1_2  and  C2_3 
ROOT
ATOM      1  C2  UNL d   1      -5.527   1.555  -4.647  0.00  0.00    -0.081 A 
ATOM      2  C3  UNL d   1      -5.850   1.396  -3.294  0.00  0.00     0.006 A 
ATOM      3  C4  UNL d   1      -5.992   2.510  -2.464  0.00  0.00     0.002 A 
ATOM      4  C5  UNL d   1      -5.821   3.802  -2.974  0.00  0.00    -0.080 A 
ATOM      5  C6  UNL d   1      -6.000   5.008  -2.100  0.00  0.00     0.076 C 
ATOM      6  C7  UNL d   1      -5.480   3.960  -4.321  0.00  0.00     0.002 A 
ATOM      7  C8  UNL d   1      -5.338   2.846  -5.152  0.00  0.00     0.006 A 
ENDROOT
BRANCH   1   8
ATOM      8  C1  UNL d   1      -5.437   0.358  -5.559  0.00  0.00     0.054 C 
ATOM      9  C   UNL d   1      -3.997   0.083  -5.970  0.00  0.00     0.018 C 
ENDBRANCH   1   8
TORSDOF 1
ENDMDL
