MODEL 1
REMARK minimizedAffinity -1.60676312
REMARK minimizedRMSD -1
REMARK  1 active torsions:
REMARK  status: ('A' for Active; 'I' for Inactive)
REMARK    1  A    between atoms: C1_2  and  C2_3 
ROOT
ATOM      1  C2  UNL d   1       0.267   2.411   1.678  0.00  0.00    -0.081 A 
ATOM      2  C3  UNL d   1       1.374   1.555   1.718  0.00  0.00     0.006 A 
ATOM      3  C4  UNL d   1       1.490   0.594   2.726  0.00  0.00     0.002 A 
ATOM      4  C5  UNL d   1       0.498   0.469   3.704  0.00  0.00    -0.080 A 
ATOM      5  C6  UNL d   1       0.595  -0.578   4.774  0.00  0.00     0.076 C 
ATOM      6  C7  UNL d   1      -0.600   1.336   3.675  0.00  0.00     0.002 A 
ATOM      7  C8  UNL d   1      -0.716   2.297   2.668  0.00  0.00     0.006 A 
ENDROOT
BRANCH   1   8
ATOM      8  C1  UNL d   1       0.106   3.405   0.556  0.00  0.00     0.054 C 
ATOM      9  C   UNL d   1      -0.204   2.707  -0.761  0.00  0.00     0.018 C 
ENDBRANCH   1   8
TORSDOF 1
ENDMDL
