MODEL 1
REMARK minimizedAffinity -4.74494743
REMARK minimizedRMSD -1
REMARK  2 active torsions:
REMARK  status: ('A' for Active; 'I' for Inactive)
REMARK    1  A    between atoms: C1_2  and  C2_3 
REMARK    2  A    between atoms: C2_3  and  C3_4 
ROOT
ATOM      1  C3  UNL d   1      -0.037   0.573  -0.451  0.00  0.00    -0.075 A 
ATOM      2  C4  UNL d   1      -0.745   0.309   0.731  0.00  0.00     0.002 A 
ATOM      3  C5  UNL d   1      -0.945  -1.004   1.158  0.00  0.00     0.002 A 
ATOM      4  C6  UNL d   1      -0.451  -2.068   0.406  0.00  0.00    -0.004 A 
ATOM      5  C7  UNL d   1       0.239  -1.818  -0.778  0.00  0.00     0.002 A 
ATOM      6  C8  UNL d   1       0.445  -0.505  -1.206  0.00  0.00     0.002 A 
ENDROOT
BRANCH   1   7
ATOM      7  C2  UNL d   1       0.208   1.992  -0.903  0.00  0.00     0.056 C 
BRANCH   7   8
ATOM      8  C1  UNL d   1       0.574   2.955   0.232  0.00  0.00     0.007 C 
ATOM      9  C   UNL d   1       1.921   3.636   0.031  0.00  0.00     0.009 C 
ENDBRANCH   7   8
ENDBRANCH   1   7
TORSDOF 2
ENDMDL
