MODEL 1
REMARK minimizedAffinity -2.71734834
REMARK minimizedRMSD -1
REMARK  2 active torsions:
REMARK  status: ('A' for Active; 'I' for Inactive)
REMARK    1  A    between atoms: C1_2  and  C2_3 
REMARK    2  A    between atoms: C2_3  and  C3_4 
ROOT
ATOM      1  C3  UNL d   1      -0.293   0.682   0.146  0.00  0.00    -0.075 A 
ATOM      2  C4  UNL d   1      -1.047   0.078   1.163  0.00  0.00     0.002 A 
ATOM      3  C5  UNL d   1      -1.174  -1.310   1.222  0.00  0.00     0.002 A 
ATOM      4  C6  UNL d   1      -0.559  -2.110   0.262  0.00  0.00    -0.004 A 
ATOM      5  C7  UNL d   1       0.179  -1.521  -0.762  0.00  0.00     0.002 A 
ATOM      6  C8  UNL d   1       0.311  -0.132  -0.821  0.00  0.00     0.002 A 
ENDROOT
BRANCH   1   7
ATOM      7  C2  UNL d   1      -0.128   2.182   0.093  0.00  0.00     0.056 C 
BRANCH   7   8
ATOM      8  C1  UNL d   1       1.330   2.645  -0.000  0.00  0.00     0.007 C 
ATOM      9  C   UNL d   1       1.618   3.891   0.828  0.00  0.00     0.009 C 
ENDBRANCH   7   8
ENDBRANCH   1   7
TORSDOF 2
ENDMDL
