MODEL 1
REMARK minimizedAffinity -5.28848696
REMARK minimizedRMSD -1
REMARK  2 active torsions:
REMARK  status: ('A' for Active; 'I' for Inactive)
REMARK    1  A    between atoms: C1_2  and  C2_3 
REMARK    2  A    between atoms: C2_3  and  C3_4 
ROOT
ATOM      1  C3  UNL d   1       0.035   0.183   0.043  0.00  0.00    -0.075 A 
ATOM      2  C4  UNL d   1      -0.819  -0.338   1.027  0.00  0.00     0.002 A 
ATOM      3  C5  UNL d   1      -0.971  -1.716   1.175  0.00  0.00     0.002 A 
ATOM      4  C6  UNL d   1      -0.281  -2.591   0.338  0.00  0.00    -0.004 A 
ATOM      5  C7  UNL d   1       0.557  -2.084  -0.653  0.00  0.00     0.002 A 
ATOM      6  C8  UNL d   1       0.715  -0.705  -0.801  0.00  0.00     0.002 A 
ENDROOT
BRANCH   1   7
ATOM      7  C2  UNL d   1       0.227   1.673  -0.104  0.00  0.00     0.056 C 
BRANCH   7   8
ATOM      8  C1  UNL d   1       1.684   2.130   0.022  0.00  0.00     0.007 C 
ATOM      9  C   UNL d   1       1.896   3.165   1.119  0.00  0.00     0.009 C 
ENDBRANCH   7   8
ENDBRANCH   1   7
TORSDOF 2
ENDMDL
