MODEL 1
REMARK minimizedAffinity -4.7991128
REMARK minimizedRMSD -1
REMARK  2 active torsions:
REMARK  status: ('A' for Active; 'I' for Inactive)
REMARK    1  A    between atoms: C1_2  and  C2_3 
REMARK    2  A    between atoms: C2_3  and  C3_4 
ROOT
ATOM      1  C3  UNL d   1       0.702   1.176   0.198  0.00  0.00    -0.075 A 
ATOM      2  C4  UNL d   1       1.782   1.464   1.045  0.00  0.00     0.002 A 
ATOM      3  C5  UNL d   1       2.099   2.784   1.366  0.00  0.00     0.002 A 
ATOM      4  C6  UNL d   1       1.349   3.832   0.837  0.00  0.00    -0.004 A 
ATOM      5  C7  UNL d   1       0.284   3.559  -0.019  0.00  0.00     0.002 A 
ATOM      6  C8  UNL d   1      -0.038   2.238  -0.338  0.00  0.00     0.002 A 
ENDROOT
BRANCH   1   7
ATOM      7  C2  UNL d   1       0.336  -0.252  -0.129  0.00  0.00     0.056 C 
BRANCH   7   8
ATOM      8  C1  UNL d   1      -0.093  -1.080   1.086  0.00  0.00     0.007 C 
ATOM      9  C   UNL d   1      -0.135  -2.577   0.809  0.00  0.00     0.009 C 
ENDBRANCH   7   8
ENDBRANCH   1   7
TORSDOF 2
ENDMDL
