MODEL 1
REMARK minimizedAffinity -3.62587404
REMARK minimizedRMSD -1
REMARK  2 active torsions:
REMARK  status: ('A' for Active; 'I' for Inactive)
REMARK    1  A    between atoms: C1_2  and  C2_3 
REMARK    2  A    between atoms: C2_3  and  C3_4 
ROOT
ATOM      1  C3  UNL d   1      -0.152   0.727  -0.029  0.00  0.00    -0.075 A 
ATOM      2  C4  UNL d   1       0.423  -0.399  -0.636  0.00  0.00     0.002 A 
ATOM      3  C5  UNL d   1      -0.006  -1.683  -0.297  0.00  0.00     0.002 A 
ATOM      4  C6  UNL d   1      -1.005  -1.858   0.658  0.00  0.00    -0.004 A 
ATOM      5  C7  UNL d   1      -1.572  -0.747   1.279  0.00  0.00     0.002 A 
ATOM      6  C8  UNL d   1      -1.148   0.539   0.939  0.00  0.00     0.002 A 
ENDROOT
BRANCH   1   7
ATOM      7  C2  UNL d   1       0.286   2.120  -0.412  0.00  0.00     0.056 C 
BRANCH   7   8
ATOM      8  C1  UNL d   1       1.760   2.414  -0.114  0.00  0.00     0.007 C 
ATOM      9  C   UNL d   1       2.016   3.864   0.276  0.00  0.00     0.009 C 
ENDBRANCH   7   8
ENDBRANCH   1   7
TORSDOF 2
ENDMDL
