MODEL 1
REMARK minimizedAffinity -4.32863665
REMARK minimizedRMSD -1
REMARK  2 active torsions:
REMARK  status: ('A' for Active; 'I' for Inactive)
REMARK    1  A    between atoms: C1_2  and  C2_3 
REMARK    2  A    between atoms: C2_3  and  C3_4 
ROOT
ATOM      1  C3  UNL d   1      -0.039  -0.420   0.567  0.00  0.00    -0.075 A 
ATOM      2  C4  UNL d   1      -1.217  -0.917   1.142  0.00  0.00     0.002 A 
ATOM      3  C5  UNL d   1      -1.626  -2.229   0.900  0.00  0.00     0.002 A 
ATOM      4  C6  UNL d   1      -0.869  -3.056   0.072  0.00  0.00    -0.004 A 
ATOM      5  C7  UNL d   1       0.295  -2.567  -0.518  0.00  0.00     0.002 A 
ATOM      6  C8  UNL d   1       0.708  -1.257  -0.274  0.00  0.00     0.002 A 
ENDROOT
BRANCH   1   7
ATOM      7  C2  UNL d   1       0.424   0.989   0.849  0.00  0.00     0.056 C 
BRANCH   7   8
ATOM      8  C1  UNL d   1       0.035   2.002  -0.233  0.00  0.00     0.007 C 
ATOM      9  C   UNL d   1       0.422   3.433   0.117  0.00  0.00     0.009 C 
ENDBRANCH   7   8
ENDBRANCH   1   7
TORSDOF 2
ENDMDL
