MODEL 1
REMARK minimizedAffinity -3.88128877
REMARK minimizedRMSD -1
REMARK  2 active torsions:
REMARK  status: ('A' for Active; 'I' for Inactive)
REMARK    1  A    between atoms: C1_2  and  C2_3 
REMARK    2  A    between atoms: C2_3  and  C3_4 
ROOT
ATOM      1  C3  UNL d   1       0.234  -0.258  -0.020  0.00  0.00    -0.075 A 
ATOM      2  C4  UNL d   1      -0.728  -0.713   0.893  0.00  0.00     0.002 A 
ATOM      3  C5  UNL d   1      -0.861  -2.076   1.162  0.00  0.00     0.002 A 
ATOM      4  C6  UNL d   1      -0.042  -2.999   0.515  0.00  0.00    -0.004 A 
ATOM      5  C7  UNL d   1       0.906  -2.559  -0.406  0.00  0.00     0.002 A 
ATOM      6  C8  UNL d   1       1.044  -1.196  -0.673  0.00  0.00     0.002 A 
ENDROOT
BRANCH   1   7
ATOM      7  C2  UNL d   1       0.402   1.218  -0.292  0.00  0.00     0.056 C 
BRANCH   7   8
ATOM      8  C1  UNL d   1       1.809   1.749  -0.003  0.00  0.00     0.007 C 
ATOM      9  C   UNL d   1       1.823   2.902   0.992  0.00  0.00     0.009 C 
ENDBRANCH   7   8
ENDBRANCH   1   7
TORSDOF 2
ENDMDL
