MODEL 1
REMARK minimizedAffinity -5.40075111
REMARK minimizedRMSD -1
REMARK  2 active torsions:
REMARK  status: ('A' for Active; 'I' for Inactive)
REMARK    1  A    between atoms: C1_2  and  C2_3 
REMARK    2  A    between atoms: C2_3  and  C3_4 
ROOT
ATOM      1  C3  UNL d   1       0.486  -1.368  -0.258  0.00  0.00    -0.075 A 
ATOM      2  C4  UNL d   1       0.287  -0.075   0.247  0.00  0.00     0.002 A 
ATOM      3  C5  UNL d   1       0.057   0.996  -0.617  0.00  0.00     0.002 A 
ATOM      4  C6  UNL d   1       0.033   0.791  -1.994  0.00  0.00    -0.004 A 
ATOM      5  C7  UNL d   1       0.246  -0.487  -2.508  0.00  0.00     0.002 A 
ATOM      6  C8  UNL d   1       0.472  -1.561  -1.646  0.00  0.00     0.002 A 
ENDROOT
BRANCH   1   7
ATOM      7  C2  UNL d   1       0.707  -2.536   0.673  0.00  0.00     0.056 C 
BRANCH   7   8
ATOM      8  C1  UNL d   1      -0.355  -3.635   0.556  0.00  0.00     0.007 C 
ATOM      9  C   UNL d   1      -1.779  -3.110   0.677  0.00  0.00     0.009 C 
ENDBRANCH   7   8
ENDBRANCH   1   7
TORSDOF 2
ENDMDL
