MODEL 1
REMARK minimizedAffinity -5.3535471
REMARK minimizedRMSD -1
REMARK  2 active torsions:
REMARK  status: ('A' for Active; 'I' for Inactive)
REMARK    1  A    between atoms: C1_2  and  C2_3 
REMARK    2  A    between atoms: C2_3  and  C3_4 
ROOT
ATOM      1  C3  UNL d   1       0.218   0.253  -0.065  0.00  0.00    -0.075 A 
ATOM      2  C4  UNL d   1      -0.812   0.127   0.878  0.00  0.00     0.002 A 
ATOM      3  C5  UNL d   1      -1.173  -1.128   1.369  0.00  0.00     0.002 A 
ATOM      4  C6  UNL d   1      -0.519  -2.271   0.917  0.00  0.00    -0.004 A 
ATOM      5  C7  UNL d   1       0.495  -2.159  -0.033  0.00  0.00     0.002 A 
ATOM      6  C8  UNL d   1       0.862  -0.904  -0.522  0.00  0.00     0.002 A 
ENDROOT
BRANCH   1   7
ATOM      7  C2  UNL d   1       0.634   1.611  -0.578  0.00  0.00     0.056 C 
BRANCH   7   8
ATOM      8  C1  UNL d   1       2.038   2.041  -0.138  0.00  0.00     0.007 C 
ATOM      9  C   UNL d   1       2.042   3.317   0.693  0.00  0.00     0.009 C 
ENDBRANCH   7   8
ENDBRANCH   1   7
TORSDOF 2
ENDMDL
