MODEL 1
REMARK minimizedAffinity -1.7540946
REMARK minimizedRMSD -1
REMARK  2 active torsions:
REMARK  status: ('A' for Active; 'I' for Inactive)
REMARK    1  A    between atoms: C1_2  and  C2_3 
REMARK    2  A    between atoms: C2_3  and  C3_4 
ROOT
ATOM      1  C3  UNL d   1      -0.545  -0.292   0.275  0.00  0.00    -0.075 A 
ATOM      2  C4  UNL d   1       0.469  -0.514  -0.668  0.00  0.00     0.002 A 
ATOM      3  C5  UNL d   1       0.767  -1.808  -1.097  0.00  0.00     0.002 A 
ATOM      4  C6  UNL d   1       0.064  -2.895  -0.583  0.00  0.00    -0.004 A 
ATOM      5  C7  UNL d   1      -0.935  -2.688   0.367  0.00  0.00     0.002 A 
ATOM      6  C8  UNL d   1      -1.238  -1.394   0.794  0.00  0.00     0.002 A 
ENDROOT
BRANCH   1   7
ATOM      7  C2  UNL d   1      -0.893   1.108   0.721  0.00  0.00     0.056 C 
BRANCH   7   8
ATOM      8  C1  UNL d   1       0.082   2.181   0.224  0.00  0.00     0.007 C 
ATOM      9  C   UNL d   1       0.126   3.413   1.118  0.00  0.00     0.009 C 
ENDBRANCH   7   8
ENDBRANCH   1   7
TORSDOF 2
ENDMDL
