MODEL 1
REMARK minimizedAffinity -3.44892859
REMARK minimizedRMSD -1
REMARK  2 active torsions:
REMARK  status: ('A' for Active; 'I' for Inactive)
REMARK    1  A    between atoms: C1_2  and  C2_3 
REMARK    2  A    between atoms: C2_3  and  C3_4 
ROOT
ATOM      1  C3  UNL d   1      -0.168   0.335   0.100  0.00  0.00    -0.075 A 
ATOM      2  C4  UNL d   1       0.636  -0.449  -0.740  0.00  0.00     0.002 A 
ATOM      3  C5  UNL d   1       0.491  -1.837  -0.765  0.00  0.00     0.002 A 
ATOM      4  C6  UNL d   1      -0.450  -2.457   0.053  0.00  0.00    -0.004 A 
ATOM      5  C7  UNL d   1      -1.242  -1.689   0.904  0.00  0.00     0.002 A 
ATOM      6  C8  UNL d   1      -1.102  -0.300   0.929  0.00  0.00     0.002 A 
ENDROOT
BRANCH   1   7
ATOM      7  C2  UNL d   1      -0.036   1.840   0.111  0.00  0.00     0.056 C 
BRANCH   7   8
ATOM      8  C1  UNL d   1       1.411   2.339   0.032  0.00  0.00     0.007 C 
ATOM      9  C   UNL d   1       1.655   3.601   0.849  0.00  0.00     0.009 C 
ENDBRANCH   7   8
ENDBRANCH   1   7
TORSDOF 2
ENDMDL
