MODEL 1
REMARK minimizedAffinity -5.66899872
REMARK minimizedRMSD -1
REMARK  2 active torsions:
REMARK  status: ('A' for Active; 'I' for Inactive)
REMARK    1  A    between atoms: C1_2  and  C2_3 
REMARK    2  A    between atoms: C2_3  and  C3_4 
ROOT
ATOM      1  C3  UNL d   1       0.091   0.211   0.310  0.00  0.00    -0.075 A 
ATOM      2  C4  UNL d   1      -0.701  -0.103   1.424  0.00  0.00     0.002 A 
ATOM      3  C5  UNL d   1      -0.944  -1.433   1.768  0.00  0.00     0.002 A 
ATOM      4  C6  UNL d   1      -0.406  -2.464   0.999  0.00  0.00    -0.004 A 
ATOM      5  C7  UNL d   1       0.369  -2.163  -0.119  0.00  0.00     0.002 A 
ATOM      6  C8  UNL d   1       0.617  -0.833  -0.463  0.00  0.00     0.002 A 
ENDROOT
BRANCH   1   7
ATOM      7  C2  UNL d   1       0.381   1.649  -0.050  0.00  0.00     0.056 C 
BRANCH   7   8
ATOM      8  C1  UNL d   1       1.836   2.069   0.184  0.00  0.00     0.007 C 
ATOM      9  C   UNL d   1       1.968   3.332   1.025  0.00  0.00     0.009 C 
ENDBRANCH   7   8
ENDBRANCH   1   7
TORSDOF 2
ENDMDL
