MODEL 1
REMARK minimizedAffinity -1.27874172
REMARK minimizedRMSD -1
REMARK  2 active torsions:
REMARK  status: ('A' for Active; 'I' for Inactive)
REMARK    1  A    between atoms: C1_2  and  C2_3 
REMARK    2  A    between atoms: C2_3  and  C3_4 
ROOT
ATOM      1  C3  UNL d   1       0.029  -0.667   0.157  0.00  0.00    -0.075 A 
ATOM      2  C4  UNL d   1       1.177  -1.455  -0.011  0.00  0.00     0.002 A 
ATOM      3  C5  UNL d   1       1.135  -2.828   0.233  0.00  0.00     0.002 A 
ATOM      4  C6  UNL d   1      -0.049  -3.427   0.658  0.00  0.00    -0.004 A 
ATOM      5  C7  UNL d   1      -1.190  -2.651   0.845  0.00  0.00     0.002 A 
ATOM      6  C8  UNL d   1      -1.153  -1.278   0.597  0.00  0.00     0.002 A 
ENDROOT
BRANCH   1   7
ATOM      7  C2  UNL d   1       0.060   0.815  -0.134  0.00  0.00     0.056 C 
BRANCH   7   8
ATOM      8  C1  UNL d   1       1.451   1.446  -0.010  0.00  0.00     0.007 C 
ATOM      9  C   UNL d   1       1.444   2.771   0.740  0.00  0.00     0.009 C 
ENDBRANCH   7   8
ENDBRANCH   1   7
TORSDOF 2
ENDMDL
