MODEL 1
REMARK minimizedAffinity -4.51472473
REMARK minimizedRMSD -1
REMARK  2 active torsions:
REMARK  status: ('A' for Active; 'I' for Inactive)
REMARK    1  A    between atoms: C1_2  and  C2_3 
REMARK    2  A    between atoms: C2_3  and  C3_4 
ROOT
ATOM      1  C3  UNL d   1       0.079   0.029  -0.027  0.00  0.00    -0.075 A 
ATOM      2  C4  UNL d   1       0.971  -0.824  -0.693  0.00  0.00     0.002 A 
ATOM      3  C5  UNL d   1       0.903  -2.205  -0.505  0.00  0.00     0.002 A 
ATOM      4  C6  UNL d   1      -0.047  -2.748   0.357  0.00  0.00    -0.004 A 
ATOM      5  C7  UNL d   1      -0.927  -1.908   1.036  0.00  0.00     0.002 A 
ATOM      6  C8  UNL d   1      -0.865  -0.527   0.847  0.00  0.00     0.002 A 
ENDROOT
BRANCH   1   7
ATOM      7  C2  UNL d   1       0.128   1.522  -0.249  0.00  0.00     0.056 C 
BRANCH   7   8
ATOM      8  C1  UNL d   1       1.480   2.159   0.089  0.00  0.00     0.007 C 
ATOM      9  C   UNL d   1       1.353   3.443   0.898  0.00  0.00     0.009 C 
ENDBRANCH   7   8
ENDBRANCH   1   7
TORSDOF 2
ENDMDL
