MODEL 1
REMARK minimizedAffinity 9.3568573
REMARK minimizedRMSD -1
REMARK  0 active torsions:
REMARK  status: ('A' for Active; 'I' for Inactive)
ROOT
ATOM      1  C   UNL d   1      -4.687   3.074  -1.289  0.00  0.00    -0.002 A 
ATOM      2  C1  UNL d   1      -5.544   1.994  -1.130  0.00  0.00     0.010 A 
ATOM      3  C2  UNL d   1      -5.999   1.279  -2.240  0.00  0.00     0.041 A 
ATOM      4  C3  UNL d   1      -5.573   1.671  -3.525  0.00  0.00    -0.075 A 
ATOM      5  S   UNL d   1      -6.000   0.944  -5.028  0.00  0.00     0.015 SA
ATOM      6  C4  UNL d   1      -5.054   2.049  -5.917  0.00  0.00     0.022 A 
ATOM      7  C5  UNL d   1      -4.421   2.958  -5.102  0.00  0.00     0.026 A 
ATOM      8  C6  UNL d   1      -4.709   2.754  -3.710  0.00  0.00    -0.082 A 
ATOM      9  C7  UNL d   1      -4.266   3.459  -2.564  0.00  0.00     0.045 A 
ENDROOT
TORSDOF 0
ENDMDL
