MODEL 1
REMARK minimizedAffinity 9.80283165
REMARK minimizedRMSD -1
REMARK  0 active torsions:
REMARK  status: ('A' for Active; 'I' for Inactive)
ROOT
ATOM      1  C   UNL d   1      -1.175   5.281  -2.629  0.00  0.00    -0.002 A 
ATOM      2  C1  UNL d   1      -0.006   5.998  -2.414  0.00  0.00     0.010 A 
ATOM      3  C2  UNL d   1       0.916   5.580  -1.452  0.00  0.00     0.041 A 
ATOM      4  C3  UNL d   1       0.642   4.418  -0.705  0.00  0.00    -0.075 A 
ATOM      5  S   UNL d   1       1.626   3.717   0.525  0.00  0.00     0.015 SA
ATOM      6  C4  UNL d   1       0.519   2.450   0.793  0.00  0.00     0.022 A 
ATOM      7  C5  UNL d   1      -0.580   2.543  -0.027  0.00  0.00     0.026 A 
ATOM      8  C6  UNL d   1      -0.527   3.679  -0.904  0.00  0.00    -0.082 A 
ATOM      9  C7  UNL d   1      -1.443   4.129  -1.886  0.00  0.00     0.045 A 
ENDROOT
TORSDOF 0
ENDMDL
