MODEL 1
REMARK minimizedAffinity 12.9791374
REMARK minimizedRMSD -1
REMARK  0 active torsions:
REMARK  status: ('A' for Active; 'I' for Inactive)
ROOT
ATOM      1  C   UNL d   1      -0.106   4.623  -0.576  0.00  0.00    -0.002 A 
ATOM      2  C1  UNL d   1      -1.431   4.805  -0.944  0.00  0.00     0.010 A 
ATOM      3  C2  UNL d   1      -1.758   5.230  -2.233  0.00  0.00     0.041 A 
ATOM      4  C3  UNL d   1      -0.720   5.470  -3.155  0.00  0.00    -0.075 A 
ATOM      5  S   UNL d   1      -0.882   5.995  -4.789  0.00  0.00     0.015 SA
ATOM      6  C4  UNL d   1       0.804   5.989  -5.037  0.00  0.00     0.022 A 
ATOM      7  C5  UNL d   1       1.489   5.598  -3.911  0.00  0.00     0.026 A 
ATOM      8  C6  UNL d   1       0.622   5.292  -2.808  0.00  0.00    -0.082 A 
ATOM      9  C7  UNL d   1       0.921   4.861  -1.493  0.00  0.00     0.045 A 
ENDROOT
TORSDOF 0
ENDMDL
