MODEL 1
REMARK minimizedAffinity 10.5846138
REMARK minimizedRMSD -1
REMARK  0 active torsions:
REMARK  status: ('A' for Active; 'I' for Inactive)
ROOT
ATOM      1  C   UNL d   1       0.171   6.000  -2.590  0.00  0.00    -0.002 A 
ATOM      2  C1  UNL d   1      -0.760   5.081  -3.055  0.00  0.00     0.010 A 
ATOM      3  C2  UNL d   1      -0.972   3.880  -2.376  0.00  0.00     0.041 A 
ATOM      4  C3  UNL d   1      -0.227   3.614  -1.211  0.00  0.00    -0.075 A 
ATOM      5  S   UNL d   1      -0.318   2.209  -0.216  0.00  0.00     0.015 SA
ATOM      6  C4  UNL d   1       0.876   2.796   0.850  0.00  0.00     0.022 A 
ATOM      7  C5  UNL d   1       1.344   4.032   0.471  0.00  0.00     0.026 A 
ATOM      8  C6  UNL d   1       0.716   4.524  -0.723  0.00  0.00    -0.082 A 
ATOM      9  C7  UNL d   1       0.908   5.733  -1.433  0.00  0.00     0.045 A 
ENDROOT
TORSDOF 0
ENDMDL
