MODEL 1
REMARK minimizedAffinity 6.78838348
REMARK minimizedRMSD -1
REMARK  0 active torsions:
REMARK  status: ('A' for Active; 'I' for Inactive)
ROOT
ATOM      1  C   UNL d   1       0.850   3.207   1.902  0.00  0.00    -0.002 A 
ATOM      2  C1  UNL d   1       2.006   3.327   1.144  0.00  0.00     0.010 A 
ATOM      3  C2  UNL d   1       1.942   3.737  -0.189  0.00  0.00     0.041 A 
ATOM      4  C3  UNL d   1       0.684   4.030  -0.752  0.00  0.00    -0.075 A 
ATOM      5  S   UNL d   1       0.362   4.551  -2.364  0.00  0.00     0.015 SA
ATOM      6  C4  UNL d   1      -1.317   4.627  -2.083  0.00  0.00     0.022 A 
ATOM      7  C5  UNL d   1      -1.642   4.267  -0.797  0.00  0.00     0.026 A 
ATOM      8  C6  UNL d   1      -0.494   3.917  -0.008  0.00  0.00    -0.082 A 
ATOM      9  C7  UNL d   1      -0.396   3.498   1.340  0.00  0.00     0.045 A 
ENDROOT
TORSDOF 0
ENDMDL
