MODEL 1
REMARK minimizedAffinity 2.42741871
REMARK minimizedRMSD -1
REMARK  3 active torsions:
REMARK  status: ('A' for Active; 'I' for Inactive)
REMARK    1  A    between atoms: C3'_2  and  C2'_3 
REMARK    2  A    between atoms: C2'_3  and  C1'_4 
REMARK    3  A    between atoms: C1'_4  and  C1_5 
ROOT
ATOM      1  C1  N4B d   1       1.326   1.941  -2.011  0.00  0.00    -0.075 A 
ATOM      2  C2  N4B d   1       1.921   1.985  -3.291  0.00  0.00     0.002 A 
ATOM      3  C3  N4B d   1       2.756   3.023  -3.625  0.00  0.00     0.002 A 
ATOM      4  C4  N4B d   1       2.994   4.034  -2.706  0.00  0.00    -0.004 A 
ATOM      5  C5  N4B d   1       2.436   3.971  -1.463  0.00  0.00     0.002 A 
ATOM      6  C6  N4B d   1       1.598   2.932  -1.112  0.00  0.00     0.002 A 
ENDROOT
BRANCH   1   7
ATOM      7  C1' N4B d   1       0.339   0.872  -1.631  0.00  0.00     0.057 C 
BRANCH   7   8
ATOM      8  C2' N4B d   1       0.743  -0.442  -2.294  0.00  0.00     0.009 C 
BRANCH   8   9
ATOM      9  C3' N4B d   1       1.476  -1.361  -1.332  0.00  0.00     0.004 C 
ATOM     10  C4' N4B d   1       2.698  -0.726  -0.739  0.00  0.00     0.003 C 
ENDBRANCH   8   9
ENDBRANCH   7   8
ENDBRANCH   1   7
TORSDOF 3
ENDMDL
