MODEL 1
REMARK minimizedAffinity 4.63853788
REMARK minimizedRMSD -1
REMARK  3 active torsions:
REMARK  status: ('A' for Active; 'I' for Inactive)
REMARK    1  A    between atoms: C3'_2  and  C2'_3 
REMARK    2  A    between atoms: C2'_3  and  C1'_4 
REMARK    3  A    between atoms: C1'_4  and  C1_5 
ROOT
ATOM      1  C1  N4B d   1       4.820   1.005   3.900  0.00  0.00    -0.075 A 
ATOM      2  C2  N4B d   1       4.442  -0.355   3.961  0.00  0.00     0.002 A 
ATOM      3  C3  N4B d   1       4.856  -1.136   5.013  0.00  0.00     0.002 A 
ATOM      4  C4  N4B d   1       5.660  -0.586   6.000  0.00  0.00    -0.004 A 
ATOM      5  C5  N4B d   1       6.000   0.734   5.947  0.00  0.00     0.002 A 
ATOM      6  C6  N4B d   1       5.588   1.532   4.898  0.00  0.00     0.002 A 
ENDROOT
BRANCH   1   7
ATOM      7  C1' N4B d   1       4.463   1.876   2.727  0.00  0.00     0.057 C 
BRANCH   7   8
ATOM      8  C2' N4B d   1       4.066   3.260   3.233  0.00  0.00     0.009 C 
BRANCH   8   9
ATOM      9  C3' N4B d   1       5.124   4.304   2.922  0.00  0.00     0.004 C 
ATOM     10  C4' N4B d   1       5.722   4.910   4.157  0.00  0.00     0.003 C 
ENDBRANCH   8   9
ENDBRANCH   7   8
ENDBRANCH   1   7
TORSDOF 3
ENDMDL
