MODEL 1
REMARK minimizedAffinity 8.04301357
REMARK minimizedRMSD -1
REMARK  3 active torsions:
REMARK  status: ('A' for Active; 'I' for Inactive)
REMARK    1  A    between atoms: C3'_2  and  C2'_3 
REMARK    2  A    between atoms: C2'_3  and  C1'_4 
REMARK    3  A    between atoms: C1'_4  and  C1_5 
ROOT
ATOM      1  C1  N4B d   1      -2.685  -1.158   2.967  0.00  0.00    -0.075 A 
ATOM      2  C2  N4B d   1      -2.928  -2.516   3.269  0.00  0.00     0.002 A 
ATOM      3  C3  N4B d   1      -4.011  -2.865   4.037  0.00  0.00     0.002 A 
ATOM      4  C4  N4B d   1      -4.851  -1.876   4.527  0.00  0.00    -0.004 A 
ATOM      5  C5  N4B d   1      -4.624  -0.569   4.210  0.00  0.00     0.002 A 
ATOM      6  C6  N4B d   1      -3.541  -0.204   3.436  0.00  0.00     0.002 A 
ENDROOT
BRANCH   1   7
ATOM      7  C1' N4B d   1      -1.465  -0.720   2.203  0.00  0.00     0.057 C 
BRANCH   7   8
ATOM      8  C2' N4B d   1      -1.789  -0.698   0.712  0.00  0.00     0.009 C 
BRANCH   8   9
ATOM      9  C3' N4B d   1      -0.537  -0.571  -0.139  0.00  0.00     0.004 C 
ATOM     10  C4' N4B d   1      -0.220   0.850  -0.498  0.00  0.00     0.003 C 
ENDBRANCH   8   9
ENDBRANCH   7   8
ENDBRANCH   1   7
TORSDOF 3
ENDMDL
