MODEL 1
REMARK minimizedAffinity 6.88585901
REMARK minimizedRMSD -1
REMARK  3 active torsions:
REMARK  status: ('A' for Active; 'I' for Inactive)
REMARK    1  A    between atoms: C3'_2  and  C2'_3 
REMARK    2  A    between atoms: C2'_3  and  C1'_4 
REMARK    3  A    between atoms: C1'_4  and  C1_5 
ROOT
ATOM      1  C1  N4B d   1       0.494  -0.402  -0.830  0.00  0.00    -0.075 A 
ATOM      2  C2  N4B d   1       1.559  -1.182  -1.332  0.00  0.00     0.002 A 
ATOM      3  C3  N4B d   1       1.566  -2.542  -1.136  0.00  0.00     0.002 A 
ATOM      4  C4  N4B d   1       0.534  -3.138  -0.428  0.00  0.00    -0.004 A 
ATOM      5  C5  N4B d   1      -0.504  -2.381   0.031  0.00  0.00     0.002 A 
ATOM      6  C6  N4B d   1      -0.526  -1.014  -0.162  0.00  0.00     0.002 A 
ENDROOT
BRANCH   1   7
ATOM      7  C1' N4B d   1       0.486   1.097  -0.945  0.00  0.00     0.057 C 
BRANCH   7   8
ATOM      8  C2' N4B d   1       1.306   1.692   0.196  0.00  0.00     0.009 C 
BRANCH   8   9
ATOM      9  C3' N4B d   1       1.035   3.175   0.378  0.00  0.00     0.004 C 
ATOM     10  C4' N4B d   1       0.059   3.455   1.482  0.00  0.00     0.003 C 
ENDBRANCH   8   9
ENDBRANCH   7   8
ENDBRANCH   1   7
TORSDOF 3
ENDMDL
