MODEL 1
REMARK minimizedAffinity 3.24415302
REMARK minimizedRMSD -1
REMARK  3 active torsions:
REMARK  status: ('A' for Active; 'I' for Inactive)
REMARK    1  A    between atoms: C3'_2  and  C2'_3 
REMARK    2  A    between atoms: C2'_3  and  C1'_4 
REMARK    3  A    between atoms: C1'_4  and  C1_5 
ROOT
ATOM      1  C1  N4B d   1       0.529  -0.395  -1.002  0.00  0.00    -0.075 A 
ATOM      2  C2  N4B d   1       1.457  -1.206  -1.692  0.00  0.00     0.002 A 
ATOM      3  C3  N4B d   1       1.796  -2.440  -1.192  0.00  0.00     0.002 A 
ATOM      4  C4  N4B d   1       1.237  -2.873   0.001  0.00  0.00    -0.004 A 
ATOM      5  C5  N4B d   1       0.323  -2.095   0.648  0.00  0.00     0.002 A 
ATOM      6  C6  N4B d   1      -0.030  -0.855   0.155  0.00  0.00     0.002 A 
ENDROOT
BRANCH   1   7
ATOM      7  C1' N4B d   1       0.192   0.996  -1.465  0.00  0.00     0.057 C 
BRANCH   7   8
ATOM      8  C2' N4B d   1      -0.113   1.867  -0.250  0.00  0.00     0.009 C 
BRANCH   8   9
ATOM      9  C3' N4B d   1       1.126   2.576   0.267  0.00  0.00     0.004 C 
ATOM     10  C4' N4B d   1       0.831   3.509   1.403  0.00  0.00     0.003 C 
ENDBRANCH   8   9
ENDBRANCH   7   8
ENDBRANCH   1   7
TORSDOF 3
ENDMDL
