MODEL 1
REMARK minimizedAffinity 1.80907667
REMARK minimizedRMSD -1
REMARK  3 active torsions:
REMARK  status: ('A' for Active; 'I' for Inactive)
REMARK    1  A    between atoms: C3'_2  and  C2'_3 
REMARK    2  A    between atoms: C2'_3  and  C1'_4 
REMARK    3  A    between atoms: C1'_4  and  C1_5 
ROOT
ATOM      1  C1  N4B d   1       5.108   1.413   4.779  0.00  0.00    -0.075 A 
ATOM      2  C2  N4B d   1       5.611   0.839   3.591  0.00  0.00     0.002 A 
ATOM      3  C3  N4B d   1       5.998  -0.478   3.575  0.00  0.00     0.002 A 
ATOM      4  C4  N4B d   1       5.908  -1.234   4.735  0.00  0.00    -0.004 A 
ATOM      5  C5  N4B d   1       5.396  -0.679   5.871  0.00  0.00     0.002 A 
ATOM      6  C6  N4B d   1       5.000   0.643   5.901  0.00  0.00     0.002 A 
ENDROOT
BRANCH   1   7
ATOM      7  C1' N4B d   1       4.753   2.872   4.868  0.00  0.00     0.057 C 
BRANCH   7   8
ATOM      8  C2' N4B d   1       5.900   3.626   5.534  0.00  0.00     0.009 C 
BRANCH   8   9
ATOM      9  C3' N4B d   1       6.000   5.060   5.042  0.00  0.00     0.004 C 
ATOM     10  C4' N4B d   1       5.994   5.162   3.545  0.00  0.00     0.003 C 
ENDBRANCH   8   9
ENDBRANCH   7   8
ENDBRANCH   1   7
TORSDOF 3
ENDMDL
