MODEL 1
REMARK minimizedAffinity 0.21716018
REMARK minimizedRMSD -1
REMARK  3 active torsions:
REMARK  status: ('A' for Active; 'I' for Inactive)
REMARK    1  A    between atoms: C3'_2  and  C2'_3 
REMARK    2  A    between atoms: C2'_3  and  C1'_4 
REMARK    3  A    between atoms: C1'_4  and  C1_5 
ROOT
ATOM      1  C1  N4B d   1       0.611  -0.180  -1.468  0.00  0.00    -0.075 A 
ATOM      2  C2  N4B d   1       1.695  -1.031  -1.778  0.00  0.00     0.002 A 
ATOM      3  C3  N4B d   1       1.700  -2.328  -1.327  0.00  0.00     0.002 A 
ATOM      4  C4  N4B d   1       0.646  -2.789  -0.551  0.00  0.00    -0.004 A 
ATOM      5  C5  N4B d   1      -0.409  -1.968  -0.278  0.00  0.00     0.002 A 
ATOM      6  C6  N4B d   1      -0.429  -0.664  -0.729  0.00  0.00     0.002 A 
ENDROOT
BRANCH   1   7
ATOM      7  C1' N4B d   1       0.601   1.270  -1.867  0.00  0.00     0.057 C 
BRANCH   7   8
ATOM      8  C2' N4B d   1      -0.050   2.090  -0.757  0.00  0.00     0.009 C 
BRANCH   8   9
ATOM      9  C3' N4B d   1       0.982   2.734   0.153  0.00  0.00     0.004 C 
ATOM     10  C4' N4B d   1       0.380   3.731   1.098  0.00  0.00     0.003 C 
ENDBRANCH   8   9
ENDBRANCH   7   8
ENDBRANCH   1   7
TORSDOF 3
ENDMDL
