MODEL 1
REMARK minimizedAffinity -3.02771497
REMARK minimizedRMSD -1
REMARK  3 active torsions:
REMARK  status: ('A' for Active; 'I' for Inactive)
REMARK    1  A    between atoms: C3'_2  and  C2'_3 
REMARK    2  A    between atoms: C2'_3  and  C1'_4 
REMARK    3  A    between atoms: C1'_4  and  C1_5 
ROOT
ATOM      1  C1  N4B d   1       4.862   1.145   4.830  0.00  0.00    -0.075 A 
ATOM      2  C2  N4B d   1       5.209   0.434   6.000  0.00  0.00     0.002 A 
ATOM      3  C3  N4B d   1       5.365  -0.930   5.953  0.00  0.00     0.002 A 
ATOM      4  C4  N4B d   1       5.161  -1.603   4.758  0.00  0.00    -0.004 A 
ATOM      5  C5  N4B d   1       4.852  -0.906   3.627  0.00  0.00     0.002 A 
ATOM      6  C6  N4B d   1       4.696   0.465   3.658  0.00  0.00     0.002 A 
ENDROOT
BRANCH   1   7
ATOM      7  C1' N4B d   1       4.597   2.626   4.850  0.00  0.00     0.057 C 
BRANCH   7   8
ATOM      8  C2' N4B d   1       5.920   3.373   4.709  0.00  0.00     0.009 C 
BRANCH   8   9
ATOM      9  C3' N4B d   1       6.000   4.568   5.643  0.00  0.00     0.004 C 
ATOM     10  C4' N4B d   1       6.000   5.878   4.913  0.00  0.00     0.003 C 
ENDBRANCH   8   9
ENDBRANCH   7   8
ENDBRANCH   1   7
TORSDOF 3
ENDMDL
