MODEL 1
REMARK minimizedAffinity -2.76430416
REMARK minimizedRMSD -1
REMARK  0 active torsions:
REMARK  status: ('A' for Active; 'I' for Inactive)
ROOT
ATOM      1  C1  BNZ d   1      -0.038  -0.013  -0.624  0.00  0.00     0.000 A 
ATOM      2  C2  BNZ d   1      -0.013   0.644   0.577  0.00  0.00     0.000 A 
ATOM      3  C3  BNZ d   1       1.053   0.516   1.424  0.00  0.00     0.000 A 
ATOM      4  C4  BNZ d   1       2.072  -0.300   1.087  0.00  0.00     0.000 A 
ATOM      5  C5  BNZ d   1       2.058  -0.978  -0.116  0.00  0.00     0.000 A 
ATOM      6  C6  BNZ d   1       1.002  -0.815  -0.983  0.00  0.00     0.000 A 
ENDROOT
TORSDOF 0
ENDMDL
