MODEL 1
REMARK minimizedAffinity -1.49199927
REMARK minimizedRMSD -1
REMARK  0 active torsions:
REMARK  status: ('A' for Active; 'I' for Inactive)
ROOT
ATOM      1  C1  BNZ d   1       1.046   0.098  -3.842  0.00  0.00     0.000 A 
ATOM      2  C2  BNZ d   1       0.116  -0.581  -3.100  0.00  0.00     0.000 A 
ATOM      3  C3  BNZ d   1       0.322  -0.824  -1.771  0.00  0.00     0.000 A 
ATOM      4  C4  BNZ d   1       1.474  -0.423  -1.195  0.00  0.00     0.000 A 
ATOM      5  C5  BNZ d   1       2.425   0.255  -1.931  0.00  0.00     0.000 A 
ATOM      6  C6  BNZ d   1       2.197   0.531  -3.259  0.00  0.00     0.000 A 
ENDROOT
TORSDOF 0
ENDMDL
