MODEL 1
REMARK minimizedAffinity -2.79543352
REMARK minimizedRMSD -1
REMARK  0 active torsions:
REMARK  status: ('A' for Active; 'I' for Inactive)
ROOT
ATOM      1  C1  BNZ d   1       1.886  -0.338   1.302  0.00  0.00     0.000 A 
ATOM      2  C2  BNZ d   1       1.587  -0.715   0.020  0.00  0.00     0.000 A 
ATOM      3  C3  BNZ d   1       0.490  -0.209  -0.621  0.00  0.00     0.000 A 
ATOM      4  C4  BNZ d   1      -0.326   0.641   0.034  0.00  0.00     0.000 A 
ATOM      5  C5  BNZ d   1      -0.043   1.024   1.330  0.00  0.00     0.000 A 
ATOM      6  C6  BNZ d   1       1.083   0.543   1.958  0.00  0.00     0.000 A 
ENDROOT
TORSDOF 0
ENDMDL
