MODEL 1
REMARK minimizedAffinity -3.00209212
REMARK minimizedRMSD -1
REMARK  0 active torsions:
REMARK  status: ('A' for Active; 'I' for Inactive)
ROOT
ATOM      1  C1  BNZ d   1      -1.973   0.180   2.418  0.00  0.00     0.000 A 
ATOM      2  C2  BNZ d   1      -1.073   0.966   3.087  0.00  0.00     0.000 A 
ATOM      3  C3  BNZ d   1      -0.053   1.585   2.420  0.00  0.00     0.000 A 
ATOM      4  C4  BNZ d   1       0.089   1.386   1.093  0.00  0.00     0.000 A 
ATOM      5  C5  BNZ d   1      -0.805   0.588   0.407  0.00  0.00     0.000 A 
ATOM      6  C6  BNZ d   1      -1.853  -0.002   1.075  0.00  0.00     0.000 A 
ENDROOT
TORSDOF 0
ENDMDL
