MODEL 1
REMARK minimizedAffinity -2.18806267
REMARK minimizedRMSD -1
REMARK  0 active torsions:
REMARK  status: ('A' for Active; 'I' for Inactive)
ROOT
ATOM      1  C1  BNZ d   1       1.049   0.480   1.680  0.00  0.00     0.000 A 
ATOM      2  C2  BNZ d   1      -0.009   0.750   0.854  0.00  0.00     0.000 A 
ATOM      3  C3  BNZ d   1      -0.126   0.132  -0.360  0.00  0.00     0.000 A 
ATOM      4  C4  BNZ d   1       0.835  -0.724  -0.763  0.00  0.00     0.000 A 
ATOM      5  C5  BNZ d   1       1.913  -1.000   0.055  0.00  0.00     0.000 A 
ATOM      6  C6  BNZ d   1       2.007  -0.405   1.292  0.00  0.00     0.000 A 
ENDROOT
TORSDOF 0
ENDMDL
