MODEL 1
REMARK minimizedAffinity -3.66990376
REMARK minimizedRMSD -1
REMARK  0 active torsions:
REMARK  status: ('A' for Active; 'I' for Inactive)
ROOT
ATOM      1  C1  BNZ d   1       1.988  -0.829   0.451  0.00  0.00     0.000 A 
ATOM      2  C2  BNZ d   1       1.071  -0.724  -0.560  0.00  0.00     0.000 A 
ATOM      3  C3  BNZ d   1       0.016   0.140  -0.461  0.00  0.00     0.000 A 
ATOM      4  C4  BNZ d   1      -0.142   0.867   0.664  0.00  0.00     0.000 A 
ATOM      5  C5  BNZ d   1       0.769   0.765   1.696  0.00  0.00     0.000 A 
ATOM      6  C6  BNZ d   1       1.850  -0.077   1.577  0.00  0.00     0.000 A 
ENDROOT
TORSDOF 0
ENDMDL
