MODEL 1
REMARK minimizedAffinity -2.675493
REMARK minimizedRMSD -1
REMARK  0 active torsions:
REMARK  status: ('A' for Active; 'I' for Inactive)
ROOT
ATOM      1  C1  BNZ d   1      -0.282  -0.119   0.007  0.00  0.00     0.000 A 
ATOM      2  C2  BNZ d   1      -1.496   0.318   0.467  0.00  0.00     0.000 A 
ATOM      3  C3  BNZ d   1      -1.688   0.581   1.794  0.00  0.00     0.000 A 
ATOM      4  C4  BNZ d   1      -0.680   0.369   2.665  0.00  0.00     0.000 A 
ATOM      5  C5  BNZ d   1       0.546  -0.080   2.218  0.00  0.00     0.000 A 
ATOM      6  C6  BNZ d   1       0.748  -0.307   0.876  0.00  0.00     0.000 A 
ENDROOT
TORSDOF 0
ENDMDL
