MODEL 1
REMARK minimizedAffinity -2.86977744
REMARK minimizedRMSD -1
REMARK  0 active torsions:
REMARK  status: ('A' for Active; 'I' for Inactive)
ROOT
ATOM      1  C1  BNZ d   1       2.183   0.273  -3.944  0.00  0.00     0.000 A 
ATOM      2  C2  BNZ d   1       1.554  -0.565  -3.062  0.00  0.00     0.000 A 
ATOM      3  C3  BNZ d   1       0.280  -1.001  -3.297  0.00  0.00     0.000 A 
ATOM      4  C4  BNZ d   1      -0.377  -0.568  -4.392  0.00  0.00     0.000 A 
ATOM      5  C5  BNZ d   1       0.240   0.283  -5.287  0.00  0.00     0.000 A 
ATOM      6  C6  BNZ d   1       1.536   0.689  -5.067  0.00  0.00     0.000 A 
ENDROOT
TORSDOF 0
ENDMDL
