MODEL 1
REMARK minimizedAffinity -3.73205018
REMARK minimizedRMSD -1
REMARK  0 active torsions:
REMARK  status: ('A' for Active; 'I' for Inactive)
ROOT
ATOM      1  C1  BNZ d   1      -0.057   0.622   0.888  0.00  0.00     0.000 A 
ATOM      2  C2  BNZ d   1      -0.340   1.101   2.139  0.00  0.00     0.000 A 
ATOM      3  C3  BNZ d   1      -1.534   0.819   2.742  0.00  0.00     0.000 A 
ATOM      4  C4  BNZ d   1      -2.458   0.094   2.078  0.00  0.00     0.000 A 
ATOM      5  C5  BNZ d   1      -2.190  -0.387   0.812  0.00  0.00     0.000 A 
ATOM      6  C6  BNZ d   1      -0.972  -0.134   0.224  0.00  0.00     0.000 A 
ENDROOT
TORSDOF 0
ENDMDL
