MODEL 1
REMARK minimizedAffinity -2.31333232
REMARK minimizedRMSD -1
REMARK  0 active torsions:
REMARK  status: ('A' for Active; 'I' for Inactive)
ROOT
ATOM      1  C   UNL d   1      -0.733   0.917   2.574  0.00  0.00     0.172 C 
ATOM      2  N   UNL d   1       0.343   0.430   1.743  0.00  0.00    -0.070 N 
ATOM      3  C1  UNL d   1       1.627   0.194   2.158  0.00  0.00    -0.004 A 
ATOM      4  C2  UNL d   1       2.344  -0.260   1.072  0.00  0.00    -0.047 A 
ATOM      5  C3  UNL d   1       1.461  -0.298  -0.033  0.00  0.00    -0.047 A 
ATOM      6  C4  UNL d   1       0.229   0.135   0.411  0.00  0.00    -0.004 A 
ENDROOT
TORSDOF 0
ENDMDL
