MODEL 1
REMARK minimizedAffinity 1.47877109
REMARK minimizedRMSD -1
REMARK  0 active torsions:
REMARK  status: ('A' for Active; 'I' for Inactive)
ROOT
ATOM      1  C   UNL d   1      -0.662  -0.631   3.321  0.00  0.00     0.172 C 
ATOM      2  N   UNL d   1      -0.783  -0.359   1.908  0.00  0.00    -0.070 N 
ATOM      3  C1  UNL d   1       0.239  -0.394   0.998  0.00  0.00    -0.004 A 
ATOM      4  C2  UNL d   1      -0.284  -0.077  -0.237  0.00  0.00    -0.047 A 
ATOM      5  C3  UNL d   1      -1.668   0.158  -0.063  0.00  0.00    -0.047 A 
ATOM      6  C4  UNL d   1      -1.951  -0.024   1.275  0.00  0.00    -0.004 A 
ENDROOT
TORSDOF 0
ENDMDL
