MODEL 1
REMARK minimizedAffinity -1.56221306
REMARK minimizedRMSD -1
REMARK  0 active torsions:
REMARK  status: ('A' for Active; 'I' for Inactive)
ROOT
ATOM      1  C   UNL d   1       0.925  -0.950   0.574  0.00  0.00     0.172 C 
ATOM      2  N   UNL d   1      -0.419  -0.422   0.525  0.00  0.00    -0.070 N 
ATOM      3  C1  UNL d   1      -0.916   0.571   1.326  0.00  0.00    -0.004 A 
ATOM      4  C2  UNL d   1      -2.229   0.784   0.967  0.00  0.00    -0.047 A 
ATOM      5  C3  UNL d   1      -2.532  -0.113  -0.084  0.00  0.00    -0.047 A 
ATOM      6  C4  UNL d   1      -1.394  -0.848  -0.338  0.00  0.00    -0.004 A 
ENDROOT
TORSDOF 0
ENDMDL
