MODEL 1
REMARK minimizedAffinity -1.38001716
REMARK minimizedRMSD -1
REMARK  0 active torsions:
REMARK  status: ('A' for Active; 'I' for Inactive)
ROOT
ATOM      1  C   UNL d   1       4.397   1.045  -2.494  0.00  0.00     0.172 C 
ATOM      2  N   UNL d   1       3.693   1.291  -1.258  0.00  0.00    -0.070 N 
ATOM      3  C1  UNL d   1       3.479   2.520  -0.693  0.00  0.00    -0.004 A 
ATOM      4  C2  UNL d   1       2.772   2.329   0.475  0.00  0.00    -0.047 A 
ATOM      5  C3  UNL d   1       2.554   0.938   0.616  0.00  0.00    -0.047 A 
ATOM      6  C4  UNL d   1       3.135   0.319  -0.470  0.00  0.00    -0.004 A 
ENDROOT
TORSDOF 0
ENDMDL
