MODEL 1
REMARK minimizedAffinity -0.113054983
REMARK minimizedRMSD -1
REMARK  0 active torsions:
REMARK  status: ('A' for Active; 'I' for Inactive)
ROOT
ATOM      1  C   UNL d   1       2.419   1.101  -3.661  0.00  0.00     0.172 C 
ATOM      2  N   UNL d   1       3.136   1.286  -2.421  0.00  0.00    -0.070 N 
ATOM      3  C1  UNL d   1       2.838   0.682  -1.229  0.00  0.00    -0.004 A 
ATOM      4  C2  UNL d   1       3.753   1.118  -0.295  0.00  0.00    -0.047 A 
ATOM      5  C3  UNL d   1       4.630   2.016  -0.948  0.00  0.00    -0.047 A 
ATOM      6  C4  UNL d   1       4.225   2.102  -2.263  0.00  0.00    -0.004 A 
ENDROOT
TORSDOF 0
ENDMDL
