MODEL 1
REMARK minimizedAffinity 3.65018272
REMARK minimizedRMSD -1
REMARK  2 active torsions:
REMARK  status: ('A' for Active; 'I' for Inactive)
REMARK    1  A    between atoms: C2'_3  and  C1'_4 
REMARK    2  A    between atoms: C1'_4  and  C1_5 
ROOT
ATOM      1  C1  I4B d   1      -4.685   2.772  -1.516  0.00  0.00    -0.075 A 
ATOM      2  C2  I4B d   1      -3.627   3.636  -1.650  0.00  0.00     0.003 A 
ATOM      3  C3  I4B d   1      -3.748   4.791  -2.460  0.00  0.00     0.002 A 
ATOM      4  C4  I4B d   1      -4.920   5.017  -3.152  0.00  0.00    -0.004 A 
ATOM      5  C5  I4B d   1      -6.000   4.152  -2.996  0.00  0.00     0.002 A 
ATOM      6  C6  I4B d   1      -5.887   3.030  -2.164  0.00  0.00     0.003 A 
ENDROOT
BRANCH   1   7
ATOM      7  C1' I4B d   1      -4.512   1.544  -0.680  0.00  0.00     0.060 C 
BRANCH   7   8
ATOM      8  C2' I4B d   1      -5.861   0.864  -0.564  0.00  0.00    -0.013 C 
ATOM      9  C4' I4B d   1      -6.000  -0.246  -1.571  0.00  0.00     0.013 C 
ATOM     10  C3' I4B d   1      -6.000   0.346   0.836  0.00  0.00     0.013 C 
ENDBRANCH   7   8
ENDBRANCH   1   7
TORSDOF 2
ENDMDL
