MODEL 1
REMARK minimizedAffinity 6.26627922
REMARK minimizedRMSD -1
REMARK  2 active torsions:
REMARK  status: ('A' for Active; 'I' for Inactive)
REMARK    1  A    between atoms: C2'_3  and  C1'_4 
REMARK    2  A    between atoms: C1'_4  and  C1_5 
ROOT
ATOM      1  C1  I4B d   1       0.469   2.104   2.156  0.00  0.00    -0.075 A 
ATOM      2  C2  I4B d   1       1.259   2.152   3.278  0.00  0.00     0.003 A 
ATOM      3  C3  I4B d   1       2.044   3.299   3.548  0.00  0.00     0.002 A 
ATOM      4  C4  I4B d   1       2.047   4.347   2.651  0.00  0.00    -0.004 A 
ATOM      5  C5  I4B d   1       1.228   4.307   1.526  0.00  0.00     0.002 A 
ATOM      6  C6  I4B d   1       0.424   3.183   1.284  0.00  0.00     0.003 A 
ENDROOT
BRANCH   1   7
ATOM      7  C1' I4B d   1      -0.322   0.864   1.884  0.00  0.00     0.060 C 
BRANCH   7   8
ATOM      8  C2' I4B d   1       0.619  -0.320   1.979  0.00  0.00    -0.013 C 
ATOM      9  C4' I4B d   1       0.067  -1.383   2.892  0.00  0.00     0.013 C 
ATOM     10  C3' I4B d   1       0.833  -0.853   0.594  0.00  0.00     0.013 C 
ENDBRANCH   7   8
ENDBRANCH   1   7
TORSDOF 2
ENDMDL
