MODEL 1
REMARK minimizedAffinity 5.51015568
REMARK minimizedRMSD -1
REMARK  2 active torsions:
REMARK  status: ('A' for Active; 'I' for Inactive)
REMARK    1  A    between atoms: C2'_3  and  C1'_4 
REMARK    2  A    between atoms: C1'_4  and  C1_5 
ROOT
ATOM      1  C1  I4B d   1       0.520   2.045   2.386  0.00  0.00    -0.075 A 
ATOM      2  C2  I4B d   1       1.586   2.341   3.197  0.00  0.00     0.003 A 
ATOM      3  C3  I4B d   1       2.286   3.561   3.038  0.00  0.00     0.002 A 
ATOM      4  C4  I4B d   1       1.921   4.428   2.028  0.00  0.00    -0.004 A 
ATOM      5  C5  I4B d   1       0.825   4.137   1.221  0.00  0.00     0.002 A 
ATOM      6  C6  I4B d   1       0.112   2.944   1.409  0.00  0.00     0.003 A 
ENDROOT
BRANCH   1   7
ATOM      7  C1' I4B d   1      -0.177   0.733   2.560  0.00  0.00     0.060 C 
BRANCH   7   8
ATOM      8  C2' I4B d   1       0.881  -0.349   2.642  0.00  0.00    -0.013 C 
ATOM      9  C4' I4B d   1       0.430  -1.485   3.523  0.00  0.00     0.013 C 
ATOM     10  C3' I4B d   1       1.166  -0.824   1.249  0.00  0.00     0.013 C 
ENDBRANCH   7   8
ENDBRANCH   1   7
TORSDOF 2
ENDMDL
