MODEL 1
REMARK minimizedAffinity 4.38318062
REMARK minimizedRMSD -1
REMARK  2 active torsions:
REMARK  status: ('A' for Active; 'I' for Inactive)
REMARK    1  A    between atoms: C2'_3  and  C1'_4 
REMARK    2  A    between atoms: C1'_4  and  C1_5 
ROOT
ATOM      1  C1  I4B d   1       0.387   2.337   2.442  0.00  0.00    -0.075 A 
ATOM      2  C2  I4B d   1       1.465   2.600   3.250  0.00  0.00     0.003 A 
ATOM      3  C3  I4B d   1       2.386   3.618   2.901  0.00  0.00     0.002 A 
ATOM      4  C4  I4B d   1       2.219   4.309   1.719  0.00  0.00    -0.004 A 
ATOM      5  C5  I4B d   1       1.113   4.057   0.912  0.00  0.00     0.002 A 
ATOM      6  C6  I4B d   1       0.184   3.073   1.282  0.00  0.00     0.003 A 
ENDROOT
BRANCH   1   7
ATOM      7  C1' I4B d   1      -0.548   1.234   2.823  0.00  0.00     0.060 C 
BRANCH   7   8
ATOM      8  C2' I4B d   1       0.154  -0.084   2.564  0.00  0.00    -0.013 C 
ATOM      9  C4' I4B d   1       1.009  -0.011   1.326  0.00  0.00     0.013 C 
ATOM     10  C3' I4B d   1       0.978  -0.415   3.772  0.00  0.00     0.013 C 
ENDBRANCH   7   8
ENDBRANCH   1   7
TORSDOF 2
ENDMDL
