MODEL 1
REMARK minimizedAffinity 17.3117504
REMARK minimizedRMSD -1
REMARK  2 active torsions:
REMARK  status: ('A' for Active; 'I' for Inactive)
REMARK    1  A    between atoms: C2'_3  and  C1'_4 
REMARK    2  A    between atoms: C1'_4  and  C1_5 
ROOT
ATOM      1  C1  I4B d   1       0.429   1.196   2.333  0.00  0.00    -0.075 A 
ATOM      2  C2  I4B d   1       0.334   0.771   1.031  0.00  0.00     0.003 A 
ATOM      3  C3  I4B d   1       0.488  -0.601   0.717  0.00  0.00     0.002 A 
ATOM      4  C4  I4B d   1       0.783  -1.500   1.721  0.00  0.00    -0.004 A 
ATOM      5  C5  I4B d   1       0.856  -1.070   3.043  0.00  0.00     0.002 A 
ATOM      6  C6  I4B d   1       0.666   0.284   3.353  0.00  0.00     0.003 A 
ENDROOT
BRANCH   1   7
ATOM      7  C1' I4B d   1       0.294   2.657   2.626  0.00  0.00     0.060 C 
BRANCH   7   8
ATOM      8  C2' I4B d   1       1.585   3.336   2.217  0.00  0.00    -0.013 C 
ATOM      9  C4' I4B d   1       1.318   4.547   1.363  0.00  0.00     0.013 C 
ATOM     10  C3' I4B d   1       2.329   3.707   3.465  0.00  0.00     0.013 C 
ENDBRANCH   7   8
ENDBRANCH   1   7
TORSDOF 2
ENDMDL
