MODEL 1
REMARK minimizedAffinity 7.96644068
REMARK minimizedRMSD -1
REMARK  2 active torsions:
REMARK  status: ('A' for Active; 'I' for Inactive)
REMARK    1  A    between atoms: C2'_3  and  C1'_4 
REMARK    2  A    between atoms: C1'_4  and  C1_5 
ROOT
ATOM      1  C1  I4B d   1       0.419   0.935   1.840  0.00  0.00    -0.075 A 
ATOM      2  C2  I4B d   1      -0.357   1.225   0.746  0.00  0.00     0.003 A 
ATOM      3  C3  I4B d   1      -0.389   0.339  -0.359  0.00  0.00     0.002 A 
ATOM      4  C4  I4B d   1       0.403  -0.790  -0.348  0.00  0.00    -0.004 A 
ATOM      5  C5  I4B d   1       1.172  -1.093   0.772  0.00  0.00     0.002 A 
ATOM      6  C6  I4B d   1       1.171  -0.232   1.878  0.00  0.00     0.003 A 
ENDROOT
BRANCH   1   7
ATOM      7  C1' I4B d   1       0.455   1.909   2.976  0.00  0.00     0.060 C 
BRANCH   7   8
ATOM      8  C2' I4B d   1       1.555   2.912   2.696  0.00  0.00    -0.013 C 
ATOM      9  C4' I4B d   1       1.031   4.095   1.926  0.00  0.00     0.013 C 
ATOM     10  C3' I4B d   1       2.140   3.336   4.010  0.00  0.00     0.013 C 
ENDBRANCH   7   8
ENDBRANCH   1   7
TORSDOF 2
ENDMDL
