MODEL 1
REMARK minimizedAffinity -1.38765037
REMARK minimizedRMSD -1
REMARK  2 active torsions:
REMARK  status: ('A' for Active; 'I' for Inactive)
REMARK    1  A    between atoms: C2'_3  and  C1'_4 
REMARK    2  A    between atoms: C1'_4  and  C1_5 
ROOT
ATOM      1  C1  I4B d   1       0.637   2.960   0.405  0.00  0.00    -0.075 A 
ATOM      2  C2  I4B d   1       0.333   1.785  -0.235  0.00  0.00     0.003 A 
ATOM      3  C3  I4B d   1       0.021   0.625   0.515  0.00  0.00     0.002 A 
ATOM      4  C4  I4B d   1       0.075   0.672   1.893  0.00  0.00    -0.004 A 
ATOM      5  C5  I4B d   1       0.361   1.870   2.540  0.00  0.00     0.002 A 
ATOM      6  C6  I4B d   1       0.632   3.025   1.792  0.00  0.00     0.003 A 
ENDROOT
BRANCH   1   7
ATOM      7  C1' I4B d   1       0.994   4.158  -0.418  0.00  0.00     0.060 C 
BRANCH   7   8
ATOM      8  C2' I4B d   1      -0.274   4.670  -1.071  0.00  0.00    -0.013 C 
ATOM      9  C4' I4B d   1      -0.685   5.999  -0.495  0.00  0.00     0.013 C 
ATOM     10  C3' I4B d   1      -0.027   4.772  -2.546  0.00  0.00     0.013 C 
ENDBRANCH   7   8
ENDBRANCH   1   7
TORSDOF 2
ENDMDL
