MODEL 1
REMARK minimizedAffinity -3.72129393
REMARK minimizedRMSD -1
REMARK  1 active torsions:
REMARK  status: ('A' for Active; 'I' for Inactive)
REMARK    1  A    between atoms: C1_2  and  C2_3 
ROOT
ATOM      1  C2  UNL d   1      -1.743   0.644   1.260  0.00  0.00    -0.073 A 
ATOM      2  C3  UNL d   1      -1.603   1.480   0.146  0.00  0.00    -0.002 A 
ATOM      3  C4  UNL d   1      -0.834   1.077  -0.946  0.00  0.00     0.004 A 
ATOM      4  C5  UNL d   1      -0.204  -0.168  -0.939  0.00  0.00    -0.004 A 
ATOM      5  C6  UNL d   1      -0.341  -1.022   0.159  0.00  0.00    -0.075 A 
ATOM      6  C7  UNL d   1       0.332  -2.363   0.183  0.00  0.00     0.076 C 
ATOM      7  C8  UNL d   1      -1.113  -0.609   1.253  0.00  0.00     0.001 A 
ENDROOT
BRANCH   1   8
ATOM      8  C1  UNL d   1      -2.577   1.073   2.439  0.00  0.00     0.053 C 
ATOM      9  C   UNL d   1      -1.797   1.011   3.742  0.00  0.00     0.018 C 
ENDBRANCH   1   8
TORSDOF 1
ENDMDL
