MODEL 1
REMARK minimizedAffinity -4.36561012
REMARK minimizedRMSD -1
REMARK  1 active torsions:
REMARK  status: ('A' for Active; 'I' for Inactive)
REMARK    1  A    between atoms: C1_2  and  C2_3 
ROOT
ATOM      1  C2  UNL d   1      -1.757   0.630   1.913  0.00  0.00    -0.073 A 
ATOM      2  C3  UNL d   1      -1.484   1.625   2.858  0.00  0.00    -0.002 A 
ATOM      3  C4  UNL d   1      -2.110   1.604   4.105  0.00  0.00     0.004 A 
ATOM      4  C5  UNL d   1      -3.008   0.585   4.422  0.00  0.00    -0.004 A 
ATOM      5  C6  UNL d   1      -3.285  -0.425   3.495  0.00  0.00    -0.075 A 
ATOM      6  C7  UNL d   1      -4.251  -1.526   3.820  0.00  0.00     0.076 C 
ATOM      7  C8  UNL d   1      -2.655  -0.395   2.244  0.00  0.00     0.001 A 
ENDROOT
BRANCH   1   8
ATOM      8  C1  UNL d   1      -1.078   0.646   0.568  0.00  0.00     0.053 C 
ATOM      9  C   UNL d   1       0.021  -0.401   0.471  0.00  0.00     0.018 C 
ENDBRANCH   1   8
TORSDOF 1
ENDMDL
