MODEL 1
REMARK minimizedAffinity -0.793717086
REMARK minimizedRMSD -1
REMARK  1 active torsions:
REMARK  status: ('A' for Active; 'I' for Inactive)
REMARK    1  A    between atoms: C1_2  and  C2_3 
ROOT
ATOM      1  C2  UNL d   1      -2.182   0.512   1.743  0.00  0.00    -0.073 A 
ATOM      2  C3  UNL d   1      -1.869   1.590   2.579  0.00  0.00    -0.002 A 
ATOM      3  C4  UNL d   1      -2.169   1.536   3.941  0.00  0.00     0.004 A 
ATOM      4  C5  UNL d   1      -2.777   0.404   4.481  0.00  0.00    -0.004 A 
ATOM      5  C6  UNL d   1      -3.087  -0.689   3.664  0.00  0.00    -0.075 A 
ATOM      6  C7  UNL d   1      -3.743  -1.914   4.230  0.00  0.00     0.076 C 
ATOM      7  C8  UNL d   1      -2.785  -0.626   2.297  0.00  0.00     0.001 A 
ENDROOT
BRANCH   1   8
ATOM      8  C1  UNL d   1      -1.854   0.563   0.273  0.00  0.00     0.053 C 
ATOM      9  C   UNL d   1      -0.514  -0.085  -0.035  0.00  0.00     0.018 C 
ENDBRANCH   1   8
TORSDOF 1
ENDMDL
