MODEL 1
REMARK minimizedAffinity -4.85255098
REMARK minimizedRMSD -1
REMARK  1 active torsions:
REMARK  status: ('A' for Active; 'I' for Inactive)
REMARK    1  A    between atoms: C1_2  and  C2_3 
ROOT
ATOM      1  C2  UNL d   1      -1.145   0.173   0.656  0.00  0.00    -0.073 A 
ATOM      2  C3  UNL d   1      -0.874   1.316  -0.105  0.00  0.00    -0.002 A 
ATOM      3  C4  UNL d   1       0.237   1.354  -0.948  0.00  0.00     0.004 A 
ATOM      4  C5  UNL d   1       1.084   0.249  -1.044  0.00  0.00    -0.004 A 
ATOM      5  C6  UNL d   1       0.823  -0.906  -0.300  0.00  0.00    -0.075 A 
ATOM      6  C7  UNL d   1       1.725  -2.102  -0.391  0.00  0.00     0.076 C 
ATOM      7  C8  UNL d   1      -0.294  -0.936   0.546  0.00  0.00     0.001 A 
ENDROOT
BRANCH   1   8
ATOM      8  C1  UNL d   1      -2.348   0.124   1.563  0.00  0.00     0.053 C 
ATOM      9  C   UNL d   1      -2.119   0.893   2.855  0.00  0.00     0.018 C 
ENDBRANCH   1   8
TORSDOF 1
ENDMDL
