MODEL 1
REMARK minimizedAffinity -4.77566338
REMARK minimizedRMSD -1
REMARK  1 active torsions:
REMARK  status: ('A' for Active; 'I' for Inactive)
REMARK    1  A    between atoms: C1_2  and  C2_3 
ROOT
ATOM      1  C2  UNL d   1      -0.496  -0.826  -0.025  0.00  0.00    -0.073 A 
ATOM      2  C3  UNL d   1      -1.064   0.436  -0.236  0.00  0.00    -0.002 A 
ATOM      3  C4  UNL d   1      -0.300   1.471  -0.777  0.00  0.00     0.004 A 
ATOM      4  C5  UNL d   1       1.034   1.255  -1.118  0.00  0.00    -0.004 A 
ATOM      5  C6  UNL d   1       1.617  -0.002  -0.926  0.00  0.00    -0.075 A 
ATOM      6  C7  UNL d   1       3.052  -0.251  -1.286  0.00  0.00     0.076 C 
ATOM      7  C8  UNL d   1       0.844  -1.036  -0.380  0.00  0.00     0.001 A 
ENDROOT
BRANCH   1   8
ATOM      8  C1  UNL d   1      -1.318  -1.949   0.553  0.00  0.00     0.053 C 
ATOM      9  C   UNL d   1      -0.859  -3.308   0.050  0.00  0.00     0.018 C 
ENDBRANCH   1   8
TORSDOF 1
ENDMDL
