MODEL 1
REMARK minimizedAffinity -4.86698771
REMARK minimizedRMSD -1
REMARK  1 active torsions:
REMARK  status: ('A' for Active; 'I' for Inactive)
REMARK    1  A    between atoms: C1_2  and  C2_3 
ROOT
ATOM      1  C2  UNL d   1      -0.339   0.244   0.440  0.00  0.00    -0.073 A 
ATOM      2  C3  UNL d   1      -0.733  -1.093   0.310  0.00  0.00    -0.002 A 
ATOM      3  C4  UNL d   1       0.015  -1.975  -0.472  0.00  0.00     0.004 A 
ATOM      4  C5  UNL d   1       1.165  -1.533  -1.124  0.00  0.00    -0.004 A 
ATOM      5  C6  UNL d   1       1.582  -0.204  -0.997  0.00  0.00    -0.075 A 
ATOM      6  C7  UNL d   1       2.816   0.289  -1.694  0.00  0.00     0.076 C 
ATOM      7  C8  UNL d   1       0.824   0.677  -0.213  0.00  0.00     0.001 A 
ENDROOT
BRANCH   1   8
ATOM      8  C1  UNL d   1      -1.139   1.198   1.288  0.00  0.00     0.053 C 
ATOM      9  C   UNL d   1      -2.154   0.474   2.158  0.00  0.00     0.018 C 
ENDBRANCH   1   8
TORSDOF 1
ENDMDL
