MODEL 1
REMARK minimizedAffinity -5.51881409
REMARK minimizedRMSD -1
REMARK  1 active torsions:
REMARK  status: ('A' for Active; 'I' for Inactive)
REMARK    1  A    between atoms: C1_2  and  C2_3 
ROOT
ATOM      1  C2  UNL d   1      -3.217  -0.062   3.438  0.00  0.00    -0.073 A 
ATOM      2  C3  UNL d   1      -3.155   1.258   3.901  0.00  0.00    -0.002 A 
ATOM      3  C4  UNL d   1      -2.487   2.234   3.161  0.00  0.00     0.004 A 
ATOM      4  C5  UNL d   1      -1.882   1.904   1.948  0.00  0.00    -0.004 A 
ATOM      5  C6  UNL d   1      -1.943   0.594   1.463  0.00  0.00    -0.075 A 
ATOM      6  C7  UNL d   1      -1.296   0.222   0.161  0.00  0.00     0.076 C 
ATOM      7  C8  UNL d   1      -2.613  -0.382   2.214  0.00  0.00     0.001 A 
ENDROOT
BRANCH   1   8
ATOM      8  C1  UNL d   1      -3.942  -1.118   4.231  0.00  0.00     0.053 C 
ATOM      9  C   UNL d   1      -4.838  -1.976   3.352  0.00  0.00     0.018 C 
ENDBRANCH   1   8
TORSDOF 1
ENDMDL
