MODEL 1
REMARK minimizedAffinity -5.01663637
REMARK minimizedRMSD -1
REMARK  1 active torsions:
REMARK  status: ('A' for Active; 'I' for Inactive)
REMARK    1  A    between atoms: C1_2  and  C2_3 
ROOT
ATOM      1  C2  UNL d   1      -0.709  -0.116   0.770  0.00  0.00    -0.073 A 
ATOM      2  C3  UNL d   1      -1.669   0.527  -0.020  0.00  0.00    -0.002 A 
ATOM      3  C4  UNL d   1      -2.643   1.332   0.571  0.00  0.00     0.004 A 
ATOM      4  C5  UNL d   1      -2.665   1.509   1.954  0.00  0.00    -0.004 A 
ATOM      5  C6  UNL d   1      -1.707   0.884   2.760  0.00  0.00    -0.075 A 
ATOM      6  C7  UNL d   1      -1.717   1.062   4.250  0.00  0.00     0.076 C 
ATOM      7  C8  UNL d   1      -0.733   0.075   2.159  0.00  0.00     0.001 A 
ENDROOT
BRANCH   1   8
ATOM      8  C1  UNL d   1       0.349  -0.982   0.137  0.00  0.00     0.053 C 
ATOM      9  C   UNL d   1       1.333  -0.168  -0.688  0.00  0.00     0.018 C 
ENDBRANCH   1   8
TORSDOF 1
ENDMDL
