MODEL 1
REMARK minimizedAffinity -3.18379188
REMARK minimizedRMSD -1
REMARK  1 active torsions:
REMARK  status: ('A' for Active; 'I' for Inactive)
REMARK    1  A    between atoms: C1_2  and  C2_3 
ROOT
ATOM      1  C2  UNL d   1       0.881   0.116  -0.308  0.00  0.00    -0.073 A 
ATOM      2  C3  UNL d   1       1.858  -0.871  -0.478  0.00  0.00    -0.002 A 
ATOM      3  C4  UNL d   1       2.800  -0.762  -1.501  0.00  0.00     0.004 A 
ATOM      4  C5  UNL d   1       2.780   0.338  -2.360  0.00  0.00    -0.004 A 
ATOM      5  C6  UNL d   1       1.819   1.341  -2.199  0.00  0.00    -0.075 A 
ATOM      6  C7  UNL d   1       1.782   2.528  -3.115  0.00  0.00     0.076 C 
ATOM      7  C8  UNL d   1       0.874   1.222  -1.170  0.00  0.00     0.001 A 
ENDROOT
BRANCH   1   8
ATOM      8  C1  UNL d   1      -0.135   0.006   0.800  0.00  0.00     0.053 C 
ATOM      9  C   UNL d   1      -1.541   0.328   0.319  0.00  0.00     0.018 C 
ENDBRANCH   1   8
TORSDOF 1
ENDMDL
