MODEL 1
REMARK minimizedAffinity -4.23867083
REMARK minimizedRMSD -1
REMARK  1 active torsions:
REMARK  status: ('A' for Active; 'I' for Inactive)
REMARK    1  A    between atoms: C1_2  and  C2_3 
ROOT
ATOM      1  C2  UNL d   1      -0.683   0.312   0.576  0.00  0.00    -0.073 A 
ATOM      2  C3  UNL d   1      -1.311  -0.936   0.494  0.00  0.00    -0.002 A 
ATOM      3  C4  UNL d   1      -0.680  -2.002  -0.149  0.00  0.00     0.004 A 
ATOM      4  C5  UNL d   1       0.586  -1.833  -0.710  0.00  0.00    -0.004 A 
ATOM      5  C6  UNL d   1       1.235  -0.597  -0.628  0.00  0.00    -0.075 A 
ATOM      6  C7  UNL d   1       2.596  -0.399  -1.228  0.00  0.00     0.076 C 
ATOM      7  C8  UNL d   1       0.594   0.469   0.017  0.00  0.00     0.001 A 
ENDROOT
BRANCH   1   8
ATOM      8  C1  UNL d   1      -1.357   1.464   1.275  0.00  0.00     0.053 C 
ATOM      9  C   UNL d   1      -2.218   0.999   2.439  0.00  0.00     0.018 C 
ENDBRANCH   1   8
TORSDOF 1
ENDMDL
