MODEL 1
REMARK minimizedAffinity -5.54720688
REMARK minimizedRMSD -1
REMARK  1 active torsions:
REMARK  status: ('A' for Active; 'I' for Inactive)
REMARK    1  A    between atoms: C1_2  and  C2_3 
ROOT
ATOM      1  C2  UNL d   1      -3.213  -0.689   3.507  0.00  0.00    -0.073 A 
ATOM      2  C3  UNL d   1      -3.561   0.577   3.993  0.00  0.00    -0.002 A 
ATOM      3  C4  UNL d   1      -3.113   1.729   3.343  0.00  0.00     0.004 A 
ATOM      4  C5  UNL d   1      -2.322   1.627   2.199  0.00  0.00    -0.004 A 
ATOM      5  C6  UNL d   1      -1.974   0.371   1.692  0.00  0.00    -0.075 A 
ATOM      6  C7  UNL d   1      -1.121   0.244   0.463  0.00  0.00     0.076 C 
ATOM      7  C8  UNL d   1      -2.425  -0.781   2.351  0.00  0.00     0.001 A 
ENDROOT
BRANCH   1   8
ATOM      8  C1  UNL d   1      -3.699  -1.935   4.201  0.00  0.00     0.053 C 
ATOM      9  C   UNL d   1      -5.043  -2.400   3.663  0.00  0.00     0.018 C 
ENDBRANCH   1   8
TORSDOF 1
ENDMDL
