MODEL 1
REMARK minimizedAffinity 7.24453449
REMARK minimizedRMSD -1
REMARK  1 active torsions:
REMARK  status: ('A' for Active; 'I' for Inactive)
REMARK    1  A    between atoms: N_2  and  C1_3 
ROOT
ATOM      1  C1  UNL d   1       1.818   0.895   1.860  0.00  0.00     0.143 A 
ATOM      2  C2  UNL d   1       2.663  -0.219   1.799  0.00  0.00    -0.057 A 
ATOM      3  C3  UNL d   1       3.528  -0.416   0.716  0.00  0.00     0.033 A 
ATOM      4  C4  UNL d   1       3.542   0.486  -0.343  0.00  0.00    -0.042 A 
ATOM      5  C5  UNL d   1       2.693   1.587  -0.315  0.00  0.00     0.033 A 
ATOM      6  C6  UNL d   1       1.836   1.781   0.772  0.00  0.00    -0.057 A 
ENDROOT
BRANCH   1   7
ATOM      7  N   UNL d   1       0.865   1.094   2.863  0.00  0.00    -0.732 N 
ATOM      8  C   UNL d   1       0.934   0.352   4.103  0.00  0.00     0.284 C 
ATOM      9  H3  UNL d   1       0.623   2.076   2.978  0.00  0.00     0.395 HD
ENDBRANCH   1   7
TORSDOF 1
ENDMDL
