MODEL 1
REMARK minimizedAffinity 9.95993042
REMARK minimizedRMSD -1
REMARK  1 active torsions:
REMARK  status: ('A' for Active; 'I' for Inactive)
REMARK    1  A    between atoms: N_2  and  C1_3 
ROOT
ATOM      1  C1  UNL d   1      -5.299  -3.749  -3.320  0.00  0.00     0.143 A 
ATOM      2  C2  UNL d   1      -4.118  -3.395  -2.659  0.00  0.00    -0.057 A 
ATOM      3  C3  UNL d   1      -3.515  -4.260  -1.737  0.00  0.00     0.033 A 
ATOM      4  C4  UNL d   1      -4.100  -5.486  -1.439  0.00  0.00    -0.042 A 
ATOM      5  C5  UNL d   1      -5.287  -5.848  -2.066  0.00  0.00     0.033 A 
ATOM      6  C6  UNL d   1      -5.881  -4.983  -2.990  0.00  0.00    -0.057 A 
ENDROOT
BRANCH   1   7
ATOM      7  N   UNL d   1      -5.999  -2.892  -4.173  0.00  0.00    -0.732 N 
ATOM      8  C   UNL d   1      -5.998  -3.113  -5.603  0.00  0.00     0.284 C 
ATOM      9  H3  UNL d   1      -6.904  -2.622  -3.795  0.00  0.00     0.395 HD
ENDBRANCH   1   7
TORSDOF 1
ENDMDL
