MODEL 1
REMARK minimizedAffinity 6.49541903
REMARK minimizedRMSD -1
REMARK  1 active torsions:
REMARK  status: ('A' for Active; 'I' for Inactive)
REMARK    1  A    between atoms: N_2  and  C1_3 
ROOT
ATOM      1  C1  UNL d   1       2.647   1.389  -1.249  0.00  0.00     0.143 A 
ATOM      2  C2  UNL d   1       1.918   1.901  -0.171  0.00  0.00    -0.057 A 
ATOM      3  C3  UNL d   1       2.283   1.619   1.152  0.00  0.00     0.033 A 
ATOM      4  C4  UNL d   1       3.371   0.795   1.419  0.00  0.00    -0.042 A 
ATOM      5  C5  UNL d   1       4.096   0.255   0.362  0.00  0.00     0.033 A 
ATOM      6  C6  UNL d   1       3.730   0.545  -0.956  0.00  0.00    -0.057 A 
ENDROOT
BRANCH   1   7
ATOM      7  N   UNL d   1       2.277   1.552  -2.586  0.00  0.00    -0.732 N 
ATOM      8  C   UNL d   1       3.270   1.851  -3.595  0.00  0.00     0.284 C 
ATOM      9  H3  UNL d   1       1.576   0.876  -2.880  0.00  0.00     0.395 HD
ENDBRANCH   1   7
TORSDOF 1
ENDMDL
