MODEL 1
REMARK minimizedAffinity 14.4242439
REMARK minimizedRMSD -1
REMARK  1 active torsions:
REMARK  status: ('A' for Active; 'I' for Inactive)
REMARK    1  A    between atoms: N_2  and  C1_3 
ROOT
ATOM      1  C1  UNL d   1       2.911   0.278   0.563  0.00  0.00     0.143 A 
ATOM      2  C2  UNL d   1       1.993   0.282   1.619  0.00  0.00    -0.057 A 
ATOM      3  C3  UNL d   1       1.165   1.385   1.857  0.00  0.00     0.033 A 
ATOM      4  C4  UNL d   1       1.260   2.520   1.057  0.00  0.00    -0.042 A 
ATOM      5  C5  UNL d   1       2.183   2.548   0.017  0.00  0.00     0.033 A 
ATOM      6  C6  UNL d   1       3.003   1.440  -0.219  0.00  0.00    -0.057 A 
ENDROOT
BRANCH   1   7
ATOM      7  N   UNL d   1       3.830  -0.749   0.335  0.00  0.00    -0.732 N 
ATOM      8  C   UNL d   1       5.013  -0.515  -0.465  0.00  0.00     0.284 C 
ATOM      9  H3  UNL d   1       3.995  -1.314   1.165  0.00  0.00     0.395 HD
ENDBRANCH   1   7
TORSDOF 1
ENDMDL
