MODEL 1
REMARK minimizedAffinity 16.9810047
REMARK minimizedRMSD -1
REMARK  1 active torsions:
REMARK  status: ('A' for Active; 'I' for Inactive)
REMARK    1  A    between atoms: N_2  and  C1_3 
ROOT
ATOM      1  C1  UNL d   1       3.257   4.679  -3.951  0.00  0.00     0.143 A 
ATOM      2  C2  UNL d   1       2.438   3.560  -3.766  0.00  0.00    -0.057 A 
ATOM      3  C3  UNL d   1       2.867   2.464  -3.006  0.00  0.00     0.033 A 
ATOM      4  C4  UNL d   1       4.137   2.458  -2.439  0.00  0.00    -0.042 A 
ATOM      5  C5  UNL d   1       4.977   3.549  -2.630  0.00  0.00     0.033 A 
ATOM      6  C6  UNL d   1       4.541   4.643  -3.385  0.00  0.00    -0.057 A 
ENDROOT
BRANCH   1   7
ATOM      7  N   UNL d   1       2.926   5.756  -4.777  0.00  0.00    -0.732 N 
ATOM      8  C   UNL d   1       3.661   6.000  -6.000  0.00  0.00     0.284 C 
ATOM      9  H3  UNL d   1       1.921   5.886  -4.863  0.00  0.00     0.395 HD
ENDBRANCH   1   7
TORSDOF 1
ENDMDL
