MODEL 1
REMARK minimizedAffinity 15.9401569
REMARK minimizedRMSD -1
REMARK  1 active torsions:
REMARK  status: ('A' for Active; 'I' for Inactive)
REMARK    1  A    between atoms: N_2  and  C1_3 
ROOT
ATOM      1  C1  UNL d   1      -4.860  -4.521  -2.476  0.00  0.00     0.143 A 
ATOM      2  C2  UNL d   1      -4.856  -5.277  -1.299  0.00  0.00    -0.057 A 
ATOM      3  C3  UNL d   1      -3.724  -5.998  -0.903  0.00  0.00     0.033 A 
ATOM      4  C4  UNL d   1      -2.580  -5.998  -1.694  0.00  0.00    -0.042 A 
ATOM      5  C5  UNL d   1      -2.569  -5.274  -2.881  0.00  0.00     0.033 A 
ATOM      6  C6  UNL d   1      -3.701  -4.551  -3.268  0.00  0.00    -0.057 A 
ENDROOT
BRANCH   1   7
ATOM      7  N   UNL d   1      -5.987  -3.863  -2.975  0.00  0.00    -0.732 N 
ATOM      8  C   UNL d   1      -5.998  -3.340  -4.324  0.00  0.00     0.284 C 
ATOM      9  H3  UNL d   1      -6.855  -4.314  -2.696  0.00  0.00     0.395 HD
ENDBRANCH   1   7
TORSDOF 1
ENDMDL
