MODEL 1
REMARK minimizedAffinity 9.94844723
REMARK minimizedRMSD -1
REMARK  1 active torsions:
REMARK  status: ('A' for Active; 'I' for Inactive)
REMARK    1  A    between atoms: N_2  and  C1_3 
ROOT
ATOM      1  C1  UNL d   1      -2.294  -2.289  -0.916  0.00  0.00     0.143 A 
ATOM      2  C2  UNL d   1      -3.329  -2.909  -0.209  0.00  0.00    -0.057 A 
ATOM      3  C3  UNL d   1      -3.106  -3.490   1.045  0.00  0.00     0.033 A 
ATOM      4  C4  UNL d   1      -1.832  -3.486   1.604  0.00  0.00    -0.042 A 
ATOM      5  C5  UNL d   1      -0.783  -2.896   0.908  0.00  0.00     0.033 A 
ATOM      6  C6  UNL d   1      -1.013  -2.312  -0.341  0.00  0.00    -0.057 A 
ENDROOT
BRANCH   1   7
ATOM      7  N   UNL d   1      -2.431  -1.780  -2.210  0.00  0.00    -0.732 N 
ATOM      8  C   UNL d   1      -1.949  -2.529  -3.350  0.00  0.00     0.284 C 
ATOM      9  H3  UNL d   1      -3.332  -1.332  -2.357  0.00  0.00     0.395 HD
ENDBRANCH   1   7
TORSDOF 1
ENDMDL
