MODEL 1
REMARK minimizedAffinity 6.1434927
REMARK minimizedRMSD -1
REMARK  1 active torsions:
REMARK  status: ('A' for Active; 'I' for Inactive)
REMARK    1  A    between atoms: N_2  and  C1_3 
ROOT
ATOM      1  C1  UNL d   1       2.329   0.913   1.279  0.00  0.00     0.143 A 
ATOM      2  C2  UNL d   1       3.426   0.084   1.534  0.00  0.00    -0.057 A 
ATOM      3  C3  UNL d   1       4.385  -0.176   0.547  0.00  0.00     0.033 A 
ATOM      4  C4  UNL d   1       4.247   0.368  -0.726  0.00  0.00    -0.042 A 
ATOM      5  C5  UNL d   1       3.150   1.175  -1.009  0.00  0.00     0.033 A 
ATOM      6  C6  UNL d   1       2.200   1.436  -0.018  0.00  0.00    -0.057 A 
ENDROOT
BRANCH   1   7
ATOM      7  N   UNL d   1       1.290   1.130   2.187  0.00  0.00    -0.732 N 
ATOM      8  C   UNL d   1       1.200   0.351   3.404  0.00  0.00     0.284 C 
ATOM      9  H3  UNL d   1       1.081   2.118   2.310  0.00  0.00     0.395 HD
ENDBRANCH   1   7
TORSDOF 1
ENDMDL
