MODEL 1
REMARK minimizedAffinity 1.92216778
REMARK minimizedRMSD -1
REMARK  1 active torsions:
REMARK  status: ('A' for Active; 'I' for Inactive)
REMARK    1  A    between atoms: N_2  and  C1_3 
ROOT
ATOM      1  C1  UNL d   1       3.299   0.183   1.952  0.00  0.00     0.143 A 
ATOM      2  C2  UNL d   1       4.362  -0.495   1.346  0.00  0.00    -0.057 A 
ATOM      3  C3  UNL d   1       4.633  -0.349  -0.019  0.00  0.00     0.033 A 
ATOM      4  C4  UNL d   1       3.825   0.459  -0.812  0.00  0.00    -0.042 A 
ATOM      5  C5  UNL d   1       2.747   1.123  -0.237  0.00  0.00     0.033 A 
ATOM      6  C6  UNL d   1       2.485   0.978   1.129  0.00  0.00    -0.057 A 
ENDROOT
BRANCH   1   7
ATOM      7  N   UNL d   1       2.918   0.002   3.284  0.00  0.00    -0.732 N 
ATOM      8  C   UNL d   1       1.525   0.076   3.669  0.00  0.00     0.284 C 
ATOM      9  H3  UNL d   1       3.435  -0.748   3.737  0.00  0.00     0.395 HD
ENDBRANCH   1   7
TORSDOF 1
ENDMDL
