MODEL 1
REMARK minimizedAffinity 0.127516091
REMARK minimizedRMSD -1
REMARK  1 active torsions:
REMARK  status: ('A' for Active; 'I' for Inactive)
REMARK    1  A    between atoms: N_2  and  C1_3 
ROOT
ATOM      1  C1  UNL d   1      -3.245   5.595  -1.831  0.00  0.00     0.143 A 
ATOM      2  C2  UNL d   1      -4.260   6.000  -2.704  0.00  0.00    -0.057 A 
ATOM      3  C3  UNL d   1      -5.603   6.000  -2.307  0.00  0.00     0.033 A 
ATOM      4  C4  UNL d   1      -5.957   5.565  -1.034  0.00  0.00    -0.042 A 
ATOM      5  C5  UNL d   1      -4.968   5.135  -0.157  0.00  0.00     0.033 A 
ATOM      6  C6  UNL d   1      -3.628   5.144  -0.558  0.00  0.00    -0.057 A 
ENDROOT
BRANCH   1   7
ATOM      7  N   UNL d   1      -1.902   5.479  -2.199  0.00  0.00    -0.732 N 
ATOM      8  C   UNL d   1      -1.255   4.185  -2.230  0.00  0.00     0.284 C 
ATOM      9  H3  UNL d   1      -1.661   6.084  -2.981  0.00  0.00     0.395 HD
ENDBRANCH   1   7
TORSDOF 1
ENDMDL
