MODEL 1
REMARK minimizedAffinity 13.5124836
REMARK minimizedRMSD -1
REMARK  1 active torsions:
REMARK  status: ('A' for Active; 'I' for Inactive)
REMARK    1  A    between atoms: N_2  and  C1_3 
ROOT
ATOM      1  C1  UNL d   1      -1.767  -3.567   1.437  0.00  0.00     0.143 A 
ATOM      2  C2  UNL d   1      -2.216  -4.812   0.983  0.00  0.00    -0.057 A 
ATOM      3  C3  UNL d   1      -2.342  -5.900   1.855  0.00  0.00     0.033 A 
ATOM      4  C4  UNL d   1      -1.993  -5.770   3.195  0.00  0.00    -0.042 A 
ATOM      5  C5  UNL d   1      -1.520  -4.549   3.663  0.00  0.00     0.033 A 
ATOM      6  C6  UNL d   1      -1.403  -3.464   2.789  0.00  0.00    -0.057 A 
ENDROOT
BRANCH   1   7
ATOM      7  N   UNL d   1      -1.526  -2.475   0.601  0.00  0.00    -0.732 N 
ATOM      8  C   UNL d   1      -2.133  -2.403  -0.711  0.00  0.00     0.284 C 
ATOM      9  H3  UNL d   1      -1.522  -1.592   1.106  0.00  0.00     0.395 HD
ENDBRANCH   1   7
TORSDOF 1
ENDMDL
