MODEL 1
REMARK minimizedAffinity 7.4335413
REMARK minimizedRMSD -1
REMARK  1 active torsions:
REMARK  status: ('A' for Active; 'I' for Inactive)
REMARK    1  A    between atoms: N_2  and  C1_3 
ROOT
ATOM      1  C1  UNL d   1      -1.435  -4.260  -3.583  0.00  0.00     0.143 A 
ATOM      2  C2  UNL d   1      -1.789  -3.146  -4.351  0.00  0.00    -0.057 A 
ATOM      3  C3  UNL d   1      -2.538  -2.096  -3.806  0.00  0.00     0.033 A 
ATOM      4  C4  UNL d   1      -2.972  -2.156  -2.485  0.00  0.00    -0.042 A 
ATOM      5  C5  UNL d   1      -2.653  -3.266  -1.710  0.00  0.00     0.033 A 
ATOM      6  C6  UNL d   1      -1.899  -4.307  -2.259  0.00  0.00    -0.057 A 
ENDROOT
BRANCH   1   7
ATOM      7  N   UNL d   1      -0.776  -5.380  -4.095  0.00  0.00    -0.732 N 
ATOM      8  C   UNL d   1       0.670  -5.432  -4.133  0.00  0.00     0.284 C 
ATOM      9  H3  UNL d   1      -1.216  -6.253  -3.811  0.00  0.00     0.395 HD
ENDBRANCH   1   7
TORSDOF 1
ENDMDL
