MODEL 1
REMARK minimizedAffinity 2.39893365
REMARK minimizedRMSD -1
REMARK  1 active torsions:
REMARK  status: ('A' for Active; 'I' for Inactive)
REMARK    1  A    between atoms: N_2  and  C1_3 
ROOT
ATOM      1  C1  UNL d   1       0.879   1.149   1.726  0.00  0.00     0.143 A 
ATOM      2  C2  UNL d   1      -0.251   0.354   1.947  0.00  0.00    -0.057 A 
ATOM      3  C3  UNL d   1      -1.526   0.921   2.063  0.00  0.00     0.033 A 
ATOM      4  C4  UNL d   1      -1.690   2.300   1.989  0.00  0.00    -0.042 A 
ATOM      5  C5  UNL d   1      -0.578   3.112   1.795  0.00  0.00     0.033 A 
ATOM      6  C6  UNL d   1       0.691   2.539   1.673  0.00  0.00    -0.057 A 
ENDROOT
BRANCH   1   7
ATOM      7  N   UNL d   1       2.185   0.654   1.701  0.00  0.00    -0.732 N 
ATOM      8  C   UNL d   1       3.070   0.967   0.600  0.00  0.00     0.284 C 
ATOM      9  H3  UNL d   1       2.631   0.688   2.615  0.00  0.00     0.395 HD
ENDBRANCH   1   7
TORSDOF 1
ENDMDL
