MODEL 1
REMARK minimizedAffinity 6.3830781
REMARK minimizedRMSD -1
REMARK  1 active torsions:
REMARK  status: ('A' for Active; 'I' for Inactive)
REMARK    1  A    between atoms: N_2  and  C1_3 
ROOT
ATOM      1  C1  UNL d   1      -1.402   1.844   2.104  0.00  0.00     0.143 A 
ATOM      2  C2  UNL d   1      -0.863   0.574   2.335  0.00  0.00    -0.057 A 
ATOM      3  C3  UNL d   1       0.511   0.334   2.209  0.00  0.00     0.033 A 
ATOM      4  C4  UNL d   1       1.369   1.358   1.821  0.00  0.00    -0.042 A 
ATOM      5  C5  UNL d   1       0.852   2.622   1.562  0.00  0.00     0.033 A 
ATOM      6  C6  UNL d   1      -0.520   2.857   1.696  0.00  0.00    -0.057 A 
ENDROOT
BRANCH   1   7
ATOM      7  N   UNL d   1      -2.771   2.122   2.117  0.00  0.00    -0.732 N 
ATOM      8  C   UNL d   1      -3.513   2.115   3.360  0.00  0.00     0.284 C 
ATOM      9  H3  UNL d   1      -3.018   2.884   1.490  0.00  0.00     0.395 HD
ENDBRANCH   1   7
TORSDOF 1
ENDMDL
