MODEL 1
REMARK minimizedAffinity -3.63333511
REMARK minimizedRMSD -1
REMARK  1 active torsions:
REMARK  status: ('A' for Active; 'I' for Inactive)
REMARK    1  A    between atoms: C1_2  and  C2_3 
ROOT
ATOM      1  C2  UNL d   1       1.066   0.082  -0.441  0.00  0.00    -0.077 A 
ATOM      2  C3  UNL d   1       0.865  -0.309   0.891  0.00  0.00     0.002 A 
ATOM      3  C4  UNL d   1      -0.297   0.064   1.569  0.00  0.00     0.002 A 
ATOM      4  C5  UNL d   1      -1.269   0.824   0.923  0.00  0.00    -0.004 A 
ATOM      5  C6  UNL d   1      -1.078   1.219  -0.401  0.00  0.00     0.002 A 
ATOM      6  C7  UNL d   1       0.083   0.849  -1.080  0.00  0.00     0.002 A 
ENDROOT
BRANCH   1   7
ATOM      7  C1  UNL d   1       2.296  -0.360  -1.189  0.00  0.00     0.055 C 
ATOM      8  C   UNL d   1       2.002  -1.561  -2.077  0.00  0.00     0.019 C 
ENDBRANCH   1   7
TORSDOF 1
ENDMDL
