MODEL 1
REMARK minimizedAffinity -4.61303091
REMARK minimizedRMSD -1
REMARK  1 active torsions:
REMARK  status: ('A' for Active; 'I' for Inactive)
REMARK    1  A    between atoms: C1_2  and  C2_3 
ROOT
ATOM      1  C2  UNL d   1       1.328   0.287  -0.872  0.00  0.00    -0.077 A 
ATOM      2  C3  UNL d   1       2.199  -0.588  -1.538  0.00  0.00     0.002 A 
ATOM      3  C4  UNL d   1       1.963  -1.964  -1.526  0.00  0.00     0.002 A 
ATOM      4  C5  UNL d   1       0.856  -2.477  -0.855  0.00  0.00    -0.004 A 
ATOM      5  C6  UNL d   1      -0.015  -1.616  -0.189  0.00  0.00     0.002 A 
ATOM      6  C7  UNL d   1       0.219  -0.240  -0.198  0.00  0.00     0.002 A 
ENDROOT
BRANCH   1   7
ATOM      7  C1  UNL d   1       1.553   1.775  -0.925  0.00  0.00     0.055 C 
ATOM      8  C   UNL d   1       0.399   2.486  -1.616  0.00  0.00     0.019 C 
ENDBRANCH   1   7
TORSDOF 1
ENDMDL
