MODEL 1
REMARK minimizedAffinity -3.5945375
REMARK minimizedRMSD -1
REMARK  1 active torsions:
REMARK  status: ('A' for Active; 'I' for Inactive)
REMARK    1  A    between atoms: C1_2  and  C2_3 
ROOT
ATOM      1  C2  UNL d   1       0.910   0.547  -0.681  0.00  0.00    -0.077 A 
ATOM      2  C3  UNL d   1       2.106   0.007  -1.173  0.00  0.00     0.002 A 
ATOM      3  C4  UNL d   1       2.268  -1.376  -1.275  0.00  0.00     0.002 A 
ATOM      4  C5  UNL d   1       1.237  -2.230  -0.890  0.00  0.00    -0.004 A 
ATOM      5  C6  UNL d   1       0.044  -1.703  -0.397  0.00  0.00     0.002 A 
ATOM      6  C7  UNL d   1      -0.119  -0.321  -0.293  0.00  0.00     0.002 A 
ENDROOT
BRANCH   1   7
ATOM      7  C1  UNL d   1       0.715   2.039  -0.616  0.00  0.00     0.055 C 
ATOM      8  C   UNL d   1      -0.451   2.483  -1.488  0.00  0.00     0.019 C 
ENDBRANCH   1   7
TORSDOF 1
ENDMDL
