MODEL 1
REMARK minimizedAffinity -4.86989307
REMARK minimizedRMSD -1
REMARK  1 active torsions:
REMARK  status: ('A' for Active; 'I' for Inactive)
REMARK    1  A    between atoms: C1_2  and  C2_3 
ROOT
ATOM      1  C2  UNL d   1      -0.120   0.028   0.067  0.00  0.00    -0.077 A 
ATOM      2  C3  UNL d   1       0.701   1.048  -0.435  0.00  0.00     0.002 A 
ATOM      3  C4  UNL d   1       1.958   0.748  -0.962  0.00  0.00     0.002 A 
ATOM      4  C5  UNL d   1       2.404  -0.572  -0.996  0.00  0.00    -0.004 A 
ATOM      5  C6  UNL d   1       1.597  -1.593  -0.498  0.00  0.00     0.002 A 
ATOM      6  C7  UNL d   1       0.340  -1.295   0.031  0.00  0.00     0.002 A 
ENDROOT
BRANCH   1   7
ATOM      7  C1  UNL d   1      -1.496   0.344   0.591  0.00  0.00     0.055 C 
ATOM      8  C   UNL d   1      -1.428   1.049   1.938  0.00  0.00     0.019 C 
ENDBRANCH   1   7
TORSDOF 1
ENDMDL
