MODEL 1
REMARK minimizedAffinity -5.16280985
REMARK minimizedRMSD -1
REMARK  1 active torsions:
REMARK  status: ('A' for Active; 'I' for Inactive)
REMARK    1  A    between atoms: C1_2  and  C2_3 
ROOT
ATOM      1  C2  UNL d   1      -0.015   0.054  -0.186  0.00  0.00    -0.077 A 
ATOM      2  C3  UNL d   1       0.103  -1.343  -0.159  0.00  0.00     0.002 A 
ATOM      3  C4  UNL d   1       1.292  -1.959  -0.553  0.00  0.00     0.002 A 
ATOM      4  C5  UNL d   1       2.373  -1.187  -0.973  0.00  0.00    -0.004 A 
ATOM      5  C6  UNL d   1       2.265   0.202  -1.006  0.00  0.00     0.002 A 
ATOM      6  C7  UNL d   1       1.077   0.820  -0.614  0.00  0.00     0.002 A 
ENDROOT
BRANCH   1   7
ATOM      7  C1  UNL d   1      -1.279   0.723   0.285  0.00  0.00     0.055 C 
ATOM      8  C   UNL d   1      -1.628   0.308   1.707  0.00  0.00     0.019 C 
ENDBRANCH   1   7
TORSDOF 1
ENDMDL
