MODEL 1
REMARK minimizedAffinity -5.05301285
REMARK minimizedRMSD -1
REMARK  1 active torsions:
REMARK  status: ('A' for Active; 'I' for Inactive)
REMARK    1  A    between atoms: C1_2  and  C2_3 
ROOT
ATOM      1  C2  UNL d   1      -2.250  -0.332   1.096  0.00  0.00    -0.077 A 
ATOM      2  C3  UNL d   1      -1.425   0.327   2.018  0.00  0.00     0.002 A 
ATOM      3  C4  UNL d   1      -1.835   0.491   3.343  0.00  0.00     0.002 A 
ATOM      4  C5  UNL d   1      -3.069  -0.006   3.758  0.00  0.00    -0.004 A 
ATOM      5  C6  UNL d   1      -3.897  -0.661   2.848  0.00  0.00     0.002 A 
ATOM      6  C7  UNL d   1      -3.490  -0.825   1.524  0.00  0.00     0.002 A 
ENDROOT
BRANCH   1   7
ATOM      7  C1  UNL d   1      -1.788  -0.553  -0.320  0.00  0.00     0.055 C 
ATOM      8  C   UNL d   1      -0.495  -1.354  -0.363  0.00  0.00     0.019 C 
ENDBRANCH   1   7
TORSDOF 1
ENDMDL
