MODEL 1
REMARK minimizedAffinity -6.12612724
REMARK minimizedRMSD -1
REMARK  1 active torsions:
REMARK  status: ('A' for Active; 'I' for Inactive)
REMARK    1  A    between atoms: C1_2  and  C2_3 
ROOT
ATOM      1  C2  UNL d   1       0.335  -0.233  -0.394  0.00  0.00    -0.077 A 
ATOM      2  C3  UNL d   1       1.492   0.555  -0.333  0.00  0.00     0.002 A 
ATOM      3  C4  UNL d   1       2.731   0.021  -0.693  0.00  0.00     0.002 A 
ATOM      4  C5  UNL d   1       2.824  -1.302  -1.121  0.00  0.00    -0.004 A 
ATOM      5  C6  UNL d   1       1.679  -2.095  -1.183  0.00  0.00     0.002 A 
ATOM      6  C7  UNL d   1       0.440  -1.563  -0.823  0.00  0.00     0.002 A 
ENDROOT
BRANCH   1   7
ATOM      7  C1  UNL d   1      -1.009   0.355  -0.054  0.00  0.00     0.055 C 
ATOM      8  C   UNL d   1      -1.316   1.571  -0.916  0.00  0.00     0.019 C 
ENDBRANCH   1   7
TORSDOF 1
ENDMDL
