MODEL 1
REMARK minimizedAffinity -5.23610735
REMARK minimizedRMSD -1
REMARK  1 active torsions:
REMARK  status: ('A' for Active; 'I' for Inactive)
REMARK    1  A    between atoms: C1_2  and  C2_3 
ROOT
ATOM      1  C2  UNL d   1       0.001   0.028  -0.234  0.00  0.00    -0.077 A 
ATOM      2  C3  UNL d   1       1.042   0.765  -0.817  0.00  0.00     0.002 A 
ATOM      3  C4  UNL d   1       2.167   0.114  -1.328  0.00  0.00     0.002 A 
ATOM      4  C5  UNL d   1       2.259  -1.275  -1.266  0.00  0.00    -0.004 A 
ATOM      5  C6  UNL d   1       1.229  -2.016  -0.687  0.00  0.00     0.002 A 
ATOM      6  C7  UNL d   1       0.105  -1.367  -0.174  0.00  0.00     0.002 A 
ENDROOT
BRANCH   1   7
ATOM      7  C1  UNL d   1      -1.235   0.724   0.273  0.00  0.00     0.055 C 
ATOM      8  C   UNL d   1      -1.677   0.160   1.616  0.00  0.00     0.019 C 
ENDBRANCH   1   7
TORSDOF 1
ENDMDL
