MODEL 1
REMARK minimizedAffinity -5.29576015
REMARK minimizedRMSD -1
REMARK  1 active torsions:
REMARK  status: ('A' for Active; 'I' for Inactive)
REMARK    1  A    between atoms: C1_2  and  C2_3 
ROOT
ATOM      1  C2  UNL d   1      -0.225  -0.270  -0.493  0.00  0.00    -0.077 A 
ATOM      2  C3  UNL d   1      -0.080  -1.661  -0.396  0.00  0.00     0.002 A 
ATOM      3  C4  UNL d   1       1.148  -2.265  -0.672  0.00  0.00     0.002 A 
ATOM      4  C5  UNL d   1       2.241  -1.486  -1.043  0.00  0.00    -0.004 A 
ATOM      5  C6  UNL d   1       2.108  -0.102  -1.144  0.00  0.00     0.002 A 
ATOM      6  C7  UNL d   1       0.880   0.504  -0.870  0.00  0.00     0.002 A 
ENDROOT
BRANCH   1   7
ATOM      7  C1  UNL d   1      -1.535   0.387  -0.148  0.00  0.00     0.055 C 
ATOM      8  C   UNL d   1      -2.087  -0.136   1.170  0.00  0.00     0.019 C 
ENDBRANCH   1   7
TORSDOF 1
ENDMDL
