MODEL 1
REMARK minimizedAffinity -4.93231153
REMARK minimizedRMSD -1
REMARK  1 active torsions:
REMARK  status: ('A' for Active; 'I' for Inactive)
REMARK    1  A    between atoms: C1_2  and  C2_3 
ROOT
ATOM      1  C2  UNL d   1      -1.098  -0.231  -0.569  0.00  0.00    -0.077 A 
ATOM      2  C3  UNL d   1      -1.568   0.972  -1.115  0.00  0.00     0.002 A 
ATOM      3  C4  UNL d   1      -0.674   1.989  -1.457  0.00  0.00     0.002 A 
ATOM      4  C5  UNL d   1       0.694   1.811  -1.260  0.00  0.00    -0.004 A 
ATOM      5  C6  UNL d   1       1.171   0.620  -0.716  0.00  0.00     0.002 A 
ATOM      6  C7  UNL d   1       0.279  -0.397  -0.372  0.00  0.00     0.002 A 
ENDROOT
BRANCH   1   7
ATOM      7  C1  UNL d   1      -2.056  -1.348  -0.246  0.00  0.00     0.055 C 
ATOM      8  C   UNL d   1      -1.583  -2.670  -0.832  0.00  0.00     0.019 C 
ENDBRANCH   1   7
TORSDOF 1
ENDMDL
