MODEL 1
REMARK minimizedAffinity -5.36228895
REMARK minimizedRMSD -1
REMARK  1 active torsions:
REMARK  status: ('A' for Active; 'I' for Inactive)
REMARK    1  A    between atoms: C1_2  and  C2_3 
ROOT
ATOM      1  C2  UNL d   1       0.208   0.234  -0.034  0.00  0.00    -0.077 A 
ATOM      2  C3  UNL d   1       1.242   1.073  -0.472  0.00  0.00     0.002 A 
ATOM      3  C4  UNL d   1       2.385   0.534  -1.067  0.00  0.00     0.002 A 
ATOM      4  C5  UNL d   1       2.502  -0.844  -1.232  0.00  0.00    -0.004 A 
ATOM      5  C6  UNL d   1       1.480  -1.687  -0.798  0.00  0.00     0.002 A 
ATOM      6  C7  UNL d   1       0.338  -1.150  -0.202  0.00  0.00     0.002 A 
ENDROOT
BRANCH   1   7
ATOM      7  C1  UNL d   1      -1.046   0.817   0.563  0.00  0.00     0.055 C 
ATOM      8  C   UNL d   1      -0.832   1.223   2.014  0.00  0.00     0.019 C 
ENDBRANCH   1   7
TORSDOF 1
ENDMDL
