MODEL 1
REMARK minimizedAffinity -3.94960046
REMARK minimizedRMSD -1
REMARK  1 active torsions:
REMARK  status: ('A' for Active; 'I' for Inactive)
REMARK    1  A    between atoms: C1_2  and  C2_3 
ROOT
ATOM      1  C2  UNL d   1       1.272   0.689  -1.930  0.00  0.00    -0.077 A 
ATOM      2  C3  UNL d   1       0.647  -0.078  -0.937  0.00  0.00     0.002 A 
ATOM      3  C4  UNL d   1       1.157  -1.330  -0.587  0.00  0.00     0.002 A 
ATOM      4  C5  UNL d   1       2.296  -1.823  -1.221  0.00  0.00    -0.004 A 
ATOM      5  C6  UNL d   1       2.923  -1.067  -2.211  0.00  0.00     0.002 A 
ATOM      6  C7  UNL d   1       2.414   0.183  -2.563  0.00  0.00     0.002 A 
ENDROOT
BRANCH   1   7
ATOM      7  C1  UNL d   1       0.752   2.061  -2.274  0.00  0.00     0.055 C 
ATOM      8  C   UNL d   1      -0.513   2.385  -1.493  0.00  0.00     0.019 C 
ENDBRANCH   1   7
TORSDOF 1
ENDMDL
