MODEL 1
REMARK minimizedAffinity -1.39843893
REMARK minimizedRMSD -1
REMARK  3 active torsions:
REMARK  status: ('A' for Active; 'I' for Inactive)
REMARK    1  A    between atoms: C3'_2  and  C2'_3 
REMARK    2  A    between atoms: C2'_3  and  C1'_4 
REMARK    3  A    between atoms: C1'_4  and  C1_5 
ROOT
ATOM      1  C1  N4B d   1       0.643   0.563  -0.914  0.00  0.00    -0.075 A 
ATOM      2  C2  N4B d   1       0.377  -0.161  -2.096  0.00  0.00     0.002 A 
ATOM      3  C3  N4B d   1       0.294   0.496  -3.300  0.00  0.00     0.002 A 
ATOM      4  C4  N4B d   1       0.454   1.872  -3.342  0.00  0.00    -0.004 A 
ATOM      5  C5  N4B d   1       0.736   2.561  -2.199  0.00  0.00     0.002 A 
ATOM      6  C6  N4B d   1       0.826   1.914  -0.983  0.00  0.00     0.002 A 
ENDROOT
BRANCH   1   7
ATOM      7  C1' N4B d   1       0.658  -0.099   0.437  0.00  0.00     0.057 C 
BRANCH   7   8
ATOM      8  C2' N4B d   1       1.134  -1.540   0.282  0.00  0.00     0.009 C 
BRANCH   8   9
ATOM      9  C3' N4B d   1       0.325  -2.501   1.137  0.00  0.00     0.004 C 
ATOM     10  C4' N4B d   1      -0.479  -1.802   2.193  0.00  0.00     0.003 C 
ENDBRANCH   8   9
ENDBRANCH   7   8
ENDBRANCH   1   7
TORSDOF 3
ENDMDL
