MODEL 1
REMARK minimizedAffinity -3.41382408
REMARK minimizedRMSD -1
REMARK  3 active torsions:
REMARK  status: ('A' for Active; 'I' for Inactive)
REMARK    1  A    between atoms: C3'_2  and  C2'_3 
REMARK    2  A    between atoms: C2'_3  and  C1'_4 
REMARK    3  A    between atoms: C1'_4  and  C1_5 
ROOT
ATOM      1  C1  N4B d   1       0.208   0.288   0.386  0.00  0.00    -0.075 A 
ATOM      2  C2  N4B d   1      -0.928  -0.088   1.135  0.00  0.00     0.002 A 
ATOM      3  C3  N4B d   1      -1.053  -1.378   1.592  0.00  0.00     0.002 A 
ATOM      4  C4  N4B d   1      -0.068  -2.308   1.297  0.00  0.00    -0.004 A 
ATOM      5  C5  N4B d   1       1.038  -1.930   0.594  0.00  0.00     0.002 A 
ATOM      6  C6  N4B d   1       1.179  -0.637   0.132  0.00  0.00     0.002 A 
ENDROOT
BRANCH   1   7
ATOM      7  C1' N4B d   1       0.347   1.663  -0.208  0.00  0.00     0.057 C 
BRANCH   7   8
ATOM      8  C2' N4B d   1       1.403   1.629  -1.309  0.00  0.00     0.009 C 
BRANCH   8   9
ATOM      9  C3' N4B d   1       0.838   2.062  -2.651  0.00  0.00     0.004 C 
ATOM     10  C4' N4B d   1       1.630   1.537  -3.811  0.00  0.00     0.003 C 
ENDBRANCH   8   9
ENDBRANCH   7   8
ENDBRANCH   1   7
TORSDOF 3
ENDMDL
