MODEL 1
REMARK minimizedAffinity -4.85452938
REMARK minimizedRMSD -1
REMARK  3 active torsions:
REMARK  status: ('A' for Active; 'I' for Inactive)
REMARK    1  A    between atoms: C3'_2  and  C2'_3 
REMARK    2  A    between atoms: C2'_3  and  C1'_4 
REMARK    3  A    between atoms: C1'_4  and  C1_5 
ROOT
ATOM      1  C1  N4B d   1       0.319   0.141  -0.112  0.00  0.00    -0.075 A 
ATOM      2  C2  N4B d   1       0.901  -0.985  -0.734  0.00  0.00     0.002 A 
ATOM      3  C3  N4B d   1       0.534  -2.250  -0.346  0.00  0.00     0.002 A 
ATOM      4  C4  N4B d   1      -0.396  -2.413   0.670  0.00  0.00    -0.004 A 
ATOM      5  C5  N4B d   1      -0.973  -1.321   1.248  0.00  0.00     0.002 A 
ATOM      6  C6  N4B d   1      -0.616  -0.043   0.866  0.00  0.00     0.002 A 
ENDROOT
BRANCH   1   7
ATOM      7  C1' N4B d   1       0.751   1.543  -0.442  0.00  0.00     0.057 C 
BRANCH   7   8
ATOM      8  C2' N4B d   1       1.438   1.548  -1.805  0.00  0.00     0.009 C 
BRANCH   8   9
ATOM      9  C3' N4B d   1       0.505   2.013  -2.910  0.00  0.00     0.004 C 
ATOM     10  C4' N4B d   1       0.532   1.113  -4.109  0.00  0.00     0.003 C 
ENDBRANCH   8   9
ENDBRANCH   7   8
ENDBRANCH   1   7
TORSDOF 3
ENDMDL
