MODEL 1
REMARK minimizedAffinity -4.90419292
REMARK minimizedRMSD -1
REMARK  3 active torsions:
REMARK  status: ('A' for Active; 'I' for Inactive)
REMARK    1  A    between atoms: C3'_2  and  C2'_3 
REMARK    2  A    between atoms: C2'_3  and  C1'_4 
REMARK    3  A    between atoms: C1'_4  and  C1_5 
ROOT
ATOM      1  C1  N4B d   1       0.680   0.965  -0.850  0.00  0.00    -0.075 A 
ATOM      2  C2  N4B d   1       0.556   0.548  -2.193  0.00  0.00     0.002 A 
ATOM      3  C3  N4B d   1       0.354   1.476  -3.185  0.00  0.00     0.002 A 
ATOM      4  C4  N4B d   1       0.255   2.820  -2.856  0.00  0.00    -0.004 A 
ATOM      5  C5  N4B d   1       0.402   3.217  -1.560  0.00  0.00     0.002 A 
ATOM      6  C6  N4B d   1       0.609   2.295  -0.553  0.00  0.00     0.002 A 
ENDROOT
BRANCH   1   7
ATOM      7  C1' N4B d   1       0.816  -0.021   0.278  0.00  0.00     0.057 C 
BRANCH   7   8
ATOM      8  C2' N4B d   1       0.899  -1.432  -0.296  0.00  0.00     0.009 C 
BRANCH   8   9
ATOM      9  C3' N4B d   1       0.045  -2.415   0.486  0.00  0.00     0.004 C 
ATOM     10  C4' N4B d   1      -0.738  -1.759   1.583  0.00  0.00     0.003 C 
ENDBRANCH   8   9
ENDBRANCH   7   8
ENDBRANCH   1   7
TORSDOF 3
ENDMDL
