MODEL 1
REMARK minimizedAffinity -2.36998272
REMARK minimizedRMSD -1
REMARK  3 active torsions:
REMARK  status: ('A' for Active; 'I' for Inactive)
REMARK    1  A    between atoms: C3'_2  and  C2'_3 
REMARK    2  A    between atoms: C2'_3  and  C1'_4 
REMARK    3  A    between atoms: C1'_4  and  C1_5 
ROOT
ATOM      1  C1  N4B d   1       0.671   1.258  -1.285  0.00  0.00    -0.075 A 
ATOM      2  C2  N4B d   1       2.026   1.379  -1.663  0.00  0.00     0.002 A 
ATOM      3  C3  N4B d   1       2.351   1.776  -2.937  0.00  0.00     0.002 A 
ATOM      4  C4  N4B d   1       1.342   2.037  -3.852  0.00  0.00    -0.004 A 
ATOM      5  C5  N4B d   1       0.035   1.942  -3.472  0.00  0.00     0.002 A 
ATOM      6  C6  N4B d   1      -0.306   1.548  -2.194  0.00  0.00     0.002 A 
ENDROOT
BRANCH   1   7
ATOM      7  C1' N4B d   1       0.267   0.745   0.070  0.00  0.00     0.057 C 
BRANCH   7   8
ATOM      8  C2' N4B d   1       1.279  -0.299   0.532  0.00  0.00     0.009 C 
BRANCH   8   9
ATOM      9  C3' N4B d   1       0.781  -1.715   0.299  0.00  0.00     0.004 C 
ATOM     10  C4' N4B d   1       0.067  -2.283   1.489  0.00  0.00     0.003 C 
ENDBRANCH   8   9
ENDBRANCH   7   8
ENDBRANCH   1   7
TORSDOF 3
ENDMDL
