MODEL 1
REMARK minimizedAffinity -5.35148907
REMARK minimizedRMSD -1
REMARK  1 active torsions:
REMARK  status: ('A' for Active; 'I' for Inactive)
REMARK    1  A    between atoms: C1_2  and  C2_3 
ROOT
ATOM      1  C2  UNL d   1      -0.240  -0.102  -0.121  0.00  0.00    -0.077 A 
ATOM      2  C3  UNL d   1      -0.908   0.429  -1.234  0.00  0.00     0.002 A 
ATOM      3  C4  UNL d   1      -2.089   1.155  -1.069  0.00  0.00     0.002 A 
ATOM      4  C5  UNL d   1      -2.609   1.361   0.206  0.00  0.00    -0.004 A 
ATOM      5  C6  UNL d   1      -1.954   0.836   1.319  0.00  0.00     0.002 A 
ATOM      6  C7  UNL d   1      -0.774   0.109   1.156  0.00  0.00     0.002 A 
ENDROOT
BRANCH   1   7
ATOM      7  C1  UNL d   1       1.060  -0.843  -0.293  0.00  0.00     0.055 C 
ATOM      8  C   UNL d   1       0.952  -2.274   0.214  0.00  0.00     0.019 C 
ENDBRANCH   1   7
TORSDOF 1
ENDMDL
