MODEL 1
REMARK minimizedAffinity -2.87233639
REMARK minimizedRMSD -1
REMARK  1 active torsions:
REMARK  status: ('A' for Active; 'I' for Inactive)
REMARK    1  A    between atoms: C1_2  and  C2_3 
ROOT
ATOM      1  C2  UNL d   1      -1.945   1.196   0.398  0.00  0.00    -0.077 A 
ATOM      2  C3  UNL d   1      -3.047   0.556  -0.185  0.00  0.00     0.002 A 
ATOM      3  C4  UNL d   1      -4.311   0.654   0.399  0.00  0.00     0.002 A 
ATOM      4  C5  UNL d   1      -4.486   1.395   1.567  0.00  0.00    -0.004 A 
ATOM      5  C6  UNL d   1      -3.395   2.033   2.155  0.00  0.00     0.002 A 
ATOM      6  C7  UNL d   1      -2.130   1.935   1.573  0.00  0.00     0.002 A 
ENDROOT
BRANCH   1   7
ATOM      7  C1  UNL d   1      -0.590   1.133  -0.258  0.00  0.00     0.055 C 
ATOM      8  C   UNL d   1       0.018  -0.257  -0.139  0.00  0.00     0.019 C 
ENDBRANCH   1   7
TORSDOF 1
ENDMDL
