MODEL 1
REMARK minimizedAffinity -3.69377232
REMARK minimizedRMSD -1
REMARK  1 active torsions:
REMARK  status: ('A' for Active; 'I' for Inactive)
REMARK    1  A    between atoms: C1_2  and  C2_3 
ROOT
ATOM      1  C2  UNL d   1      -1.420   0.569  -0.289  0.00  0.00    -0.077 A 
ATOM      2  C3  UNL d   1      -0.989  -0.750  -0.089  0.00  0.00     0.002 A 
ATOM      3  C4  UNL d   1       0.374  -1.049  -0.048  0.00  0.00     0.002 A 
ATOM      4  C5  UNL d   1       1.316  -0.035  -0.204  0.00  0.00    -0.004 A 
ATOM      5  C6  UNL d   1       0.898   1.279  -0.406  0.00  0.00     0.002 A 
ATOM      6  C7  UNL d   1      -0.464   1.580  -0.448  0.00  0.00     0.002 A 
ENDROOT
BRANCH   1   7
ATOM      7  C1  UNL d   1      -2.889   0.902  -0.284  0.00  0.00     0.055 C 
ATOM      8  C   UNL d   1      -3.408   1.094   1.134  0.00  0.00     0.019 C 
ENDBRANCH   1   7
TORSDOF 1
ENDMDL
