MODEL 1
REMARK minimizedAffinity -4.53520966
REMARK minimizedRMSD -1
REMARK  1 active torsions:
REMARK  status: ('A' for Active; 'I' for Inactive)
REMARK    1  A    between atoms: C1_2  and  C2_3 
ROOT
ATOM      1  C2  UNL d   1      -1.897   0.678  -0.014  0.00  0.00    -0.077 A 
ATOM      2  C3  UNL d   1      -0.947   1.627  -0.419  0.00  0.00     0.002 A 
ATOM      3  C4  UNL d   1       0.416   1.330  -0.364  0.00  0.00     0.002 A 
ATOM      4  C5  UNL d   1       0.841   0.083   0.090  0.00  0.00    -0.004 A 
ATOM      5  C6  UNL d   1      -0.095  -0.867   0.497  0.00  0.00     0.002 A 
ATOM      6  C7  UNL d   1      -1.458  -0.571   0.444  0.00  0.00     0.002 A 
ENDROOT
BRANCH   1   7
ATOM      7  C1  UNL d   1      -3.369   0.978  -0.119  0.00  0.00     0.055 C 
ATOM      8  C   UNL d   1      -4.209  -0.252   0.193  0.00  0.00     0.019 C 
ENDBRANCH   1   7
TORSDOF 1
ENDMDL
