MODEL 1
REMARK minimizedAffinity -5.84539127
REMARK minimizedRMSD -1
REMARK  1 active torsions:
REMARK  status: ('A' for Active; 'I' for Inactive)
REMARK    1  A    between atoms: C1_2  and  C2_3 
ROOT
ATOM      1  C2  UNL d   1       0.075  -0.004   0.014  0.00  0.00    -0.077 A 
ATOM      2  C3  UNL d   1       1.095   0.679   0.691  0.00  0.00     0.002 A 
ATOM      3  C4  UNL d   1       2.296   0.034   0.995  0.00  0.00     0.002 A 
ATOM      4  C5  UNL d   1       2.489  -1.295   0.622  0.00  0.00    -0.004 A 
ATOM      5  C6  UNL d   1       1.480  -1.983  -0.050  0.00  0.00     0.002 A 
ATOM      6  C7  UNL d   1       0.279  -1.341  -0.354  0.00  0.00     0.002 A 
ENDROOT
BRANCH   1   7
ATOM      7  C1  UNL d   1      -1.201   0.704  -0.359  0.00  0.00     0.055 C 
ATOM      8  C   UNL d   1      -2.150   0.795   0.827  0.00  0.00     0.019 C 
ENDBRANCH   1   7
TORSDOF 1
ENDMDL
