MODEL 1
REMARK minimizedAffinity -3.29781032
REMARK minimizedRMSD -1
REMARK  1 active torsions:
REMARK  status: ('A' for Active; 'I' for Inactive)
REMARK    1  A    between atoms: C1_2  and  C2_3 
ROOT
ATOM      1  C2  UNL d   1      -0.034   0.094  -0.283  0.00  0.00    -0.077 A 
ATOM      2  C3  UNL d   1       0.302  -0.991  -1.105  0.00  0.00     0.002 A 
ATOM      3  C4  UNL d   1       1.384  -1.812  -0.783  0.00  0.00     0.002 A 
ATOM      4  C5  UNL d   1       2.136  -1.560   0.362  0.00  0.00    -0.004 A 
ATOM      5  C6  UNL d   1       1.811  -0.483   1.185  0.00  0.00     0.002 A 
ATOM      6  C7  UNL d   1       0.731   0.340   0.865  0.00  0.00     0.002 A 
ENDROOT
BRANCH   1   7
ATOM      7  C1  UNL d   1      -1.231   0.951  -0.602  0.00  0.00     0.055 C 
ATOM      8  C   UNL d   1      -2.322   0.791   0.447  0.00  0.00     0.019 C 
ENDBRANCH   1   7
TORSDOF 1
ENDMDL
