MODEL 1
REMARK minimizedAffinity -4.66648865
REMARK minimizedRMSD -1
REMARK  2 active torsions:
REMARK  status: ('A' for Active; 'I' for Inactive)
REMARK    1  A    between atoms: C1_2  and  C2_3 
REMARK    2  A    between atoms: C2_3  and  C3_4 
ROOT
ATOM      1  C3  UNL d   1       0.470   0.715   1.816  0.00  0.00    -0.075 A 
ATOM      2  C4  UNL d   1       1.112  -0.384   2.404  0.00  0.00     0.002 A 
ATOM      3  C5  UNL d   1       2.413  -0.726   2.034  0.00  0.00     0.002 A 
ATOM      4  C6  UNL d   1       3.084   0.019   1.067  0.00  0.00    -0.004 A 
ATOM      5  C7  UNL d   1       2.449   1.103   0.464  0.00  0.00     0.002 A 
ATOM      6  C8  UNL d   1       1.149   1.450   0.835  0.00  0.00     0.002 A 
ENDROOT
BRANCH   1   7
ATOM      7  C2  UNL d   1      -0.927   1.108   2.234  0.00  0.00     0.056 C 
BRANCH   7   8
ATOM      8  C1  UNL d   1      -2.020   0.167   1.716  0.00  0.00     0.007 C 
ATOM      9  C   UNL d   1      -1.877  -0.162   0.236  0.00  0.00     0.009 C 
ENDBRANCH   7   8
ENDBRANCH   1   7
TORSDOF 2
ENDMDL
