MODEL 1
REMARK minimizedAffinity 0.0197675526
REMARK minimizedRMSD -1
REMARK  2 active torsions:
REMARK  status: ('A' for Active; 'I' for Inactive)
REMARK    1  A    between atoms: C1_2  and  C2_3 
REMARK    2  A    between atoms: C2_3  and  C3_4 
ROOT
ATOM      1  C3  UNL d   1      -0.577   1.146   1.733  0.00  0.00    -0.075 A 
ATOM      2  C4  UNL d   1      -1.448   0.461   2.593  0.00  0.00     0.002 A 
ATOM      3  C5  UNL d   1      -2.369  -0.456   2.086  0.00  0.00     0.002 A 
ATOM      4  C6  UNL d   1      -2.438  -0.692   0.715  0.00  0.00    -0.004 A 
ATOM      5  C7  UNL d   1      -1.589  -0.006  -0.151  0.00  0.00     0.002 A 
ATOM      6  C8  UNL d   1      -0.664   0.909   0.354  0.00  0.00     0.002 A 
ENDROOT
BRANCH   1   7
ATOM      7  C2  UNL d   1       0.442   2.118   2.278  0.00  0.00     0.056 C 
BRANCH   7   8
ATOM      8  C1  UNL d   1       1.778   1.472   2.658  0.00  0.00     0.007 C 
ATOM      9  C   UNL d   1       2.666   1.176   1.457  0.00  0.00     0.009 C 
ENDBRANCH   7   8
ENDBRANCH   1   7
TORSDOF 2
ENDMDL
