MODEL 1
REMARK minimizedAffinity 2.56964421
REMARK minimizedRMSD -1
REMARK  2 active torsions:
REMARK  status: ('A' for Active; 'I' for Inactive)
REMARK    1  A    between atoms: C1_2  and  C2_3 
REMARK    2  A    between atoms: C2_3  and  C3_4 
ROOT
ATOM      1  C3  UNL d   1      -0.807   0.472   1.045  0.00  0.00    -0.075 A 
ATOM      2  C4  UNL d   1      -1.426   0.326   2.295  0.00  0.00     0.002 A 
ATOM      3  C5  UNL d   1      -0.974   1.051   3.398  0.00  0.00     0.002 A 
ATOM      4  C6  UNL d   1       0.107   1.920   3.269  0.00  0.00    -0.004 A 
ATOM      5  C7  UNL d   1       0.740   2.060   2.036  0.00  0.00     0.002 A 
ATOM      6  C8  UNL d   1       0.287   1.340   0.929  0.00  0.00     0.002 A 
ENDROOT
BRANCH   1   7
ATOM      7  C2  UNL d   1      -1.310  -0.287  -0.160  0.00  0.00     0.056 C 
BRANCH   7   8
ATOM      8  C1  UNL d   1      -2.756  -0.779  -0.028  0.00  0.00     0.007 C 
ATOM      9  C   UNL d   1      -2.874  -2.297  -0.010  0.00  0.00     0.009 C 
ENDBRANCH   7   8
ENDBRANCH   1   7
TORSDOF 2
ENDMDL
