MODEL 1
REMARK minimizedAffinity -2.78333354
REMARK minimizedRMSD -1
REMARK  2 active torsions:
REMARK  status: ('A' for Active; 'I' for Inactive)
REMARK    1  A    between atoms: C1_2  and  C2_3 
REMARK    2  A    between atoms: C2_3  and  C3_4 
ROOT
ATOM      1  C3  UNL d   1      -0.147   0.563   1.784  0.00  0.00    -0.075 A 
ATOM      2  C4  UNL d   1       0.767  -0.451   1.462  0.00  0.00     0.002 A 
ATOM      3  C5  UNL d   1       2.121  -0.157   1.296  0.00  0.00     0.002 A 
ATOM      4  C6  UNL d   1       2.575   1.152   1.438  0.00  0.00    -0.004 A 
ATOM      5  C7  UNL d   1       1.673   2.170   1.741  0.00  0.00     0.002 A 
ATOM      6  C8  UNL d   1       0.319   1.878   1.913  0.00  0.00     0.002 A 
ENDROOT
BRANCH   1   7
ATOM      7  C2  UNL d   1      -1.609   0.247   1.994  0.00  0.00     0.056 C 
BRANCH   7   8
ATOM      8  C1  UNL d   1      -2.386   0.001   0.697  0.00  0.00     0.007 C 
ATOM      9  C   UNL d   1      -1.678  -0.953  -0.256  0.00  0.00     0.009 C 
ENDBRANCH   7   8
ENDBRANCH   1   7
TORSDOF 2
ENDMDL
