MODEL 1
REMARK minimizedAffinity 1.80220604
REMARK minimizedRMSD -1
REMARK  2 active torsions:
REMARK  status: ('A' for Active; 'I' for Inactive)
REMARK    1  A    between atoms: C1_2  and  C2_3 
REMARK    2  A    between atoms: C2_3  and  C3_4 
ROOT
ATOM      1  C3  UNL d   1      -0.084  -0.521  -3.249  0.00  0.00    -0.075 A 
ATOM      2  C4  UNL d   1       0.714   0.458  -3.857  0.00  0.00     0.002 A 
ATOM      3  C5  UNL d   1       0.601   0.715  -5.224  0.00  0.00     0.002 A 
ATOM      4  C6  UNL d   1      -0.301  -0.009  -6.000  0.00  0.00    -0.004 A 
ATOM      5  C7  UNL d   1      -1.087  -0.996  -5.409  0.00  0.00     0.002 A 
ATOM      6  C8  UNL d   1      -0.980  -1.252  -4.041  0.00  0.00     0.002 A 
ENDROOT
BRANCH   1   7
ATOM      7  C2  UNL d   1       0.011  -0.783  -1.765  0.00  0.00     0.056 C 
BRANCH   7   8
ATOM      8  C1  UNL d   1      -0.314   0.435  -0.894  0.00  0.00     0.007 C 
ATOM      9  C   UNL d   1       0.018   0.227   0.578  0.00  0.00     0.009 C 
ENDBRANCH   7   8
ENDBRANCH   1   7
TORSDOF 2
ENDMDL
