MODEL 1
REMARK minimizedAffinity 0.416990876
REMARK minimizedRMSD -1
REMARK  2 active torsions:
REMARK  status: ('A' for Active; 'I' for Inactive)
REMARK    1  A    between atoms: C1_2  and  C2_3 
REMARK    2  A    between atoms: C2_3  and  C3_4 
ROOT
ATOM      1  C3  UNL d   1       0.473   1.224   1.052  0.00  0.00    -0.075 A 
ATOM      2  C4  UNL d   1       0.207   1.440   2.412  0.00  0.00     0.002 A 
ATOM      3  C5  UNL d   1      -0.907   0.856   3.017  0.00  0.00     0.002 A 
ATOM      4  C6  UNL d   1      -1.771   0.060   2.270  0.00  0.00    -0.004 A 
ATOM      5  C7  UNL d   1      -1.526  -0.148   0.915  0.00  0.00     0.002 A 
ATOM      6  C8  UNL d   1      -0.410   0.431   0.308  0.00  0.00     0.002 A 
ENDROOT
BRANCH   1   7
ATOM      7  C2  UNL d   1       1.692   1.829   0.398  0.00  0.00     0.056 C 
BRANCH   7   8
ATOM      8  C1  UNL d   1       3.017   1.204   0.849  0.00  0.00     0.007 C 
ATOM      9  C   UNL d   1       3.015  -0.317   0.786  0.00  0.00     0.009 C 
ENDBRANCH   7   8
ENDBRANCH   1   7
TORSDOF 2
ENDMDL
