MODEL 1
REMARK minimizedAffinity -3.71709847
REMARK minimizedRMSD -1
REMARK  2 active torsions:
REMARK  status: ('A' for Active; 'I' for Inactive)
REMARK    1  A    between atoms: C1_2  and  C2_3 
REMARK    2  A    between atoms: C2_3  and  C3_4 
ROOT
ATOM      1  C3  UNL d   1       0.102   0.040   0.580  0.00  0.00    -0.075 A 
ATOM      2  C4  UNL d   1       0.214   1.219   1.331  0.00  0.00     0.002 A 
ATOM      3  C5  UNL d   1       1.464   1.678   1.746  0.00  0.00     0.002 A 
ATOM      4  C6  UNL d   1       2.615   0.961   1.425  0.00  0.00    -0.004 A 
ATOM      5  C7  UNL d   1       2.514  -0.220   0.694  0.00  0.00     0.002 A 
ATOM      6  C8  UNL d   1       1.264  -0.680   0.274  0.00  0.00     0.002 A 
ENDROOT
BRANCH   1   7
ATOM      7  C2  UNL d   1      -1.246  -0.447   0.103  0.00  0.00     0.056 C 
BRANCH   7   8
ATOM      8  C1  UNL d   1      -2.433   0.186   0.836  0.00  0.00     0.007 C 
ATOM      9  C   UNL d   1      -2.406  -0.051   2.340  0.00  0.00     0.009 C 
ENDBRANCH   7   8
ENDBRANCH   1   7
TORSDOF 2
ENDMDL
