MODEL 1
REMARK minimizedAffinity -0.21245715
REMARK minimizedRMSD -1
REMARK  0 active torsions:
REMARK  status: ('A' for Active; 'I' for Inactive)
ROOT
ATOM      1  N1  IND d   1       0.522   1.196  -1.333  0.00  0.00    -0.196 N 
ATOM      2  C2  IND d   1       0.401  -0.148  -1.555  0.00  0.00     0.054 A 
ATOM      3  C3  IND d   1       0.426  -0.822  -0.384  0.00  0.00    -0.031 A 
ATOM      4  C4  IND d   1       0.554   0.083   2.023  0.00  0.00     0.051 A 
ATOM      5  C5  IND d   1       0.715   1.241   2.731  0.00  0.00    -0.031 A 
ATOM      6  C6  IND d   1       0.818   2.468   2.108  0.00  0.00     0.015 A 
ATOM      7  C7  IND d   1       0.754   2.585   0.748  0.00  0.00    -0.016 A 
ATOM      8  C8  IND d   1       0.598   1.410   0.026  0.00  0.00    -0.047 A 
ATOM      9  C9  IND d   1       0.535   0.158   0.650  0.00  0.00    -0.096 A 
ATOM     10  HN1 IND d   1       0.546   1.804  -1.940  0.00  0.00     0.298 HD
ENDROOT
TORSDOF 0
ENDMDL
