MODEL 1
REMARK minimizedAffinity 6.31652641
REMARK minimizedRMSD -1
REMARK  0 active torsions:
REMARK  status: ('A' for Active; 'I' for Inactive)
ROOT
ATOM      1  N1  IND d   1      -0.256   1.379  -0.424  0.00  0.00    -0.196 N 
ATOM      2  C2  IND d   1      -0.170   0.134  -0.983  0.00  0.00     0.054 A 
ATOM      3  C3  IND d   1       0.196  -0.775  -0.051  0.00  0.00    -0.031 A 
ATOM      4  C4  IND d   1       0.607  -0.458   2.470  0.00  0.00     0.051 A 
ATOM      5  C5  IND d   1       0.685   0.505   3.436  0.00  0.00    -0.031 A 
ATOM      6  C6  IND d   1       0.445   1.836   3.160  0.00  0.00     0.015 A 
ATOM      7  C7  IND d   1       0.107   2.253   1.904  0.00  0.00    -0.016 A 
ATOM      8  C8  IND d   1       0.034   1.278   0.919  0.00  0.00    -0.047 A 
ATOM      9  C9  IND d   1       0.317  -0.068   1.184  0.00  0.00    -0.096 A 
ATOM     10  HN1 IND d   1      -0.457   2.104  -0.842  0.00  0.00     0.298 HD
ENDROOT
TORSDOF 0
ENDMDL
