MODEL 1
REMARK minimizedAffinity 5.18611002
REMARK minimizedRMSD -1
REMARK  0 active torsions:
REMARK  status: ('A' for Active; 'I' for Inactive)
ROOT
ATOM      1  N1  IND d   1       1.208   2.159   3.169  0.00  0.00    -0.196 N 
ATOM      2  C2  IND d   1       0.829   3.250   2.438  0.00  0.00     0.054 A 
ATOM      3  C3  IND d   1       0.612   2.902   1.150  0.00  0.00    -0.031 A 
ATOM      4  C4  IND d   1       0.722   0.580   0.043  0.00  0.00     0.051 A 
ATOM      5  C5  IND d   1       1.060  -0.720   0.298  0.00  0.00    -0.031 A 
ATOM      6  C6  IND d   1       1.471  -1.135   1.548  0.00  0.00     0.015 A 
ATOM      7  C7  IND d   1       1.548  -0.264   2.598  0.00  0.00    -0.016 A 
ATOM      8  C8  IND d   1       1.212   1.057   2.342  0.00  0.00    -0.047 A 
ATOM      9  C9  IND d   1       0.835   1.493   1.065  0.00  0.00    -0.096 A 
ATOM     10  HN1 IND d   1       1.411   2.161   4.004  0.00  0.00     0.298 HD
ENDROOT
TORSDOF 0
ENDMDL
