MODEL 1
REMARK minimizedAffinity 0.844906509
REMARK minimizedRMSD -1
REMARK  0 active torsions:
REMARK  status: ('A' for Active; 'I' for Inactive)
ROOT
ATOM      1  N1  IND d   1       0.439   3.801  -0.473  0.00  0.00    -0.196 N 
ATOM      2  C2  IND d   1       0.831   4.929   0.192  0.00  0.00     0.054 A 
ATOM      3  C3  IND d   1       1.309   4.612   1.416  0.00  0.00    -0.031 A 
ATOM      4  C4  IND d   1       1.636   2.297   2.495  0.00  0.00     0.051 A 
ATOM      5  C5  IND d   1       1.391   0.969   2.289  0.00  0.00    -0.031 A 
ATOM      6  C6  IND d   1       0.808   0.506   1.127  0.00  0.00     0.015 A 
ATOM      7  C7  IND d   1       0.456   1.359   0.118  0.00  0.00    -0.016 A 
ATOM      8  C8  IND d   1       0.696   2.709   0.327  0.00  0.00    -0.047 A 
ATOM      9  C9  IND d   1       1.249   3.189   1.522  0.00  0.00    -0.096 A 
ATOM     10  HN1 IND d   1       0.092   3.777  -1.259  0.00  0.00     0.298 HD
ENDROOT
TORSDOF 0
ENDMDL
