MODEL 1
REMARK minimizedAffinity 1.26688945
REMARK minimizedRMSD -1
REMARK  0 active torsions:
REMARK  status: ('A' for Active; 'I' for Inactive)
ROOT
ATOM      1  N1  IND d   1       2.112   1.569   2.908  0.00  0.00    -0.196 N 
ATOM      2  C2  IND d   1       1.371   2.717   2.930  0.00  0.00     0.054 A 
ATOM      3  C3  IND d   1       0.556   2.772   1.852  0.00  0.00    -0.031 A 
ATOM      4  C4  IND d   1       0.203   1.041  -0.020  0.00  0.00     0.051 A 
ATOM      5  C5  IND d   1       0.680  -0.150  -0.490  0.00  0.00    -0.031 A 
ATOM      6  C6  IND d   1       1.677  -0.845   0.164  0.00  0.00     0.015 A 
ATOM      7  C7  IND d   1       2.228  -0.378   1.323  0.00  0.00    -0.016 A 
ATOM      8  C8  IND d   1       1.751   0.835   1.799  0.00  0.00    -0.047 A 
ATOM      9  C9  IND d   1       0.770   1.566   1.117  0.00  0.00    -0.096 A 
ATOM     10  HN1 IND d   1       2.703   1.342   3.490  0.00  0.00     0.298 HD
ENDROOT
TORSDOF 0
ENDMDL
