MODEL 1
REMARK minimizedAffinity 0.0605859943
REMARK minimizedRMSD -1
REMARK  0 active torsions:
REMARK  status: ('A' for Active; 'I' for Inactive)
ROOT
ATOM      1  N1  IND d   1      -0.552   0.703  -1.007  0.00  0.00    -0.196 N 
ATOM      2  C2  IND d   1       0.087  -0.369  -1.565  0.00  0.00     0.054 A 
ATOM      3  C3  IND d   1       0.953  -0.913  -0.681  0.00  0.00    -0.031 A 
ATOM      4  C4  IND d   1       1.408  -0.270   1.770  0.00  0.00     0.051 A 
ATOM      5  C5  IND d   1       1.092   0.666   2.714  0.00  0.00    -0.031 A 
ATOM      6  C6  IND d   1       0.191   1.681   2.462  0.00  0.00     0.015 A 
ATOM      7  C7  IND d   1      -0.438   1.791   1.255  0.00  0.00    -0.016 A 
ATOM      8  C8  IND d   1      -0.114   0.847   0.291  0.00  0.00    -0.047 A 
ATOM      9  C9  IND d   1       0.830  -0.160   0.527  0.00  0.00    -0.096 A 
ATOM     10  HN1 IND d   1      -1.131   1.202  -1.401  0.00  0.00     0.298 HD
ENDROOT
TORSDOF 0
ENDMDL
