MODEL 1
REMARK minimizedAffinity -2.65951657
REMARK minimizedRMSD -1
REMARK  0 active torsions:
REMARK  status: ('A' for Active; 'I' for Inactive)
ROOT
ATOM      1  N1  IND d   1       0.673   3.520  -0.820  0.00  0.00    -0.196 N 
ATOM      2  C2  IND d   1       0.453   4.711  -0.186  0.00  0.00     0.054 A 
ATOM      3  C3  IND d   1       0.122   4.501   1.108  0.00  0.00    -0.031 A 
ATOM      4  C4  IND d   1      -0.020   2.292   2.422  0.00  0.00     0.051 A 
ATOM      5  C5  IND d   1       0.059   0.937   2.263  0.00  0.00    -0.031 A 
ATOM      6  C6  IND d   1       0.356   0.362   1.044  0.00  0.00     0.015 A 
ATOM      7  C7  IND d   1       0.596   1.125  -0.063  0.00  0.00    -0.016 A 
ATOM      8  C8  IND d   1       0.510   2.501   0.093  0.00  0.00    -0.047 A 
ATOM      9  C9  IND d   1       0.167   3.089   1.318  0.00  0.00    -0.096 A 
ATOM     10  HN1 IND d   1       0.878   3.424  -1.649  0.00  0.00     0.298 HD
ENDROOT
TORSDOF 0
ENDMDL
