MODEL 1
REMARK minimizedAffinity -3.20550036
REMARK minimizedRMSD -1
REMARK  0 active torsions:
REMARK  status: ('A' for Active; 'I' for Inactive)
ROOT
ATOM      1  N1  IND d   1       0.869   1.485   2.627  0.00  0.00    -0.196 N 
ATOM      2  C2  IND d   1      -0.010   0.899   1.760  0.00  0.00     0.054 A 
ATOM      3  C3  IND d   1      -0.246   1.713   0.707  0.00  0.00    -0.031 A 
ATOM      4  C4  IND d   1       0.781   4.008   0.152  0.00  0.00     0.051 A 
ATOM      5  C5  IND d   1       1.606   4.971   0.663  0.00  0.00    -0.031 A 
ATOM      6  C6  IND d   1       2.243   4.816   1.878  0.00  0.00     0.015 A 
ATOM      7  C7  IND d   1       2.086   3.683   2.625  0.00  0.00    -0.016 A 
ATOM      8  C8  IND d   1       1.243   2.707   2.113  0.00  0.00    -0.047 A 
ATOM      9  C9  IND d   1       0.561   2.876   0.901  0.00  0.00    -0.096 A 
ATOM     10  HN1 IND d   1       1.142   1.147   3.369  0.00  0.00     0.298 HD
ENDROOT
TORSDOF 0
ENDMDL
