MODEL 1
REMARK minimizedAffinity -2.86482573
REMARK minimizedRMSD -1
REMARK  0 active torsions:
REMARK  status: ('A' for Active; 'I' for Inactive)
ROOT
ATOM      1  N1  IND d   1       2.485   4.055   0.934  0.00  0.00    -0.196 N 
ATOM      2  C2  IND d   1       1.905   4.572  -0.191  0.00  0.00     0.054 A 
ATOM      3  C3  IND d   1       0.726   3.956  -0.438  0.00  0.00    -0.031 A 
ATOM      4  C4  IND d   1      -0.491   2.146   0.930  0.00  0.00     0.051 A 
ATOM      5  C5  IND d   1      -0.338   1.332   2.017  0.00  0.00    -0.031 A 
ATOM      6  C6  IND d   1       0.785   1.387   2.816  0.00  0.00     0.015 A 
ATOM      7  C7  IND d   1       1.797   2.270   2.564  0.00  0.00    -0.016 A 
ATOM      8  C8  IND d   1       1.648   3.093   1.456  0.00  0.00    -0.047 A 
ATOM      9  C9  IND d   1       0.530   3.013   0.617  0.00  0.00    -0.096 A 
ATOM     10  HN1 IND d   1       3.245   4.291   1.260  0.00  0.00     0.298 HD
ENDROOT
TORSDOF 0
ENDMDL
