MODEL 1
REMARK minimizedAffinity 5.65674591
REMARK minimizedRMSD -1
REMARK  0 active torsions:
REMARK  status: ('A' for Active; 'I' for Inactive)
ROOT
ATOM      1  C   UNL d   1      -5.761   4.159  -5.624  0.00  0.00     0.020 A 
ATOM      2  C1  UNL d   1      -6.000   3.351  -4.513  0.00  0.00     0.020 A 
ATOM      3  C2  UNL d   1      -4.988   3.136  -3.575  0.00  0.00     0.034 A 
ATOM      4  C3  UNL d   1      -3.732   3.730  -3.746  0.00  0.00     0.017 A 
ATOM      5  C4  UNL d   1      -3.493   4.540  -4.862  0.00  0.00     0.017 A 
ATOM      6  C5  UNL d   1      -4.510   4.752  -5.798  0.00  0.00     0.034 A 
ATOM      7 Cl   UNL d   1      -1.969   5.307  -5.141  0.00  0.00    -0.070 Cl
ATOM      8 Cl1  UNL d   1      -2.527   3.421  -2.547  0.00  0.00    -0.070 Cl
ENDROOT
TORSDOF 0
ENDMDL
