MODEL 1
REMARK minimizedAffinity 0.030860249
REMARK minimizedRMSD -1
REMARK  0 active torsions:
REMARK  status: ('A' for Active; 'I' for Inactive)
ROOT
ATOM      1  C   UNL d   1      -5.965   3.336  -4.961  0.00  0.00     0.020 A 
ATOM      2  C1  UNL d   1      -5.706   4.318  -5.917  0.00  0.00     0.020 A 
ATOM      3  C2  UNL d   1      -4.437   4.896  -5.997  0.00  0.00     0.034 A 
ATOM      4  C3  UNL d   1      -3.422   4.492  -5.122  0.00  0.00     0.017 A 
ATOM      5  C4  UNL d   1      -3.684   3.506  -4.163  0.00  0.00     0.017 A 
ATOM      6  C5  UNL d   1      -4.956   2.931  -4.087  0.00  0.00     0.034 A 
ATOM      7 Cl   UNL d   1      -2.483   2.956  -3.048  0.00  0.00    -0.070 Cl
ATOM      8 Cl1  UNL d   1      -1.877   5.248  -5.278  0.00  0.00    -0.070 Cl
ENDROOT
TORSDOF 0
ENDMDL
