MODEL 1
REMARK minimizedAffinity 0.612272322
REMARK minimizedRMSD -1
REMARK  0 active torsions:
REMARK  status: ('A' for Active; 'I' for Inactive)
ROOT
ATOM      1  C   UNL d   1      -0.259   2.707   1.821  0.00  0.00     0.020 A 
ATOM      2  C1  UNL d   1       0.197   2.598   0.508  0.00  0.00     0.020 A 
ATOM      3  C2  UNL d   1       0.772   1.405   0.065  0.00  0.00     0.034 A 
ATOM      4  C3  UNL d   1       0.893   0.316   0.936  0.00  0.00     0.017 A 
ATOM      5  C4  UNL d   1       0.435   0.427   2.254  0.00  0.00     0.017 A 
ATOM      6  C5  UNL d   1      -0.140   1.624   2.692  0.00  0.00     0.034 A 
ATOM      7 Cl   UNL d   1       0.550  -0.874   3.387  0.00  0.00    -0.070 Cl
ATOM      8 Cl1  UNL d   1       1.614  -1.128   0.321  0.00  0.00    -0.070 Cl
ENDROOT
TORSDOF 0
ENDMDL
