MODEL 1
REMARK minimizedAffinity 2.14077306
REMARK minimizedRMSD -1
REMARK  0 active torsions:
REMARK  status: ('A' for Active; 'I' for Inactive)
ROOT
ATOM      1  C   UNL d   1      -6.000   1.752  -5.733  0.00  0.00     0.020 A 
ATOM      2  C1  UNL d   1      -4.904   1.159  -5.107  0.00  0.00     0.020 A 
ATOM      3  C2  UNL d   1      -3.802   1.937  -4.745  0.00  0.00     0.034 A 
ATOM      4  C3  UNL d   1      -3.794   3.311  -5.008  0.00  0.00     0.017 A 
ATOM      5  C4  UNL d   1      -4.895   3.905  -5.636  0.00  0.00     0.017 A 
ATOM      6  C5  UNL d   1      -5.995   3.122  -5.996  0.00  0.00     0.034 A 
ATOM      7 Cl   UNL d   1      -4.958   5.595  -5.993  0.00  0.00    -0.070 Cl
ATOM      8 Cl1  UNL d   1      -2.398   4.212  -4.532  0.00  0.00    -0.070 Cl
ENDROOT
TORSDOF 0
ENDMDL
