MODEL 1
REMARK minimizedAffinity 6.82527161
REMARK minimizedRMSD -1
REMARK  0 active torsions:
REMARK  status: ('A' for Active; 'I' for Inactive)
ROOT
ATOM      1  C   UNL d   1       0.795   4.070   0.673  0.00  0.00     0.020 A 
ATOM      2  C1  UNL d   1       0.382   2.919   0.003  0.00  0.00     0.020 A 
ATOM      3  C2  UNL d   1       0.326   1.699   0.679  0.00  0.00     0.034 A 
ATOM      4  C3  UNL d   1       0.684   1.626   2.030  0.00  0.00     0.017 A 
ATOM      5  C4  UNL d   1       1.098   2.781   2.703  0.00  0.00     0.017 A 
ATOM      6  C5  UNL d   1       1.152   4.001   2.021  0.00  0.00     0.034 A 
ATOM      7 Cl   UNL d   1       1.555   2.770   4.370  0.00  0.00    -0.070 Cl
ATOM      8 Cl1  UNL d   1       0.590   0.084   2.804  0.00  0.00    -0.070 Cl
ENDROOT
TORSDOF 0
ENDMDL
