MODEL 1
REMARK minimizedAffinity 2.4073391
REMARK minimizedRMSD -1
REMARK  0 active torsions:
REMARK  status: ('A' for Active; 'I' for Inactive)
ROOT
ATOM      1  C   UNL d   1      -5.989   1.881  -5.562  0.00  0.00     0.020 A 
ATOM      2  C1  UNL d   1      -5.434   1.121  -4.534  0.00  0.00     0.020 A 
ATOM      3  C2  UNL d   1      -4.235   1.520  -3.940  0.00  0.00     0.034 A 
ATOM      4  C3  UNL d   1      -3.587   2.682  -4.375  0.00  0.00     0.017 A 
ATOM      5  C4  UNL d   1      -4.145   3.444  -5.408  0.00  0.00     0.017 A 
ATOM      6  C5  UNL d   1      -5.346   3.040  -5.998  0.00  0.00     0.034 A 
ATOM      7 Cl   UNL d   1      -3.404   4.889  -5.998  0.00  0.00    -0.070 Cl
ATOM      8 Cl1  UNL d   1      -2.107   3.116  -3.596  0.00  0.00    -0.070 Cl
ENDROOT
TORSDOF 0
ENDMDL
