MODEL 1
REMARK minimizedAffinity 1.79983521
REMARK minimizedRMSD -1
REMARK  0 active torsions:
REMARK  status: ('A' for Active; 'I' for Inactive)
ROOT
ATOM      1  C   UNL d   1      -5.825   2.586  -4.662  0.00  0.00     0.020 A 
ATOM      2  C1  UNL d   1      -6.000   3.602  -5.601  0.00  0.00     0.020 A 
ATOM      3  C2  UNL d   1      -4.910   4.378  -6.000  0.00  0.00     0.034 A 
ATOM      4  C3  UNL d   1      -3.641   4.140  -5.460  0.00  0.00     0.017 A 
ATOM      5  C4  UNL d   1      -3.466   3.120  -4.518  0.00  0.00     0.017 A 
ATOM      6  C5  UNL d   1      -4.561   2.345  -4.122  0.00  0.00     0.034 A 
ATOM      7 Cl   UNL d   1      -1.931   2.766  -3.808  0.00  0.00    -0.070 Cl
ATOM      8 Cl1  UNL d   1      -2.338   5.139  -6.000  0.00  0.00    -0.070 Cl
ENDROOT
TORSDOF 0
ENDMDL
