MODEL 1
REMARK minimizedAffinity -1.918154
REMARK minimizedRMSD -1
REMARK  0 active torsions:
REMARK  status: ('A' for Active; 'I' for Inactive)
ROOT
ATOM      1  C   UNL d   1      -4.639   2.577  -4.128  0.00  0.00     0.020 A 
ATOM      2  C1  UNL d   1      -4.842   2.995  -5.442  0.00  0.00     0.020 A 
ATOM      3  C2  UNL d   1      -4.015   3.972  -6.000  0.00  0.00     0.034 A 
ATOM      4  C3  UNL d   1      -2.980   4.534  -5.243  0.00  0.00     0.017 A 
ATOM      5  C4  UNL d   1      -2.777   4.114  -3.924  0.00  0.00     0.017 A 
ATOM      6  C5  UNL d   1      -3.609   3.136  -3.370  0.00  0.00     0.034 A 
ATOM      7 Cl   UNL d   1      -1.522   4.761  -2.928  0.00  0.00    -0.070 Cl
ATOM      8 Cl1  UNL d   1      -1.995   5.737  -5.997  0.00  0.00    -0.070 Cl
ENDROOT
TORSDOF 0
ENDMDL
