MODEL 1
REMARK minimizedAffinity -0.317747414
REMARK minimizedRMSD -1
REMARK  0 active torsions:
REMARK  status: ('A' for Active; 'I' for Inactive)
ROOT
ATOM      1  C   UNL d   1      -5.999   2.999  -4.638  0.00  0.00     0.020 A 
ATOM      2  C1  UNL d   1      -5.917   3.938  -5.666  0.00  0.00     0.020 A 
ATOM      3  C2  UNL d   1      -4.684   4.502  -6.000  0.00  0.00     0.034 A 
ATOM      4  C3  UNL d   1      -3.528   4.128  -5.306  0.00  0.00     0.017 A 
ATOM      5  C4  UNL d   1      -3.611   3.185  -4.274  0.00  0.00     0.017 A 
ATOM      6  C5  UNL d   1      -4.848   2.624  -3.944  0.00  0.00     0.034 A 
ATOM      7 Cl   UNL d   1      -2.228   2.674  -3.372  0.00  0.00    -0.070 Cl
ATOM      8 Cl1  UNL d   1      -2.037   4.866  -5.772  0.00  0.00    -0.070 Cl
ENDROOT
TORSDOF 0
ENDMDL
