MODEL 1
REMARK minimizedAffinity 0.55008316
REMARK minimizedRMSD -1
REMARK  0 active torsions:
REMARK  status: ('A' for Active; 'I' for Inactive)
ROOT
ATOM      1  C   UNL d   1       1.748  -0.329   1.255  0.00  0.00     0.020 A 
ATOM      2  C1  UNL d   1       0.445   0.149   1.387  0.00  0.00     0.020 A 
ATOM      3  C2  UNL d   1      -0.314  -0.192   2.509  0.00  0.00     0.034 A 
ATOM      4  C3  UNL d   1       0.230  -1.013   3.503  0.00  0.00     0.017 A 
ATOM      5  C4  UNL d   1       1.539  -1.492   3.370  0.00  0.00     0.017 A 
ATOM      6  C5  UNL d   1       2.293  -1.148   2.244  0.00  0.00     0.034 A 
ATOM      7 Cl   UNL d   1       2.278  -2.510   4.555  0.00  0.00    -0.070 Cl
ATOM      8 Cl1  UNL d   1      -0.764  -1.394   4.864  0.00  0.00    -0.070 Cl
ENDROOT
TORSDOF 0
ENDMDL
