MODEL 1
REMARK minimizedAffinity 0.687488258
REMARK minimizedRMSD -1
REMARK  0 active torsions:
REMARK  status: ('A' for Active; 'I' for Inactive)
ROOT
ATOM      1  C   UNL d   1      -5.553   2.986  -5.024  0.00  0.00     0.020 A 
ATOM      2  C1  UNL d   1      -5.564   4.124  -5.830  0.00  0.00     0.020 A 
ATOM      3  C2  UNL d   1      -4.396   4.870  -6.000  0.00  0.00     0.034 A 
ATOM      4  C3  UNL d   1      -3.212   4.480  -5.362  0.00  0.00     0.017 A 
ATOM      5  C4  UNL d   1      -3.202   3.338  -4.554  0.00  0.00     0.017 A 
ATOM      6  C5  UNL d   1      -4.375   2.594  -4.387  0.00  0.00     0.034 A 
ATOM      7 Cl   UNL d   1      -1.780   2.793  -3.735  0.00  0.00    -0.070 Cl
ATOM      8 Cl1  UNL d   1      -1.805   5.450  -5.617  0.00  0.00    -0.070 Cl
ENDROOT
TORSDOF 0
ENDMDL
