MODEL 1
REMARK minimizedAffinity 6.27478695
REMARK minimizedRMSD -1
REMARK  0 active torsions:
REMARK  status: ('A' for Active; 'I' for Inactive)
ROOT
ATOM      1  C   UNL d   1      -5.116   4.151  -5.343  0.00  0.00     0.020 A 
ATOM      2  C1  UNL d   1      -5.962   3.259  -6.000  0.00  0.00     0.020 A 
ATOM      3  C2  UNL d   1      -6.000   1.918  -5.611  0.00  0.00     0.034 A 
ATOM      4  C3  UNL d   1      -5.191   1.466  -4.562  0.00  0.00     0.017 A 
ATOM      5  C4  UNL d   1      -4.342   2.363  -3.903  0.00  0.00     0.017 A 
ATOM      6  C5  UNL d   1      -4.307   3.704  -4.297  0.00  0.00     0.034 A 
ATOM      7 Cl   UNL d   1      -3.314   1.880  -2.601  0.00  0.00    -0.070 Cl
ATOM      8 Cl1  UNL d   1      -5.289  -0.205  -4.134  0.00  0.00    -0.070 Cl
ENDROOT
TORSDOF 0
ENDMDL
