MODEL 1
REMARK minimizedAffinity 3.54615092
REMARK minimizedRMSD -1
REMARK  0 active torsions:
REMARK  status: ('A' for Active; 'I' for Inactive)
ROOT
ATOM      1  C   UNL d   1       0.543   0.842   0.216  0.00  0.00     0.020 A 
ATOM      2  C1  UNL d   1       0.654   0.261   1.479  0.00  0.00     0.020 A 
ATOM      3  C2  UNL d   1       1.029   1.040   2.575  0.00  0.00     0.034 A 
ATOM      4  C3  UNL d   1       1.296   2.404   2.411  0.00  0.00     0.017 A 
ATOM      5  C4  UNL d   1       1.184   2.986   1.144  0.00  0.00     0.017 A 
ATOM      6  C5  UNL d   1       0.808   2.202   0.049  0.00  0.00     0.034 A 
ATOM      7 Cl   UNL d   1       1.496   4.663   0.863  0.00  0.00    -0.070 Cl
ATOM      8 Cl1  UNL d   1       1.754   3.307   3.811  0.00  0.00    -0.070 Cl
ENDROOT
TORSDOF 0
ENDMDL
