MODEL 1
REMARK minimizedAffinity 0.596342921
REMARK minimizedRMSD -1
REMARK  0 active torsions:
REMARK  status: ('A' for Active; 'I' for Inactive)
ROOT
ATOM      1  C   UNL d   1      -1.912   3.592  -4.619  0.00  0.00     0.020 A 
ATOM      2  C1  UNL d   1      -2.047   4.599  -5.574  0.00  0.00     0.020 A 
ATOM      3  C2  UNL d   1      -3.318   5.004  -5.986  0.00  0.00     0.034 A 
ATOM      4  C3  UNL d   1      -4.459   4.402  -5.444  0.00  0.00     0.017 A 
ATOM      5  C4  UNL d   1      -4.323   3.391  -4.485  0.00  0.00     0.017 A 
ATOM      6  C5  UNL d   1      -3.047   2.989  -4.076  0.00  0.00     0.034 A 
ATOM      7 Cl   UNL d   1      -5.684   2.601  -3.770  0.00  0.00    -0.070 Cl
ATOM      8 Cl1  UNL d   1      -6.000   4.953  -6.000  0.00  0.00    -0.070 Cl
ENDROOT
TORSDOF 0
ENDMDL
