MODEL 1
REMARK minimizedAffinity 4.06340361
REMARK minimizedRMSD -1
REMARK  0 active torsions:
REMARK  status: ('A' for Active; 'I' for Inactive)
ROOT
ATOM      1  C   UNL d   1      -5.351   3.083  -5.999  0.00  0.00     0.020 A 
ATOM      2  C1  UNL d   1      -5.296   1.929  -5.218  0.00  0.00     0.020 A 
ATOM      3  C2  UNL d   1      -4.414   1.858  -4.139  0.00  0.00     0.034 A 
ATOM      4  C3  UNL d   1      -3.582   2.943  -3.837  0.00  0.00     0.017 A 
ATOM      5  C4  UNL d   1      -3.637   4.100  -4.621  0.00  0.00     0.017 A 
ATOM      6  C5  UNL d   1      -4.523   4.166  -5.701  0.00  0.00     0.034 A 
ATOM      7 Cl   UNL d   1      -2.642   5.479  -4.311  0.00  0.00    -0.070 Cl
ATOM      8 Cl1  UNL d   1      -2.515   2.786  -2.487  0.00  0.00    -0.070 Cl
ENDROOT
TORSDOF 0
ENDMDL
