MODEL 1
REMARK minimizedAffinity 2.50066042
REMARK minimizedRMSD -1
REMARK  0 active torsions:
REMARK  status: ('A' for Active; 'I' for Inactive)
ROOT
ATOM      1  C   UNL d   1      -6.000   3.051  -4.141  0.00  0.00     0.020 A 
ATOM      2  C1  UNL d   1      -5.964   3.564  -5.437  0.00  0.00     0.020 A 
ATOM      3  C2  UNL d   1      -4.751   3.975  -5.992  0.00  0.00     0.034 A 
ATOM      4  C3  UNL d   1      -3.567   3.874  -5.251  0.00  0.00     0.017 A 
ATOM      5  C4  UNL d   1      -3.604   3.358  -3.950  0.00  0.00     0.017 A 
ATOM      6  C5  UNL d   1      -4.822   2.948  -3.400  0.00  0.00     0.034 A 
ATOM      7 Cl   UNL d   1      -2.186   3.202  -2.975  0.00  0.00    -0.070 Cl
ATOM      8 Cl1  UNL d   1      -2.102   4.401  -6.000  0.00  0.00    -0.070 Cl
ENDROOT
TORSDOF 0
ENDMDL
