MODEL 1
REMARK minimizedAffinity -0.792703748
REMARK minimizedRMSD -1
REMARK  0 active torsions:
REMARK  status: ('A' for Active; 'I' for Inactive)
ROOT
ATOM      1  C   UNL d   1      -5.870   2.421  -4.993  0.00  0.00     0.020 A 
ATOM      2  C1  UNL d   1      -5.992   3.552  -5.799  0.00  0.00     0.020 A 
ATOM      3  C2  UNL d   1      -4.891   4.388  -6.000  0.00  0.00     0.034 A 
ATOM      4  C3  UNL d   1      -3.663   4.093  -5.395  0.00  0.00     0.017 A 
ATOM      5  C4  UNL d   1      -3.543   2.956  -4.586  0.00  0.00     0.017 A 
ATOM      6  C5  UNL d   1      -4.648   2.123  -4.388  0.00  0.00     0.034 A 
ATOM      7 Cl   UNL d   1      -2.061   2.527  -3.806  0.00  0.00    -0.070 Cl
ATOM      8 Cl1  UNL d   1      -2.344   5.169  -5.687  0.00  0.00    -0.070 Cl
ENDROOT
TORSDOF 0
ENDMDL
