MODEL 1
REMARK minimizedAffinity 3.23466563
REMARK minimizedRMSD -1
REMARK  0 active torsions:
REMARK  status: ('A' for Active; 'I' for Inactive)
ROOT
ATOM      1  C   UNL d   1      -5.998   2.469  -5.297  0.00  0.00     0.020 A 
ATOM      2  C1  UNL d   1      -4.974   3.103  -5.999  0.00  0.00     0.020 A 
ATOM      3  C2  UNL d   1      -3.819   3.513  -5.331  0.00  0.00     0.034 A 
ATOM      4  C3  UNL d   1      -3.684   3.290  -3.955  0.00  0.00     0.017 A 
ATOM      5  C4  UNL d   1      -4.713   2.653  -3.251  0.00  0.00     0.017 A 
ATOM      6  C5  UNL d   1      -5.867   2.244  -3.926  0.00  0.00     0.034 A 
ATOM      7 Cl   UNL d   1      -4.619   2.343  -1.553  0.00  0.00    -0.070 Cl
ATOM      8 Cl1  UNL d   1      -2.228   3.823  -3.193  0.00  0.00    -0.070 Cl
ENDROOT
TORSDOF 0
ENDMDL
