MODEL 1
REMARK minimizedAffinity 3.14933538
REMARK minimizedRMSD -1
REMARK  0 active torsions:
REMARK  status: ('A' for Active; 'I' for Inactive)
ROOT
ATOM      1  C   UNL d   1      -0.010   1.765   0.081  0.00  0.00     0.020 A 
ATOM      2  C1  UNL d   1       0.199   3.057   0.562  0.00  0.00     0.020 A 
ATOM      3  C2  UNL d   1       0.543   3.256   1.901  0.00  0.00     0.034 A 
ATOM      4  C3  UNL d   1       0.679   2.162   2.763  0.00  0.00     0.017 A 
ATOM      5  C4  UNL d   1       0.470   0.865   2.279  0.00  0.00     0.017 A 
ATOM      6  C5  UNL d   1       0.125   0.672   0.938  0.00  0.00     0.034 A 
ATOM      7 Cl   UNL d   1       0.619  -0.534   3.282  0.00  0.00    -0.070 Cl
ATOM      8 Cl1  UNL d   1       1.107   2.482   4.406  0.00  0.00    -0.070 Cl
ENDROOT
TORSDOF 0
ENDMDL
