MODEL 1
REMARK minimizedAffinity 3.32279563
REMARK minimizedRMSD -1
REMARK  2 active torsions:
REMARK  status: ('A' for Active; 'I' for Inactive)
REMARK    1  A    between atoms: C1_2  and  C2_3 
REMARK    2  A    between atoms: C2_3  and  C3_4 
ROOT
ATOM      1  C3  UNL d   1       5.637   3.599   0.780  0.00  0.00    -0.075 A 
ATOM      2  C4  UNL d   1       5.573   3.608   2.181  0.00  0.00     0.002 A 
ATOM      3  C5  UNL d   1       5.708   4.803   2.888  0.00  0.00     0.002 A 
ATOM      4  C6  UNL d   1       5.918   6.000   2.207  0.00  0.00    -0.004 A 
ATOM      5  C7  UNL d   1       6.000   6.000   0.816  0.00  0.00     0.002 A 
ATOM      6  C8  UNL d   1       5.861   4.806   0.105  0.00  0.00     0.002 A 
ENDROOT
BRANCH   1   7
ATOM      7  C2  UNL d   1       5.462   2.313   0.008  0.00  0.00     0.056 C 
BRANCH   7   8
ATOM      8  C1  UNL d   1       4.004   1.861  -0.130  0.00  0.00     0.007 C 
ATOM      9  C   UNL d   1       3.038   3.015  -0.368  0.00  0.00     0.009 C 
ENDBRANCH   7   8
ENDBRANCH   1   7
TORSDOF 2
ENDMDL
