MODEL 1
REMARK minimizedAffinity -2.89571166
REMARK minimizedRMSD -1
REMARK  2 active torsions:
REMARK  status: ('A' for Active; 'I' for Inactive)
REMARK    1  A    between atoms: C1_2  and  C2_3 
REMARK    2  A    between atoms: C2_3  and  C3_4 
ROOT
ATOM      1  C3  UNL d   1       1.296  -0.504  -0.896  0.00  0.00    -0.075 A 
ATOM      2  C4  UNL d   1       0.181   0.289  -0.589  0.00  0.00     0.002 A 
ATOM      3  C5  UNL d   1      -0.961  -0.283  -0.027  0.00  0.00     0.002 A 
ATOM      4  C6  UNL d   1      -1.007  -1.652   0.225  0.00  0.00    -0.004 A 
ATOM      5  C7  UNL d   1       0.089  -2.452  -0.091  0.00  0.00     0.002 A 
ATOM      6  C8  UNL d   1       1.235  -1.882  -0.649  0.00  0.00     0.002 A 
ENDROOT
BRANCH   1   7
ATOM      7  C2  UNL d   1       2.546   0.112  -1.476  0.00  0.00     0.056 C 
BRANCH   7   8
ATOM      8  C1  UNL d   1       3.827  -0.234  -0.709  0.00  0.00     0.007 C 
ATOM      9  C   UNL d   1       3.739   0.082   0.778  0.00  0.00     0.009 C 
ENDBRANCH   7   8
ENDBRANCH   1   7
TORSDOF 2
ENDMDL
