MODEL 1
REMARK minimizedAffinity -3.91645384
REMARK minimizedRMSD -1
REMARK  2 active torsions:
REMARK  status: ('A' for Active; 'I' for Inactive)
REMARK    1  A    between atoms: C1_2  and  C2_3 
REMARK    2  A    between atoms: C2_3  and  C3_4 
ROOT
ATOM      1  C3  UNL d   1       1.380  -0.280  -0.980  0.00  0.00    -0.075 A 
ATOM      2  C4  UNL d   1       0.229  -0.616  -0.253  0.00  0.00     0.002 A 
ATOM      3  C5  UNL d   1      -0.603   0.381   0.258  0.00  0.00     0.002 A 
ATOM      4  C6  UNL d   1      -0.290   1.723   0.059  0.00  0.00    -0.004 A 
ATOM      5  C7  UNL d   1       0.860   2.069  -0.648  0.00  0.00     0.002 A 
ATOM      6  C8  UNL d   1       1.692   1.074  -1.164  0.00  0.00     0.002 A 
ENDROOT
BRANCH   1   7
ATOM      7  C2  UNL d   1       2.268  -1.354  -1.562  0.00  0.00     0.056 C 
BRANCH   7   8
ATOM      8  C1  UNL d   1       1.523  -2.633  -1.956  0.00  0.00     0.007 C 
ATOM      9  C   UNL d   1       1.473  -2.859  -3.462  0.00  0.00     0.009 C 
ENDBRANCH   7   8
ENDBRANCH   1   7
TORSDOF 2
ENDMDL
