MODEL 1
REMARK minimizedAffinity -5.82874441
REMARK minimizedRMSD -1
REMARK  2 active torsions:
REMARK  status: ('A' for Active; 'I' for Inactive)
REMARK    1  A    between atoms: C1_2  and  C2_3 
REMARK    2  A    between atoms: C2_3  and  C3_4 
ROOT
ATOM      1  C3  UNL d   1       0.387  -0.206  -0.103  0.00  0.00    -0.075 A 
ATOM      2  C4  UNL d   1       0.887  -1.516  -0.085  0.00  0.00     0.002 A 
ATOM      3  C5  UNL d   1       2.141  -1.804  -0.626  0.00  0.00     0.002 A 
ATOM      4  C6  UNL d   1       2.904  -0.790  -1.201  0.00  0.00    -0.004 A 
ATOM      5  C7  UNL d   1       2.410   0.512  -1.240  0.00  0.00     0.002 A 
ATOM      6  C8  UNL d   1       1.158   0.804  -0.695  0.00  0.00     0.002 A 
ENDROOT
BRANCH   1   7
ATOM      7  C2  UNL d   1      -0.956   0.117   0.507  0.00  0.00     0.056 C 
BRANCH   7   8
ATOM      8  C1  UNL d   1      -0.912   1.236   1.554  0.00  0.00     0.007 C 
ATOM      9  C   UNL d   1      -1.735   0.926   2.797  0.00  0.00     0.009 C 
ENDBRANCH   7   8
ENDBRANCH   1   7
TORSDOF 2
ENDMDL
