MODEL 1
REMARK minimizedAffinity -2.45220351
REMARK minimizedRMSD -1
REMARK  2 active torsions:
REMARK  status: ('A' for Active; 'I' for Inactive)
REMARK    1  A    between atoms: C1_2  and  C2_3 
REMARK    2  A    between atoms: C2_3  and  C3_4 
ROOT
ATOM      1  C3  UNL d   1      -1.465   0.242   1.331  0.00  0.00    -0.075 A 
ATOM      2  C4  UNL d   1      -1.093   1.426   1.984  0.00  0.00     0.002 A 
ATOM      3  C5  UNL d   1      -1.335   1.590   3.348  0.00  0.00     0.002 A 
ATOM      4  C6  UNL d   1      -1.960   0.578   4.074  0.00  0.00    -0.004 A 
ATOM      5  C7  UNL d   1      -2.348  -0.596   3.433  0.00  0.00     0.002 A 
ATOM      6  C8  UNL d   1      -2.103  -0.764   2.069  0.00  0.00     0.002 A 
ENDROOT
BRANCH   1   7
ATOM      7  C2  UNL d   1      -1.179   0.046  -0.138  0.00  0.00     0.056 C 
BRANCH   7   8
ATOM      8  C1  UNL d   1       0.311  -0.086  -0.472  0.00  0.00     0.007 C 
ATOM      9  C   UNL d   1       0.833  -1.510  -0.330  0.00  0.00     0.009 C 
ENDBRANCH   7   8
ENDBRANCH   1   7
TORSDOF 2
ENDMDL
