MODEL 1
REMARK minimizedAffinity -5.75628042
REMARK minimizedRMSD -1
REMARK  2 active torsions:
REMARK  status: ('A' for Active; 'I' for Inactive)
REMARK    1  A    between atoms: C1_2  and  C2_3 
REMARK    2  A    between atoms: C2_3  and  C3_4 
ROOT
ATOM      1  C3  UNL d   1       0.197  -0.243  -0.479  0.00  0.00    -0.075 A 
ATOM      2  C4  UNL d   1       0.388  -1.623  -0.647  0.00  0.00     0.002 A 
ATOM      3  C5  UNL d   1       1.624  -2.121  -1.061  0.00  0.00     0.002 A 
ATOM      4  C6  UNL d   1       2.679  -1.248  -1.321  0.00  0.00    -0.004 A 
ATOM      5  C7  UNL d   1       2.495   0.125  -1.174  0.00  0.00     0.002 A 
ATOM      6  C8  UNL d   1       1.261   0.626  -0.756  0.00  0.00     0.002 A 
ENDROOT
BRANCH   1   7
ATOM      7  C2  UNL d   1      -1.129   0.300  -0.003  0.00  0.00     0.056 C 
BRANCH   7   8
ATOM      8  C1  UNL d   1      -1.261   0.377   1.522  0.00  0.00     0.007 C 
ATOM      9  C   UNL d   1      -2.300   1.389   1.984  0.00  0.00     0.009 C 
ENDBRANCH   7   8
ENDBRANCH   1   7
TORSDOF 2
ENDMDL
