MODEL 1
REMARK minimizedAffinity -0.841462314
REMARK minimizedRMSD -1
REMARK  2 active torsions:
REMARK  status: ('A' for Active; 'I' for Inactive)
REMARK    1  A    between atoms: C1_2  and  C2_3 
REMARK    2  A    between atoms: C2_3  and  C3_4 
ROOT
ATOM      1  C3  UNL d   1       0.011  -0.975   0.159  0.00  0.00    -0.075 A 
ATOM      2  C4  UNL d   1       0.636  -2.204  -0.098  0.00  0.00     0.002 A 
ATOM      3  C5  UNL d   1       1.902  -2.245  -0.684  0.00  0.00     0.002 A 
ATOM      4  C6  UNL d   1       2.553  -1.062  -1.028  0.00  0.00    -0.004 A 
ATOM      5  C7  UNL d   1       1.933   0.163  -0.792  0.00  0.00     0.002 A 
ATOM      6  C8  UNL d   1       0.669   0.208  -0.203  0.00  0.00     0.002 A 
ENDROOT
BRANCH   1   7
ATOM      7  C2  UNL d   1      -1.346  -0.923   0.819  0.00  0.00     0.056 C 
BRANCH   7   8
ATOM      8  C1  UNL d   1      -1.499   0.209   1.841  0.00  0.00     0.007 C 
ATOM      9  C   UNL d   1      -1.867  -0.284   3.234  0.00  0.00     0.009 C 
ENDBRANCH   7   8
ENDBRANCH   1   7
TORSDOF 2
ENDMDL
