MODEL 1
REMARK minimizedAffinity -6.43201685
REMARK minimizedRMSD -1
REMARK  2 active torsions:
REMARK  status: ('A' for Active; 'I' for Inactive)
REMARK    1  A    between atoms: C1_2  and  C2_3 
REMARK    2  A    between atoms: C2_3  and  C3_4 
ROOT
ATOM      1  C3  UNL d   1       0.268   0.354  -0.581  0.00  0.00    -0.075 A 
ATOM      2  C4  UNL d   1       0.465   1.330  -1.569  0.00  0.00     0.002 A 
ATOM      3  C5  UNL d   1       1.639   1.347  -2.323  0.00  0.00     0.002 A 
ATOM      4  C6  UNL d   1       2.632   0.398  -2.092  0.00  0.00    -0.004 A 
ATOM      5  C7  UNL d   1       2.454  -0.565  -1.102  0.00  0.00     0.002 A 
ATOM      6  C8  UNL d   1       1.278  -0.588  -0.349  0.00  0.00     0.002 A 
ENDROOT
BRANCH   1   7
ATOM      7  C2  UNL d   1      -1.013   0.312   0.219  0.00  0.00     0.056 C 
BRANCH   7   8
ATOM      8  C1  UNL d   1      -0.806   0.407   1.734  0.00  0.00     0.007 C 
ATOM      9  C   UNL d   1      -2.096   0.661   2.502  0.00  0.00     0.009 C 
ENDBRANCH   7   8
ENDBRANCH   1   7
TORSDOF 2
ENDMDL
