MODEL 1
REMARK minimizedAffinity -5.54692602
REMARK minimizedRMSD -1
REMARK  2 active torsions:
REMARK  status: ('A' for Active; 'I' for Inactive)
REMARK    1  A    between atoms: C1_2  and  C2_3 
REMARK    2  A    between atoms: C2_3  and  C3_4 
ROOT
ATOM      1  C3  UNL d   1       0.065   0.023  -0.255  0.00  0.00    -0.075 A 
ATOM      2  C4  UNL d   1       1.007   0.753  -0.995  0.00  0.00     0.002 A 
ATOM      3  C5  UNL d   1       2.161   0.135  -1.478  0.00  0.00     0.002 A 
ATOM      4  C6  UNL d   1       2.393  -1.214  -1.219  0.00  0.00    -0.004 A 
ATOM      5  C7  UNL d   1       1.473  -1.944  -0.470  0.00  0.00     0.002 A 
ATOM      6  C8  UNL d   1       0.315  -1.330   0.010  0.00  0.00     0.002 A 
ENDROOT
BRANCH   1   7
ATOM      7  C2  UNL d   1      -1.200   0.678   0.245  0.00  0.00     0.056 C 
BRANCH   7   8
ATOM      8  C1  UNL d   1      -1.669   0.167   1.612  0.00  0.00     0.007 C 
ATOM      9  C   UNL d   1      -1.638   1.237   2.696  0.00  0.00     0.009 C 
ENDBRANCH   7   8
ENDBRANCH   1   7
TORSDOF 2
ENDMDL
