MODEL 1
REMARK minimizedAffinity -3.50247908
REMARK minimizedRMSD -1
REMARK  2 active torsions:
REMARK  status: ('A' for Active; 'I' for Inactive)
REMARK    1  A    between atoms: C1_2  and  C2_3 
REMARK    2  A    between atoms: C2_3  and  C3_4 
ROOT
ATOM      1  C3  UNL d   1       1.063  -0.999  -0.780  0.00  0.00    -0.075 A 
ATOM      2  C4  UNL d   1       0.764  -0.026   0.185  0.00  0.00     0.002 A 
ATOM      3  C5  UNL d   1       1.766   0.803   0.690  0.00  0.00     0.002 A 
ATOM      4  C6  UNL d   1       3.079   0.663   0.246  0.00  0.00    -0.004 A 
ATOM      5  C7  UNL d   1       3.391  -0.311  -0.700  0.00  0.00     0.002 A 
ATOM      6  C8  UNL d   1       2.390  -1.139  -1.211  0.00  0.00     0.002 A 
ENDROOT
BRANCH   1   7
ATOM      7  C2  UNL d   1      -0.022  -1.879  -1.352  0.00  0.00     0.056 C 
BRANCH   7   8
ATOM      8  C1  UNL d   1      -0.488  -2.990  -0.405  0.00  0.00     0.007 C 
ATOM      9  C   UNL d   1       0.576  -4.050  -0.153  0.00  0.00     0.009 C 
ENDBRANCH   7   8
ENDBRANCH   1   7
TORSDOF 2
ENDMDL
