MODEL 1
REMARK minimizedAffinity -5.3333354
REMARK minimizedRMSD -1
REMARK  2 active torsions:
REMARK  status: ('A' for Active; 'I' for Inactive)
REMARK    1  A    between atoms: C1_2  and  C2_3 
REMARK    2  A    between atoms: C2_3  and  C3_4 
ROOT
ATOM      1  C3  UNL d   1      -0.034  -0.494  -0.029  0.00  0.00    -0.075 A 
ATOM      2  C4  UNL d   1       0.712   0.676  -0.233  0.00  0.00     0.002 A 
ATOM      3  C5  UNL d   1       1.786   0.686  -1.123  0.00  0.00     0.002 A 
ATOM      4  C6  UNL d   1       2.134  -0.474  -1.812  0.00  0.00    -0.004 A 
ATOM      5  C7  UNL d   1       1.411  -1.647  -1.605  0.00  0.00     0.002 A 
ATOM      6  C8  UNL d   1       0.333  -1.658  -0.718  0.00  0.00     0.002 A 
ENDROOT
BRANCH   1   7
ATOM      7  C2  UNL d   1      -1.215  -0.504   0.910  0.00  0.00     0.056 C 
BRANCH   7   8
ATOM      8  C1  UNL d   1      -1.545   0.866   1.512  0.00  0.00     0.007 C 
ATOM      9  C   UNL d   1      -2.500   0.789   2.695  0.00  0.00     0.009 C 
ENDBRANCH   7   8
ENDBRANCH   1   7
TORSDOF 2
ENDMDL
