MODEL 1
REMARK minimizedAffinity -5.80284071
REMARK minimizedRMSD -1
REMARK  1 active torsions:
REMARK  status: ('A' for Active; 'I' for Inactive)
REMARK    1  A    between atoms: C1_2  and  C2_3 
ROOT
ATOM      1  C2  UNL d   1       0.276   0.007  -0.397  0.00  0.00    -0.073 A 
ATOM      2  C3  UNL d   1      -0.286  -0.674   0.689  0.00  0.00    -0.002 A 
ATOM      3  C4  UNL d   1      -1.157  -0.016   1.558  0.00  0.00     0.004 A 
ATOM      4  C5  UNL d   1      -1.480   1.325   1.347  0.00  0.00    -0.004 A 
ATOM      5  C6  UNL d   1      -0.937   2.019   0.261  0.00  0.00    -0.075 A 
ATOM      6  C7  UNL d   1      -1.273   3.461   0.021  0.00  0.00     0.076 C 
ATOM      7  C8  UNL d   1      -0.061   1.352  -0.606  0.00  0.00     0.001 A 
ENDROOT
BRANCH   1   8
ATOM      8  C1  UNL d   1       1.212  -0.701  -1.342  0.00  0.00     0.053 C 
ATOM      9  C   UNL d   1       0.796  -2.144  -1.583  0.00  0.00     0.018 C 
ENDBRANCH   1   8
TORSDOF 1
ENDMDL
