MODEL 1
REMARK minimizedAffinity -5.38597441
REMARK minimizedRMSD -1
REMARK  1 active torsions:
REMARK  status: ('A' for Active; 'I' for Inactive)
REMARK    1  A    between atoms: C1_2  and  C2_3 
ROOT
ATOM      1  C2  UNL d   1      -0.301   0.182   0.806  0.00  0.00    -0.073 A 
ATOM      2  C3  UNL d   1      -1.537  -0.207   1.335  0.00  0.00    -0.002 A 
ATOM      3  C4  UNL d   1      -2.551   0.733   1.522  0.00  0.00     0.004 A 
ATOM      4  C5  UNL d   1      -2.343   2.068   1.175  0.00  0.00    -0.004 A 
ATOM      5  C6  UNL d   1      -1.120   2.474   0.634  0.00  0.00    -0.075 A 
ATOM      6  C7  UNL d   1      -0.880   3.907   0.258  0.00  0.00     0.076 C 
ATOM      7  C8  UNL d   1      -0.105   1.525   0.452  0.00  0.00     0.001 A 
ENDROOT
BRANCH   1   8
ATOM      8  C1  UNL d   1       0.795  -0.830   0.596  0.00  0.00     0.053 C 
ATOM      9  C   UNL d   1       0.887  -1.280  -0.853  0.00  0.00     0.018 C 
ENDBRANCH   1   8
TORSDOF 1
ENDMDL
