MODEL 1
REMARK minimizedAffinity -5.34989548
REMARK minimizedRMSD -1
REMARK  1 active torsions:
REMARK  status: ('A' for Active; 'I' for Inactive)
REMARK    1  A    between atoms: C1_2  and  C2_3 
ROOT
ATOM      1  C2  UNL d   1      -0.498   1.882   0.813  0.00  0.00    -0.073 A 
ATOM      2  C3  UNL d   1      -1.200   1.383   1.916  0.00  0.00    -0.002 A 
ATOM      3  C4  UNL d   1      -1.170   0.019   2.212  0.00  0.00     0.004 A 
ATOM      4  C5  UNL d   1      -0.433  -0.856   1.414  0.00  0.00    -0.004 A 
ATOM      5  C6  UNL d   1       0.285  -0.375   0.315  0.00  0.00    -0.075 A 
ATOM      6  C7  UNL d   1       1.080  -1.304  -0.555  0.00  0.00     0.076 C 
ATOM      7  C8  UNL d   1       0.247   0.995   0.022  0.00  0.00     0.001 A 
ENDROOT
BRANCH   1   8
ATOM      8  C1  UNL d   1      -0.522   3.354   0.493  0.00  0.00     0.053 C 
ATOM      9  C   UNL d   1       0.056   3.649  -0.882  0.00  0.00     0.018 C 
ENDBRANCH   1   8
TORSDOF 1
ENDMDL
