MODEL 1
REMARK minimizedAffinity -5.97378445
REMARK minimizedRMSD -1
REMARK  1 active torsions:
REMARK  status: ('A' for Active; 'I' for Inactive)
REMARK    1  A    between atoms: C1_2  and  C2_3 
ROOT
ATOM      1  C2  UNL d   1      -0.462   0.543   0.677  0.00  0.00    -0.073 A 
ATOM      2  C3  UNL d   1      -1.453   0.738   1.646  0.00  0.00    -0.002 A 
ATOM      3  C4  UNL d   1      -2.208   1.911   1.655  0.00  0.00     0.004 A 
ATOM      4  C5  UNL d   1      -1.986   2.897   0.694  0.00  0.00    -0.004 A 
ATOM      5  C6  UNL d   1      -1.008   2.715  -0.290  0.00  0.00    -0.075 A 
ATOM      6  C7  UNL d   1      -0.755   3.767  -1.330  0.00  0.00     0.076 C 
ATOM      7  C8  UNL d   1      -0.252   1.535  -0.291  0.00  0.00     0.001 A 
ENDROOT
BRANCH   1   8
ATOM      8  C1  UNL d   1       0.352  -0.725   0.660  0.00  0.00     0.053 C 
ATOM      9  C   UNL d   1       0.958  -0.994  -0.709  0.00  0.00     0.018 C 
ENDBRANCH   1   8
TORSDOF 1
ENDMDL
