MODEL 1
REMARK minimizedAffinity -5.45816803
REMARK minimizedRMSD -1
REMARK  1 active torsions:
REMARK  status: ('A' for Active; 'I' for Inactive)
REMARK    1  A    between atoms: C1_2  and  C2_3 
ROOT
ATOM      1  C2  UNL d   1      -0.808   0.644   0.470  0.00  0.00    -0.073 A 
ATOM      2  C3  UNL d   1      -1.148   0.911   1.801  0.00  0.00    -0.002 A 
ATOM      3  C4  UNL d   1      -1.581   2.183   2.177  0.00  0.00     0.004 A 
ATOM      4  C5  UNL d   1      -1.685   3.198   1.226  0.00  0.00    -0.004 A 
ATOM      5  C6  UNL d   1      -1.361   2.948  -0.111  0.00  0.00    -0.075 A 
ATOM      6  C7  UNL d   1      -1.465   4.030  -1.145  0.00  0.00     0.076 C 
ATOM      7  C8  UNL d   1      -0.924   1.669  -0.480  0.00  0.00     0.001 A 
ENDROOT
BRANCH   1   8
ATOM      8  C1  UNL d   1      -0.347  -0.730   0.059  0.00  0.00     0.053 C 
ATOM      9  C   UNL d   1       0.611  -0.680  -1.121  0.00  0.00     0.018 C 
ENDBRANCH   1   8
TORSDOF 1
ENDMDL
