MODEL 1
REMARK minimizedAffinity -5.51041651
REMARK minimizedRMSD -1
REMARK  1 active torsions:
REMARK  status: ('A' for Active; 'I' for Inactive)
REMARK    1  A    between atoms: C1_2  and  C2_3 
ROOT
ATOM      1  C2  UNL d   1       0.154   0.118   0.038  0.00  0.00    -0.073 A 
ATOM      2  C3  UNL d   1      -0.476  -0.424   1.164  0.00  0.00    -0.002 A 
ATOM      3  C4  UNL d   1      -1.361   0.349   1.917  0.00  0.00     0.004 A 
ATOM      4  C5  UNL d   1      -1.630   1.667   1.549  0.00  0.00    -0.004 A 
ATOM      5  C6  UNL d   1      -1.020   2.223   0.420  0.00  0.00    -0.075 A 
ATOM      6  C7  UNL d   1      -1.298   3.640   0.011  0.00  0.00     0.076 C 
ATOM      7  C8  UNL d   1      -0.130   1.441  -0.330  0.00  0.00     0.001 A 
ENDROOT
BRANCH   1   8
ATOM      8  C1  UNL d   1       1.106  -0.714  -0.782  0.00  0.00     0.053 C 
ATOM      9  C   UNL d   1       0.390  -1.831  -1.526  0.00  0.00     0.018 C 
ENDBRANCH   1   8
TORSDOF 1
ENDMDL
