MODEL 1
REMARK minimizedAffinity -5.98418665
REMARK minimizedRMSD -1
REMARK  1 active torsions:
REMARK  status: ('A' for Active; 'I' for Inactive)
REMARK    1  A    between atoms: C1_2  and  C2_3 
ROOT
ATOM      1  C2  UNL d   1      -0.869   1.695   0.360  0.00  0.00    -0.073 A 
ATOM      2  C3  UNL d   1      -1.272   1.373   1.661  0.00  0.00    -0.002 A 
ATOM      3  C4  UNL d   1      -0.897   0.158   2.234  0.00  0.00     0.004 A 
ATOM      4  C5  UNL d   1      -0.111  -0.744   1.517  0.00  0.00    -0.004 A 
ATOM      5  C6  UNL d   1       0.311  -0.435   0.219  0.00  0.00    -0.075 A 
ATOM      6  C7  UNL d   1       1.155  -1.395  -0.567  0.00  0.00     0.076 C 
ATOM      7  C8  UNL d   1      -0.072   0.786  -0.350  0.00  0.00     0.001 A 
ENDROOT
BRANCH   1   8
ATOM      8  C1  UNL d   1      -1.266   3.010  -0.261  0.00  0.00     0.053 C 
ATOM      9  C   UNL d   1      -0.219   4.088  -0.031  0.00  0.00     0.018 C 
ENDBRANCH   1   8
TORSDOF 1
ENDMDL
