MODEL 1
REMARK minimizedAffinity -6.56398392
REMARK minimizedRMSD -1
REMARK  1 active torsions:
REMARK  status: ('A' for Active; 'I' for Inactive)
REMARK    1  A    between atoms: C1_2  and  C2_3 
ROOT
ATOM      1  C2  UNL d   1      -1.073   1.935   0.565  0.00  0.00    -0.073 A 
ATOM      2  C3  UNL d   1      -1.407   1.501   1.853  0.00  0.00    -0.002 A 
ATOM      3  C4  UNL d   1      -1.003   0.242   2.299  0.00  0.00     0.004 A 
ATOM      4  C5  UNL d   1      -0.256  -0.592   1.466  0.00  0.00    -0.004 A 
ATOM      5  C6  UNL d   1       0.097  -0.171   0.180  0.00  0.00    -0.075 A 
ATOM      6  C7  UNL d   1       0.897  -1.056  -0.730  0.00  0.00     0.076 C 
ATOM      7  C8  UNL d   1      -0.315   1.094  -0.262  0.00  0.00     0.001 A 
ENDROOT
BRANCH   1   8
ATOM      8  C1  UNL d   1      -1.502   3.296   0.081  0.00  0.00     0.053 C 
ATOM      9  C   UNL d   1      -0.392   4.008  -0.676  0.00  0.00     0.018 C 
ENDBRANCH   1   8
TORSDOF 1
ENDMDL
