MODEL 1
REMARK minimizedAffinity -6.09699821
REMARK minimizedRMSD -1
REMARK  1 active torsions:
REMARK  status: ('A' for Active; 'I' for Inactive)
REMARK    1  A    between atoms: C1_2  and  C2_3 
ROOT
ATOM      1  C2  UNL d   1      -0.454   2.086   0.843  0.00  0.00    -0.073 A 
ATOM      2  C3  UNL d   1      -0.708   1.472   2.075  0.00  0.00    -0.002 A 
ATOM      3  C4  UNL d   1      -0.498   0.102   2.236  0.00  0.00     0.004 A 
ATOM      4  C5  UNL d   1      -0.024  -0.666   1.173  0.00  0.00    -0.004 A 
ATOM      5  C6  UNL d   1       0.248  -0.069  -0.062  0.00  0.00    -0.075 A 
ATOM      6  C7  UNL d   1       0.756  -0.881  -1.217  0.00  0.00     0.076 C 
ATOM      7  C8  UNL d   1       0.031   1.307  -0.218  0.00  0.00     0.001 A 
ENDROOT
BRANCH   1   8
ATOM      8  C1  UNL d   1      -0.674   3.566   0.666  0.00  0.00     0.053 C 
ATOM      9  C   UNL d   1       0.543   4.255   0.068  0.00  0.00     0.018 C 
ENDBRANCH   1   8
TORSDOF 1
ENDMDL
