MODEL 1
REMARK minimizedAffinity -5.68450737
REMARK minimizedRMSD -1
REMARK  1 active torsions:
REMARK  status: ('A' for Active; 'I' for Inactive)
REMARK    1  A    between atoms: C1_2  and  C2_3 
ROOT
ATOM      1  C2  UNL d   1      -0.974   2.615  -0.080  0.00  0.00    -0.073 A 
ATOM      2  C3  UNL d   1      -1.707   2.576   1.111  0.00  0.00    -0.002 A 
ATOM      3  C4  UNL d   1      -1.764   1.403   1.865  0.00  0.00     0.004 A 
ATOM      4  C5  UNL d   1      -1.085   0.261   1.441  0.00  0.00    -0.004 A 
ATOM      5  C6  UNL d   1      -0.338   0.284   0.259  0.00  0.00    -0.075 A 
ATOM      6  C7  UNL d   1       0.397  -0.937  -0.213  0.00  0.00     0.076 C 
ATOM      7  C8  UNL d   1      -0.287   1.464  -0.495  0.00  0.00     0.001 A 
ENDROOT
BRANCH   1   8
ATOM      8  C1  UNL d   1      -0.903   3.880  -0.895  0.00  0.00     0.053 C 
ATOM      9  C   UNL d   1       0.243   3.853  -1.893  0.00  0.00     0.018 C 
ENDBRANCH   1   8
TORSDOF 1
ENDMDL
