MODEL 1
REMARK minimizedAffinity -0.229108766
REMARK minimizedRMSD -1
REMARK  0 active torsions:
REMARK  status: ('A' for Active; 'I' for Inactive)
ROOT
ATOM      1  C   UNL d   1       2.120  -1.166   3.137  0.00  0.00     0.023 A 
ATOM      2  C1  UNL d   1       2.944  -0.050   3.287  0.00  0.00     0.003 A 
ATOM      3  C2  UNL d   1       2.814   1.037   2.420  0.00  0.00     0.048 A 
ATOM      4  C3  UNL d   1       1.856   1.003   1.408  0.00  0.00     0.023 A 
ATOM      5  C4  UNL d   1       1.028  -0.111   1.255  0.00  0.00     0.048 A 
ATOM      6  C5  UNL d   1       1.163  -1.196   2.123  0.00  0.00     0.003 A 
ATOM      7  I   UNL d   1       1.660   2.620   0.117  0.00  0.00    -0.146 I 
ENDROOT
TORSDOF 0
ENDMDL
