MODEL 1
REMARK minimizedAffinity 0.607883871
REMARK minimizedRMSD -1
REMARK  0 active torsions:
REMARK  status: ('A' for Active; 'I' for Inactive)
ROOT
ATOM      1  C   UNL d   1       2.557   2.307   2.374  0.00  0.00     0.023 A 
ATOM      2  C1  UNL d   1       2.410   1.986   3.723  0.00  0.00     0.003 A 
ATOM      3  C2  UNL d   1       2.293   0.651   4.116  0.00  0.00     0.048 A 
ATOM      4  C3  UNL d   1       2.325  -0.358   3.154  0.00  0.00     0.023 A 
ATOM      5  C4  UNL d   1       2.472  -0.042   1.803  0.00  0.00     0.048 A 
ATOM      6  C5  UNL d   1       2.588   1.294   1.415  0.00  0.00     0.003 A 
ATOM      7  I   UNL d   1       2.151  -2.345   3.737  0.00  0.00    -0.146 I 
ENDROOT
TORSDOF 0
ENDMDL
