MODEL 1
REMARK minimizedAffinity 8.1958437
REMARK minimizedRMSD -1
REMARK  0 active torsions:
REMARK  status: ('A' for Active; 'I' for Inactive)
ROOT
ATOM      1  C   UNL d   1       1.390  -2.532   4.494  0.00  0.00     0.023 A 
ATOM      2  C1  UNL d   1       2.205  -3.379   5.246  0.00  0.00     0.003 A 
ATOM      3  C2  UNL d   1       3.528  -3.601   4.859  0.00  0.00     0.048 A 
ATOM      4  C3  UNL d   1       4.031  -2.973   3.720  0.00  0.00     0.023 A 
ATOM      5  C4  UNL d   1       3.219  -2.125   2.965  0.00  0.00     0.048 A 
ATOM      6  C5  UNL d   1       1.897  -1.906   3.355  0.00  0.00     0.003 A 
ATOM      7  I   UNL d   1       6.000  -3.303   3.142  0.00  0.00    -0.146 I 
ENDROOT
TORSDOF 0
ENDMDL
