MODEL 1
REMARK minimizedAffinity 1.89304316
REMARK minimizedRMSD -1
REMARK  0 active torsions:
REMARK  status: ('A' for Active; 'I' for Inactive)
ROOT
ATOM      1  C   UNL d   1       0.359   0.812   0.014  0.00  0.00     0.023 A 
ATOM      2  C1  UNL d   1      -0.114  -0.377   0.569  0.00  0.00     0.003 A 
ATOM      3  C2  UNL d   1       0.537  -0.945   1.666  0.00  0.00     0.048 A 
ATOM      4  C3  UNL d   1       1.660  -0.318   2.204  0.00  0.00     0.023 A 
ATOM      5  C4  UNL d   1       2.136   0.873   1.653  0.00  0.00     0.048 A 
ATOM      6  C5  UNL d   1       1.483   1.436   0.556  0.00  0.00     0.003 A 
ATOM      7  I   UNL d   1       2.630  -1.161   3.838  0.00  0.00    -0.146 I 
ENDROOT
TORSDOF 0
ENDMDL
