MODEL 1
REMARK minimizedAffinity 5.65734911
REMARK minimizedRMSD -1
REMARK  0 active torsions:
REMARK  status: ('A' for Active; 'I' for Inactive)
ROOT
ATOM      1  C   UNL d   1       1.751   2.362   0.687  0.00  0.00     0.023 A 
ATOM      2  C1  UNL d   1       0.422   2.344   0.262  0.00  0.00     0.003 A 
ATOM      3  C2  UNL d   1      -0.272   1.135   0.185  0.00  0.00     0.048 A 
ATOM      4  C3  UNL d   1       0.369  -0.053   0.536  0.00  0.00     0.023 A 
ATOM      5  C4  UNL d   1       1.698  -0.040   0.963  0.00  0.00     0.048 A 
ATOM      6  C5  UNL d   1       2.388   1.171   1.037  0.00  0.00     0.003 A 
ATOM      7  I   UNL d   1      -0.662  -1.854   0.424  0.00  0.00    -0.146 I 
ENDROOT
TORSDOF 0
ENDMDL
