MODEL 1
REMARK minimizedAffinity -4.28554678
REMARK minimizedRMSD -1
REMARK  0 active torsions:
REMARK  status: ('A' for Active; 'I' for Inactive)
ROOT
ATOM      1  O1  BZF d   1      -0.405  -3.328   1.177  0.00  0.00    -0.204 OA
ATOM      2  C2  BZF d   1      -0.170  -4.049   0.022  0.00  0.00     0.174 A 
ATOM      3  C3  BZF d   1       0.079  -3.224  -1.015  0.00  0.00    -0.012 A 
ATOM      4  C3A BZF d   1       0.086  -1.907  -0.455  0.00  0.00    -0.107 A 
ATOM      5  C4  BZF d   1       0.294  -0.665  -0.982  0.00  0.00     0.055 A 
ATOM      6  C5  BZF d   1       0.159   0.424  -0.179  0.00  0.00    -0.016 A 
ATOM      7  C6  BZF d   1      -0.188   0.306   1.151  0.00  0.00     0.022 A 
ATOM      8  C7  BZF d   1      -0.400  -0.906   1.719  0.00  0.00     0.029 A 
ATOM      9  C7A BZF d   1      -0.231  -2.009   0.919  0.00  0.00     0.058 A 
ENDROOT
TORSDOF 0
ENDMDL
