MODEL 1
REMARK minimizedAffinity -4.74760962
REMARK minimizedRMSD -1
REMARK  0 active torsions:
REMARK  status: ('A' for Active; 'I' for Inactive)
ROOT
ATOM      1  O1  BZF d   1       0.717  -2.588  -0.232  0.00  0.00    -0.204 OA
ATOM      2  C2  BZF d   1      -0.057  -3.252   0.700  0.00  0.00     0.174 A 
ATOM      3  C3  BZF d   1      -0.820  -2.383   1.395  0.00  0.00    -0.012 A 
ATOM      4  C3A BZF d   1      -0.571  -1.106   0.801  0.00  0.00    -0.107 A 
ATOM      5  C4  BZF d   1      -1.047   0.151   1.044  0.00  0.00     0.055 A 
ATOM      6  C5  BZF d   1      -0.547   1.196   0.333  0.00  0.00    -0.016 A 
ATOM      7  C6  BZF d   1       0.432   1.021  -0.623  0.00  0.00     0.022 A 
ATOM      8  C7  BZF d   1       0.932  -0.208  -0.902  0.00  0.00     0.029 A 
ATOM      9  C7A BZF d   1       0.405  -1.270  -0.209  0.00  0.00     0.058 A 
ENDROOT
TORSDOF 0
ENDMDL
