MODEL 1
REMARK minimizedAffinity -2.78678346
REMARK minimizedRMSD -1
REMARK  0 active torsions:
REMARK  status: ('A' for Active; 'I' for Inactive)
ROOT
ATOM      1  O1  BZF d   1      -0.918  -2.625   0.943  0.00  0.00    -0.204 OA
ATOM      2  C2  BZF d   1      -0.050  -3.565   0.423  0.00  0.00     0.174 A 
ATOM      3  C3  BZF d   1       0.907  -2.973  -0.321  0.00  0.00    -0.012 A 
ATOM      4  C3A BZF d   1       0.672  -1.568  -0.186  0.00  0.00    -0.107 A 
ATOM      5  C4  BZF d   1       1.300  -0.460  -0.678  0.00  0.00     0.055 A 
ATOM      6  C5  BZF d   1       0.776   0.767  -0.417  0.00  0.00    -0.016 A 
ATOM      7  C6  BZF d   1      -0.376   0.921   0.325  0.00  0.00     0.022 A 
ATOM      8  C7  BZF d   1      -1.032  -0.148   0.839  0.00  0.00     0.029 A 
ATOM      9  C7A BZF d   1      -0.486  -1.387   0.605  0.00  0.00     0.058 A 
ENDROOT
TORSDOF 0
ENDMDL
