MODEL 1
REMARK minimizedAffinity -1.46309698
REMARK minimizedRMSD -1
REMARK  0 active torsions:
REMARK  status: ('A' for Active; 'I' for Inactive)
ROOT
ATOM      1  O1  BZF d   1      -0.427  -3.309   1.237  0.00  0.00    -0.204 OA
ATOM      2  C2  BZF d   1       0.127  -3.421  -0.024  0.00  0.00     0.174 A 
ATOM      3  C3  BZF d   1      -0.110  -2.310  -0.751  0.00  0.00    -0.012 A 
ATOM      4  C3A BZF d   1      -0.779  -1.413   0.140  0.00  0.00    -0.107 A 
ATOM      5  C4  BZF d   1      -1.260  -0.142   0.007  0.00  0.00     0.055 A 
ATOM      6  C5  BZF d   1      -1.927   0.425   1.047  0.00  0.00    -0.016 A 
ATOM      7  C6  BZF d   1      -2.136  -0.252   2.230  0.00  0.00     0.022 A 
ATOM      8  C7  BZF d   1      -1.673  -1.513   2.412  0.00  0.00     0.029 A 
ATOM      9  C7A BZF d   1      -0.970  -2.076   1.375  0.00  0.00     0.058 A 
ENDROOT
TORSDOF 0
ENDMDL
