MODEL 1
REMARK minimizedAffinity -3.14876008
REMARK minimizedRMSD -1
REMARK  0 active torsions:
REMARK  status: ('A' for Active; 'I' for Inactive)
ROOT
ATOM      1  O1  BZF d   1       0.636  -2.538  -0.370  0.00  0.00    -0.204 OA
ATOM      2  C2  BZF d   1      -0.183  -3.315   0.427  0.00  0.00     0.174 A 
ATOM      3  C3  BZF d   1      -0.985  -2.542   1.186  0.00  0.00    -0.012 A 
ATOM      4  C3A BZF d   1      -0.712  -1.198   0.775  0.00  0.00    -0.107 A 
ATOM      5  C4  BZF d   1      -1.207   0.017   1.152  0.00  0.00     0.055 A 
ATOM      6  C5  BZF d   1      -0.676   1.144   0.608  0.00  0.00    -0.016 A 
ATOM      7  C6  BZF d   1       0.353   1.092  -0.310  0.00  0.00     0.022 A 
ATOM      8  C7  BZF d   1       0.873  -0.092  -0.718  0.00  0.00     0.029 A 
ATOM      9  C7A BZF d   1       0.316  -1.233  -0.195  0.00  0.00     0.058 A 
ENDROOT
TORSDOF 0
ENDMDL
