MODEL 1
REMARK minimizedAffinity -2.97397661
REMARK minimizedRMSD -1
REMARK  0 active torsions:
REMARK  status: ('A' for Active; 'I' for Inactive)
ROOT
ATOM      1  O1  BZF d   1      -0.165   1.032  -1.811  0.00  0.00    -0.204 OA
ATOM      2  C2  BZF d   1       0.432   0.338  -2.845  0.00  0.00     0.174 A 
ATOM      3  C3  BZF d   1       0.829  -0.884  -2.434  0.00  0.00    -0.012 A 
ATOM      4  C3A BZF d   1       0.373  -0.993  -1.082  0.00  0.00    -0.107 A 
ATOM      5  C4  BZF d   1       0.450  -1.980  -0.142  0.00  0.00     0.055 A 
ATOM      6  C5  BZF d   1      -0.031  -1.742   1.106  0.00  0.00    -0.016 A 
ATOM      7  C6  BZF d   1      -0.589  -0.529   1.450  0.00  0.00     0.022 A 
ATOM      8  C7  BZF d   1      -0.692   0.480   0.551  0.00  0.00     0.029 A 
ATOM      9  C7A BZF d   1      -0.237   0.231  -0.721  0.00  0.00     0.058 A 
ENDROOT
TORSDOF 0
ENDMDL
