MODEL 1
REMARK minimizedAffinity -3.20043731
REMARK minimizedRMSD -1
REMARK  0 active torsions:
REMARK  status: ('A' for Active; 'I' for Inactive)
ROOT
ATOM      1  O1  BZF d   1      -0.925  -1.722   1.795  0.00  0.00    -0.204 OA
ATOM      2  C2  BZF d   1      -0.544  -2.994   1.412  0.00  0.00     0.174 A 
ATOM      3  C3  BZF d   1       0.021  -2.975   0.187  0.00  0.00    -0.012 A 
ATOM      4  C3A BZF d   1       0.075  -1.594  -0.182  0.00  0.00    -0.107 A 
ATOM      5  C4  BZF d   1       0.544  -0.933  -1.281  0.00  0.00     0.055 A 
ATOM      6  C5  BZF d   1       0.380   0.414  -1.362  0.00  0.00    -0.016 A 
ATOM      7  C6  BZF d   1      -0.253   1.129  -0.366  0.00  0.00     0.022 A 
ATOM      8  C7  BZF d   1      -0.730   0.518   0.745  0.00  0.00     0.029 A 
ATOM      9  C7A BZF d   1      -0.537  -0.838   0.845  0.00  0.00     0.058 A 
ENDROOT
TORSDOF 0
ENDMDL
