MODEL 1
REMARK minimizedAffinity -4.40413046
REMARK minimizedRMSD -1
REMARK  0 active torsions:
REMARK  status: ('A' for Active; 'I' for Inactive)
ROOT
ATOM      1  O1  BZF d   1       0.360  -1.172  -2.218  0.00  0.00    -0.204 OA
ATOM      2  C2  BZF d   1       0.092  -2.408  -2.776  0.00  0.00     0.174 A 
ATOM      3  C3  BZF d   1      -0.437  -3.242  -1.858  0.00  0.00    -0.012 A 
ATOM      4  C3A BZF d   1      -0.590  -2.452  -0.675  0.00  0.00    -0.107 A 
ATOM      5  C4  BZF d   1      -1.078  -2.715   0.573  0.00  0.00     0.055 A 
ATOM      6  C5  BZF d   1      -1.019  -1.746   1.524  0.00  0.00    -0.016 A 
ATOM      7  C6  BZF d   1      -0.474  -0.505   1.262  0.00  0.00     0.022 A 
ATOM      8  C7  BZF d   1       0.018  -0.196   0.038  0.00  0.00     0.029 A 
ATOM      9  C7A BZF d   1      -0.070  -1.163  -0.934  0.00  0.00     0.058 A 
ENDROOT
TORSDOF 0
ENDMDL
