MODEL 1
REMARK minimizedAffinity -6.09182167
REMARK minimizedRMSD -1
REMARK  0 active torsions:
REMARK  status: ('A' for Active; 'I' for Inactive)
ROOT
ATOM      1  O1  BZF d   1       0.225   0.555  -0.848  0.00  0.00    -0.204 OA
ATOM      2  C2  BZF d   1      -0.133   1.050   0.391  0.00  0.00     0.174 A 
ATOM      3  C3  BZF d   1      -0.481   0.048   1.224  0.00  0.00    -0.012 A 
ATOM      4  C3A BZF d   1      -0.244  -1.155   0.486  0.00  0.00    -0.107 A 
ATOM      5  C4  BZF d   1      -0.384  -2.481   0.781  0.00  0.00     0.055 A 
ATOM      6  C5  BZF d   1      -0.135  -3.402  -0.186  0.00  0.00    -0.016 A 
ATOM      7  C6  BZF d   1       0.250  -3.034  -1.458  0.00  0.00     0.022 A 
ATOM      8  C7  BZF d   1       0.408  -1.731  -1.797  0.00  0.00     0.029 A 
ATOM      9  C7A BZF d   1       0.189  -0.799  -0.812  0.00  0.00     0.058 A 
ENDROOT
TORSDOF 0
ENDMDL
