MODEL 1
REMARK minimizedAffinity -3.39440846
REMARK minimizedRMSD -1
REMARK  0 active torsions:
REMARK  status: ('A' for Active; 'I' for Inactive)
ROOT
ATOM      1  O1  BZF d   1      -0.405  -2.569  -1.964  0.00  0.00    -0.204 OA
ATOM      2  C2  BZF d   1       0.147  -1.831  -2.994  0.00  0.00     0.174 A 
ATOM      3  C3  BZF d   1       0.260  -0.533  -2.645  0.00  0.00    -0.012 A 
ATOM      4  C3A BZF d   1      -0.166  -0.471  -1.281  0.00  0.00    -0.107 A 
ATOM      5  C4  BZF d   1      -0.265   0.544  -0.373  0.00  0.00     0.055 A 
ATOM      6  C5  BZF d   1      -0.789   0.285   0.854  0.00  0.00    -0.016 A 
ATOM      7  C6  BZF d   1      -1.227  -0.975   1.204  0.00  0.00     0.022 A 
ATOM      8  C7  BZF d   1      -1.145  -2.016   0.339  0.00  0.00     0.029 A 
ATOM      9  C7A BZF d   1      -0.586  -1.764  -0.890  0.00  0.00     0.058 A 
ENDROOT
TORSDOF 0
ENDMDL
