MODEL 1
REMARK minimizedAffinity -5.00037289
REMARK minimizedRMSD -1
REMARK  0 active torsions:
REMARK  status: ('A' for Active; 'I' for Inactive)
ROOT
ATOM      1  O1  BZF d   1      -0.113   0.296  -0.903  0.00  0.00    -0.204 OA
ATOM      2  C2  BZF d   1      -0.311   0.874   0.336  0.00  0.00     0.174 A 
ATOM      3  C3  BZF d   1      -0.327  -0.065   1.305  0.00  0.00    -0.012 A 
ATOM      4  C3A BZF d   1      -0.034  -1.297   0.639  0.00  0.00    -0.107 A 
ATOM      5  C4  BZF d   1       0.105  -2.586   1.069  0.00  0.00     0.055 A 
ATOM      6  C5  BZF d   1       0.320  -3.567   0.154  0.00  0.00    -0.016 A 
ATOM      7  C6  BZF d   1       0.395  -3.297  -1.197  0.00  0.00     0.022 A 
ATOM      8  C7  BZF d   1       0.268  -2.033  -1.670  0.00  0.00     0.029 A 
ATOM      9  C7A BZF d   1       0.084  -1.035  -0.745  0.00  0.00     0.058 A 
ENDROOT
TORSDOF 0
ENDMDL
