MODEL 1
REMARK minimizedAffinity -5.39116049
REMARK minimizedRMSD -1
REMARK  0 active torsions:
REMARK  status: ('A' for Active; 'I' for Inactive)
ROOT
ATOM      1  O1  BZF d   1       0.217  -1.226  -2.481  0.00  0.00    -0.204 OA
ATOM      2  C2  BZF d   1       0.199  -2.604  -2.571  0.00  0.00     0.174 A 
ATOM      3  C3  BZF d   1      -0.053  -3.158  -1.367  0.00  0.00    -0.012 A 
ATOM      4  C3A BZF d   1      -0.293  -2.056  -0.488  0.00  0.00    -0.107 A 
ATOM      5  C4  BZF d   1      -0.612  -1.963   0.837  0.00  0.00     0.055 A 
ATOM      6  C5  BZF d   1      -0.706  -0.735   1.410  0.00  0.00    -0.016 A 
ATOM      7  C6  BZF d   1      -0.483   0.421   0.690  0.00  0.00     0.022 A 
ATOM      8  C7  BZF d   1      -0.169   0.380  -0.628  0.00  0.00     0.029 A 
ATOM      9  C7A BZF d   1      -0.106  -0.859  -1.217  0.00  0.00     0.058 A 
ENDROOT
TORSDOF 0
ENDMDL
