MODEL 1
REMARK minimizedAffinity -2.54763937
REMARK minimizedRMSD -1
REMARK  0 active torsions:
REMARK  status: ('A' for Active; 'I' for Inactive)
ROOT
ATOM      1  O1  BZF d   1       0.214   1.205  -1.159  0.00  0.00    -0.204 OA
ATOM      2  C2  BZF d   1       0.471   2.143  -0.178  0.00  0.00     0.174 A 
ATOM      3  C3  BZF d   1       0.123   1.673   1.037  0.00  0.00    -0.012 A 
ATOM      4  C3A BZF d   1      -0.296   0.323   0.812  0.00  0.00    -0.107 A 
ATOM      5  C4  BZF d   1      -0.743  -0.671   1.635  0.00  0.00     0.055 A 
ATOM      6  C5  BZF d   1      -1.141  -1.851   1.090  0.00  0.00    -0.016 A 
ATOM      7  C6  BZF d   1      -1.109  -2.069  -0.272  0.00  0.00     0.022 A 
ATOM      8  C7  BZF d   1      -0.669  -1.114  -1.128  0.00  0.00     0.029 A 
ATOM      9  C7A BZF d   1      -0.236   0.067  -0.577  0.00  0.00     0.058 A 
ENDROOT
TORSDOF 0
ENDMDL
