MODEL 1
REMARK minimizedAffinity -6.59251165
REMARK minimizedRMSD -1
REMARK  0 active torsions:
REMARK  status: ('A' for Active; 'I' for Inactive)
ROOT
ATOM      1  O1  BZF d   1       0.235   0.426  -1.249  0.00  0.00    -0.204 OA
ATOM      2  C2  BZF d   1      -0.192   0.859  -0.009  0.00  0.00     0.174 A 
ATOM      3  C3  BZF d   1      -0.564  -0.185   0.760  0.00  0.00    -0.012 A 
ATOM      4  C3A BZF d   1      -0.269  -1.349  -0.018  0.00  0.00    -0.107 A 
ATOM      5  C4  BZF d   1      -0.401  -2.689   0.210  0.00  0.00     0.055 A 
ATOM      6  C5  BZF d   1      -0.089  -3.562  -0.784  0.00  0.00    -0.016 A 
ATOM      7  C6  BZF d   1       0.352  -3.130  -2.018  0.00  0.00     0.022 A 
ATOM      8  C7  BZF d   1       0.504  -1.811  -2.289  0.00  0.00     0.029 A 
ATOM      9  C7A BZF d   1       0.221  -0.928  -1.276  0.00  0.00     0.058 A 
ENDROOT
TORSDOF 0
ENDMDL
