MODEL 1
REMARK minimizedAffinity -5.70846558
REMARK minimizedRMSD -1
REMARK  0 active torsions:
REMARK  status: ('A' for Active; 'I' for Inactive)
ROOT
ATOM      1  O1  BZF d   1      -0.081  -0.383  -1.958  0.00  0.00    -0.204 OA
ATOM      2  C2  BZF d   1       0.231  -1.447  -2.781  0.00  0.00     0.174 A 
ATOM      3  C3  BZF d   1       0.228  -2.605  -2.089  0.00  0.00    -0.012 A 
ATOM      4  C3A BZF d   1      -0.197  -2.253  -0.769  0.00  0.00    -0.107 A 
ATOM      5  C4  BZF d   1      -0.412  -2.972   0.371  0.00  0.00     0.055 A 
ATOM      6  C5  BZF d   1      -0.753  -2.317   1.512  0.00  0.00    -0.016 A 
ATOM      7  C6  BZF d   1      -0.883  -0.944   1.549  0.00  0.00     0.022 A 
ATOM      8  C7  BZF d   1      -0.685  -0.188   0.442  0.00  0.00     0.029 A 
ATOM      9  C7A BZF d   1      -0.372  -0.850  -0.720  0.00  0.00     0.058 A 
ENDROOT
TORSDOF 0
ENDMDL
