MODEL 1
REMARK minimizedAffinity -4.28949547
REMARK minimizedRMSD -1
REMARK  0 active torsions:
REMARK  status: ('A' for Active; 'I' for Inactive)
ROOT
ATOM      1  O1  BZF d   1       0.060   0.549  -0.970  0.00  0.00    -0.204 OA
ATOM      2  C2  BZF d   1      -0.388   1.196   0.166  0.00  0.00     0.174 A 
ATOM      3  C3  BZF d   1      -0.722   0.306   1.122  0.00  0.00    -0.012 A 
ATOM      4  C3A BZF d   1      -0.380  -0.974   0.582  0.00  0.00    -0.107 A 
ATOM      5  C4  BZF d   1      -0.461  -2.249   1.065  0.00  0.00     0.055 A 
ATOM      6  C5  BZF d   1      -0.112  -3.284   0.257  0.00  0.00    -0.016 A 
ATOM      7  C6  BZF d   1       0.317  -3.082  -1.038  0.00  0.00     0.022 A 
ATOM      8  C7  BZF d   1       0.419  -1.835  -1.560  0.00  0.00     0.029 A 
ATOM      9  C7A BZF d   1       0.098  -0.784  -0.735  0.00  0.00     0.058 A 
ENDROOT
TORSDOF 0
ENDMDL
