MODEL 1
REMARK minimizedAffinity -4.67859745
REMARK minimizedRMSD -1
REMARK  0 active torsions:
REMARK  status: ('A' for Active; 'I' for Inactive)
ROOT
ATOM      1  O1  BZF d   1       0.254   0.190  -0.747  0.00  0.00    -0.204 OA
ATOM      2  C2  BZF d   1      -0.719   0.786   0.032  0.00  0.00     0.174 A 
ATOM      3  C3  BZF d   1      -1.495  -0.145   0.624  0.00  0.00    -0.012 A 
ATOM      4  C3A BZF d   1      -0.916  -1.402   0.262  0.00  0.00    -0.107 A 
ATOM      5  C4  BZF d   1      -1.228  -2.699   0.556  0.00  0.00     0.055 A 
ATOM      6  C5  BZF d   1      -0.507  -3.698  -0.017  0.00  0.00    -0.016 A 
ATOM      7  C6  BZF d   1       0.528  -3.437  -0.891  0.00  0.00     0.022 A 
ATOM      8  C7  BZF d   1       0.878  -2.167  -1.210  0.00  0.00     0.029 A 
ATOM      9  C7A BZF d   1       0.172  -1.155  -0.607  0.00  0.00     0.058 A 
ENDROOT
TORSDOF 0
ENDMDL
