MODEL 1
REMARK minimizedAffinity 0.990291953
REMARK minimizedRMSD -1
REMARK  0 active torsions:
REMARK  status: ('A' for Active; 'I' for Inactive)
ROOT
ATOM      1  O1  BZF d   1       0.704   2.819  -0.571  0.00  0.00    -0.204 OA
ATOM      2  C2  BZF d   1       1.669   3.224   0.331  0.00  0.00     0.174 A 
ATOM      3  C3  BZF d   1       1.874   2.277   1.268  0.00  0.00    -0.012 A 
ATOM      4  C3A BZF d   1       1.048   1.175   0.878  0.00  0.00    -0.107 A 
ATOM      5  C4  BZF d   1       0.830  -0.066   1.403  0.00  0.00     0.055 A 
ATOM      6  C5  BZF d   1      -0.094  -0.876   0.822  0.00  0.00    -0.016 A 
ATOM      7  C6  BZF d   1      -0.821  -0.474  -0.280  0.00  0.00     0.022 A 
ATOM      8  C7  BZF d   1      -0.636   0.747  -0.839  0.00  0.00     0.029 A 
ATOM      9  C7A BZF d   1       0.321   1.554  -0.274  0.00  0.00     0.058 A 
ENDROOT
TORSDOF 0
ENDMDL
