MODEL 1
REMARK minimizedAffinity -4.24196815
REMARK minimizedRMSD -1
REMARK  0 active torsions:
REMARK  status: ('A' for Active; 'I' for Inactive)
ROOT
ATOM      1  O1  BZF d   1       0.443  -0.446  -2.053  0.00  0.00    -0.204 OA
ATOM      2  C2  BZF d   1       0.470  -1.552  -2.881  0.00  0.00     0.174 A 
ATOM      3  C3  BZF d   1       0.006  -2.643  -2.238  0.00  0.00    -0.012 A 
ATOM      4  C3A BZF d   1      -0.419  -2.171  -0.955  0.00  0.00    -0.107 A 
ATOM      5  C4  BZF d   1      -0.984  -2.779   0.129  0.00  0.00     0.055 A 
ATOM      6  C5  BZF d   1      -1.210  -2.049   1.252  0.00  0.00    -0.016 A 
ATOM      7  C6  BZF d   1      -0.878  -0.713   1.329  0.00  0.00     0.022 A 
ATOM      8  C7  BZF d   1      -0.319  -0.065   0.278  0.00  0.00     0.029 A 
ATOM      9  C7A BZF d   1      -0.121  -0.791  -0.870  0.00  0.00     0.058 A 
ENDROOT
TORSDOF 0
ENDMDL
