MODEL 1
REMARK minimizedAffinity -4.73958158
REMARK minimizedRMSD -1
REMARK  0 active torsions:
REMARK  status: ('A' for Active; 'I' for Inactive)
ROOT
ATOM      1  C   UNL d   1       3.086   0.197   0.716  0.00  0.00     0.023 A 
ATOM      2  C1  UNL d   1       2.453  -1.037   0.566  0.00  0.00     0.003 A 
ATOM      3  C2  UNL d   1       1.106  -1.092   0.200  0.00  0.00     0.048 A 
ATOM      4  C3  UNL d   1       0.399   0.090  -0.015  0.00  0.00     0.023 A 
ATOM      5  C4  UNL d   1       1.028   1.327   0.134  0.00  0.00     0.048 A 
ATOM      6  C5  UNL d   1       2.375   1.378   0.500  0.00  0.00     0.003 A 
ATOM      7  I   UNL d   1      -1.605   0.010  -0.559  0.00  0.00    -0.146 I 
ENDROOT
TORSDOF 0
ENDMDL
