MODEL 1
REMARK minimizedAffinity -4.12180424
REMARK minimizedRMSD -1
REMARK  0 active torsions:
REMARK  status: ('A' for Active; 'I' for Inactive)
ROOT
ATOM      1  C   UNL d   1       2.497   0.612   1.246  0.00  0.00     0.023 A 
ATOM      2  C1  UNL d   1       2.074  -0.582   0.661  0.00  0.00     0.003 A 
ATOM      3  C2  UNL d   1       0.940  -0.598  -0.153  0.00  0.00     0.048 A 
ATOM      4  C3  UNL d   1       0.233   0.582  -0.378  0.00  0.00     0.023 A 
ATOM      5  C4  UNL d   1       0.652   1.779   0.205  0.00  0.00     0.048 A 
ATOM      6  C5  UNL d   1       1.786   1.791   1.019  0.00  0.00     0.003 A 
ATOM      7  I   UNL d   1      -1.456   0.560  -1.589  0.00  0.00    -0.146 I 
ENDROOT
TORSDOF 0
ENDMDL
