MODEL 1
REMARK minimizedAffinity -2.34275508
REMARK minimizedRMSD -1
REMARK  0 active torsions:
REMARK  status: ('A' for Active; 'I' for Inactive)
ROOT
ATOM      1  C   UNL d   1       2.433   0.356   1.227  0.00  0.00     0.023 A 
ATOM      2  C1  UNL d   1       2.062  -0.774   0.498  0.00  0.00     0.003 A 
ATOM      3  C2  UNL d   1       0.831  -0.808  -0.162  0.00  0.00     0.048 A 
ATOM      4  C3  UNL d   1      -0.023   0.291  -0.089  0.00  0.00     0.023 A 
ATOM      5  C4  UNL d   1       0.344   1.425   0.639  0.00  0.00     0.048 A 
ATOM      6  C5  UNL d   1       1.575   1.454   1.297  0.00  0.00     0.003 A 
ATOM      7  I   UNL d   1      -1.855   0.243  -1.069  0.00  0.00    -0.146 I 
ENDROOT
TORSDOF 0
ENDMDL
