MODEL 1
REMARK minimizedAffinity -4.45063829
REMARK minimizedRMSD -1
REMARK  0 active torsions:
REMARK  status: ('A' for Active; 'I' for Inactive)
ROOT
ATOM      1  C   UNL d   1       3.005   0.120   1.129  0.00  0.00     0.023 A 
ATOM      2  C1  UNL d   1       2.161   1.214   1.319  0.00  0.00     0.003 A 
ATOM      3  C2  UNL d   1       0.858   1.188   0.818  0.00  0.00     0.048 A 
ATOM      4  C3  UNL d   1       0.406   0.064   0.127  0.00  0.00     0.023 A 
ATOM      5  C4  UNL d   1       1.247  -1.033  -0.065  0.00  0.00     0.048 A 
ATOM      6  C5  UNL d   1       2.549  -1.002   0.438  0.00  0.00     0.003 A 
ATOM      7  I   UNL d   1      -1.533   0.022  -0.620  0.00  0.00    -0.146 I 
ENDROOT
TORSDOF 0
ENDMDL
