MODEL 1
REMARK minimizedAffinity -5.5375104
REMARK minimizedRMSD -1
REMARK  1 active torsions:
REMARK  status: ('A' for Active; 'I' for Inactive)
REMARK    1  A    between atoms: C1_2  and  C2_3 
ROOT
ATOM      1  C2  UNL d   1       0.061   0.109  -0.091  0.00  0.00    -0.076 A 
ATOM      2  C3  UNL d   1      -0.734   1.034  -0.791  0.00  0.00     0.004 A 
ATOM      3  C4  UNL d   1      -1.318   2.117  -0.137  0.00  0.00    -0.003 A 
ATOM      4  C5  UNL d   1      -1.116   2.295   1.227  0.00  0.00     0.000 A 
ATOM      5  C6  UNL d   1      -0.316   1.397   1.934  0.00  0.00     0.000 A 
ATOM      6  C7  UNL d   1       0.293   0.309   1.287  0.00  0.00    -0.073 A 
ATOM      7  C8  UNL d   1       1.141  -0.631   2.099  0.00  0.00     0.078 C 
ENDROOT
BRANCH   1   8
ATOM      8  C1  UNL d   1       0.646  -1.062  -0.848  0.00  0.00     0.053 C 
ATOM      9  C   UNL d   1      -0.335  -2.216  -0.983  0.00  0.00     0.018 C 
ENDBRANCH   1   8
TORSDOF 1
ENDMDL
