MODEL 1
REMARK minimizedAffinity -2.90381336
REMARK minimizedRMSD -1
REMARK  1 active torsions:
REMARK  status: ('A' for Active; 'I' for Inactive)
REMARK    1  A    between atoms: C1_2  and  C2_3 
ROOT
ATOM      1  C2  UNL d   1       0.477  -0.191  -0.178  0.00  0.00    -0.076 A 
ATOM      2  C3  UNL d   1       0.799  -0.730   1.080  0.00  0.00     0.004 A 
ATOM      3  C4  UNL d   1       0.632   0.018   2.245  0.00  0.00    -0.003 A 
ATOM      4  C5  UNL d   1       0.139   1.316   2.170  0.00  0.00     0.000 A 
ATOM      5  C6  UNL d   1      -0.203   1.860   0.933  0.00  0.00     0.000 A 
ATOM      6  C7  UNL d   1      -0.056   1.114  -0.249  0.00  0.00    -0.073 A 
ATOM      7  C8  UNL d   1      -0.434   1.752  -1.558  0.00  0.00     0.078 C 
ENDROOT
BRANCH   1   8
ATOM      8  C1  UNL d   1       0.705  -1.039  -1.409  0.00  0.00     0.053 C 
ATOM      9  C   UNL d   1       1.045  -2.482  -1.067  0.00  0.00     0.018 C 
ENDBRANCH   1   8
TORSDOF 1
ENDMDL
