MODEL 1
REMARK minimizedAffinity 0.411053985
REMARK minimizedRMSD -1
REMARK  1 active torsions:
REMARK  status: ('A' for Active; 'I' for Inactive)
REMARK    1  A    between atoms: C1_2  and  C2_3 
ROOT
ATOM      1  C2  UNL d   1       0.056  -0.239  -0.433  0.00  0.00    -0.076 A 
ATOM      2  C3  UNL d   1       0.247  -0.460   0.942  0.00  0.00     0.004 A 
ATOM      3  C4  UNL d   1       0.278   0.605   1.842  0.00  0.00    -0.003 A 
ATOM      4  C5  UNL d   1       0.118   1.907   1.381  0.00  0.00     0.000 A 
ATOM      5  C6  UNL d   1      -0.091   2.142   0.022  0.00  0.00     0.000 A 
ATOM      6  C7  UNL d   1      -0.141   1.079  -0.896  0.00  0.00    -0.073 A 
ATOM      7  C8  UNL d   1      -0.363   1.392  -2.350  0.00  0.00     0.078 C 
ENDROOT
BRANCH   1   8
ATOM      8  C1  UNL d   1       0.059  -1.430  -1.364  0.00  0.00     0.053 C 
ATOM      9  C   UNL d   1       0.565  -2.696  -0.691  0.00  0.00     0.018 C 
ENDBRANCH   1   8
TORSDOF 1
ENDMDL
