MODEL 1
REMARK minimizedAffinity -5.37252426
REMARK minimizedRMSD -1
REMARK  1 active torsions:
REMARK  status: ('A' for Active; 'I' for Inactive)
REMARK    1  A    between atoms: C1_2  and  C2_3 
ROOT
ATOM      1  C2  UNL d   1       0.519   0.556  -0.258  0.00  0.00    -0.076 A 
ATOM      2  C3  UNL d   1       0.962   0.073   0.986  0.00  0.00     0.004 A 
ATOM      3  C4  UNL d   1       0.674   0.757   2.165  0.00  0.00    -0.003 A 
ATOM      4  C5  UNL d   1      -0.063   1.936   2.120  0.00  0.00     0.000 A 
ATOM      5  C6  UNL d   1      -0.526   2.420   0.897  0.00  0.00     0.000 A 
ATOM      6  C7  UNL d   1      -0.258   1.733  -0.300  0.00  0.00    -0.073 A 
ATOM      7  C8  UNL d   1      -0.776   2.304  -1.591  0.00  0.00     0.078 C 
ENDROOT
BRANCH   1   8
ATOM      8  C1  UNL d   1       0.886  -0.215  -1.506  0.00  0.00     0.053 C 
ATOM      9  C   UNL d   1       0.998  -1.711  -1.255  0.00  0.00     0.018 C 
ENDBRANCH   1   8
TORSDOF 1
ENDMDL
