MODEL 1
REMARK minimizedAffinity 2.52592063
REMARK minimizedRMSD -1
REMARK  1 active torsions:
REMARK  status: ('A' for Active; 'I' for Inactive)
REMARK    1  A    between atoms: C1_2  and  C2_3 
ROOT
ATOM      1  C2  UNL d   1      -0.020  -2.740  -1.211  0.00  0.00    -0.076 A 
ATOM      2  C3  UNL d   1       1.155  -2.316  -0.566  0.00  0.00     0.004 A 
ATOM      3  C4  UNL d   1       1.505  -0.967  -0.527  0.00  0.00    -0.003 A 
ATOM      4  C5  UNL d   1       0.685  -0.021  -1.130  0.00  0.00     0.000 A 
ATOM      5  C6  UNL d   1      -0.494  -0.422  -1.759  0.00  0.00     0.000 A 
ATOM      6  C7  UNL d   1      -0.869  -1.775  -1.794  0.00  0.00    -0.073 A 
ATOM      7  C8  UNL d   1      -2.148  -2.152  -2.490  0.00  0.00     0.078 C 
ENDROOT
BRANCH   1   8
ATOM      8  C1  UNL d   1      -0.334  -4.219  -1.245  0.00  0.00     0.053 C 
ATOM      9  C   UNL d   1       0.552  -5.025  -0.308  0.00  0.00     0.018 C 
ENDBRANCH   1   8
TORSDOF 1
ENDMDL
