MODEL 1
REMARK minimizedAffinity -4.74895048
REMARK minimizedRMSD -1
REMARK  1 active torsions:
REMARK  status: ('A' for Active; 'I' for Inactive)
REMARK    1  A    between atoms: C1_2  and  C2_3 
ROOT
ATOM      1  C2  UNL d   1      -0.542   1.281  -0.245  0.00  0.00    -0.076 A 
ATOM      2  C3  UNL d   1      -0.661   1.045   1.136  0.00  0.00     0.004 A 
ATOM      3  C4  UNL d   1      -0.996   2.075   2.013  0.00  0.00    -0.003 A 
ATOM      4  C5  UNL d   1      -1.218   3.357   1.524  0.00  0.00     0.000 A 
ATOM      5  C6  UNL d   1      -1.122   3.606   0.155  0.00  0.00     0.000 A 
ATOM      6  C7  UNL d   1      -0.801   2.575  -0.745  0.00  0.00    -0.073 A 
ATOM      7  C8  UNL d   1      -0.705   2.900  -2.210  0.00  0.00     0.078 C 
ENDROOT
BRANCH   1   8
ATOM      8  C1  UNL d   1      -0.150   0.131  -1.145  0.00  0.00     0.053 C 
ATOM      9  C   UNL d   1       1.001  -0.686  -0.578  0.00  0.00     0.018 C 
ENDBRANCH   1   8
TORSDOF 1
ENDMDL
