MODEL 1
REMARK minimizedAffinity 1.13337243
REMARK minimizedRMSD -1
REMARK  1 active torsions:
REMARK  status: ('A' for Active; 'I' for Inactive)
REMARK    1  A    between atoms: C1_2  and  C2_3 
ROOT
ATOM      1  C2  UNL d   1      -0.162  -4.587  -1.524  0.00  0.00    -0.076 A 
ATOM      2  C3  UNL d   1      -0.299  -5.006  -2.858  0.00  0.00     0.004 A 
ATOM      3  C4  UNL d   1      -1.204  -4.383  -3.716  0.00  0.00    -0.003 A 
ATOM      4  C5  UNL d   1      -1.986  -3.331  -3.253  0.00  0.00     0.000 A 
ATOM      5  C6  UNL d   1      -1.851  -2.891  -1.937  0.00  0.00     0.000 A 
ATOM      6  C7  UNL d   1      -0.931  -3.497  -1.064  0.00  0.00    -0.073 A 
ATOM      7  C8  UNL d   1      -0.831  -2.986   0.348  0.00  0.00     0.078 C 
ENDROOT
BRANCH   1   8
ATOM      8  C1  UNL d   1       0.816  -5.318  -0.632  0.00  0.00     0.053 C 
ATOM      9  C   UNL d   1       2.249  -4.847  -0.829  0.00  0.00     0.018 C 
ENDBRANCH   1   8
TORSDOF 1
ENDMDL
