MODEL 1
REMARK minimizedAffinity 14.4033604
REMARK minimizedRMSD -1
REMARK  1 active torsions:
REMARK  status: ('A' for Active; 'I' for Inactive)
REMARK    1  A    between atoms: C1_2  and  C2_3 
ROOT
ATOM      1  C2  UNL d   1       3.333   2.239  -0.922  0.00  0.00    -0.081 A 
ATOM      2  C3  UNL d   1       2.579   1.669  -1.956  0.00  0.00     0.006 A 
ATOM      3  C4  UNL d   1       2.887   1.942  -3.290  0.00  0.00     0.002 A 
ATOM      4  C5  UNL d   1       3.958   2.783  -3.614  0.00  0.00    -0.080 A 
ATOM      5  C6  UNL d   1       4.318   3.060  -5.043  0.00  0.00     0.076 C 
ATOM      6  C7  UNL d   1       4.700   3.366  -2.582  0.00  0.00     0.002 A 
ATOM      7  C8  UNL d   1       4.392   3.093  -1.247  0.00  0.00     0.006 A 
ENDROOT
BRANCH   1   8
ATOM      8  C1  UNL d   1       3.044   1.894   0.517  0.00  0.00     0.054 C 
ATOM      9  C   UNL d   1       2.284   0.581   0.630  0.00  0.00     0.018 C 
ENDBRANCH   1   8
TORSDOF 1
ENDMDL
