MODEL 1
REMARK minimizedAffinity 15.1225929
REMARK minimizedRMSD -1
REMARK  1 active torsions:
REMARK  status: ('A' for Active; 'I' for Inactive)
REMARK    1  A    between atoms: C1_2  and  C2_3 
ROOT
ATOM      1  C2  UNL d   1      -0.342  -1.217   3.263  0.00  0.00    -0.081 A 
ATOM      2  C3  UNL d   1      -1.347  -0.793   2.385  0.00  0.00     0.006 A 
ATOM      3  C4  UNL d   1      -1.646  -1.535   1.240  0.00  0.00     0.002 A 
ATOM      4  C5  UNL d   1      -0.952  -2.716   0.958  0.00  0.00    -0.080 A 
ATOM      5  C6  UNL d   1      -1.284  -3.538  -0.252  0.00  0.00     0.076 C 
ATOM      6  C7  UNL d   1       0.064  -3.131   1.826  0.00  0.00     0.002 A 
ATOM      7  C8  UNL d   1       0.364  -2.389   2.971  0.00  0.00     0.006 A 
ENDROOT
BRANCH   1   8
ATOM      8  C1  UNL d   1      -0.061  -0.454   4.533  0.00  0.00     0.054 C 
ATOM      9  C   UNL d   1      -1.313  -0.322   5.387  0.00  0.00     0.018 C 
ENDBRANCH   1   8
TORSDOF 1
ENDMDL
