MODEL 1
REMARK minimizedAffinity 3.74370933
REMARK minimizedRMSD -1
REMARK  1 active torsions:
REMARK  status: ('A' for Active; 'I' for Inactive)
REMARK    1  A    between atoms: C1_2  and  C2_3 
ROOT
ATOM      1  C2  UNL d   1       1.373   5.048  -3.561  0.00  0.00    -0.081 A 
ATOM      2  C3  UNL d   1       2.081   6.000  -2.818  0.00  0.00     0.006 A 
ATOM      3  C4  UNL d   1       3.346   5.701  -2.305  0.00  0.00     0.002 A 
ATOM      4  C5  UNL d   1       3.927   4.449  -2.534  0.00  0.00    -0.080 A 
ATOM      5  C6  UNL d   1       5.297   4.126  -2.016  0.00  0.00     0.076 C 
ATOM      6  C7  UNL d   1       3.212   3.492  -3.262  0.00  0.00     0.002 A 
ATOM      7  C8  UNL d   1       1.947   3.790  -3.774  0.00  0.00     0.006 A 
ENDROOT
BRANCH   1   8
ATOM      8  C1  UNL d   1       0.037   5.389  -4.169  0.00  0.00     0.054 C 
ATOM      9  C   UNL d   1      -0.070   4.871  -5.596  0.00  0.00     0.018 C 
ENDBRANCH   1   8
TORSDOF 1
ENDMDL
