MODEL 1
REMARK minimizedAffinity 10.5146999
REMARK minimizedRMSD -1
REMARK  1 active torsions:
REMARK  status: ('A' for Active; 'I' for Inactive)
REMARK    1  A    between atoms: C1_2  and  C2_3 
ROOT
ATOM      1  C2  UNL d   1       0.285  -2.687   1.264  0.00  0.00    -0.081 A 
ATOM      2  C3  UNL d   1       1.158  -2.398   2.319  0.00  0.00     0.006 A 
ATOM      3  C4  UNL d   1       0.769  -1.530   3.342  0.00  0.00     0.002 A 
ATOM      4  C5  UNL d   1      -0.501  -0.944   3.332  0.00  0.00    -0.080 A 
ATOM      5  C6  UNL d   1      -0.942  -0.035   4.440  0.00  0.00     0.076 C 
ATOM      6  C7  UNL d   1      -1.367  -1.220   2.268  0.00  0.00     0.002 A 
ATOM      7  C8  UNL d   1      -0.979  -2.087   1.245  0.00  0.00     0.006 A 
ENDROOT
BRANCH   1   8
ATOM      8  C1  UNL d   1       0.677  -3.673   0.193  0.00  0.00     0.054 C 
ATOM      9  C   UNL d   1       2.190  -3.765   0.053  0.00  0.00     0.018 C 
ENDBRANCH   1   8
TORSDOF 1
ENDMDL
