MODEL 1
REMARK minimizedAffinity 18.6204796
REMARK minimizedRMSD -1
REMARK  1 active torsions:
REMARK  status: ('A' for Active; 'I' for Inactive)
REMARK    1  A    between atoms: C1_2  and  C2_3 
ROOT
ATOM      1  C2  UNL d   1       1.146  -0.135   1.151  0.00  0.00    -0.081 A 
ATOM      2  C3  UNL d   1       2.168  -0.651   1.958  0.00  0.00     0.006 A 
ATOM      3  C4  UNL d   1       1.911  -1.704   2.838  0.00  0.00     0.002 A 
ATOM      4  C5  UNL d   1       0.631  -2.264   2.921  0.00  0.00    -0.080 A 
ATOM      5  C6  UNL d   1       0.349  -3.415   3.841  0.00  0.00     0.076 C 
ATOM      6  C7  UNL d   1      -0.394  -1.737   2.128  0.00  0.00     0.002 A 
ATOM      7  C8  UNL d   1      -0.138  -0.683   1.248  0.00  0.00     0.006 A 
ENDROOT
BRANCH   1   8
ATOM      8  C1  UNL d   1       1.435   0.958   0.153  0.00  0.00     0.054 C 
ATOM      9  C   UNL d   1       2.827   1.539   0.357  0.00  0.00     0.018 C 
ENDBRANCH   1   8
TORSDOF 1
ENDMDL
