MODEL 1
REMARK minimizedAffinity 14.9579554
REMARK minimizedRMSD -1
REMARK  1 active torsions:
REMARK  status: ('A' for Active; 'I' for Inactive)
REMARK    1  A    between atoms: C1_2  and  C2_3 
ROOT
ATOM      1  C2  UNL d   1      -0.811  -0.767   4.043  0.00  0.00    -0.081 A 
ATOM      2  C3  UNL d   1      -1.189  -0.812   2.695  0.00  0.00     0.006 A 
ATOM      3  C4  UNL d   1      -0.480  -1.603   1.788  0.00  0.00     0.002 A 
ATOM      4  C5  UNL d   1       0.611  -2.367   2.213  0.00  0.00    -0.080 A 
ATOM      5  C6  UNL d   1       1.361  -3.244   1.255  0.00  0.00     0.076 C 
ATOM      6  C7  UNL d   1       0.999  -2.309   3.556  0.00  0.00     0.002 A 
ATOM      7  C8  UNL d   1       0.292  -1.518   4.464  0.00  0.00     0.006 A 
ENDROOT
BRANCH   1   8
ATOM      8  C1  UNL d   1      -1.612   0.035   5.037  0.00  0.00     0.054 C 
ATOM      9  C   UNL d   1      -2.819   0.687   4.378  0.00  0.00     0.018 C 
ENDBRANCH   1   8
TORSDOF 1
ENDMDL
