MODEL 1
REMARK minimizedAffinity 8.27852249
REMARK minimizedRMSD -1
REMARK  1 active torsions:
REMARK  status: ('A' for Active; 'I' for Inactive)
REMARK    1  A    between atoms: C1_2  and  C2_3 
ROOT
ATOM      1  C2  UNL d   1      -0.880  -1.924   1.782  0.00  0.00    -0.081 A 
ATOM      2  C3  UNL d   1      -0.645  -1.120   2.905  0.00  0.00     0.006 A 
ATOM      3  C4  UNL d   1       0.493  -1.316   3.691  0.00  0.00     0.002 A 
ATOM      4  C5  UNL d   1       1.419  -2.312   3.364  0.00  0.00    -0.080 A 
ATOM      5  C6  UNL d   1       2.660  -2.513   4.182  0.00  0.00     0.076 C 
ATOM      6  C7  UNL d   1       1.176  -3.127   2.253  0.00  0.00     0.002 A 
ATOM      7  C8  UNL d   1       0.038  -2.932   1.467  0.00  0.00     0.006 A 
ENDROOT
BRANCH   1   8
ATOM      8  C1  UNL d   1      -2.073  -1.674   0.896  0.00  0.00     0.054 C 
ATOM      9  C   UNL d   1      -2.981  -2.893   0.832  0.00  0.00     0.018 C 
ENDBRANCH   1   8
TORSDOF 1
ENDMDL
