MODEL 1
REMARK minimizedAffinity 13.4528608
REMARK minimizedRMSD -1
REMARK  1 active torsions:
REMARK  status: ('A' for Active; 'I' for Inactive)
REMARK    1  A    between atoms: C1_2  and  C2_3 
ROOT
ATOM      1  C2  UNL d   1      -0.506  -1.719   1.443  0.00  0.00    -0.081 A 
ATOM      2  C3  UNL d   1      -1.535  -2.384   0.766  0.00  0.00     0.006 A 
ATOM      3  C4  UNL d   1      -2.715  -1.712   0.436  0.00  0.00     0.002 A 
ATOM      4  C5  UNL d   1      -2.881  -0.364   0.769  0.00  0.00    -0.080 A 
ATOM      5  C6  UNL d   1      -4.130   0.377   0.393  0.00  0.00     0.076 C 
ATOM      6  C7  UNL d   1      -1.859   0.296   1.461  0.00  0.00     0.002 A 
ATOM      7  C8  UNL d   1      -0.680  -0.376   1.792  0.00  0.00     0.006 A 
ENDROOT
BRANCH   1   8
ATOM      8  C1  UNL d   1       0.793  -2.423   1.743  0.00  0.00     0.054 C 
ATOM      9  C   UNL d   1       1.506  -1.787   2.929  0.00  0.00     0.018 C 
ENDBRANCH   1   8
TORSDOF 1
ENDMDL
