MODEL 1
REMARK minimizedAffinity 16.8534508
REMARK minimizedRMSD -1
REMARK  1 active torsions:
REMARK  status: ('A' for Active; 'I' for Inactive)
REMARK    1  A    between atoms: C1_2  and  C2_3 
ROOT
ATOM      1  C2  UNL d   1       0.196  -1.360   2.568  0.00  0.00    -0.081 A 
ATOM      2  C3  UNL d   1      -0.332  -1.971   1.423  0.00  0.00     0.006 A 
ATOM      3  C4  UNL d   1      -1.554  -1.549   0.895  0.00  0.00     0.002 A 
ATOM      4  C5  UNL d   1      -2.265  -0.505   1.497  0.00  0.00    -0.080 A 
ATOM      5  C6  UNL d   1      -3.564  -0.022   0.923  0.00  0.00     0.076 C 
ATOM      6  C7  UNL d   1      -1.747   0.093   2.651  0.00  0.00     0.002 A 
ATOM      7  C8  UNL d   1      -0.525  -0.329   3.180  0.00  0.00     0.006 A 
ENDROOT
BRANCH   1   8
ATOM      8  C1  UNL d   1       1.544  -1.770   3.102  0.00  0.00     0.054 C 
ATOM      9  C   UNL d   1       1.432  -2.975   4.024  0.00  0.00     0.018 C 
ENDBRANCH   1   8
TORSDOF 1
ENDMDL
