MODEL 1
REMARK minimizedAffinity 10.2743626
REMARK minimizedRMSD -1
REMARK  1 active torsions:
REMARK  status: ('A' for Active; 'I' for Inactive)
REMARK    1  A    between atoms: C1_2  and  C2_3 
ROOT
ATOM      1  C2  UNL d   1      -5.772  -4.104   4.601  0.00  0.00    -0.081 A 
ATOM      2  C3  UNL d   1      -5.999  -5.464   4.362  0.00  0.00     0.006 A 
ATOM      3  C4  UNL d   1      -5.865  -5.989   3.074  0.00  0.00     0.002 A 
ATOM      4  C5  UNL d   1      -5.495  -5.164   2.007  0.00  0.00    -0.080 A 
ATOM      5  C6  UNL d   1      -5.318  -5.720   0.625  0.00  0.00     0.076 C 
ATOM      6  C7  UNL d   1      -5.285  -3.801   2.242  0.00  0.00     0.002 A 
ATOM      7  C8  UNL d   1      -5.419  -3.276   3.530  0.00  0.00     0.006 A 
ENDROOT
BRANCH   1   8
ATOM      8  C1  UNL d   1      -5.853  -3.548   6.000  0.00  0.00     0.054 C 
ATOM      9  C   UNL d   1      -5.741  -2.030   5.999  0.00  0.00     0.018 C 
ENDBRANCH   1   8
TORSDOF 1
ENDMDL
