MODEL 1
REMARK minimizedAffinity 13.5385342
REMARK minimizedRMSD -1
REMARK  1 active torsions:
REMARK  status: ('A' for Active; 'I' for Inactive)
REMARK    1  A    between atoms: C1_2  and  C2_3 
ROOT
ATOM      1  C2  UNL d   1      -0.159   4.485  -5.233  0.00  0.00    -0.081 A 
ATOM      2  C3  UNL d   1      -0.014   3.093  -5.219  0.00  0.00     0.006 A 
ATOM      3  C4  UNL d   1       0.994   2.493  -4.461  0.00  0.00     0.002 A 
ATOM      4  C5  UNL d   1       1.868   3.274  -3.698  0.00  0.00    -0.080 A 
ATOM      5  C6  UNL d   1       2.935   2.641  -2.855  0.00  0.00     0.076 C 
ATOM      6  C7  UNL d   1       1.735   4.666  -3.725  0.00  0.00     0.002 A 
ATOM      7  C8  UNL d   1       0.728   5.267  -4.484  0.00  0.00     0.006 A 
ENDROOT
BRANCH   1   8
ATOM      8  C1  UNL d   1      -1.285   5.132  -5.999  0.00  0.00     0.054 C 
ATOM      9  C   UNL d   1      -2.549   5.219  -5.155  0.00  0.00     0.018 C 
ENDBRANCH   1   8
TORSDOF 1
ENDMDL
