MODEL 1
REMARK minimizedAffinity 18.3797817
REMARK minimizedRMSD -1
REMARK  1 active torsions:
REMARK  status: ('A' for Active; 'I' for Inactive)
REMARK    1  A    between atoms: C1_2  and  C2_3 
ROOT
ATOM      1  C2  UNL d   1      -0.238   5.276  -5.200  0.00  0.00    -0.081 A 
ATOM      2  C3  UNL d   1      -0.240   3.879  -5.110  0.00  0.00     0.006 A 
ATOM      3  C4  UNL d   1       0.704   3.218  -4.320  0.00  0.00     0.002 A 
ATOM      4  C5  UNL d   1       1.660   3.943  -3.601  0.00  0.00    -0.080 A 
ATOM      5  C6  UNL d   1       2.660   3.248  -2.726  0.00  0.00     0.076 C 
ATOM      6  C7  UNL d   1       1.673   5.339  -3.704  0.00  0.00     0.002 A 
ATOM      7  C8  UNL d   1       0.730   6.000  -4.494  0.00  0.00     0.006 A 
ENDROOT
BRANCH   1   8
ATOM      8  C1  UNL d   1      -1.295   5.995  -5.999  0.00  0.00     0.054 C 
ATOM      9  C   UNL d   1      -2.624   5.256  -5.949  0.00  0.00     0.018 C 
ENDBRANCH   1   8
TORSDOF 1
ENDMDL
