MODEL 1
REMARK minimizedAffinity 6.55239248
REMARK minimizedRMSD -1
REMARK  1 active torsions:
REMARK  status: ('A' for Active; 'I' for Inactive)
REMARK    1  A    between atoms: C1_2  and  C2_3 
ROOT
ATOM      1  C2  UNL d   1      -0.386   5.081  -4.882  0.00  0.00    -0.081 A 
ATOM      2  C3  UNL d   1       0.276   5.572  -3.750  0.00  0.00     0.006 A 
ATOM      3  C4  UNL d   1       1.093   4.733  -2.989  0.00  0.00     0.002 A 
ATOM      4  C5  UNL d   1       1.268   3.393  -3.351  0.00  0.00    -0.080 A 
ATOM      5  C6  UNL d   1       2.167   2.490  -2.559  0.00  0.00     0.076 C 
ATOM      6  C7  UNL d   1       0.593   2.898  -4.472  0.00  0.00     0.002 A 
ATOM      7  C8  UNL d   1      -0.224   3.737  -5.233  0.00  0.00     0.006 A 
ENDROOT
BRANCH   1   8
ATOM      8  C1  UNL d   1      -1.216   6.000  -5.743  0.00  0.00     0.054 C 
ATOM      9  C   UNL d   1      -2.696   5.656  -5.650  0.00  0.00     0.018 C 
ENDBRANCH   1   8
TORSDOF 1
ENDMDL
