MODEL 1
REMARK minimizedAffinity 11.9774408
REMARK minimizedRMSD -1
REMARK  0 active torsions:
REMARK  status: ('A' for Active; 'I' for Inactive)
ROOT
ATOM      1  C   UNL d   1      -2.601  -5.162  -5.771  0.00  0.00    -0.002 A 
ATOM      2  C1  UNL d   1      -1.938  -5.870  -4.779  0.00  0.00     0.010 A 
ATOM      3  C2  UNL d   1      -0.961  -5.252  -3.997  0.00  0.00     0.041 A 
ATOM      4  C3  UNL d   1      -0.658  -3.896  -4.230  0.00  0.00    -0.075 A 
ATOM      5  S   UNL d   1       0.501  -2.931  -3.396  0.00  0.00     0.015 SA
ATOM      6  C4  UNL d   1       0.144  -1.555  -4.337  0.00  0.00     0.022 A 
ATOM      7  C5  UNL d   1      -0.833  -1.808  -5.270  0.00  0.00     0.026 A 
ATOM      8  C6  UNL d   1      -1.313  -3.161  -5.223  0.00  0.00    -0.082 A 
ATOM      9  C7  UNL d   1      -2.298  -3.817  -6.000  0.00  0.00     0.045 A 
ENDROOT
TORSDOF 0
ENDMDL
