MODEL 1
REMARK minimizedAffinity 15.0313034
REMARK minimizedRMSD -1
REMARK  0 active torsions:
REMARK  status: ('A' for Active; 'I' for Inactive)
ROOT
ATOM      1  C   UNL d   1      -3.435   0.946  -4.230  0.00  0.00    -0.002 A 
ATOM      2  C1  UNL d   1      -3.771   1.153  -5.561  0.00  0.00     0.010 A 
ATOM      3  C2  UNL d   1      -4.196   2.408  -5.999  0.00  0.00     0.041 A 
ATOM      4  C3  UNL d   1      -4.276   3.464  -5.070  0.00  0.00    -0.075 A 
ATOM      5  S   UNL d   1      -4.770   5.086  -5.379  0.00  0.00     0.015 SA
ATOM      6  C4  UNL d   1      -4.545   5.544  -3.753  0.00  0.00     0.022 A 
ATOM      7  C5  UNL d   1      -4.104   4.497  -2.979  0.00  0.00     0.026 A 
ATOM      8  C6  UNL d   1      -3.942   3.281  -3.725  0.00  0.00    -0.082 A 
ATOM      9  C7  UNL d   1      -3.515   1.996  -3.311  0.00  0.00     0.045 A 
ENDROOT
TORSDOF 0
ENDMDL
