MODEL 1
REMARK minimizedAffinity -5.87607574
REMARK minimizedRMSD -1
REMARK  0 active torsions:
REMARK  status: ('A' for Active; 'I' for Inactive)
ROOT
ATOM      1  C   UNL d   1      -0.664   0.583  -0.433  0.00  0.00     0.078 C 
ATOM      2  C1  UNL d   1      -0.066  -0.498   0.418  0.00  0.00    -0.077 A 
ATOM      3  C2  UNL d   1      -0.779  -1.049   1.489  0.00  0.00    -0.001 A 
ATOM      4  C3  UNL d   1      -0.207  -2.048   2.279  0.00  0.00     0.003 A 
ATOM      5  C4  UNL d   1       1.081  -2.504   2.006  0.00  0.00    -0.005 A 
ATOM      6  C5  UNL d   1       1.799  -1.960   0.943  0.00  0.00     0.003 A 
ATOM      7  C6  UNL d   1       1.229  -0.961   0.152  0.00  0.00    -0.001 A 
ENDROOT
TORSDOF 0
ENDMDL
