MODEL 1
REMARK minimizedAffinity -5.13887024
REMARK minimizedRMSD -1
REMARK  0 active torsions:
REMARK  status: ('A' for Active; 'I' for Inactive)
ROOT
ATOM      1  C   UNL d   1      -0.514   0.583  -0.168  0.00  0.00     0.078 C 
ATOM      2  C1  UNL d   1       0.021  -0.568   0.631  0.00  0.00    -0.077 A 
ATOM      3  C2  UNL d   1      -0.740  -1.155   1.649  0.00  0.00    -0.001 A 
ATOM      4  C3  UNL d   1      -0.226  -2.219   2.391  0.00  0.00     0.003 A 
ATOM      5  C4  UNL d   1       1.053  -2.705   2.124  0.00  0.00    -0.005 A 
ATOM      6  C5  UNL d   1       1.819  -2.125   1.115  0.00  0.00     0.003 A 
ATOM      7  C6  UNL d   1       1.306  -1.061   0.372  0.00  0.00    -0.001 A 
ENDROOT
TORSDOF 0
ENDMDL
