MODEL 1
REMARK minimizedAffinity -5.65873814
REMARK minimizedRMSD -1
REMARK  0 active torsions:
REMARK  status: ('A' for Active; 'I' for Inactive)
ROOT
ATOM      1  C   UNL d   1      -0.772   1.045  -0.289  0.00  0.00     0.078 C 
ATOM      2  C1  UNL d   1      -0.152  -0.133   0.401  0.00  0.00    -0.077 A 
ATOM      3  C2  UNL d   1       1.152  -0.544   0.096  0.00  0.00    -0.001 A 
ATOM      4  C3  UNL d   1       1.713  -1.648   0.739  0.00  0.00     0.003 A 
ATOM      5  C4  UNL d   1       0.977  -2.352   1.691  0.00  0.00    -0.005 A 
ATOM      6  C5  UNL d   1      -0.321  -1.952   1.999  0.00  0.00     0.003 A 
ATOM      7  C6  UNL d   1      -0.884  -0.848   1.357  0.00  0.00    -0.001 A 
ENDROOT
TORSDOF 0
ENDMDL
