MODEL 1
REMARK minimizedAffinity -3.63410711
REMARK minimizedRMSD -1
REMARK  0 active torsions:
REMARK  status: ('A' for Active; 'I' for Inactive)
ROOT
ATOM      1  C   UNL d   1      -0.899   0.596   0.037  0.00  0.00     0.078 C 
ATOM      2  C1  UNL d   1      -0.566  -0.575   0.913  0.00  0.00    -0.077 A 
ATOM      3  C2  UNL d   1      -1.321  -0.857   2.058  0.00  0.00    -0.001 A 
ATOM      4  C3  UNL d   1      -0.994  -1.944   2.869  0.00  0.00     0.003 A 
ATOM      5  C4  UNL d   1       0.090  -2.758   2.545  0.00  0.00    -0.005 A 
ATOM      6  C5  UNL d   1       0.848  -2.484   1.409  0.00  0.00     0.003 A 
ATOM      7  C6  UNL d   1       0.523  -1.397   0.596  0.00  0.00    -0.001 A 
ENDROOT
TORSDOF 0
ENDMDL
