MODEL 1
REMARK minimizedAffinity -5.60623932
REMARK minimizedRMSD -1
REMARK  0 active torsions:
REMARK  status: ('A' for Active; 'I' for Inactive)
ROOT
ATOM      1  C   UNL d   1       0.880  -3.005   1.470  0.00  0.00     0.078 C 
ATOM      2  C1  UNL d   1       0.713  -1.647   0.855  0.00  0.00    -0.077 A 
ATOM      3  C2  UNL d   1       1.787  -1.001   0.231  0.00  0.00    -0.001 A 
ATOM      4  C3  UNL d   1       1.619   0.266  -0.329  0.00  0.00     0.003 A 
ATOM      5  C4  UNL d   1       0.379   0.899  -0.269  0.00  0.00    -0.005 A 
ATOM      6  C5  UNL d   1      -0.695   0.265   0.352  0.00  0.00     0.003 A 
ATOM      7  C6  UNL d   1      -0.529  -1.003   0.912  0.00  0.00    -0.001 A 
ENDROOT
TORSDOF 0
ENDMDL
