MODEL 1
REMARK minimizedAffinity -5.0750947
REMARK minimizedRMSD -1
REMARK  0 active torsions:
REMARK  status: ('A' for Active; 'I' for Inactive)
ROOT
ATOM      1  C   UNL d   1      -0.616   1.280  -0.111  0.00  0.00     0.078 C 
ATOM      2  C1  UNL d   1       0.110  -0.004   0.160  0.00  0.00    -0.077 A 
ATOM      3  C2  UNL d   1       1.429  -0.191  -0.270  0.00  0.00    -0.001 A 
ATOM      4  C3  UNL d   1       2.089  -1.395  -0.019  0.00  0.00     0.003 A 
ATOM      5  C4  UNL d   1       1.437  -2.422   0.661  0.00  0.00    -0.005 A 
ATOM      6  C5  UNL d   1       0.124  -2.245   1.090  0.00  0.00     0.003 A 
ATOM      7  C6  UNL d   1      -0.538  -1.042   0.841  0.00  0.00    -0.001 A 
ENDROOT
TORSDOF 0
ENDMDL
