MODEL 1
REMARK minimizedAffinity -5.36424446
REMARK minimizedRMSD -1
REMARK  0 active torsions:
REMARK  status: ('A' for Active; 'I' for Inactive)
ROOT
ATOM      1  C   UNL d   1      -0.450   0.982  -0.556  0.00  0.00     0.078 C 
ATOM      2  C1  UNL d   1       0.251  -0.230  -0.020  0.00  0.00    -0.077 A 
ATOM      3  C2  UNL d   1       1.520  -0.594  -0.486  0.00  0.00    -0.001 A 
ATOM      4  C3  UNL d   1       2.158  -1.730   0.016  0.00  0.00     0.003 A 
ATOM      5  C4  UNL d   1       1.532  -2.512   0.985  0.00  0.00    -0.005 A 
ATOM      6  C5  UNL d   1       0.268  -2.160   1.453  0.00  0.00     0.003 A 
ATOM      7  C6  UNL d   1      -0.370  -1.024   0.952  0.00  0.00    -0.001 A 
ENDROOT
TORSDOF 0
ENDMDL
