MODEL 1
REMARK minimizedAffinity -5.99056768
REMARK minimizedRMSD -1
REMARK  0 active torsions:
REMARK  status: ('A' for Active; 'I' for Inactive)
ROOT
ATOM      1  C   UNL d   1      -0.587   0.556   0.075  0.00  0.00     0.078 C 
ATOM      2  C1  UNL d   1      -0.076  -0.668   0.774  0.00  0.00    -0.077 A 
ATOM      3  C2  UNL d   1      -0.683  -1.136   1.946  0.00  0.00    -0.001 A 
ATOM      4  C3  UNL d   1      -0.191  -2.271   2.592  0.00  0.00     0.003 A 
ATOM      5  C4  UNL d   1       0.912  -2.947   2.074  0.00  0.00    -0.005 A 
ATOM      6  C5  UNL d   1       1.524  -2.489   0.910  0.00  0.00     0.003 A 
ATOM      7  C6  UNL d   1       1.033  -1.354   0.262  0.00  0.00    -0.001 A 
ENDROOT
TORSDOF 0
ENDMDL
