MODEL 1
REMARK minimizedAffinity -5.0453968
REMARK minimizedRMSD -1
REMARK  0 active torsions:
REMARK  status: ('A' for Active; 'I' for Inactive)
ROOT
ATOM      1  C   UNL d   1      -1.812  -1.499   3.343  0.00  0.00     0.078 C 
ATOM      2  C1  UNL d   1      -0.638  -1.542   2.410  0.00  0.00    -0.077 A 
ATOM      3  C2  UNL d   1      -0.648  -0.827   1.206  0.00  0.00    -0.001 A 
ATOM      4  C3  UNL d   1       0.448  -0.885   0.343  0.00  0.00     0.003 A 
ATOM      5  C4  UNL d   1       1.560  -1.656   0.674  0.00  0.00    -0.005 A 
ATOM      6  C5  UNL d   1       1.578  -2.372   1.869  0.00  0.00     0.003 A 
ATOM      7  C6  UNL d   1       0.483  -2.316   2.734  0.00  0.00    -0.001 A 
ENDROOT
TORSDOF 0
ENDMDL
