MODEL 1
REMARK minimizedAffinity -5.75752831
REMARK minimizedRMSD -1
REMARK  0 active torsions:
REMARK  status: ('A' for Active; 'I' for Inactive)
ROOT
ATOM      1  C   UNL d   1      -0.627   0.620   0.152  0.00  0.00     0.078 C 
ATOM      2  C1  UNL d   1       0.109  -0.619   0.566  0.00  0.00    -0.077 A 
ATOM      3  C2  UNL d   1      -0.281  -1.345   1.698  0.00  0.00    -0.001 A 
ATOM      4  C3  UNL d   1       0.419  -2.492   2.078  0.00  0.00     0.003 A 
ATOM      5  C4  UNL d   1       1.515  -2.921   1.332  0.00  0.00    -0.005 A 
ATOM      6  C5  UNL d   1       1.912  -2.204   0.205  0.00  0.00     0.003 A 
ATOM      7  C6  UNL d   1       1.213  -1.057  -0.176  0.00  0.00    -0.001 A 
ENDROOT
TORSDOF 0
ENDMDL
