MODEL 1
REMARK minimizedAffinity -4.80792904
REMARK minimizedRMSD -1
REMARK  0 active torsions:
REMARK  status: ('A' for Active; 'I' for Inactive)
ROOT
ATOM      1  C   UNL d   1      -0.446   0.807  -0.165  0.00  0.00     0.078 C 
ATOM      2  C1  UNL d   1       0.143  -0.417   0.471  0.00  0.00    -0.077 A 
ATOM      3  C2  UNL d   1       1.354  -0.954   0.018  0.00  0.00    -0.001 A 
ATOM      4  C3  UNL d   1       1.885  -2.099   0.613  0.00  0.00     0.003 A 
ATOM      5  C4  UNL d   1       1.212  -2.718   1.663  0.00  0.00    -0.005 A 
ATOM      6  C5  UNL d   1       0.005  -2.193   2.120  0.00  0.00     0.003 A 
ATOM      7  C6  UNL d   1      -0.528  -1.048   1.526  0.00  0.00    -0.001 A 
ENDROOT
TORSDOF 0
ENDMDL
