MODEL 1
REMARK minimizedAffinity -5.87332058
REMARK minimizedRMSD -1
REMARK  0 active torsions:
REMARK  status: ('A' for Active; 'I' for Inactive)
ROOT
ATOM      1  C   UNL d   1      -0.574   0.605   0.059  0.00  0.00     0.078 C 
ATOM      2  C1  UNL d   1       0.101  -0.566   0.709  0.00  0.00    -0.077 A 
ATOM      3  C2  UNL d   1      -0.540  -1.300   1.715  0.00  0.00    -0.001 A 
ATOM      4  C3  UNL d   1       0.104  -2.381   2.318  0.00  0.00     0.003 A 
ATOM      5  C4  UNL d   1       1.392  -2.737   1.924  0.00  0.00    -0.005 A 
ATOM      6  C5  UNL d   1       2.039  -2.011   0.926  0.00  0.00     0.003 A 
ATOM      7  C6  UNL d   1       1.396  -0.930   0.321  0.00  0.00    -0.001 A 
ENDROOT
TORSDOF 0
ENDMDL
