MODEL 1
REMARK minimizedAffinity -5.79464006
REMARK minimizedRMSD -1
REMARK  0 active torsions:
REMARK  status: ('A' for Active; 'I' for Inactive)
ROOT
ATOM      1  C   UNL d   1      -0.460   1.024  -0.016  0.00  0.00     0.078 C 
ATOM      2  C1  UNL d   1       0.123  -0.230   0.563  0.00  0.00    -0.077 A 
ATOM      3  C2  UNL d   1       1.324  -0.760   0.074  0.00  0.00    -0.001 A 
ATOM      4  C3  UNL d   1       1.850  -1.934   0.616  0.00  0.00     0.003 A 
ATOM      5  C4  UNL d   1       1.181  -2.589   1.648  0.00  0.00    -0.005 A 
ATOM      6  C5  UNL d   1      -0.015  -2.071   2.140  0.00  0.00     0.003 A 
ATOM      7  C6  UNL d   1      -0.543  -0.897   1.599  0.00  0.00    -0.001 A 
ENDROOT
TORSDOF 0
ENDMDL
