MODEL 1
REMARK minimizedAffinity -5.51919889
REMARK minimizedRMSD -1
REMARK  0 active torsions:
REMARK  status: ('A' for Active; 'I' for Inactive)
ROOT
ATOM      1  C   UNL d   1      -0.687   0.912  -0.538  0.00  0.00     0.078 C 
ATOM      2  C1  UNL d   1       0.130  -0.239  -0.031  0.00  0.00    -0.077 A 
ATOM      3  C2  UNL d   1       1.420  -0.478  -0.521  0.00  0.00    -0.001 A 
ATOM      4  C3  UNL d   1       2.166  -1.559  -0.047  0.00  0.00     0.003 A 
ATOM      5  C4  UNL d   1       1.630  -2.410   0.917  0.00  0.00    -0.005 A 
ATOM      6  C5  UNL d   1       0.346  -2.181   1.409  0.00  0.00     0.003 A 
ATOM      7  C6  UNL d   1      -0.401  -1.101   0.936  0.00  0.00    -0.001 A 
ENDROOT
TORSDOF 0
ENDMDL
