MODEL 1
REMARK minimizedAffinity -4.0930171
REMARK minimizedRMSD -1
REMARK  0 active torsions:
REMARK  status: ('A' for Active; 'I' for Inactive)
ROOT
ATOM      1  C   UNL d   1      -0.922   0.197  -0.079  0.00  0.00     0.078 C 
ATOM      2  C1  UNL d   1      -0.220  -0.882   0.690  0.00  0.00    -0.077 A 
ATOM      3  C2  UNL d   1      -0.727  -1.346   1.910  0.00  0.00    -0.001 A 
ATOM      4  C3  UNL d   1      -0.058  -2.344   2.619  0.00  0.00     0.003 A 
ATOM      5  C4  UNL d   1       1.123  -2.887   2.117  0.00  0.00    -0.005 A 
ATOM      6  C5  UNL d   1       1.637  -2.431   0.904  0.00  0.00     0.003 A 
ATOM      7  C6  UNL d   1       0.969  -1.432   0.194  0.00  0.00    -0.001 A 
ENDROOT
TORSDOF 0
ENDMDL
