MODEL 1
REMARK minimizedAffinity -5.53474283
REMARK minimizedRMSD -1
REMARK  0 active torsions:
REMARK  status: ('A' for Active; 'I' for Inactive)
ROOT
ATOM      1  C   UNL d   1      -0.124   0.484  -0.289  0.00  0.00     0.078 C 
ATOM      2  C1  UNL d   1       0.357  -0.686   0.517  0.00  0.00    -0.077 A 
ATOM      3  C2  UNL d   1      -0.405  -1.194   1.576  0.00  0.00    -0.001 A 
ATOM      4  C3  UNL d   1       0.059  -2.278   2.323  0.00  0.00     0.003 A 
ATOM      5  C4  UNL d   1       1.288  -2.861   2.021  0.00  0.00    -0.005 A 
ATOM      6  C5  UNL d   1       2.055  -2.360   0.970  0.00  0.00     0.003 A 
ATOM      7  C6  UNL d   1       1.592  -1.277   0.222  0.00  0.00    -0.001 A 
ENDROOT
TORSDOF 0
ENDMDL
