MODEL 1
REMARK minimizedAffinity 1.30896759
REMARK minimizedRMSD -1
REMARK  0 active torsions:
REMARK  status: ('A' for Active; 'I' for Inactive)
ROOT
ATOM      1  N1  IND d   1      -0.639   2.249  -0.586  0.00  0.00    -0.196 N 
ATOM      2  C2  IND d   1      -0.741   2.422  -1.938  0.00  0.00     0.054 A 
ATOM      3  C3  IND d   1      -0.068   1.448  -2.590  0.00  0.00    -0.031 A 
ATOM      4  C4  IND d   1       1.187  -0.590  -1.639  0.00  0.00     0.051 A 
ATOM      5  C5  IND d   1       1.585  -1.156  -0.461  0.00  0.00    -0.031 A 
ATOM      6  C6  IND d   1       1.253  -0.606   0.761  0.00  0.00     0.015 A 
ATOM      7  C7  IND d   1       0.498   0.529   0.850  0.00  0.00    -0.016 A 
ATOM      8  C8  IND d   1       0.097   1.110  -0.345  0.00  0.00    -0.047 A 
ATOM      9  C9  IND d   1       0.467   0.581  -1.588  0.00  0.00    -0.096 A 
ATOM     10  HN1 IND d   1      -0.978   2.764   0.013  0.00  0.00     0.298 HD
ENDROOT
TORSDOF 0
ENDMDL
