MODEL 1
REMARK minimizedAffinity -3.25881767
REMARK minimizedRMSD -1
REMARK  0 active torsions:
REMARK  status: ('A' for Active; 'I' for Inactive)
ROOT
ATOM      1  N1  IND d   1       1.113   0.481  -0.245  0.00  0.00    -0.196 N 
ATOM      2  C2  IND d   1      -0.098   0.860  -0.753  0.00  0.00     0.054 A 
ATOM      3  C3  IND d   1      -1.098   0.456   0.062  0.00  0.00    -0.031 A 
ATOM      4  C4  IND d   1      -0.970  -0.751   2.332  0.00  0.00     0.051 A 
ATOM      5  C5  IND d   1      -0.084  -1.338   3.192  0.00  0.00    -0.031 A 
ATOM      6  C6  IND d   1       1.274  -1.346   2.946  0.00  0.00     0.015 A 
ATOM      7  C7  IND d   1       1.800  -0.755   1.832  0.00  0.00    -0.016 A 
ATOM      8  C8  IND d   1       0.903  -0.165   0.954  0.00  0.00    -0.047 A 
ATOM      9  C9  IND d   1      -0.480  -0.191   1.176  0.00  0.00    -0.096 A 
ATOM     10  HN1 IND d   1       1.878   0.621  -0.612  0.00  0.00     0.298 HD
ENDROOT
TORSDOF 0
ENDMDL
