MODEL 1
REMARK minimizedAffinity 0.10958755
REMARK minimizedRMSD -1
REMARK  0 active torsions:
REMARK  status: ('A' for Active; 'I' for Inactive)
ROOT
ATOM      1  N1  IND d   1      -0.334   0.474  -1.535  0.00  0.00    -0.196 N 
ATOM      2  C2  IND d   1      -0.877   1.376  -0.664  0.00  0.00     0.054 A 
ATOM      3  C3  IND d   1      -0.161   1.412   0.483  0.00  0.00    -0.031 A 
ATOM      4  C4  IND d   1       1.996   0.150   1.104  0.00  0.00     0.051 A 
ATOM      5  C5  IND d   1       2.850  -0.813   0.646  0.00  0.00    -0.031 A 
ATOM      6  C6  IND d   1       2.685  -1.406  -0.589  0.00  0.00     0.015 A 
ATOM      7  C7  IND d   1       1.661  -1.049  -1.420  0.00  0.00    -0.016 A 
ATOM      8  C8  IND d   1       0.788  -0.076  -0.955  0.00  0.00    -0.047 A 
ATOM      9  C9  IND d   1       0.925   0.499   0.315  0.00  0.00    -0.096 A 
ATOM     10  HN1 IND d   1      -0.642   0.282  -2.315  0.00  0.00     0.298 HD
ENDROOT
TORSDOF 0
ENDMDL
