MODEL 1
REMARK minimizedAffinity 2.82230902
REMARK minimizedRMSD -1
REMARK  0 active torsions:
REMARK  status: ('A' for Active; 'I' for Inactive)
ROOT
ATOM      1  N1  IND d   1      -0.747  -0.054   1.017  0.00  0.00    -0.196 N 
ATOM      2  C2  IND d   1      -0.322  -0.366   2.278  0.00  0.00     0.054 A 
ATOM      3  C3  IND d   1       0.917  -0.905   2.237  0.00  0.00    -0.031 A 
ATOM      4  C4  IND d   1       2.473  -1.276   0.220  0.00  0.00     0.051 A 
ATOM      5  C5  IND d   1       2.511  -1.182  -1.142  0.00  0.00    -0.031 A 
ATOM      6  C6  IND d   1       1.445  -0.695  -1.870  0.00  0.00     0.015 A 
ATOM      7  C7  IND d   1       0.299  -0.271  -1.258  0.00  0.00    -0.016 A 
ATOM      8  C8  IND d   1       0.254  -0.372   0.126  0.00  0.00    -0.047 A 
ATOM      9  C9  IND d   1       1.317  -0.905   0.866  0.00  0.00    -0.096 A 
ATOM     10  HN1 IND d   1      -1.512   0.283   0.814  0.00  0.00     0.298 HD
ENDROOT
TORSDOF 0
ENDMDL
