MODEL 1
REMARK minimizedAffinity 0.0995218828
REMARK minimizedRMSD -1
REMARK  0 active torsions:
REMARK  status: ('A' for Active; 'I' for Inactive)
ROOT
ATOM      1  N1  IND d   1       0.567  -2.350   2.935  0.00  0.00    -0.196 N 
ATOM      2  C2  IND d   1      -0.650  -2.783   3.383  0.00  0.00     0.054 A 
ATOM      3  C3  IND d   1      -1.646  -2.155   2.718  0.00  0.00    -0.031 A 
ATOM      4  C4  IND d   1      -1.508  -0.457   0.788  0.00  0.00     0.051 A 
ATOM      5  C5  IND d   1      -0.613   0.273   0.058  0.00  0.00    -0.031 A 
ATOM      6  C6  IND d   1       0.749   0.162   0.252  0.00  0.00     0.015 A 
ATOM      7  C7  IND d   1       1.269  -0.696   1.179  0.00  0.00    -0.016 A 
ATOM      8  C8  IND d   1       0.362  -1.434   1.927  0.00  0.00    -0.047 A 
ATOM      9  C9  IND d   1      -1.022  -1.294   1.764  0.00  0.00    -0.096 A 
ATOM     10  HN1 IND d   1       1.331  -2.607   3.233  0.00  0.00     0.298 HD
ENDROOT
TORSDOF 0
ENDMDL
