MODEL 1
REMARK minimizedAffinity -1.29077208
REMARK minimizedRMSD -1
REMARK  0 active torsions:
REMARK  status: ('A' for Active; 'I' for Inactive)
ROOT
ATOM      1  N1  IND d   1      -3.124  -1.573  -1.682  0.00  0.00    -0.196 N 
ATOM      2  C2  IND d   1      -4.159  -2.032  -0.916  0.00  0.00     0.054 A 
ATOM      3  C3  IND d   1      -3.969  -1.696   0.380  0.00  0.00    -0.031 A 
ATOM      4  C4  IND d   1      -2.085  -0.305   1.450  0.00  0.00     0.051 A 
ATOM      5  C5  IND d   1      -0.895   0.301   1.159  0.00  0.00    -0.031 A 
ATOM      6  C6  IND d   1      -0.379   0.316  -0.121  0.00  0.00     0.015 A 
ATOM      7  C7  IND d   1      -1.041  -0.267  -1.164  0.00  0.00    -0.016 A 
ATOM      8  C8  IND d   1      -2.246  -0.890  -0.870  0.00  0.00    -0.047 A 
ATOM      9  C9  IND d   1      -2.755  -0.945   0.434  0.00  0.00    -0.096 A 
ATOM     10  HN1 IND d   1      -3.037  -1.691  -2.530  0.00  0.00     0.298 HD
ENDROOT
TORSDOF 0
ENDMDL
