MODEL 1
REMARK minimizedAffinity -0.884215713
REMARK minimizedRMSD -1
REMARK  0 active torsions:
REMARK  status: ('A' for Active; 'I' for Inactive)
ROOT
ATOM      1  N1  IND d   1       1.764   2.799  -3.691  0.00  0.00    -0.196 N 
ATOM      2  C2  IND d   1       1.752   3.005  -5.043  0.00  0.00     0.054 A 
ATOM      3  C3  IND d   1       0.491   3.239  -5.471  0.00  0.00    -0.031 A 
ATOM      4  C4  IND d   1      -1.688   3.431  -4.113  0.00  0.00     0.051 A 
ATOM      5  C5  IND d   1      -2.186   3.284  -2.849  0.00  0.00    -0.031 A 
ATOM      6  C6  IND d   1      -1.376   2.964  -1.779  0.00  0.00     0.015 A 
ATOM      7  C7  IND d   1      -0.030   2.789  -1.932  0.00  0.00    -0.016 A 
ATOM      8  C8  IND d   1       0.478   2.931  -3.215  0.00  0.00    -0.047 A 
ATOM      9  C9  IND d   1      -0.345   3.214  -4.313  0.00  0.00    -0.096 A 
ATOM     10  HN1 IND d   1       2.459   2.617  -3.218  0.00  0.00     0.298 HD
ENDROOT
TORSDOF 0
ENDMDL
