MODEL 1
REMARK minimizedAffinity -1.82516062
REMARK minimizedRMSD -1
REMARK  0 active torsions:
REMARK  status: ('A' for Active; 'I' for Inactive)
ROOT
ATOM      1  N1  IND d   1       0.368  -1.353  -1.921  0.00  0.00    -0.196 N 
ATOM      2  C2  IND d   1      -0.874  -0.794  -2.030  0.00  0.00     0.054 A 
ATOM      3  C3  IND d   1      -1.131  -0.007  -0.962  0.00  0.00    -0.031 A 
ATOM      4  C4  IND d   1       0.383   0.588   1.034  0.00  0.00     0.051 A 
ATOM      5  C5  IND d   1       1.594   0.292   1.593  0.00  0.00    -0.031 A 
ATOM      6  C6  IND d   1       2.478  -0.583   0.995  0.00  0.00     0.015 A 
ATOM      7  C7  IND d   1       2.187  -1.189  -0.194  0.00  0.00    -0.016 A 
ATOM      8  C8  IND d   1       0.954  -0.896  -0.761  0.00  0.00    -0.047 A 
ATOM      9  C9  IND d   1       0.035  -0.042  -0.138  0.00  0.00    -0.096 A 
ATOM     10  HN1 IND d   1       0.724  -1.899  -2.482  0.00  0.00     0.298 HD
ENDROOT
TORSDOF 0
ENDMDL
