MODEL 1
REMARK minimizedAffinity -2.36474514
REMARK minimizedRMSD -1
REMARK  0 active torsions:
REMARK  status: ('A' for Active; 'I' for Inactive)
ROOT
ATOM      1  C   UNL d   1      -0.907  -2.395   0.896  0.00  0.00     0.172 C 
ATOM      2  N   UNL d   1      -0.651  -0.997   0.639  0.00  0.00    -0.070 N 
ATOM      3  C1  UNL d   1       0.357  -0.501  -0.144  0.00  0.00    -0.004 A 
ATOM      4  C2  UNL d   1       0.261   0.874  -0.135  0.00  0.00    -0.047 A 
ATOM      5  C3  UNL d   1      -0.842   1.216   0.682  0.00  0.00    -0.047 A 
ATOM      6  C4  UNL d   1      -1.388   0.039   1.149  0.00  0.00    -0.004 A 
ENDROOT
TORSDOF 0
ENDMDL
