MODEL 1
REMARK minimizedAffinity -3.37930059
REMARK minimizedRMSD -1
REMARK  0 active torsions:
REMARK  status: ('A' for Active; 'I' for Inactive)
ROOT
ATOM      1  C   UNL d   1      -0.959  -1.828   0.701  0.00  0.00     0.172 C 
ATOM      2  N   UNL d   1      -0.263  -0.582   0.485  0.00  0.00    -0.070 N 
ATOM      3  C1  UNL d   1      -0.572   0.350  -0.470  0.00  0.00    -0.004 A 
ATOM      4  C2  UNL d   1       0.324   1.391  -0.350  0.00  0.00    -0.047 A 
ATOM      5  C3  UNL d   1       1.203   1.073   0.713  0.00  0.00    -0.047 A 
ATOM      6  C4  UNL d   1       0.817  -0.154   1.212  0.00  0.00    -0.004 A 
ENDROOT
TORSDOF 0
ENDMDL
