MODEL 1
REMARK minimizedAffinity -2.3843224
REMARK minimizedRMSD -1
REMARK  0 active torsions:
REMARK  status: ('A' for Active; 'I' for Inactive)
ROOT
ATOM      1  C   UNL d   1      -1.245  -2.837   0.331  0.00  0.00     0.172 C 
ATOM      2  N   UNL d   1      -0.858  -1.521  -0.123  0.00  0.00    -0.070 N 
ATOM      3  C1  UNL d   1      -0.862  -0.382   0.637  0.00  0.00    -0.004 A 
ATOM      4  C2  UNL d   1      -0.427   0.657  -0.158  0.00  0.00    -0.047 A 
ATOM      5  C3  UNL d   1      -0.152   0.123  -1.439  0.00  0.00    -0.047 A 
ATOM      6  C4  UNL d   1      -0.427  -1.227  -1.389  0.00  0.00    -0.004 A 
ENDROOT
TORSDOF 0
ENDMDL
