MODEL 1
REMARK minimizedAffinity -3.25376296
REMARK minimizedRMSD -1
REMARK  0 active torsions:
REMARK  status: ('A' for Active; 'I' for Inactive)
ROOT
ATOM      1  C   UNL d   1      -1.470  -2.454   1.102  0.00  0.00     0.172 C 
ATOM      2  N   UNL d   1      -0.765  -1.284   0.633  0.00  0.00    -0.070 N 
ATOM      3  C1  UNL d   1       0.576  -1.049   0.777  0.00  0.00    -0.004 A 
ATOM      4  C2  UNL d   1       0.855   0.170   0.198  0.00  0.00    -0.047 A 
ATOM      5  C3  UNL d   1      -0.360   0.686  -0.311  0.00  0.00    -0.047 A 
ATOM      6  C4  UNL d   1      -1.347  -0.235  -0.028  0.00  0.00    -0.004 A 
ENDROOT
TORSDOF 0
ENDMDL
