MODEL 1
REMARK minimizedAffinity -3.03421974
REMARK minimizedRMSD -1
REMARK  0 active torsions:
REMARK  status: ('A' for Active; 'I' for Inactive)
ROOT
ATOM      1  C   UNL d   1      -0.252   0.864  -0.465  0.00  0.00     0.172 C 
ATOM      2  N   UNL d   1      -0.418  -0.530  -0.128  0.00  0.00    -0.070 N 
ATOM      3  C1  UNL d   1      -0.084  -1.590  -0.928  0.00  0.00    -0.004 A 
ATOM      4  C2  UNL d   1      -0.395  -2.747  -0.247  0.00  0.00    -0.047 A 
ATOM      5  C3  UNL d   1      -0.936  -2.370   1.005  0.00  0.00    -0.047 A 
ATOM      6  C4  UNL d   1      -0.938  -0.992   1.053  0.00  0.00    -0.004 A 
ENDROOT
TORSDOF 0
ENDMDL
