MODEL 1
REMARK minimizedAffinity -2.43508649
REMARK minimizedRMSD -1
REMARK  0 active torsions:
REMARK  status: ('A' for Active; 'I' for Inactive)
ROOT
ATOM      1  C   UNL d   1       2.347   3.047   0.144  0.00  0.00     0.172 C 
ATOM      2  N   UNL d   1       1.280   2.076   0.086  0.00  0.00    -0.070 N 
ATOM      3  C1  UNL d   1      -0.011   2.330  -0.293  0.00  0.00    -0.004 A 
ATOM      4  C2  UNL d   1      -0.715   1.148  -0.214  0.00  0.00    -0.047 A 
ATOM      5  C3  UNL d   1       0.184   0.149   0.230  0.00  0.00    -0.047 A 
ATOM      6  C4  UNL d   1       1.412   0.751   0.408  0.00  0.00    -0.004 A 
ENDROOT
TORSDOF 0
ENDMDL
