MODEL 1
REMARK minimizedAffinity -3.76096177
REMARK minimizedRMSD -1
REMARK  0 active torsions:
REMARK  status: ('A' for Active; 'I' for Inactive)
ROOT
ATOM      1  C   UNL d   1       0.247   0.745  -0.168  0.00  0.00     0.172 C 
ATOM      2  N   UNL d   1       0.013  -0.638   0.177  0.00  0.00    -0.070 N 
ATOM      3  C1  UNL d   1       0.414  -1.722  -0.557  0.00  0.00    -0.004 A 
ATOM      4  C2  UNL d   1       0.001  -2.857   0.107  0.00  0.00    -0.047 A 
ATOM      5  C3  UNL d   1      -0.673  -2.440   1.280  0.00  0.00    -0.047 A 
ATOM      6  C4  UNL d   1      -0.651  -1.061   1.298  0.00  0.00    -0.004 A 
ENDROOT
TORSDOF 0
ENDMDL
