MODEL 1
REMARK minimizedAffinity -1.87809849
REMARK minimizedRMSD -1
REMARK  0 active torsions:
REMARK  status: ('A' for Active; 'I' for Inactive)
ROOT
ATOM      1  C   UNL d   1      -0.056   0.389  -1.274  0.00  0.00     0.172 C 
ATOM      2  N   UNL d   1      -0.421  -0.507  -0.202  0.00  0.00    -0.070 N 
ATOM      3  C1  UNL d   1      -1.018  -1.730  -0.353  0.00  0.00    -0.004 A 
ATOM      4  C2  UNL d   1      -1.200  -2.268   0.903  0.00  0.00    -0.047 A 
ATOM      5  C3  UNL d   1      -0.697  -1.335   1.840  0.00  0.00    -0.047 A 
ATOM      6  C4  UNL d   1      -0.221  -0.254   1.129  0.00  0.00    -0.004 A 
ENDROOT
TORSDOF 0
ENDMDL
