MODEL 1
REMARK minimizedAffinity -1.82528424
REMARK minimizedRMSD -1
REMARK  0 active torsions:
REMARK  status: ('A' for Active; 'I' for Inactive)
ROOT
ATOM      1  C   UNL d   1       0.284   0.740  -0.356  0.00  0.00     0.172 C 
ATOM      2  N   UNL d   1      -0.155  -0.605  -0.067  0.00  0.00    -0.070 N 
ATOM      3  C1  UNL d   1       0.078  -1.706  -0.849  0.00  0.00    -0.004 A 
ATOM      4  C2  UNL d   1      -0.500  -2.793  -0.229  0.00  0.00    -0.047 A 
ATOM      5  C3  UNL d   1      -1.102  -2.330   0.965  0.00  0.00    -0.047 A 
ATOM      6  C4  UNL d   1      -0.872  -0.972   1.041  0.00  0.00    -0.004 A 
ENDROOT
TORSDOF 0
ENDMDL
