MODEL 1
REMARK minimizedAffinity -1.57373822
REMARK minimizedRMSD -1
REMARK  0 active torsions:
REMARK  status: ('A' for Active; 'I' for Inactive)
ROOT
ATOM      1  C   UNL d   1      -0.132   0.559  -0.041  0.00  0.00     0.172 C 
ATOM      2  N   UNL d   1      -0.568  -0.793   0.215  0.00  0.00    -0.070 N 
ATOM      3  C1  UNL d   1      -0.898  -1.307   1.441  0.00  0.00    -0.004 A 
ATOM      4  C2  UNL d   1      -1.261  -2.624   1.263  0.00  0.00    -0.047 A 
ATOM      5  C3  UNL d   1      -1.143  -2.913  -0.117  0.00  0.00    -0.047 A 
ATOM      6  C4  UNL d   1      -0.713  -1.762  -0.743  0.00  0.00    -0.004 A 
ENDROOT
TORSDOF 0
ENDMDL
