MODEL 1
REMARK minimizedAffinity -2.62319446
REMARK minimizedRMSD -1
REMARK  0 active torsions:
REMARK  status: ('A' for Active; 'I' for Inactive)
ROOT
ATOM      1  C   UNL d   1      -0.783  -2.713   0.738  0.00  0.00     0.172 C 
ATOM      2  N   UNL d   1      -0.441  -1.336   0.471  0.00  0.00    -0.070 N 
ATOM      3  C1  UNL d   1      -0.912  -0.249   1.158  0.00  0.00    -0.004 A 
ATOM      4  C2  UNL d   1      -0.350   0.879   0.600  0.00  0.00    -0.047 A 
ATOM      5  C3  UNL d   1       0.487   0.455  -0.459  0.00  0.00    -0.047 A 
ATOM      6  C4  UNL d   1       0.412  -0.920  -0.517  0.00  0.00    -0.004 A 
ENDROOT
TORSDOF 0
ENDMDL
