MODEL 1
REMARK minimizedAffinity -3.62469578
REMARK minimizedRMSD -1
REMARK  0 active torsions:
REMARK  status: ('A' for Active; 'I' for Inactive)
ROOT
ATOM      1  C   UNL d   1      -1.114  -1.860   1.333  0.00  0.00     0.172 C 
ATOM      2  N   UNL d   1      -0.519  -0.635   0.852  0.00  0.00    -0.070 N 
ATOM      3  C1  UNL d   1      -1.182   0.373   0.205  0.00  0.00    -0.004 A 
ATOM      4  C2  UNL d   1      -0.266   1.361  -0.087  0.00  0.00    -0.047 A 
ATOM      5  C3  UNL d   1       0.991   0.931   0.402  0.00  0.00    -0.047 A 
ATOM      6  C4  UNL d   1       0.805  -0.308   0.978  0.00  0.00    -0.004 A 
ENDROOT
TORSDOF 0
ENDMDL
