MODEL 1
REMARK minimizedAffinity -1.65509915
REMARK minimizedRMSD -1
REMARK  0 active torsions:
REMARK  status: ('A' for Active; 'I' for Inactive)
ROOT
ATOM      1  C   UNL d   1       0.056   1.230   0.054  0.00  0.00     0.172 C 
ATOM      2  N   UNL d   1       1.001   2.247   0.450  0.00  0.00    -0.070 N 
ATOM      3  C1  UNL d   1       0.790   3.599   0.390  0.00  0.00    -0.004 A 
ATOM      4  C2  UNL d   1       1.927   4.224   0.856  0.00  0.00    -0.047 A 
ATOM      5  C3  UNL d   1       2.853   3.213   1.206  0.00  0.00    -0.047 A 
ATOM      6  C4  UNL d   1       2.254   1.999   0.944  0.00  0.00    -0.004 A 
ENDROOT
TORSDOF 0
ENDMDL
