MODEL 1
REMARK minimizedAffinity -2.59976315
REMARK minimizedRMSD -1
REMARK  0 active torsions:
REMARK  status: ('A' for Active; 'I' for Inactive)
ROOT
ATOM      1  C   UNL d   1       0.774   1.599   0.203  0.00  0.00     0.172 C 
ATOM      2  N   UNL d   1       0.141   0.338   0.509  0.00  0.00    -0.070 N 
ATOM      3  C1  UNL d   1       0.210  -0.319   1.708  0.00  0.00    -0.004 A 
ATOM      4  C2  UNL d   1      -0.524  -1.480   1.596  0.00  0.00    -0.047 A 
ATOM      5  C3  UNL d   1      -1.052  -1.522   0.284  0.00  0.00    -0.047 A 
ATOM      6  C4  UNL d   1      -0.625  -0.384  -0.367  0.00  0.00    -0.004 A 
ENDROOT
TORSDOF 0
ENDMDL
