MODEL 1
REMARK minimizedAffinity -4.17007589
REMARK minimizedRMSD -1
REMARK  0 active torsions:
REMARK  status: ('A' for Active; 'I' for Inactive)
ROOT
ATOM      1  C1  DEN d   1      -1.079   2.213  -0.416  0.00  0.00     0.130 A 
ATOM      2  C2  DEN d   1      -1.877   2.070   0.799  0.00  0.00    -0.031 A 
ATOM      3  C3  DEN d   1      -1.390   0.881   1.527  0.00  0.00     0.027 A 
ATOM      4  C4  DEN d   1       0.514  -0.741   0.898  0.00  0.00     0.027 A 
ATOM      5  C5  DEN d   1       1.472  -1.034  -0.047  0.00  0.00    -0.003 A 
ATOM      6  C6  DEN d   1       1.623  -0.292  -1.189  0.00  0.00     0.001 A 
ATOM      7  C7  DEN d   1       0.833   0.808  -1.393  0.00  0.00     0.017 A 
ATOM      8  C8  DEN d   1      -0.140   1.106  -0.448  0.00  0.00    -0.094 A 
ATOM      9  C9  DEN d   1      -0.269   0.350   0.705  0.00  0.00    -0.072 A 
ENDROOT
TORSDOF 0
ENDMDL
