MODEL 1
REMARK minimizedAffinity 0.908265114
REMARK minimizedRMSD -1
REMARK  0 active torsions:
REMARK  status: ('A' for Active; 'I' for Inactive)
ROOT
ATOM      1  C1  DEN d   1      -1.197  -0.249   2.042  0.00  0.00     0.130 A 
ATOM      2  C2  DEN d   1      -1.634   1.130   2.238  0.00  0.00    -0.031 A 
ATOM      3  C3  DEN d   1      -1.041   1.954   1.165  0.00  0.00     0.027 A 
ATOM      4  C4  DEN d   1       0.499   1.230  -0.773  0.00  0.00     0.027 A 
ATOM      5  C5  DEN d   1       1.155   0.164  -1.348  0.00  0.00    -0.003 A 
ATOM      6  C6  DEN d   1       1.100  -1.098  -0.818  0.00  0.00     0.001 A 
ATOM      7  C7  DEN d   1       0.338  -1.335   0.295  0.00  0.00     0.017 A 
ATOM      8  C8  DEN d   1      -0.320  -0.263   0.885  0.00  0.00    -0.094 A 
ATOM      9  C9  DEN d   1      -0.262   1.003   0.327  0.00  0.00    -0.072 A 
ENDROOT
TORSDOF 0
ENDMDL
