MODEL 1
REMARK minimizedAffinity -2.34675646
REMARK minimizedRMSD -1
REMARK  0 active torsions:
REMARK  status: ('A' for Active; 'I' for Inactive)
ROOT
ATOM      1  C1  DEN d   1      -0.603   0.521   1.769  0.00  0.00     0.130 A 
ATOM      2  C2  DEN d   1       0.685  -0.139   1.580  0.00  0.00    -0.031 A 
ATOM      3  C3  DEN d   1       0.904  -0.308   0.129  0.00  0.00     0.027 A 
ATOM      4  C4  DEN d   1      -0.617   0.392  -1.833  0.00  0.00     0.027 A 
ATOM      5  C5  DEN d   1      -1.818   0.975  -2.169  0.00  0.00    -0.003 A 
ATOM      6  C6  DEN d   1      -2.707   1.414  -1.223  0.00  0.00     0.001 A 
ATOM      7  C7  DEN d   1      -2.387   1.317   0.105  0.00  0.00     0.017 A 
ATOM      8  C8  DEN d   1      -1.181   0.723   0.452  0.00  0.00    -0.094 A 
ATOM      9  C9  DEN d   1      -0.291   0.297  -0.519  0.00  0.00    -0.072 A 
ENDROOT
TORSDOF 0
ENDMDL
