MODEL 1
REMARK minimizedAffinity -2.09063077
REMARK minimizedRMSD -1
REMARK  0 active torsions:
REMARK  status: ('A' for Active; 'I' for Inactive)
ROOT
ATOM      1  C1  DEN d   1       0.416  -0.941   0.682  0.00  0.00     0.130 A 
ATOM      2  C2  DEN d   1       1.030  -0.685  -0.618  0.00  0.00    -0.031 A 
ATOM      3  C3  DEN d   1       0.561   0.633  -1.092  0.00  0.00     0.027 A 
ATOM      4  C4  DEN d   1      -1.043   2.294   0.056  0.00  0.00     0.027 A 
ATOM      5  C5  DEN d   1      -1.828   2.511   1.167  0.00  0.00    -0.003 A 
ATOM      6  C6  DEN d   1      -1.946   1.585   2.170  0.00  0.00     0.001 A 
ATOM      7  C7  DEN d   1      -1.233   0.418   2.103  0.00  0.00     0.017 A 
ATOM      8  C8  DEN d   1      -0.445   0.189   0.983  0.00  0.00    -0.094 A 
ATOM      9  C9  DEN d   1      -0.329   1.143  -0.014  0.00  0.00    -0.072 A 
ENDROOT
TORSDOF 0
ENDMDL
