MODEL 1
REMARK minimizedAffinity -2.27004695
REMARK minimizedRMSD -1
REMARK  0 active torsions:
REMARK  status: ('A' for Active; 'I' for Inactive)
ROOT
ATOM      1  C1  DEN d   1      -0.939   0.323  -1.026  0.00  0.00     0.130 A 
ATOM      2  C2  DEN d   1      -0.213   0.793   0.151  0.00  0.00    -0.031 A 
ATOM      3  C3  DEN d   1       0.716  -0.276   0.571  0.00  0.00     0.027 A 
ATOM      4  C4  DEN d   1       1.101  -2.598  -0.484  0.00  0.00     0.027 A 
ATOM      5  C5  DEN d   1       0.710  -3.453  -1.491  0.00  0.00    -0.003 A 
ATOM      6  C6  DEN d   1      -0.275  -3.125  -2.385  0.00  0.00     0.001 A 
ATOM      7  C7  DEN d   1      -0.870  -1.893  -2.318  0.00  0.00     0.017 A 
ATOM      8  C8  DEN d   1      -0.486  -1.029  -1.301  0.00  0.00    -0.094 A 
ATOM      9  C9  DEN d   1       0.520  -1.374  -0.414  0.00  0.00    -0.072 A 
ENDROOT
TORSDOF 0
ENDMDL
