MODEL 1
REMARK minimizedAffinity -4.24201155
REMARK minimizedRMSD -1
REMARK  0 active torsions:
REMARK  status: ('A' for Active; 'I' for Inactive)
ROOT
ATOM      1  C1  DEN d   1      -1.355   2.393  -0.257  0.00  0.00     0.130 A 
ATOM      2  C2  DEN d   1      -2.182   2.583   0.932  0.00  0.00    -0.031 A 
ATOM      3  C3  DEN d   1      -1.914   1.464   1.858  0.00  0.00     0.027 A 
ATOM      4  C4  DEN d   1      -0.304  -0.531   1.569  0.00  0.00     0.027 A 
ATOM      5  C5  DEN d   1       0.603  -1.128   0.722  0.00  0.00    -0.003 A 
ATOM      6  C6  DEN d   1       0.893  -0.616  -0.515  0.00  0.00     0.001 A 
ATOM      7  C7  DEN d   1       0.304   0.552  -0.921  0.00  0.00     0.017 A 
ATOM      8  C8  DEN d   1      -0.617   1.156  -0.076  0.00  0.00    -0.094 A 
ATOM      9  C9  DEN d   1      -0.888   0.629   1.176  0.00  0.00    -0.072 A 
ENDROOT
TORSDOF 0
ENDMDL
