MODEL 1
REMARK minimizedAffinity -0.174675241
REMARK minimizedRMSD -1
REMARK  0 active torsions:
REMARK  status: ('A' for Active; 'I' for Inactive)
ROOT
ATOM      1  C1  DEN d   1      -0.048   1.984  -1.570  0.00  0.00     0.130 A 
ATOM      2  C2  DEN d   1      -1.076   2.534  -0.691  0.00  0.00    -0.031 A 
ATOM      3  C3  DEN d   1      -1.309   1.566   0.400  0.00  0.00     0.027 A 
ATOM      4  C4  DEN d   1      -0.181  -0.716   0.813  0.00  0.00     0.027 A 
ATOM      5  C5  DEN d   1       0.744  -1.615   0.331  0.00  0.00    -0.003 A 
ATOM      6  C6  DEN d   1       1.441  -1.394  -0.828  0.00  0.00     0.001 A 
ATOM      7  C7  DEN d   1       1.255  -0.226  -1.520  0.00  0.00     0.017 A 
ATOM      8  C8  DEN d   1       0.318   0.681  -1.043  0.00  0.00    -0.094 A 
ATOM      9  C9  DEN d   1      -0.367   0.445   0.137  0.00  0.00    -0.072 A 
ENDROOT
TORSDOF 0
ENDMDL
