MODEL 1
REMARK minimizedAffinity -1.4002527
REMARK minimizedRMSD -1
REMARK  0 active torsions:
REMARK  status: ('A' for Active; 'I' for Inactive)
ROOT
ATOM      1  C1  DEN d   1      -0.961  -0.554   1.936  0.00  0.00     0.130 A 
ATOM      2  C2  DEN d   1      -0.975   0.735   2.623  0.00  0.00    -0.031 A 
ATOM      3  C3  DEN d   1      -0.386   1.741   1.718  0.00  0.00     0.027 A 
ATOM      4  C4  DEN d   1       0.538   1.432  -0.671  0.00  0.00     0.027 A 
ATOM      5  C5  DEN d   1       0.774   0.518  -1.673  0.00  0.00    -0.003 A 
ATOM      6  C6  DEN d   1       0.482  -0.813  -1.531  0.00  0.00     0.001 A 
ATOM      7  C7  DEN d   1      -0.105  -1.260  -0.377  0.00  0.00     0.017 A 
ATOM      8  C8  DEN d   1      -0.339  -0.345   0.641  0.00  0.00    -0.094 A 
ATOM      9  C9  DEN d   1      -0.049   0.998   0.474  0.00  0.00    -0.072 A 
ENDROOT
TORSDOF 0
ENDMDL
