MODEL 1
REMARK minimizedAffinity -3.53807998
REMARK minimizedRMSD -1
REMARK  0 active torsions:
REMARK  status: ('A' for Active; 'I' for Inactive)
ROOT
ATOM      1  C1  DEN d   1       0.125   2.274  -1.268  0.00  0.00     0.130 A 
ATOM      2  C2  DEN d   1       1.172   1.341  -1.674  0.00  0.00    -0.031 A 
ATOM      3  C3  DEN d   1       1.142   0.191  -0.748  0.00  0.00     0.027 A 
ATOM      4  C4  DEN d   1      -0.418  -0.235   1.261  0.00  0.00     0.027 A 
ATOM      5  C5  DEN d   1      -1.458   0.280   2.004  0.00  0.00    -0.003 A 
ATOM      6  C6  DEN d   1      -2.016   1.500   1.731  0.00  0.00     0.001 A 
ATOM      7  C7  DEN d   1      -1.567   2.228   0.661  0.00  0.00     0.017 A 
ATOM      8  C8  DEN d   1      -0.514   1.719  -0.088  0.00  0.00    -0.094 A 
ATOM      9  C9  DEN d   1       0.029   0.478   0.196  0.00  0.00    -0.072 A 
ENDROOT
TORSDOF 0
ENDMDL
