MODEL 1
REMARK minimizedAffinity -5.21771669
REMARK minimizedRMSD -1
REMARK  0 active torsions:
REMARK  status: ('A' for Active; 'I' for Inactive)
ROOT
ATOM      1  C1  DEN d   1      -1.469   0.302   1.788  0.00  0.00     0.130 A 
ATOM      2  C2  DEN d   1      -2.194   1.543   2.047  0.00  0.00    -0.031 A 
ATOM      3  C3  DEN d   1      -1.793   2.529   1.023  0.00  0.00     0.027 A 
ATOM      4  C4  DEN d   1      -0.132   2.254  -0.931  0.00  0.00     0.027 A 
ATOM      5  C5  DEN d   1       0.739   1.385  -1.550  0.00  0.00    -0.003 A 
ATOM      6  C6  DEN d   1       0.959   0.116  -1.084  0.00  0.00     0.001 A 
ATOM      7  C7  DEN d   1       0.266  -0.336   0.008  0.00  0.00     0.017 A 
ATOM      8  C8  DEN d   1      -0.609   0.537   0.642  0.00  0.00    -0.094 A 
ATOM      9  C9  DEN d   1      -0.827   1.812   0.148  0.00  0.00    -0.072 A 
ENDROOT
TORSDOF 0
ENDMDL
