MODEL 1
REMARK minimizedAffinity -4.45439625
REMARK minimizedRMSD -1
REMARK  0 active torsions:
REMARK  status: ('A' for Active; 'I' for Inactive)
ROOT
ATOM      1  C1  DEN d   1      -1.436   2.044   0.897  0.00  0.00     0.130 A 
ATOM      2  C2  DEN d   1      -1.867   0.996   1.818  0.00  0.00    -0.031 A 
ATOM      3  C3  DEN d   1      -1.043  -0.203   1.563  0.00  0.00     0.027 A 
ATOM      4  C4  DEN d   1       0.851  -0.535  -0.156  0.00  0.00     0.027 A 
ATOM      5  C5  DEN d   1       1.567   0.067  -1.167  0.00  0.00    -0.003 A 
ATOM      6  C6  DEN d   1       1.312   1.348  -1.581  0.00  0.00     0.001 A 
ATOM      7  C7  DEN d   1       0.345   2.085  -0.949  0.00  0.00     0.017 A 
ATOM      8  C8  DEN d   1      -0.386   1.483   0.066  0.00  0.00    -0.094 A 
ATOM      9  C9  DEN d   1      -0.105   0.191   0.477  0.00  0.00    -0.072 A 
ENDROOT
TORSDOF 0
ENDMDL
