MODEL 1
REMARK minimizedAffinity -3.69907784
REMARK minimizedRMSD -1
REMARK  0 active torsions:
REMARK  status: ('A' for Active; 'I' for Inactive)
ROOT
ATOM      1  C1  DEN d   1      -1.649   2.491   0.645  0.00  0.00     0.130 A 
ATOM      2  C2  DEN d   1      -2.140   1.943   1.906  0.00  0.00    -0.031 A 
ATOM      3  C3  DEN d   1      -1.567   0.592   2.070  0.00  0.00     0.027 A 
ATOM      4  C4  DEN d   1       0.028  -0.696   0.505  0.00  0.00     0.027 A 
ATOM      5  C5  DEN d   1       0.712  -0.645  -0.690  0.00  0.00    -0.003 A 
ATOM      6  C6  DEN d   1       0.631   0.432  -1.532  0.00  0.00     0.001 A 
ATOM      7  C7  DEN d   1      -0.116   1.522  -1.171  0.00  0.00     0.017 A 
ATOM      8  C8  DEN d   1      -0.815   1.475   0.029  0.00  0.00    -0.094 A 
ATOM      9  C9  DEN d   1      -0.710   0.382   0.872  0.00  0.00    -0.072 A 
ENDROOT
TORSDOF 0
ENDMDL
