MODEL 1
REMARK minimizedAffinity -1.58942425
REMARK minimizedRMSD -1
REMARK  0 active torsions:
REMARK  status: ('A' for Active; 'I' for Inactive)
ROOT
ATOM      1  C1  DEN d   1       0.349  -0.556  -0.718  0.00  0.00     0.130 A 
ATOM      2  C2  DEN d   1       1.254  -1.238   0.204  0.00  0.00    -0.031 A 
ATOM      3  C3  DEN d   1       0.904  -0.824   1.578  0.00  0.00     0.027 A 
ATOM      4  C4  DEN d   1      -0.944   0.795   2.363  0.00  0.00     0.027 A 
ATOM      5  C5  DEN d   1      -1.959   1.628   1.945  0.00  0.00    -0.003 A 
ATOM      6  C6  DEN d   1      -2.251   1.815   0.620  0.00  0.00     0.001 A 
ATOM      7  C7  DEN d   1      -1.549   1.126  -0.334  0.00  0.00     0.017 A 
ATOM      8  C8  DEN d   1      -0.520   0.291   0.079  0.00  0.00    -0.094 A 
ATOM      9  C9  DEN d   1      -0.248   0.105   1.424  0.00  0.00    -0.072 A 
ENDROOT
TORSDOF 0
ENDMDL
