MODEL 1
REMARK minimizedAffinity -3.07542896
REMARK minimizedRMSD -1
REMARK  0 active torsions:
REMARK  status: ('A' for Active; 'I' for Inactive)
ROOT
ATOM      1  C1  DEN d   1      -1.520   2.396  -1.589  0.00  0.00     0.130 A 
ATOM      2  C2  DEN d   1      -2.782   2.381  -0.854  0.00  0.00    -0.031 A 
ATOM      3  C3  DEN d   1      -2.658   1.405   0.247  0.00  0.00     0.027 A 
ATOM      4  C4  DEN d   1      -0.643  -0.074   0.885  0.00  0.00     0.027 A 
ATOM      5  C5  DEN d   1       0.648  -0.419   0.548  0.00  0.00    -0.003 A 
ATOM      6  C6  DEN d   1       1.288   0.120  -0.536  0.00  0.00     0.001 A 
ATOM      7  C7  DEN d   1       0.656   1.069  -1.296  0.00  0.00     0.017 A 
ATOM      8  C8  DEN d   1      -0.648   1.416  -0.967  0.00  0.00    -0.094 A 
ATOM      9  C9  DEN d   1      -1.274   0.869   0.140  0.00  0.00    -0.072 A 
ENDROOT
TORSDOF 0
ENDMDL
