MODEL 1
REMARK minimizedAffinity -6.05918217
REMARK minimizedRMSD -1
REMARK  0 active torsions:
REMARK  status: ('A' for Active; 'I' for Inactive)
ROOT
ATOM      1  C1  DEN d   1       0.408  -1.089   1.186  0.00  0.00     0.130 A 
ATOM      2  C2  DEN d   1       1.108  -1.123  -0.095  0.00  0.00    -0.031 A 
ATOM      3  C3  DEN d   1       0.621   0.008  -0.911  0.00  0.00     0.027 A 
ATOM      4  C4  DEN d   1      -1.134   1.801  -0.315  0.00  0.00     0.027 A 
ATOM      5  C5  DEN d   1      -2.010   2.236   0.656  0.00  0.00    -0.003 A 
ATOM      6  C6  DEN d   1      -2.164   1.579   1.847  0.00  0.00     0.001 A 
ATOM      7  C7  DEN d   1      -1.399   0.476   2.118  0.00  0.00     0.017 A 
ATOM      8  C8  DEN d   1      -0.519   0.027   1.142  0.00  0.00    -0.094 A 
ATOM      9  C9  DEN d   1      -0.369   0.712  -0.052  0.00  0.00    -0.072 A 
ENDROOT
TORSDOF 0
ENDMDL
