MODEL 1
REMARK minimizedAffinity 17.7842293
REMARK minimizedRMSD -1
REMARK  2 active torsions:
REMARK  status: ('A' for Active; 'I' for Inactive)
REMARK    1  A    between atoms: C1_2  and  C2_3 
REMARK    2  A    between atoms: C2_3  and  C3_4 
ROOT
ATOM      1  C3  UNL d   1       1.257   2.562  -1.741  0.00  0.00    -0.075 A 
ATOM      2  C4  UNL d   1       0.887   2.361  -3.079  0.00  0.00     0.002 A 
ATOM      3  C5  UNL d   1       0.637   1.075  -3.558  0.00  0.00     0.002 A 
ATOM      4  C6  UNL d   1       0.763  -0.025  -2.712  0.00  0.00    -0.004 A 
ATOM      5  C7  UNL d   1       1.147   0.162  -1.386  0.00  0.00     0.002 A 
ATOM      6  C8  UNL d   1       1.393   1.448  -0.902  0.00  0.00     0.002 A 
ENDROOT
BRANCH   1   7
ATOM      7  C2  UNL d   1       1.500   3.954  -1.208  0.00  0.00     0.056 C 
BRANCH   7   8
ATOM      8  C1  UNL d   1       2.883   4.148  -0.577  0.00  0.00     0.007 C 
ATOM      9  C   UNL d   1       2.854   4.144   0.946  0.00  0.00     0.009 C 
ENDBRANCH   7   8
ENDBRANCH   1   7
TORSDOF 2
ENDMDL
