MODEL 1
REMARK minimizedAffinity 6.355762
REMARK minimizedRMSD -1
REMARK  2 active torsions:
REMARK  status: ('A' for Active; 'I' for Inactive)
REMARK    1  A    between atoms: C1_2  and  C2_3 
REMARK    2  A    between atoms: C2_3  and  C3_4 
ROOT
ATOM      1  C3  UNL d   1      -3.516   4.041   3.103  0.00  0.00    -0.075 A 
ATOM      2  C4  UNL d   1      -3.088   4.779   4.216  0.00  0.00     0.002 A 
ATOM      3  C5  UNL d   1      -3.915   5.747   4.785  0.00  0.00     0.002 A 
ATOM      4  C6  UNL d   1      -5.175   5.997   4.244  0.00  0.00    -0.004 A 
ATOM      5  C7  UNL d   1      -5.604   5.281   3.128  0.00  0.00     0.002 A 
ATOM      6  C8  UNL d   1      -4.780   4.309   2.559  0.00  0.00     0.002 A 
ENDROOT
BRANCH   1   7
ATOM      7  C2  UNL d   1      -2.637   2.971   2.500  0.00  0.00     0.056 C 
BRANCH   7   8
ATOM      8  C1  UNL d   1      -2.962   1.553   2.980  0.00  0.00     0.007 C 
ATOM      9  C   UNL d   1      -2.246   0.471   2.184  0.00  0.00     0.009 C 
ENDBRANCH   7   8
ENDBRANCH   1   7
TORSDOF 2
ENDMDL
