MODEL 1
REMARK minimizedAffinity -1.60168922
REMARK minimizedRMSD -1
REMARK  2 active torsions:
REMARK  status: ('A' for Active; 'I' for Inactive)
REMARK    1  A    between atoms: C1_2  and  C2_3 
REMARK    2  A    between atoms: C2_3  and  C3_4 
ROOT
ATOM      1  C3  UNL d   1       4.786  -0.975   5.262  0.00  0.00    -0.075 A 
ATOM      2  C4  UNL d   1       3.605  -1.731   5.245  0.00  0.00     0.002 A 
ATOM      3  C5  UNL d   1       3.621  -3.078   5.609  0.00  0.00     0.002 A 
ATOM      4  C6  UNL d   1       4.816  -3.687   5.984  0.00  0.00    -0.004 A 
ATOM      5  C7  UNL d   1       5.999  -2.950   5.989  0.00  0.00     0.002 A 
ATOM      6  C8  UNL d   1       5.985  -1.601   5.629  0.00  0.00     0.002 A 
ENDROOT
BRANCH   1   7
ATOM      7  C2  UNL d   1       4.771   0.490   4.898  0.00  0.00     0.056 C 
BRANCH   7   8
ATOM      8  C1  UNL d   1       5.012   0.766   3.410  0.00  0.00     0.007 C 
ATOM      9  C   UNL d   1       4.256   1.982   2.894  0.00  0.00     0.009 C 
ENDBRANCH   7   8
ENDBRANCH   1   7
TORSDOF 2
ENDMDL
