MODEL 1
REMARK minimizedAffinity 3.70096517
REMARK minimizedRMSD -1
REMARK  2 active torsions:
REMARK  status: ('A' for Active; 'I' for Inactive)
REMARK    1  A    between atoms: C1_2  and  C2_3 
REMARK    2  A    between atoms: C2_3  and  C3_4 
ROOT
ATOM      1  C3  UNL d   1       1.824   1.542  -3.022  0.00  0.00    -0.075 A 
ATOM      2  C4  UNL d   1       1.417   2.881  -3.122  0.00  0.00     0.002 A 
ATOM      3  C5  UNL d   1       2.153   3.791  -3.880  0.00  0.00     0.002 A 
ATOM      4  C6  UNL d   1       3.309   3.378  -4.540  0.00  0.00    -0.004 A 
ATOM      5  C7  UNL d   1       3.732   2.055  -4.434  0.00  0.00     0.002 A 
ATOM      6  C8  UNL d   1       2.995   1.141  -3.679  0.00  0.00     0.002 A 
ENDROOT
BRANCH   1   7
ATOM      7  C2  UNL d   1       1.015   0.546  -2.227  0.00  0.00     0.056 C 
BRANCH   7   8
ATOM      8  C1  UNL d   1       1.843  -0.602  -1.639  0.00  0.00     0.007 C 
ATOM      9  C   UNL d   1       1.261  -1.977  -1.938  0.00  0.00     0.009 C 
ENDBRANCH   7   8
ENDBRANCH   1   7
TORSDOF 2
ENDMDL
