MODEL 1
REMARK minimizedAffinity 5.93989182
REMARK minimizedRMSD -1
REMARK  2 active torsions:
REMARK  status: ('A' for Active; 'I' for Inactive)
REMARK    1  A    between atoms: C1_2  and  C2_3 
REMARK    2  A    between atoms: C2_3  and  C3_4 
ROOT
ATOM      1  C3  UNL d   1      -4.290   5.392   3.573  0.00  0.00    -0.075 A 
ATOM      2  C4  UNL d   1      -2.960   5.836   3.583  0.00  0.00     0.002 A 
ATOM      3  C5  UNL d   1      -2.277   5.999   4.788  0.00  0.00     0.002 A 
ATOM      4  C6  UNL d   1      -2.917   5.732   5.997  0.00  0.00    -0.004 A 
ATOM      5  C7  UNL d   1      -4.243   5.306   6.000  0.00  0.00     0.002 A 
ATOM      6  C8  UNL d   1      -4.928   5.137   4.795  0.00  0.00     0.002 A 
ENDROOT
BRANCH   1   7
ATOM      7  C2  UNL d   1      -5.026   5.184   2.271  0.00  0.00     0.056 C 
BRANCH   7   8
ATOM      8  C1  UNL d   1      -5.365   3.720   1.973  0.00  0.00     0.007 C 
ATOM      9  C   UNL d   1      -4.299   2.746   2.455  0.00  0.00     0.009 C 
ENDBRANCH   7   8
ENDBRANCH   1   7
TORSDOF 2
ENDMDL
