MODEL 1
REMARK minimizedAffinity -2.22403073
REMARK minimizedRMSD -1
REMARK  2 active torsions:
REMARK  status: ('A' for Active; 'I' for Inactive)
REMARK    1  A    between atoms: C1_2  and  C2_3 
REMARK    2  A    between atoms: C2_3  and  C3_4 
ROOT
ATOM      1  C3  UNL d   1       5.060  -2.984   5.870  0.00  0.00    -0.075 A 
ATOM      2  C4  UNL d   1       3.708  -3.312   5.694  0.00  0.00     0.002 A 
ATOM      3  C5  UNL d   1       3.300  -4.646   5.671  0.00  0.00     0.002 A 
ATOM      4  C6  UNL d   1       4.237  -5.667   5.813  0.00  0.00    -0.004 A 
ATOM      5  C7  UNL d   1       5.585  -5.353   5.972  0.00  0.00     0.002 A 
ATOM      6  C8  UNL d   1       5.995  -4.019   6.000  0.00  0.00     0.002 A 
ENDROOT
BRANCH   1   7
ATOM      7  C2  UNL d   1       5.504  -1.542   5.925  0.00  0.00     0.056 C 
BRANCH   7   8
ATOM      8  C1  UNL d   1       6.000  -0.990   4.584  0.00  0.00     0.007 C 
ATOM      9  C   UNL d   1       4.885  -0.804   3.563  0.00  0.00     0.009 C 
ENDBRANCH   7   8
ENDBRANCH   1   7
TORSDOF 2
ENDMDL
