MODEL 1
REMARK minimizedAffinity 0.770552337
REMARK minimizedRMSD -1
REMARK  2 active torsions:
REMARK  status: ('A' for Active; 'I' for Inactive)
REMARK    1  A    between atoms: C1_2  and  C2_3 
REMARK    2  A    between atoms: C2_3  and  C3_4 
ROOT
ATOM      1  C3  UNL d   1       1.501   0.921  -3.027  0.00  0.00    -0.075 A 
ATOM      2  C4  UNL d   1       1.704   1.130  -4.399  0.00  0.00     0.002 A 
ATOM      3  C5  UNL d   1       1.845   2.423  -4.904  0.00  0.00     0.002 A 
ATOM      4  C6  UNL d   1       1.775   3.521  -4.049  0.00  0.00    -0.004 A 
ATOM      5  C7  UNL d   1       1.558   3.325  -2.687  0.00  0.00     0.002 A 
ATOM      6  C8  UNL d   1       1.420   2.033  -2.178  0.00  0.00     0.002 A 
ENDROOT
BRANCH   1   7
ATOM      7  C2  UNL d   1       1.377  -0.477  -2.469  0.00  0.00     0.056 C 
BRANCH   7   8
ATOM      8  C1  UNL d   1       2.470  -0.844  -1.459  0.00  0.00     0.007 C 
ATOM      9  C   UNL d   1       2.418  -2.302  -1.023  0.00  0.00     0.009 C 
ENDBRANCH   7   8
ENDBRANCH   1   7
TORSDOF 2
ENDMDL
