MODEL 1
REMARK minimizedAffinity -0.820434153
REMARK minimizedRMSD -1
REMARK  2 active torsions:
REMARK  status: ('A' for Active; 'I' for Inactive)
REMARK    1  A    between atoms: C1_2  and  C2_3 
REMARK    2  A    between atoms: C2_3  and  C3_4 
ROOT
ATOM      1  C3  UNL d   1       1.584   0.626  -1.630  0.00  0.00    -0.075 A 
ATOM      2  C4  UNL d   1       1.394   1.898  -1.070  0.00  0.00     0.002 A 
ATOM      3  C5  UNL d   1       1.540   3.044  -1.852  0.00  0.00     0.002 A 
ATOM      4  C6  UNL d   1       1.886   2.934  -3.197  0.00  0.00    -0.004 A 
ATOM      5  C7  UNL d   1       2.094   1.676  -3.759  0.00  0.00     0.002 A 
ATOM      6  C8  UNL d   1       1.944   0.528  -2.980  0.00  0.00     0.002 A 
ENDROOT
BRANCH   1   7
ATOM      7  C2  UNL d   1       1.399  -0.620  -0.796  0.00  0.00     0.056 C 
BRANCH   7   8
ATOM      8  C1  UNL d   1       2.288  -1.794  -1.223  0.00  0.00     0.007 C 
ATOM      9  C   UNL d   1       1.866  -3.121  -0.607  0.00  0.00     0.009 C 
ENDBRANCH   7   8
ENDBRANCH   1   7
TORSDOF 2
ENDMDL
