MODEL 1
REMARK minimizedAffinity 0.872907937
REMARK minimizedRMSD -1
REMARK  2 active torsions:
REMARK  status: ('A' for Active; 'I' for Inactive)
REMARK    1  A    between atoms: C1_2  and  C2_3 
REMARK    2  A    between atoms: C2_3  and  C3_4 
ROOT
ATOM      1  C3  UNL d   1       4.302  -3.485   5.516  0.00  0.00    -0.075 A 
ATOM      2  C4  UNL d   1       5.503  -2.946   6.000  0.00  0.00     0.002 A 
ATOM      3  C5  UNL d   1       5.934  -1.687   5.580  0.00  0.00     0.002 A 
ATOM      4  C6  UNL d   1       5.177  -0.957   4.666  0.00  0.00    -0.004 A 
ATOM      5  C7  UNL d   1       3.991  -1.491   4.165  0.00  0.00     0.002 A 
ATOM      6  C8  UNL d   1       3.556  -2.748   4.587  0.00  0.00     0.002 A 
ENDROOT
BRANCH   1   7
ATOM      7  C2  UNL d   1       3.816  -4.834   5.988  0.00  0.00     0.056 C 
BRANCH   7   8
ATOM      8  C1  UNL d   1       4.898  -5.919   5.999  0.00  0.00     0.007 C 
ATOM      9  C   UNL d   1       5.993  -5.685   4.967  0.00  0.00     0.009 C 
ENDBRANCH   7   8
ENDBRANCH   1   7
TORSDOF 2
ENDMDL
