MODEL 1
REMARK minimizedAffinity 0.190787584
REMARK minimizedRMSD -1
REMARK  2 active torsions:
REMARK  status: ('A' for Active; 'I' for Inactive)
REMARK    1  A    between atoms: C1_2  and  C2_3 
REMARK    2  A    between atoms: C2_3  and  C3_4 
ROOT
ATOM      1  C3  UNL d   1       1.283   2.003  -3.577  0.00  0.00    -0.075 A 
ATOM      2  C4  UNL d   1       1.130   2.479  -4.888  0.00  0.00     0.002 A 
ATOM      3  C5  UNL d   1       1.594   3.746  -5.240  0.00  0.00     0.002 A 
ATOM      4  C6  UNL d   1       2.208   4.556  -4.288  0.00  0.00    -0.004 A 
ATOM      5  C7  UNL d   1       2.351   4.101  -2.979  0.00  0.00     0.002 A 
ATOM      6  C8  UNL d   1       1.891   2.831  -2.624  0.00  0.00     0.002 A 
ENDROOT
BRANCH   1   7
ATOM      7  C2  UNL d   1       0.809   0.621  -3.196  0.00  0.00     0.056 C 
BRANCH   7   8
ATOM      8  C1  UNL d   1       1.748  -0.118  -2.238  0.00  0.00     0.007 C 
ATOM      9  C   UNL d   1       1.233  -1.493  -1.834  0.00  0.00     0.009 C 
ENDBRANCH   7   8
ENDBRANCH   1   7
TORSDOF 2
ENDMDL
