MODEL 1
REMARK minimizedAffinity 0.4599289
REMARK minimizedRMSD -1
REMARK  2 active torsions:
REMARK  status: ('A' for Active; 'I' for Inactive)
REMARK    1  A    between atoms: C1_2  and  C2_3 
REMARK    2  A    between atoms: C2_3  and  C3_4 
ROOT
ATOM      1  C3  UNL d   1       5.210  -3.324   5.861  0.00  0.00    -0.075 A 
ATOM      2  C4  UNL d   1       5.913  -4.531   5.989  0.00  0.00     0.002 A 
ATOM      3  C5  UNL d   1       5.234  -5.749   5.996  0.00  0.00     0.002 A 
ATOM      4  C6  UNL d   1       3.845  -5.777   5.885  0.00  0.00    -0.004 A 
ATOM      5  C7  UNL d   1       3.135  -4.584   5.774  0.00  0.00     0.002 A 
ATOM      6  C8  UNL d   1       3.812  -3.363   5.763  0.00  0.00     0.002 A 
ENDROOT
BRANCH   1   7
ATOM      7  C2  UNL d   1       5.941  -2.004   5.823  0.00  0.00     0.056 C 
BRANCH   7   8
ATOM      8  C1  UNL d   1       5.078  -0.825   5.361  0.00  0.00     0.007 C 
ATOM      9  C   UNL d   1       5.122  -0.603   3.855  0.00  0.00     0.009 C 
ENDBRANCH   7   8
ENDBRANCH   1   7
TORSDOF 2
ENDMDL
