MODEL 1
REMARK minimizedAffinity 4.45859194
REMARK minimizedRMSD -1
REMARK  2 active torsions:
REMARK  status: ('A' for Active; 'I' for Inactive)
REMARK    1  A    between atoms: C1_2  and  C2_3 
REMARK    2  A    between atoms: C2_3  and  C3_4 
ROOT
ATOM      1  C3  UNL d   1      -3.246  -1.762   0.445  0.00  0.00    -0.075 A 
ATOM      2  C4  UNL d   1      -3.936  -2.262   1.559  0.00  0.00     0.002 A 
ATOM      3  C5  UNL d   1      -5.303  -2.526   1.485  0.00  0.00     0.002 A 
ATOM      4  C6  UNL d   1      -6.000  -2.285   0.303  0.00  0.00    -0.004 A 
ATOM      5  C7  UNL d   1      -5.328  -1.773  -0.805  0.00  0.00     0.002 A 
ATOM      6  C8  UNL d   1      -3.959  -1.512  -0.736  0.00  0.00     0.002 A 
ENDROOT
BRANCH   1   7
ATOM      7  C2  UNL d   1      -1.760  -1.502   0.509  0.00  0.00     0.056 C 
BRANCH   7   8
ATOM      8  C1  UNL d   1      -0.915  -2.516  -0.270  0.00  0.00     0.007 C 
ATOM      9  C   UNL d   1       0.297  -1.892  -0.949  0.00  0.00     0.009 C 
ENDBRANCH   7   8
ENDBRANCH   1   7
TORSDOF 2
ENDMDL
