MODEL 1
REMARK minimizedAffinity 22.2005959
REMARK minimizedRMSD -1
REMARK  0 active torsions:
REMARK  status: ('A' for Active; 'I' for Inactive)
ROOT
ATOM      1  C1  DEN d   1      -1.553  -3.620  -3.052  0.00  0.00     0.130 A 
ATOM      2  C2  DEN d   1      -1.833  -2.891  -1.818  0.00  0.00    -0.031 A 
ATOM      3  C3  DEN d   1      -1.455  -1.479  -2.027  0.00  0.00     0.027 A 
ATOM      4  C4  DEN d   1      -0.472  -0.355  -4.130  0.00  0.00     0.027 A 
ATOM      5  C5  DEN d   1      -0.048  -0.569  -5.423  0.00  0.00    -0.003 A 
ATOM      6  C6  DEN d   1      -0.064  -1.811  -6.000  0.00  0.00     0.001 A 
ATOM      7  C7  DEN d   1      -0.556  -2.880  -5.298  0.00  0.00     0.017 A 
ATOM      8  C8  DEN d   1      -0.978  -2.673  -3.991  0.00  0.00    -0.094 A 
ATOM      9  C9  DEN d   1      -0.966  -1.408  -3.430  0.00  0.00    -0.072 A 
ENDROOT
TORSDOF 0
ENDMDL
