MODEL 1
REMARK minimizedAffinity 11.4804344
REMARK minimizedRMSD -1
REMARK  0 active torsions:
REMARK  status: ('A' for Active; 'I' for Inactive)
ROOT
ATOM      1  C1  DEN d   1       0.612   1.991   5.648  0.00  0.00     0.130 A 
ATOM      2  C2  DEN d   1      -0.163   3.127   5.156  0.00  0.00    -0.031 A 
ATOM      3  C3  DEN d   1      -0.684   2.778   3.819  0.00  0.00     0.027 A 
ATOM      4  C4  DEN d   1      -0.373   0.601   2.473  0.00  0.00     0.027 A 
ATOM      5  C5  DEN d   1       0.215  -0.645   2.473  0.00  0.00    -0.003 A 
ATOM      6  C6  DEN d   1       0.998  -1.083   3.508  0.00  0.00     0.001 A 
ATOM      7  C7  DEN d   1       1.177  -0.285   4.608  0.00  0.00     0.017 A 
ATOM      8  C8  DEN d   1       0.594   0.975   4.611  0.00  0.00    -0.094 A 
ATOM      9  C9  DEN d   1      -0.204   1.394   3.560  0.00  0.00    -0.072 A 
ENDROOT
TORSDOF 0
ENDMDL
