MODEL 1
REMARK minimizedAffinity 5.42533541
REMARK minimizedRMSD -1
REMARK  0 active torsions:
REMARK  status: ('A' for Active; 'I' for Inactive)
ROOT
ATOM      1  C1  DEN d   1       5.598   2.281   4.126  0.00  0.00     0.130 A 
ATOM      2  C2  DEN d   1       4.781   1.431   3.265  0.00  0.00    -0.031 A 
ATOM      3  C3  DEN d   1       4.131   2.292   2.257  0.00  0.00     0.027 A 
ATOM      4  C4  DEN d   1       4.313   4.846   1.945  0.00  0.00     0.027 A 
ATOM      5  C5  DEN d   1       4.878   6.000   2.440  0.00  0.00    -0.003 A 
ATOM      6  C6  DEN d   1       5.690   6.000   3.544  0.00  0.00     0.001 A 
ATOM      7  C7  DEN d   1       5.995   4.816   4.162  0.00  0.00     0.017 A 
ATOM      8  C8  DEN d   1       5.422   3.649   3.673  0.00  0.00    -0.094 A 
ATOM      9  C9  DEN d   1       4.614   3.668   2.549  0.00  0.00    -0.072 A 
ENDROOT
TORSDOF 0
ENDMDL
