MODEL 1
REMARK minimizedAffinity 18.8288803
REMARK minimizedRMSD -1
REMARK  0 active torsions:
REMARK  status: ('A' for Active; 'I' for Inactive)
ROOT
ATOM      1  C1  DEN d   1      -0.380   0.154   2.613  0.00  0.00     0.130 A 
ATOM      2  C2  DEN d   1       0.967   0.045   2.059  0.00  0.00    -0.031 A 
ATOM      3  C3  DEN d   1       0.876  -0.685   0.779  0.00  0.00     0.027 A 
ATOM      4  C4  DEN d   1      -1.208  -1.647  -0.397  0.00  0.00     0.027 A 
ATOM      5  C5  DEN d   1      -2.573  -1.812  -0.305  0.00  0.00    -0.003 A 
ATOM      6  C6  DEN d   1      -3.291  -1.367   0.772  0.00  0.00     0.001 A 
ATOM      7  C7  DEN d   1      -2.655  -0.694   1.782  0.00  0.00     0.017 A 
ATOM      8  C8  DEN d   1      -1.278  -0.531   1.700  0.00  0.00    -0.094 A 
ATOM      9  C9  DEN d   1      -0.571  -0.977   0.597  0.00  0.00    -0.072 A 
ENDROOT
TORSDOF 0
ENDMDL
