MODEL 1
REMARK minimizedAffinity 10.9802599
REMARK minimizedRMSD -1
REMARK  0 active torsions:
REMARK  status: ('A' for Active; 'I' for Inactive)
ROOT
ATOM      1  C1  DEN d   1       0.969   0.051  -4.059  0.00  0.00     0.130 A 
ATOM      2  C2  DEN d   1       0.813  -0.042  -5.508  0.00  0.00    -0.031 A 
ATOM      3  C3  DEN d   1      -0.413  -0.817  -5.786  0.00  0.00     0.027 A 
ATOM      4  C4  DEN d   1      -2.077  -1.873  -4.123  0.00  0.00     0.027 A 
ATOM      5  C5  DEN d   1      -2.359  -2.069  -2.789  0.00  0.00    -0.003 A 
ATOM      6  C6  DEN d   1      -1.540  -1.606  -1.794  0.00  0.00     0.001 A 
ATOM      7  C7  DEN d   1      -0.422  -0.883  -2.116  0.00  0.00     0.017 A 
ATOM      8  C8  DEN d   1      -0.127  -0.687  -3.459  0.00  0.00    -0.094 A 
ATOM      9  C9  DEN d   1      -0.975  -1.153  -4.450  0.00  0.00    -0.072 A 
ENDROOT
TORSDOF 0
ENDMDL
