MODEL 1
REMARK minimizedAffinity 8.75730038
REMARK minimizedRMSD -1
REMARK  0 active torsions:
REMARK  status: ('A' for Active; 'I' for Inactive)
ROOT
ATOM      1  C1  DEN d   1      -1.173  -0.771   1.865  0.00  0.00     0.130 A 
ATOM      2  C2  DEN d   1      -1.561   0.614   1.613  0.00  0.00    -0.031 A 
ATOM      3  C3  DEN d   1      -0.700   1.486   2.437  0.00  0.00     0.027 A 
ATOM      4  C4  DEN d   1       1.190   0.830   4.065  0.00  0.00     0.027 A 
ATOM      5  C5  DEN d   1       1.877  -0.227   4.620  0.00  0.00    -0.003 A 
ATOM      6  C6  DEN d   1       1.576  -1.529   4.324  0.00  0.00     0.001 A 
ATOM      7  C7  DEN d   1       0.590  -1.808   3.414  0.00  0.00     0.017 A 
ATOM      8  C8  DEN d   1      -0.112  -0.748   2.856  0.00  0.00    -0.094 A 
ATOM      9  C9  DEN d   1       0.216   0.562   3.159  0.00  0.00    -0.072 A 
ENDROOT
TORSDOF 0
ENDMDL
