MODEL 1
REMARK minimizedAffinity 2.25790858
REMARK minimizedRMSD -1
REMARK  2 active torsions:
REMARK  status: ('A' for Active; 'I' for Inactive)
REMARK    1  A    between atoms: C1_2  and  C2_3 
REMARK    2  A    between atoms: C2_3  and  C3_4 
ROOT
ATOM      1  C3  UNL d   1      -0.086   1.068   1.309  0.00  0.00    -0.075 A 
ATOM      2  C4  UNL d   1       0.967   0.497   2.039  0.00  0.00     0.002 A 
ATOM      3  C5  UNL d   1       1.850  -0.393   1.429  0.00  0.00     0.002 A 
ATOM      4  C6  UNL d   1       1.687  -0.732   0.088  0.00  0.00    -0.004 A 
ATOM      5  C7  UNL d   1       0.635  -0.184  -0.642  0.00  0.00     0.002 A 
ATOM      6  C8  UNL d   1      -0.248   0.711  -0.036  0.00  0.00     0.002 A 
ENDROOT
BRANCH   1   7
ATOM      7  C2  UNL d   1      -1.028   2.056   1.956  0.00  0.00     0.056 C 
BRANCH   7   8
ATOM      8  C1  UNL d   1      -1.731   2.989   0.964  0.00  0.00     0.007 C 
ATOM      9  C   UNL d   1      -0.845   4.129   0.481  0.00  0.00     0.009 C 
ENDBRANCH   7   8
ENDBRANCH   1   7
TORSDOF 2
ENDMDL
