MODEL 1
REMARK minimizedAffinity 0.826431394
REMARK minimizedRMSD -1
REMARK  2 active torsions:
REMARK  status: ('A' for Active; 'I' for Inactive)
REMARK    1  A    between atoms: C1_2  and  C2_3 
REMARK    2  A    between atoms: C2_3  and  C3_4 
ROOT
ATOM      1  C3  UNL d   1       0.265   1.586  -1.033  0.00  0.00    -0.075 A 
ATOM      2  C4  UNL d   1       0.816   2.532  -1.910  0.00  0.00     0.002 A 
ATOM      3  C5  UNL d   1       0.599   3.895  -1.710  0.00  0.00     0.002 A 
ATOM      4  C6  UNL d   1      -0.179   4.329  -0.638  0.00  0.00    -0.004 A 
ATOM      5  C7  UNL d   1      -0.745   3.398   0.230  0.00  0.00     0.002 A 
ATOM      6  C8  UNL d   1      -0.526   2.034   0.034  0.00  0.00     0.002 A 
ENDROOT
BRANCH   1   7
ATOM      7  C2  UNL d   1       0.520   0.111  -1.228  0.00  0.00     0.056 C 
BRANCH   7   8
ATOM      8  C1  UNL d   1      -0.214  -0.496  -2.429  0.00  0.00     0.007 C 
ATOM      9  C   UNL d   1      -1.716  -0.619  -2.214  0.00  0.00     0.009 C 
ENDBRANCH   7   8
ENDBRANCH   1   7
TORSDOF 2
ENDMDL
