MODEL 1
REMARK minimizedAffinity 6.94854593
REMARK minimizedRMSD -1
REMARK  2 active torsions:
REMARK  status: ('A' for Active; 'I' for Inactive)
REMARK    1  A    between atoms: C1_2  and  C2_3 
REMARK    2  A    between atoms: C2_3  and  C3_4 
ROOT
ATOM      1  C3  UNL d   1       2.861  -3.466   0.296  0.00  0.00    -0.075 A 
ATOM      2  C4  UNL d   1       4.030  -4.202   0.049  0.00  0.00     0.002 A 
ATOM      3  C5  UNL d   1       5.284  -3.607   0.188  0.00  0.00     0.002 A 
ATOM      4  C6  UNL d   1       5.386  -2.270   0.565  0.00  0.00    -0.004 A 
ATOM      5  C7  UNL d   1       4.232  -1.525   0.797  0.00  0.00     0.002 A 
ATOM      6  C8  UNL d   1       2.976  -2.119   0.663  0.00  0.00     0.002 A 
ENDROOT
BRANCH   1   7
ATOM      7  C2  UNL d   1       1.502  -4.112   0.177  0.00  0.00     0.056 C 
BRANCH   7   8
ATOM      8  C1  UNL d   1       1.159  -4.585  -1.240  0.00  0.00     0.007 C 
ATOM      9  C   UNL d   1       1.646  -5.997  -1.536  0.00  0.00     0.009 C 
ENDBRANCH   7   8
ENDBRANCH   1   7
TORSDOF 2
ENDMDL
