MODEL 1
REMARK minimizedAffinity 6.01405621
REMARK minimizedRMSD -1
REMARK  2 active torsions:
REMARK  status: ('A' for Active; 'I' for Inactive)
REMARK    1  A    between atoms: C1_2  and  C2_3 
REMARK    2  A    between atoms: C2_3  and  C3_4 
ROOT
ATOM      1  C3  UNL d   1       3.236  -2.863  -0.376  0.00  0.00    -0.075 A 
ATOM      2  C4  UNL d   1       4.492  -3.309   0.060  0.00  0.00     0.002 A 
ATOM      3  C5  UNL d   1       5.317  -2.475   0.816  0.00  0.00     0.002 A 
ATOM      4  C6  UNL d   1       4.901  -1.185   1.136  0.00  0.00    -0.004 A 
ATOM      5  C7  UNL d   1       3.663  -0.725   0.694  0.00  0.00     0.002 A 
ATOM      6  C8  UNL d   1       2.834  -1.559  -0.059  0.00  0.00     0.002 A 
ENDROOT
BRANCH   1   7
ATOM      7  C2  UNL d   1       2.326  -3.771  -1.169  0.00  0.00     0.056 C 
BRANCH   7   8
ATOM      8  C1  UNL d   1       1.571  -4.796  -0.317  0.00  0.00     0.007 C 
ATOM      9  C   UNL d   1       1.614  -4.487   1.173  0.00  0.00     0.009 C 
ENDBRANCH   7   8
ENDBRANCH   1   7
TORSDOF 2
ENDMDL
