MODEL 1
REMARK minimizedAffinity 8.84195042
REMARK minimizedRMSD -1
REMARK  2 active torsions:
REMARK  status: ('A' for Active; 'I' for Inactive)
REMARK    1  A    between atoms: C1_2  and  C2_3 
REMARK    2  A    between atoms: C2_3  and  C3_4 
ROOT
ATOM      1  C3  UNL d   1      -1.170   2.853   1.079  0.00  0.00    -0.075 A 
ATOM      2  C4  UNL d   1      -0.157   2.241   1.832  0.00  0.00     0.002 A 
ATOM      3  C5  UNL d   1      -0.471   1.274   2.787  0.00  0.00     0.002 A 
ATOM      4  C6  UNL d   1      -1.799   0.914   3.008  0.00  0.00    -0.004 A 
ATOM      5  C7  UNL d   1      -2.814   1.527   2.277  0.00  0.00     0.002 A 
ATOM      6  C8  UNL d   1      -2.502   2.492   1.318  0.00  0.00     0.002 A 
ENDROOT
BRANCH   1   7
ATOM      7  C2  UNL d   1      -0.834   3.879   0.023  0.00  0.00     0.056 C 
BRANCH   7   8
ATOM      8  C1  UNL d   1      -0.192   3.290  -1.237  0.00  0.00     0.007 C 
ATOM      9  C   UNL d   1       0.267   4.351  -2.229  0.00  0.00     0.009 C 
ENDBRANCH   7   8
ENDBRANCH   1   7
TORSDOF 2
ENDMDL
