MODEL 1
REMARK minimizedAffinity 6.7148385
REMARK minimizedRMSD -1
REMARK  2 active torsions:
REMARK  status: ('A' for Active; 'I' for Inactive)
REMARK    1  A    between atoms: C1_2  and  C2_3 
REMARK    2  A    between atoms: C2_3  and  C3_4 
ROOT
ATOM      1  C3  UNL d   1       0.285   1.049   1.013  0.00  0.00    -0.075 A 
ATOM      2  C4  UNL d   1       0.985   0.671   2.168  0.00  0.00     0.002 A 
ATOM      3  C5  UNL d   1       2.170  -0.059   2.071  0.00  0.00     0.002 A 
ATOM      4  C6  UNL d   1       2.665  -0.427   0.822  0.00  0.00    -0.004 A 
ATOM      5  C7  UNL d   1       1.969  -0.071  -0.331  0.00  0.00     0.002 A 
ATOM      6  C8  UNL d   1       0.785   0.663  -0.238  0.00  0.00     0.002 A 
ENDROOT
BRANCH   1   7
ATOM      7  C2  UNL d   1      -0.982   1.864   1.110  0.00  0.00     0.056 C 
BRANCH   7   8
ATOM      8  C1  UNL d   1      -0.746   3.374   1.225  0.00  0.00     0.007 C 
ATOM      9  C   UNL d   1      -0.107   3.978  -0.018  0.00  0.00     0.009 C 
ENDBRANCH   7   8
ENDBRANCH   1   7
TORSDOF 2
ENDMDL
