MODEL 1
REMARK minimizedAffinity 9.67633724
REMARK minimizedRMSD -1
REMARK  2 active torsions:
REMARK  status: ('A' for Active; 'I' for Inactive)
REMARK    1  A    between atoms: C1_2  and  C2_3 
REMARK    2  A    between atoms: C2_3  and  C3_4 
ROOT
ATOM      1  C3  UNL d   1      -0.771   1.310  -0.612  0.00  0.00    -0.075 A 
ATOM      2  C4  UNL d   1      -1.946   0.680  -1.046  0.00  0.00     0.002 A 
ATOM      3  C5  UNL d   1      -1.893  -0.342  -1.994  0.00  0.00     0.002 A 
ATOM      4  C6  UNL d   1      -0.669  -0.740  -2.527  0.00  0.00    -0.004 A 
ATOM      5  C7  UNL d   1       0.503  -0.110  -2.115  0.00  0.00     0.002 A 
ATOM      6  C8  UNL d   1       0.454   0.910  -1.163  0.00  0.00     0.002 A 
ENDROOT
BRANCH   1   7
ATOM      7  C2  UNL d   1      -0.818   2.396   0.436  0.00  0.00     0.056 C 
BRANCH   7   8
ATOM      8  C1  UNL d   1      -0.801   1.875   1.877  0.00  0.00     0.007 C 
ATOM      9  C   UNL d   1      -2.110   1.216   2.292  0.00  0.00     0.009 C 
ENDBRANCH   7   8
ENDBRANCH   1   7
TORSDOF 2
ENDMDL
