MODEL 1
REMARK minimizedAffinity 0.860380173
REMARK minimizedRMSD -1
REMARK  2 active torsions:
REMARK  status: ('A' for Active; 'I' for Inactive)
REMARK    1  A    between atoms: C1_2  and  C2_3 
REMARK    2  A    between atoms: C2_3  and  C3_4 
ROOT
ATOM      1  C3  UNL d   1      -1.405   1.538   1.926  0.00  0.00    -0.075 A 
ATOM      2  C4  UNL d   1      -2.750   1.907   1.780  0.00  0.00     0.002 A 
ATOM      3  C5  UNL d   1      -3.130   2.821   0.796  0.00  0.00     0.002 A 
ATOM      4  C6  UNL d   1      -2.172   3.384  -0.044  0.00  0.00    -0.004 A 
ATOM      5  C7  UNL d   1      -0.831   3.036   0.103  0.00  0.00     0.002 A 
ATOM      6  C8  UNL d   1      -0.448   2.119   1.084  0.00  0.00     0.002 A 
ENDROOT
BRANCH   1   7
ATOM      7  C2  UNL d   1      -0.991   0.527   2.969  0.00  0.00     0.056 C 
BRANCH   7   8
ATOM      8  C1  UNL d   1      -2.080  -0.494   3.315  0.00  0.00     0.007 C 
ATOM      9  C   UNL d   1      -1.524  -1.866   3.674  0.00  0.00     0.009 C 
ENDBRANCH   7   8
ENDBRANCH   1   7
TORSDOF 2
ENDMDL
