MODEL 1
REMARK minimizedAffinity 3.91909003
REMARK minimizedRMSD -1
REMARK  2 active torsions:
REMARK  status: ('A' for Active; 'I' for Inactive)
REMARK    1  A    between atoms: C1_2  and  C2_3 
REMARK    2  A    between atoms: C2_3  and  C3_4 
ROOT
ATOM      1  C3  UNL d   1       0.130   1.658  -1.006  0.00  0.00    -0.075 A 
ATOM      2  C4  UNL d   1       0.544   2.844  -1.630  0.00  0.00     0.002 A 
ATOM      3  C5  UNL d   1       0.330   4.079  -1.018  0.00  0.00     0.002 A 
ATOM      4  C6  UNL d   1      -0.307   4.145   0.219  0.00  0.00    -0.004 A 
ATOM      5  C7  UNL d   1      -0.737   2.975   0.841  0.00  0.00     0.002 A 
ATOM      6  C8  UNL d   1      -0.521   1.737   0.232  0.00  0.00     0.002 A 
ENDROOT
BRANCH   1   7
ATOM      7  C2  UNL d   1       0.385   0.316  -1.650  0.00  0.00     0.056 C 
BRANCH   7   8
ATOM      8  C1  UNL d   1      -0.530   0.012  -2.841  0.00  0.00     0.007 C 
ATOM      9  C   UNL d   1      -1.967  -0.285  -2.434  0.00  0.00     0.009 C 
ENDBRANCH   7   8
ENDBRANCH   1   7
TORSDOF 2
ENDMDL
