MODEL 1
REMARK minimizedAffinity 5.65053177
REMARK minimizedRMSD -1
REMARK  2 active torsions:
REMARK  status: ('A' for Active; 'I' for Inactive)
REMARK    1  A    between atoms: C1_2  and  C2_3 
REMARK    2  A    between atoms: C2_3  and  C3_4 
ROOT
ATOM      1  C3  UNL d   1       0.279   1.230  -1.145  0.00  0.00    -0.075 A 
ATOM      2  C4  UNL d   1      -0.308   1.601   0.073  0.00  0.00     0.002 A 
ATOM      3  C5  UNL d   1      -0.623   2.935   0.330  0.00  0.00     0.002 A 
ATOM      4  C6  UNL d   1      -0.346   3.915  -0.621  0.00  0.00    -0.004 A 
ATOM      5  C7  UNL d   1       0.252   3.560  -1.828  0.00  0.00     0.002 A 
ATOM      6  C8  UNL d   1       0.564   2.225  -2.090  0.00  0.00     0.002 A 
ENDROOT
BRANCH   1   7
ATOM      7  C2  UNL d   1       0.595  -0.217  -1.442  0.00  0.00     0.056 C 
BRANCH   7   8
ATOM      8  C1  UNL d   1      -0.041  -0.743  -2.733  0.00  0.00     0.007 C 
ATOM      9  C   UNL d   1      -1.547  -0.941  -2.623  0.00  0.00     0.009 C 
ENDBRANCH   7   8
ENDBRANCH   1   7
TORSDOF 2
ENDMDL
