MODEL 1
REMARK minimizedAffinity 10.7613592
REMARK minimizedRMSD -1
REMARK  2 active torsions:
REMARK  status: ('A' for Active; 'I' for Inactive)
REMARK    1  A    between atoms: C1_2  and  C2_3 
REMARK    2  A    between atoms: C2_3  and  C3_4 
ROOT
ATOM      1  C3  UNL d   1      -1.268   1.045  -0.755  0.00  0.00    -0.075 A 
ATOM      2  C4  UNL d   1      -2.538   0.543  -1.071  0.00  0.00     0.002 A 
ATOM      3  C5  UNL d   1      -2.707  -0.333  -2.144  0.00  0.00     0.002 A 
ATOM      4  C6  UNL d   1      -1.612  -0.708  -2.919  0.00  0.00    -0.004 A 
ATOM      5  C7  UNL d   1      -0.348  -0.203  -2.624  0.00  0.00     0.002 A 
ATOM      6  C8  UNL d   1      -0.175   0.670  -1.548  0.00  0.00     0.002 A 
ENDROOT
BRANCH   1   7
ATOM      7  C2  UNL d   1      -1.074   1.970   0.423  0.00  0.00     0.056 C 
BRANCH   7   8
ATOM      8  C1  UNL d   1      -1.747   1.487   1.713  0.00  0.00     0.007 C 
ATOM      9  C   UNL d   1      -0.789   1.402   2.894  0.00  0.00     0.009 C 
ENDBRANCH   7   8
ENDBRANCH   1   7
TORSDOF 2
ENDMDL
