MODEL 1
REMARK minimizedAffinity 4.48856163
REMARK minimizedRMSD -1
REMARK  2 active torsions:
REMARK  status: ('A' for Active; 'I' for Inactive)
REMARK    1  A    between atoms: C1_2  and  C2_3 
REMARK    2  A    between atoms: C2_3  and  C3_4 
ROOT
ATOM      1  C3  UNL d   1      -0.129   1.235  -1.013  0.00  0.00    -0.075 A 
ATOM      2  C4  UNL d   1       0.170   2.362  -1.793  0.00  0.00     0.002 A 
ATOM      3  C5  UNL d   1       0.007   3.647  -1.274  0.00  0.00     0.002 A 
ATOM      4  C6  UNL d   1      -0.466   3.822   0.024  0.00  0.00    -0.004 A 
ATOM      5  C7  UNL d   1      -0.782   2.710   0.803  0.00  0.00     0.002 A 
ATOM      6  C8  UNL d   1      -0.615   1.423   0.288  0.00  0.00     0.002 A 
ENDROOT
BRANCH   1   7
ATOM      7  C2  UNL d   1       0.074  -0.158  -1.558  0.00  0.00     0.056 C 
BRANCH   7   8
ATOM      8  C1  UNL d   1      -0.869  -0.521  -2.710  0.00  0.00     0.007 C 
ATOM      9  C   UNL d   1      -2.299  -0.780  -2.256  0.00  0.00     0.009 C 
ENDBRANCH   7   8
ENDBRANCH   1   7
TORSDOF 2
ENDMDL
