MODEL 1
REMARK minimizedAffinity 8.72037983
REMARK minimizedRMSD -1
REMARK  2 active torsions:
REMARK  status: ('A' for Active; 'I' for Inactive)
REMARK    1  A    between atoms: C1_2  and  C2_3 
REMARK    2  A    between atoms: C2_3  and  C3_4 
ROOT
ATOM      1  C3  UNL d   1      -0.350   2.870  -0.007  0.00  0.00    -0.075 A 
ATOM      2  C4  UNL d   1      -0.105   4.235   0.199  0.00  0.00     0.002 A 
ATOM      3  C5  UNL d   1      -0.105   4.769   1.488  0.00  0.00     0.002 A 
ATOM      4  C6  UNL d   1      -0.360   3.948   2.585  0.00  0.00    -0.004 A 
ATOM      5  C7  UNL d   1      -0.621   2.594   2.391  0.00  0.00     0.002 A 
ATOM      6  C8  UNL d   1      -0.617   2.056   1.102  0.00  0.00     0.002 A 
ENDROOT
BRANCH   1   7
ATOM      7  C2  UNL d   1      -0.322   2.281  -1.397  0.00  0.00     0.056 C 
BRANCH   7   8
ATOM      8  C1  UNL d   1      -0.074   0.769  -1.428  0.00  0.00     0.007 C 
ATOM      9  C   UNL d   1      -1.062   0.017  -2.311  0.00  0.00     0.009 C 
ENDBRANCH   7   8
ENDBRANCH   1   7
TORSDOF 2
ENDMDL
