MODEL 1
REMARK minimizedAffinity 8.06331444
REMARK minimizedRMSD -1
REMARK  2 active torsions:
REMARK  status: ('A' for Active; 'I' for Inactive)
REMARK    1  A    between atoms: C1_2  and  C2_3 
REMARK    2  A    between atoms: C2_3  and  C3_4 
ROOT
ATOM      1  C3  UNL d   1       3.270  -2.132   1.042  0.00  0.00    -0.075 A 
ATOM      2  C4  UNL d   1       4.671  -2.127   0.987  0.00  0.00     0.002 A 
ATOM      3  C5  UNL d   1       5.382  -3.326   0.924  0.00  0.00     0.002 A 
ATOM      4  C6  UNL d   1       4.703  -4.543   0.925  0.00  0.00    -0.004 A 
ATOM      5  C7  UNL d   1       3.312  -4.560   0.997  0.00  0.00     0.002 A 
ATOM      6  C8  UNL d   1       2.598  -3.362   1.056  0.00  0.00     0.002 A 
ENDROOT
BRANCH   1   7
ATOM      7  C2  UNL d   1       2.494  -0.837   1.081  0.00  0.00     0.056 C 
BRANCH   7   8
ATOM      8  C1  UNL d   1       1.938  -0.485   2.465  0.00  0.00     0.007 C 
ATOM      9  C   UNL d   1       0.667   0.353   2.406  0.00  0.00     0.009 C 
ENDBRANCH   7   8
ENDBRANCH   1   7
TORSDOF 2
ENDMDL
