MODEL 1
REMARK minimizedAffinity -3.97091055
REMARK minimizedRMSD -1
REMARK  0 active torsions:
REMARK  status: ('A' for Active; 'I' for Inactive)
ROOT
ATOM      1  C   UNL d   1      -0.308  -3.475   0.102  0.00  0.00     0.023 A 
ATOM      2  C1  UNL d   1       0.401  -2.939  -0.973  0.00  0.00     0.003 A 
ATOM      3  C2  UNL d   1       0.481  -1.555  -1.138  0.00  0.00     0.048 A 
ATOM      4  C3  UNL d   1      -0.151  -0.712  -0.225  0.00  0.00     0.023 A 
ATOM      5  C4  UNL d   1      -0.861  -1.244   0.853  0.00  0.00     0.048 A 
ATOM      6  C5  UNL d   1      -0.938  -2.628   1.014  0.00  0.00     0.003 A 
ATOM      7  I   UNL d   1      -0.034   1.348  -0.469  0.00  0.00    -0.146 I 
ENDROOT
TORSDOF 0
ENDMDL
