MODEL 1
REMARK minimizedAffinity -2.84679294
REMARK minimizedRMSD -1
REMARK  0 active torsions:
REMARK  status: ('A' for Active; 'I' for Inactive)
ROOT
ATOM      1  C   UNL d   1      -1.260  -2.301   1.940  0.00  0.00     0.023 A 
ATOM      2  C1  UNL d   1      -1.362  -1.076   2.600  0.00  0.00     0.003 A 
ATOM      3  C2  UNL d   1      -0.945   0.096   1.967  0.00  0.00     0.048 A 
ATOM      4  C3  UNL d   1      -0.430   0.038   0.673  0.00  0.00     0.023 A 
ATOM      5  C4  UNL d   1      -0.327  -1.185   0.008  0.00  0.00     0.048 A 
ATOM      6  C5  UNL d   1      -0.744  -2.355   0.645  0.00  0.00     0.003 A 
ATOM      7  I   UNL d   1       0.190   1.782  -0.272  0.00  0.00    -0.146 I 
ENDROOT
TORSDOF 0
ENDMDL
