MODEL 1
REMARK minimizedAffinity 3.96255636
REMARK minimizedRMSD -1
REMARK  0 active torsions:
REMARK  status: ('A' for Active; 'I' for Inactive)
ROOT
ATOM      1  C   UNL d   1      -0.433   0.053   0.609  0.00  0.00     0.023 A 
ATOM      2  C1  UNL d   1      -1.822  -0.063   0.647  0.00  0.00     0.003 A 
ATOM      3  C2  UNL d   1      -2.457  -0.500   1.811  0.00  0.00     0.048 A 
ATOM      4  C3  UNL d   1      -1.695  -0.820   2.935  0.00  0.00     0.023 A 
ATOM      5  C4  UNL d   1      -0.305  -0.705   2.902  0.00  0.00     0.048 A 
ATOM      6  C5  UNL d   1       0.325  -0.268   1.735  0.00  0.00     0.003 A 
ATOM      7  I   UNL d   1      -2.637  -1.471   4.669  0.00  0.00    -0.146 I 
ENDROOT
TORSDOF 0
ENDMDL
