MODEL 1
REMARK minimizedAffinity -3.27237868
REMARK minimizedRMSD -1
REMARK  0 active torsions:
REMARK  status: ('A' for Active; 'I' for Inactive)
ROOT
ATOM      1  C   UNL d   1      -1.293  -0.510   1.747  0.00  0.00     0.023 A 
ATOM      2  C1  UNL d   1      -0.787   0.292   0.723  0.00  0.00     0.003 A 
ATOM      3  C2  UNL d   1      -0.218  -0.295  -0.409  0.00  0.00     0.048 A 
ATOM      4  C3  UNL d   1      -0.159  -1.685  -0.511  0.00  0.00     0.023 A 
ATOM      5  C4  UNL d   1      -0.664  -2.491   0.510  0.00  0.00     0.048 A 
ATOM      6  C5  UNL d   1      -1.231  -1.900   1.641  0.00  0.00     0.003 A 
ATOM      7  I   UNL d   1       0.688  -2.561  -2.195  0.00  0.00    -0.146 I 
ENDROOT
TORSDOF 0
ENDMDL
