MODEL 1
REMARK minimizedAffinity -3.56829977
REMARK minimizedRMSD -1
REMARK  0 active torsions:
REMARK  status: ('A' for Active; 'I' for Inactive)
ROOT
ATOM      1  C   UNL d   1       0.287  -3.791  -0.791  0.00  0.00     0.023 A 
ATOM      2  C1  UNL d   1       0.604  -2.946  -1.855  0.00  0.00     0.003 A 
ATOM      3  C2  UNL d   1       0.607  -1.562  -1.671  0.00  0.00     0.048 A 
ATOM      4  C3  UNL d   1       0.293  -1.029  -0.421  0.00  0.00     0.023 A 
ATOM      5  C4  UNL d   1      -0.023  -1.871   0.646  0.00  0.00     0.048 A 
ATOM      6  C5  UNL d   1      -0.026  -3.254   0.458  0.00  0.00     0.003 A 
ATOM      7  I   UNL d   1       0.298   1.031  -0.146  0.00  0.00    -0.146 I 
ENDROOT
TORSDOF 0
ENDMDL
