MODEL 1
REMARK minimizedAffinity 0.393760234
REMARK minimizedRMSD -1
REMARK  0 active torsions:
REMARK  status: ('A' for Active; 'I' for Inactive)
ROOT
ATOM      1  C   UNL d   1      -0.908  -0.349  -0.008  0.00  0.00     0.023 A 
ATOM      2  C1  UNL d   1      -1.930  -1.252   0.284  0.00  0.00     0.003 A 
ATOM      3  C2  UNL d   1      -2.902  -0.926   1.232  0.00  0.00     0.048 A 
ATOM      4  C3  UNL d   1      -2.846   0.306   1.883  0.00  0.00     0.023 A 
ATOM      5  C4  UNL d   1      -1.825   1.213   1.593  0.00  0.00     0.048 A 
ATOM      6  C5  UNL d   1      -0.855   0.882   0.645  0.00  0.00     0.003 A 
ATOM      7  I   UNL d   1      -4.291   0.794   3.295  0.00  0.00    -0.146 I 
ENDROOT
TORSDOF 0
ENDMDL
