MODEL 1
REMARK minimizedAffinity -3.03016376
REMARK minimizedRMSD -1
REMARK  0 active torsions:
REMARK  status: ('A' for Active; 'I' for Inactive)
ROOT
ATOM      1  C   UNL d   1      -1.154  -1.311   1.696  0.00  0.00     0.023 A 
ATOM      2  C1  UNL d   1      -0.843  -2.622   1.335  0.00  0.00     0.003 A 
ATOM      3  C2  UNL d   1      -0.364  -2.901   0.053  0.00  0.00     0.048 A 
ATOM      4  C3  UNL d   1      -0.198  -1.863  -0.863  0.00  0.00     0.023 A 
ATOM      5  C4  UNL d   1      -0.508  -0.549  -0.507  0.00  0.00     0.048 A 
ATOM      6  C5  UNL d   1      -0.987  -0.276   0.776  0.00  0.00     0.003 A 
ATOM      7  I   UNL d   1       0.514  -2.274  -2.772  0.00  0.00    -0.146 I 
ENDROOT
TORSDOF 0
ENDMDL
