MODEL 1
REMARK minimizedAffinity -4.65019226
REMARK minimizedRMSD -1
REMARK  0 active torsions:
REMARK  status: ('A' for Active; 'I' for Inactive)
ROOT
ATOM      1  C   UNL d   1      -0.039  -3.775  -0.451  0.00  0.00     0.023 A 
ATOM      2  C1  UNL d   1      -0.250  -3.238   0.819  0.00  0.00     0.003 A 
ATOM      3  C2  UNL d   1      -0.218  -1.855   1.007  0.00  0.00     0.048 A 
ATOM      4  C3  UNL d   1       0.025  -1.014  -0.079  0.00  0.00     0.023 A 
ATOM      5  C4  UNL d   1       0.235  -1.547  -1.351  0.00  0.00     0.048 A 
ATOM      6  C5  UNL d   1       0.203  -2.931  -1.535  0.00  0.00     0.003 A 
ATOM      7  I   UNL d   1       0.073   1.045   0.200  0.00  0.00    -0.146 I 
ENDROOT
TORSDOF 0
ENDMDL
