MODEL 1
REMARK minimizedAffinity 8.50569534
REMARK minimizedRMSD -1
REMARK  0 active torsions:
REMARK  status: ('A' for Active; 'I' for Inactive)
ROOT
ATOM      1  C   UNL d   1       4.548  -4.131  -4.790  0.00  0.00     0.023 A 
ATOM      2  C1  UNL d   1       3.677  -4.303  -3.714  0.00  0.00     0.003 A 
ATOM      3  C2  UNL d   1       2.667  -3.369  -3.475  0.00  0.00     0.048 A 
ATOM      4  C3  UNL d   1       2.533  -2.265  -4.317  0.00  0.00     0.023 A 
ATOM      5  C4  UNL d   1       3.401  -2.089  -5.396  0.00  0.00     0.048 A 
ATOM      6  C5  UNL d   1       4.410  -3.025  -5.630  0.00  0.00     0.003 A 
ATOM      7  I   UNL d   1       1.030  -0.874  -3.964  0.00  0.00    -0.146 I 
ENDROOT
TORSDOF 0
ENDMDL
