MODEL 1
REMARK minimizedAffinity -3.87795663
REMARK minimizedRMSD -1
REMARK  0 active torsions:
REMARK  status: ('A' for Active; 'I' for Inactive)
ROOT
ATOM      1  C   UNL d   1       1.264   2.415  -0.626  0.00  0.00     0.023 A 
ATOM      2  C1  UNL d   1       1.985   3.465  -0.057  0.00  0.00     0.003 A 
ATOM      3  C2  UNL d   1       1.473   4.147   1.049  0.00  0.00     0.048 A 
ATOM      4  C3  UNL d   1       0.241   3.773   1.582  0.00  0.00     0.023 A 
ATOM      5  C4  UNL d   1      -0.484   2.722   1.017  0.00  0.00     0.048 A 
ATOM      6  C5  UNL d   1       0.031   2.044  -0.089  0.00  0.00     0.003 A 
ATOM      7  I   UNL d   1      -0.523   4.785   3.229  0.00  0.00    -0.146 I 
ENDROOT
TORSDOF 0
ENDMDL
