MODEL 1
REMARK minimizedAffinity -2.83787966
REMARK minimizedRMSD -1
REMARK  0 active torsions:
REMARK  status: ('A' for Active; 'I' for Inactive)
ROOT
ATOM      1  C   UNL d   1      -0.147  -3.463  -1.688  0.00  0.00     0.023 A 
ATOM      2  C1  UNL d   1       0.206  -2.500  -2.634  0.00  0.00     0.003 A 
ATOM      3  C2  UNL d   1       0.266  -1.153  -2.272  0.00  0.00     0.048 A 
ATOM      4  C3  UNL d   1      -0.027  -0.776  -0.962  0.00  0.00     0.023 A 
ATOM      5  C4  UNL d   1      -0.379  -1.735  -0.012  0.00  0.00     0.048 A 
ATOM      6  C5  UNL d   1      -0.439  -3.081  -0.379  0.00  0.00     0.003 A 
ATOM      7  I   UNL d   1       0.062   1.229  -0.420  0.00  0.00    -0.146 I 
ENDROOT
TORSDOF 0
ENDMDL
