MODEL 1
REMARK minimizedAffinity -1.37165642
REMARK minimizedRMSD -1
REMARK  0 active torsions:
REMARK  status: ('A' for Active; 'I' for Inactive)
ROOT
ATOM      1  C   UNL d   1      -1.025  -2.582   1.149  0.00  0.00     0.023 A 
ATOM      2  C1  UNL d   1      -1.468  -1.485   1.887  0.00  0.00     0.003 A 
ATOM      3  C2  UNL d   1      -1.166  -0.189   1.465  0.00  0.00     0.048 A 
ATOM      4  C3  UNL d   1      -0.420   0.003   0.303  0.00  0.00     0.023 A 
ATOM      5  C4  UNL d   1       0.025  -1.091  -0.440  0.00  0.00     0.048 A 
ATOM      6  C5  UNL d   1      -0.280  -2.385  -0.014  0.00  0.00     0.003 A 
ATOM      7  I   UNL d   1       0.032   1.932  -0.328  0.00  0.00    -0.146 I 
ENDROOT
TORSDOF 0
ENDMDL
