MODEL 1
REMARK minimizedAffinity -5.43673563
REMARK minimizedRMSD -1
REMARK  1 active torsions:
REMARK  status: ('A' for Active; 'I' for Inactive)
REMARK    1  A    between atoms: C1_2  and  C2_3 
ROOT
ATOM      1  C2  UNL d   1      -0.484  -1.189  -0.071  0.00  0.00    -0.081 A 
ATOM      2  C3  UNL d   1      -1.626  -0.378  -0.075  0.00  0.00     0.006 A 
ATOM      3  C4  UNL d   1      -1.525   0.989   0.190  0.00  0.00     0.002 A 
ATOM      4  C5  UNL d   1      -0.281   1.571   0.455  0.00  0.00    -0.080 A 
ATOM      5  C6  UNL d   1      -0.155   3.043   0.711  0.00  0.00     0.076 C 
ATOM      6  C7  UNL d   1       0.858   0.759   0.477  0.00  0.00     0.002 A 
ATOM      7  C8  UNL d   1       0.758  -0.609   0.213  0.00  0.00     0.006 A 
ENDROOT
BRANCH   1   8
ATOM      8  C1  UNL d   1      -0.581  -2.652  -0.420  0.00  0.00     0.054 C 
ATOM      9  C   UNL d   1      -0.150  -2.908  -1.857  0.00  0.00     0.018 C 
ENDBRANCH   1   8
TORSDOF 1
ENDMDL
