MODEL 1
REMARK minimizedAffinity -3.1299994
REMARK minimizedRMSD -1
REMARK  1 active torsions:
REMARK  status: ('A' for Active; 'I' for Inactive)
REMARK    1  A    between atoms: C1_2  and  C2_3 
ROOT
ATOM      1  C2  UNL d   1       0.674  -0.886  -0.115  0.00  0.00    -0.081 A 
ATOM      2  C3  UNL d   1       1.829  -0.094  -0.099  0.00  0.00     0.006 A 
ATOM      3  C4  UNL d   1       1.732   1.297  -0.015  0.00  0.00     0.002 A 
ATOM      4  C5  UNL d   1       0.481   1.918   0.063  0.00  0.00    -0.080 A 
ATOM      5  C6  UNL d   1       0.365   3.409   0.185  0.00  0.00     0.076 C 
ATOM      6  C7  UNL d   1      -0.673   1.128   0.030  0.00  0.00     0.002 A 
ATOM      7  C8  UNL d   1      -0.577  -0.263  -0.055  0.00  0.00     0.006 A 
ENDROOT
BRANCH   1   8
ATOM      8  C1  UNL d   1       0.776  -2.390  -0.141  0.00  0.00     0.054 C 
ATOM      9  C   UNL d   1      -0.152  -2.990  -1.187  0.00  0.00     0.018 C 
ENDBRANCH   1   8
TORSDOF 1
ENDMDL
