MODEL 1
REMARK minimizedAffinity -4.57093287
REMARK minimizedRMSD -1
REMARK  1 active torsions:
REMARK  status: ('A' for Active; 'I' for Inactive)
REMARK    1  A    between atoms: C1_2  and  C2_3 
ROOT
ATOM      1  C2  UNL d   1      -0.417  -0.942   0.013  0.00  0.00    -0.081 A 
ATOM      2  C3  UNL d   1      -1.439  -0.065   0.397  0.00  0.00     0.006 A 
ATOM      3  C4  UNL d   1      -1.224   1.315   0.401  0.00  0.00     0.002 A 
ATOM      4  C5  UNL d   1       0.013   1.842   0.016  0.00  0.00    -0.080 A 
ATOM      5  C6  UNL d   1       0.247   3.323  -0.013  0.00  0.00     0.076 C 
ATOM      6  C7  UNL d   1       1.040   0.966  -0.351  0.00  0.00     0.002 A 
ATOM      7  C8  UNL d   1       0.826  -0.414  -0.355  0.00  0.00     0.006 A 
ENDROOT
BRANCH   1   8
ATOM      8  C1  UNL d   1      -0.665  -2.427  -0.055  0.00  0.00     0.054 C 
ATOM      9  C   UNL d   1      -0.369  -2.974  -1.444  0.00  0.00     0.018 C 
ENDBRANCH   1   8
TORSDOF 1
ENDMDL
