MODEL 1
REMARK minimizedAffinity -2.09391022
REMARK minimizedRMSD -1
REMARK  1 active torsions:
REMARK  status: ('A' for Active; 'I' for Inactive)
REMARK    1  A    between atoms: C1_2  and  C2_3 
ROOT
ATOM      1  C2  UNL d   1      -0.438  -2.314  -0.693  0.00  0.00    -0.081 A 
ATOM      2  C3  UNL d   1      -0.771  -1.797   0.565  0.00  0.00     0.006 A 
ATOM      3  C4  UNL d   1      -0.301  -0.542   0.961  0.00  0.00     0.002 A 
ATOM      4  C5  UNL d   1       0.501   0.219   0.104  0.00  0.00    -0.080 A 
ATOM      5  C6  UNL d   1       0.987   1.580   0.505  0.00  0.00     0.076 C 
ATOM      6  C7  UNL d   1       0.848  -0.306  -1.145  0.00  0.00     0.002 A 
ATOM      7  C8  UNL d   1       0.380  -1.560  -1.542  0.00  0.00     0.006 A 
ENDROOT
BRANCH   1   8
ATOM      8  C1  UNL d   1      -0.995  -3.638  -1.149  0.00  0.00     0.054 C 
ATOM      9  C   UNL d   1      -0.851  -3.811  -2.654  0.00  0.00     0.018 C 
ENDBRANCH   1   8
TORSDOF 1
ENDMDL
