MODEL 1
REMARK minimizedAffinity -5.4198041
REMARK minimizedRMSD -1
REMARK  1 active torsions:
REMARK  status: ('A' for Active; 'I' for Inactive)
REMARK    1  A    between atoms: C1_2  and  C2_3 
ROOT
ATOM      1  C2  UNL d   1       0.418  -0.079   0.443  0.00  0.00    -0.081 A 
ATOM      2  C3  UNL d   1      -0.516   0.963   0.443  0.00  0.00     0.006 A 
ATOM      3  C4  UNL d   1      -0.092   2.294   0.484  0.00  0.00     0.002 A 
ATOM      4  C5  UNL d   1       1.271   2.604   0.519  0.00  0.00    -0.080 A 
ATOM      5  C6  UNL d   1       1.740   4.028   0.533  0.00  0.00     0.076 C 
ATOM      6  C7  UNL d   1       2.205   1.562   0.537  0.00  0.00     0.002 A 
ATOM      7  C8  UNL d   1       1.782   0.231   0.496  0.00  0.00     0.006 A 
ENDROOT
BRANCH   1   8
ATOM      8  C1  UNL d   1      -0.034  -1.513   0.332  0.00  0.00     0.054 C 
ATOM      9  C   UNL d   1      -0.128  -1.953  -1.121  0.00  0.00     0.018 C 
ENDBRANCH   1   8
TORSDOF 1
ENDMDL
