MODEL 1
REMARK minimizedAffinity -4.62685633
REMARK minimizedRMSD -1
REMARK  1 active torsions:
REMARK  status: ('A' for Active; 'I' for Inactive)
REMARK    1  A    between atoms: C1_2  and  C2_3 
ROOT
ATOM      1  C2  UNL d   1       0.298  -0.946   0.279  0.00  0.00    -0.081 A 
ATOM      2  C3  UNL d   1      -0.915  -0.254   0.388  0.00  0.00     0.006 A 
ATOM      3  C4  UNL d   1      -0.947   1.139   0.294  0.00  0.00     0.002 A 
ATOM      4  C5  UNL d   1       0.231   1.863   0.081  0.00  0.00    -0.080 A 
ATOM      5  C6  UNL d   1       0.207   3.357  -0.052  0.00  0.00     0.076 C 
ATOM      6  C7  UNL d   1       1.445   1.174  -0.011  0.00  0.00     0.002 A 
ATOM      7  C8  UNL d   1       1.477  -0.220   0.084  0.00  0.00     0.006 A 
ENDROOT
BRANCH   1   8
ATOM      8  C1  UNL d   1       0.327  -2.453   0.315  0.00  0.00     0.054 C 
ATOM      9  C   UNL d   1      -0.313  -3.049  -0.931  0.00  0.00     0.018 C 
ENDBRANCH   1   8
TORSDOF 1
ENDMDL
