MODEL 1
REMARK minimizedAffinity -5.1427846
REMARK minimizedRMSD -1
REMARK  1 active torsions:
REMARK  status: ('A' for Active; 'I' for Inactive)
REMARK    1  A    between atoms: C1_2  and  C2_3 
ROOT
ATOM      1  C2  UNL d   1      -0.124  -0.958  -0.187  0.00  0.00    -0.081 A 
ATOM      2  C3  UNL d   1      -1.244  -0.196   0.167  0.00  0.00     0.006 A 
ATOM      3  C4  UNL d   1      -1.165   1.198   0.217  0.00  0.00     0.002 A 
ATOM      4  C5  UNL d   1       0.031   1.853  -0.095  0.00  0.00    -0.080 A 
ATOM      5  C6  UNL d   1       0.121   3.350  -0.075  0.00  0.00     0.076 C 
ATOM      6  C7  UNL d   1       1.155   1.091  -0.432  0.00  0.00     0.002 A 
ATOM      7  C8  UNL d   1       1.077  -0.303  -0.481  0.00  0.00     0.006 A 
ENDROOT
BRANCH   1   8
ATOM      8  C1  UNL d   1      -0.223  -2.457  -0.305  0.00  0.00     0.054 C 
ATOM      9  C   UNL d   1      -0.790  -2.871  -1.655  0.00  0.00     0.018 C 
ENDBRANCH   1   8
TORSDOF 1
ENDMDL
