MODEL 1
REMARK minimizedAffinity -4.23249912
REMARK minimizedRMSD -1
REMARK  1 active torsions:
REMARK  status: ('A' for Active; 'I' for Inactive)
REMARK    1  A    between atoms: C1_2  and  C2_3 
ROOT
ATOM      1  C2  UNL d   1       0.005  -1.041   0.091  0.00  0.00    -0.081 A 
ATOM      2  C3  UNL d   1      -1.201  -0.377   0.347  0.00  0.00     0.006 A 
ATOM      3  C4  UNL d   1      -1.244   1.018   0.405  0.00  0.00     0.002 A 
ATOM      4  C5  UNL d   1      -0.084   1.772   0.201  0.00  0.00    -0.080 A 
ATOM      5  C6  UNL d   1      -0.122   3.271   0.230  0.00  0.00     0.076 C 
ATOM      6  C7  UNL d   1       1.125   1.109  -0.037  0.00  0.00     0.002 A 
ATOM      7  C8  UNL d   1       1.168  -0.285  -0.095  0.00  0.00     0.006 A 
ENDROOT
BRANCH   1   8
ATOM      8  C1  UNL d   1       0.042  -2.542  -0.036  0.00  0.00     0.054 C 
ATOM      9  C   UNL d   1      -0.733  -3.013  -1.258  0.00  0.00     0.018 C 
ENDBRANCH   1   8
TORSDOF 1
ENDMDL
