MODEL 1
REMARK minimizedAffinity -4.07176971
REMARK minimizedRMSD -1
REMARK  1 active torsions:
REMARK  status: ('A' for Active; 'I' for Inactive)
REMARK    1  A    between atoms: C1_2  and  C2_3 
ROOT
ATOM      1  C2  UNL d   1      -0.058  -0.819   0.048  0.00  0.00    -0.081 A 
ATOM      2  C3  UNL d   1      -1.081   0.132   0.156  0.00  0.00     0.006 A 
ATOM      3  C4  UNL d   1      -0.777   1.478   0.376  0.00  0.00     0.002 A 
ATOM      4  C5  UNL d   1       0.554   1.896   0.484  0.00  0.00    -0.080 A 
ATOM      5  C6  UNL d   1       0.895   3.342   0.690  0.00  0.00     0.076 C 
ATOM      6  C7  UNL d   1       1.575   0.944   0.394  0.00  0.00     0.002 A 
ATOM      7  C8  UNL d   1       1.271  -0.402   0.175  0.00  0.00     0.006 A 
ENDROOT
BRANCH   1   8
ATOM      8  C1  UNL d   1      -0.381  -2.260  -0.253  0.00  0.00     0.054 C 
ATOM      9  C   UNL d   1      -0.254  -2.555  -1.741  0.00  0.00     0.018 C 
ENDBRANCH   1   8
TORSDOF 1
ENDMDL
