MODEL 1
REMARK minimizedAffinity -5.82911015
REMARK minimizedRMSD -1
REMARK  1 active torsions:
REMARK  status: ('A' for Active; 'I' for Inactive)
REMARK    1  A    between atoms: C1_2  and  C2_3 
ROOT
ATOM      1  C2  UNL d   1       0.497  -1.084   0.094  0.00  0.00    -0.081 A 
ATOM      2  C3  UNL d   1      -0.767  -0.484   0.151  0.00  0.00     0.006 A 
ATOM      3  C4  UNL d   1      -0.890   0.907   0.186  0.00  0.00     0.002 A 
ATOM      4  C5  UNL d   1       0.247   1.721   0.155  0.00  0.00    -0.080 A 
ATOM      5  C6  UNL d   1       0.128   3.216   0.162  0.00  0.00     0.076 C 
ATOM      6  C7  UNL d   1       1.511   1.122   0.116  0.00  0.00     0.002 A 
ATOM      7  C8  UNL d   1       1.635  -0.269   0.082  0.00  0.00     0.006 A 
ENDROOT
BRANCH   1   8
ATOM      8  C1  UNL d   1       0.631  -2.581  -0.009  0.00  0.00     0.054 C 
ATOM      9  C   UNL d   1      -0.128  -3.124  -1.212  0.00  0.00     0.018 C 
ENDBRANCH   1   8
TORSDOF 1
ENDMDL
