MODEL 1
REMARK minimizedAffinity -4.7196703
REMARK minimizedRMSD -1
REMARK  1 active torsions:
REMARK  status: ('A' for Active; 'I' for Inactive)
REMARK    1  A    between atoms: C1_2  and  C2_3 
ROOT
ATOM      1  C2  UNL d   1       0.438   1.175   0.059  0.00  0.00    -0.081 A 
ATOM      2  C3  UNL d   1      -0.240  -0.022   0.322  0.00  0.00     0.006 A 
ATOM      3  C4  UNL d   1      -1.624  -0.024   0.516  0.00  0.00     0.002 A 
ATOM      4  C5  UNL d   1      -2.353   1.168   0.443  0.00  0.00    -0.080 A 
ATOM      5  C6  UNL d   1      -3.842   1.175   0.619  0.00  0.00     0.076 C 
ATOM      6  C7  UNL d   1      -1.673   2.366   0.198  0.00  0.00     0.002 A 
ATOM      7  C8  UNL d   1      -0.290   2.369   0.004  0.00  0.00     0.006 A 
ENDROOT
BRANCH   1   8
ATOM      8  C1  UNL d   1       1.920   1.172  -0.215  0.00  0.00     0.054 C 
ATOM      9  C   UNL d   1       2.612   0.020   0.500  0.00  0.00     0.018 C 
ENDBRANCH   1   8
TORSDOF 1
ENDMDL
