MODEL 1
REMARK minimizedAffinity 5.41689539
REMARK minimizedRMSD -1
REMARK  1 active torsions:
REMARK  status: ('A' for Active; 'I' for Inactive)
REMARK    1  A    between atoms: N_2  and  C1_3 
ROOT
ATOM      1  C1  UNL d   1       3.398  -2.783   1.107  0.00  0.00     0.143 A 
ATOM      2  C2  UNL d   1       2.064  -2.682   1.515  0.00  0.00    -0.057 A 
ATOM      3  C3  UNL d   1       1.318  -1.521   1.279  0.00  0.00     0.033 A 
ATOM      4  C4  UNL d   1       1.904  -0.425   0.655  0.00  0.00    -0.042 A 
ATOM      5  C5  UNL d   1       3.237  -0.494   0.263  0.00  0.00     0.033 A 
ATOM      6  C6  UNL d   1       3.974  -1.659   0.495  0.00  0.00    -0.057 A 
ENDROOT
BRANCH   1   7
ATOM      7  N   UNL d   1       4.221  -3.873   1.400  0.00  0.00    -0.732 N 
ATOM      8  C   UNL d   1       5.658  -3.768   1.268  0.00  0.00     0.284 C 
ATOM      9  H3  UNL d   1       3.915  -4.379   2.228  0.00  0.00     0.395 HD
ENDBRANCH   1   7
TORSDOF 1
ENDMDL
