MODEL 1
REMARK minimizedAffinity 1.61816204
REMARK minimizedRMSD -1
REMARK  1 active torsions:
REMARK  status: ('A' for Active; 'I' for Inactive)
REMARK    1  A    between atoms: N_2  and  C1_3 
ROOT
ATOM      1  C1  UNL d   1       3.708   5.685   4.858  0.00  0.00     0.143 A 
ATOM      2  C2  UNL d   1       3.148   4.955   3.805  0.00  0.00    -0.057 A 
ATOM      3  C3  UNL d   1       1.798   4.582   3.817  0.00  0.00     0.033 A 
ATOM      4  C4  UNL d   1       0.990   4.910   4.901  0.00  0.00    -0.042 A 
ATOM      5  C5  UNL d   1       1.532   5.614   5.970  0.00  0.00     0.033 A 
ATOM      6  C6  UNL d   1       2.879   5.989   5.949  0.00  0.00    -0.057 A 
ENDROOT
BRANCH   1   7
ATOM      7  N   UNL d   1       5.066   6.000   4.950  0.00  0.00    -0.732 N 
ATOM      8  C   UNL d   1       5.905   6.000   3.771  0.00  0.00     0.284 C 
ATOM      9  H3  UNL d   1       5.243   6.774   5.586  0.00  0.00     0.395 HD
ENDBRANCH   1   7
TORSDOF 1
ENDMDL
