MODEL 1
REMARK minimizedAffinity 3.02666283
REMARK minimizedRMSD -1
REMARK  1 active torsions:
REMARK  status: ('A' for Active; 'I' for Inactive)
REMARK    1  A    between atoms: N_2  and  C1_3 
ROOT
ATOM      1  C1  UNL d   1       3.010   4.693   3.790  0.00  0.00     0.143 A 
ATOM      2  C2  UNL d   1       4.310   5.060   3.428  0.00  0.00    -0.057 A 
ATOM      3  C3  UNL d   1       5.166   5.695   4.336  0.00  0.00     0.033 A 
ATOM      4  C4  UNL d   1       4.724   6.000   5.620  0.00  0.00    -0.042 A 
ATOM      5  C5  UNL d   1       3.428   5.666   5.994  0.00  0.00     0.033 A 
ATOM      6  C6  UNL d   1       2.580   5.027   5.084  0.00  0.00    -0.057 A 
ENDROOT
BRANCH   1   7
ATOM      7  N   UNL d   1       2.079   4.149   2.902  0.00  0.00    -0.732 N 
ATOM      8  C   UNL d   1       0.766   3.752   3.363  0.00  0.00     0.284 C 
ATOM      9  H3  UNL d   1       2.078   4.623   2.002  0.00  0.00     0.395 HD
ENDBRANCH   1   7
TORSDOF 1
ENDMDL
