MODEL 1
REMARK minimizedAffinity 7.35240364
REMARK minimizedRMSD -1
REMARK  1 active torsions:
REMARK  status: ('A' for Active; 'I' for Inactive)
REMARK    1  A    between atoms: N_2  and  C1_3 
ROOT
ATOM      1  C1  UNL d   1       3.750  -4.019  -0.124  0.00  0.00     0.143 A 
ATOM      2  C2  UNL d   1       4.840  -3.179  -0.378  0.00  0.00    -0.057 A 
ATOM      3  C3  UNL d   1       5.948  -3.628  -1.107  0.00  0.00     0.033 A 
ATOM      4  C4  UNL d   1       5.999  -4.939  -1.570  0.00  0.00    -0.042 A 
ATOM      5  C5  UNL d   1       4.938  -5.799  -1.308  0.00  0.00     0.033 A 
ATOM      6  C6  UNL d   1       3.831  -5.342  -0.586  0.00  0.00    -0.057 A 
ENDROOT
BRANCH   1   7
ATOM      7  N   UNL d   1       2.663  -3.662   0.678  0.00  0.00    -0.732 N 
ATOM      8  C   UNL d   1       1.328  -4.120   0.357  0.00  0.00     0.284 C 
ATOM      9  H3  UNL d   1       2.886  -3.693   1.670  0.00  0.00     0.395 HD
ENDBRANCH   1   7
TORSDOF 1
ENDMDL
