MODEL 1
REMARK minimizedAffinity -1.86966598
REMARK minimizedRMSD -1
REMARK  0 active torsions:
REMARK  status: ('A' for Active; 'I' for Inactive)
ROOT
ATOM      1  C1  DEN d   1       0.531  -0.443   0.703  0.00  0.00     0.130 A 
ATOM      2  C2  DEN d   1       0.924   0.006   2.035  0.00  0.00    -0.031 A 
ATOM      3  C3  DEN d   1       0.705   1.465   2.108  0.00  0.00     0.027 A 
ATOM      4  C4  DEN d   1      -0.204   3.061   0.297  0.00  0.00     0.027 A 
ATOM      5  C5  DEN d   1      -0.662   3.144  -0.999  0.00  0.00    -0.003 A 
ATOM      6  C6  DEN d   1      -0.721   2.052  -1.823  0.00  0.00     0.001 A 
ATOM      7  C7  DEN d   1      -0.359   0.820  -1.345  0.00  0.00     0.017 A 
ATOM      8  C8  DEN d   1       0.110   0.730  -0.042  0.00  0.00    -0.094 A 
ATOM      9  C9  DEN d   1       0.152   1.844   0.780  0.00  0.00    -0.072 A 
ENDROOT
TORSDOF 0
ENDMDL
