MODEL 1
REMARK minimizedAffinity 4.54868746
REMARK minimizedRMSD -1
REMARK  0 active torsions:
REMARK  status: ('A' for Active; 'I' for Inactive)
ROOT
ATOM      1  C1  DEN d   1       1.277   4.127   1.472  0.00  0.00     0.130 A 
ATOM      2  C2  DEN d   1       1.994   4.293   2.734  0.00  0.00    -0.031 A 
ATOM      3  C3  DEN d   1       1.826   3.055   3.521  0.00  0.00     0.027 A 
ATOM      4  C4  DEN d   1       0.536   0.906   2.911  0.00  0.00     0.027 A 
ATOM      5  C5  DEN d   1      -0.243   0.299   1.950  0.00  0.00    -0.003 A 
ATOM      6  C6  DEN d   1      -0.595   0.933   0.788  0.00  0.00     0.001 A 
ATOM      7  C7  DEN d   1      -0.130   2.196   0.536  0.00  0.00     0.017 A 
ATOM      8  C8  DEN d   1       0.650   2.818   1.503  0.00  0.00    -0.094 A 
ATOM      9  C9  DEN d   1       1.005   2.156   2.666  0.00  0.00    -0.072 A 
ENDROOT
TORSDOF 0
ENDMDL
