MODEL 1
REMARK minimizedAffinity 7.81074142
REMARK minimizedRMSD -1
REMARK  0 active torsions:
REMARK  status: ('A' for Active; 'I' for Inactive)
ROOT
ATOM      1  C1  DEN d   1      -0.592   1.040   1.618  0.00  0.00     0.130 A 
ATOM      2  C2  DEN d   1      -0.207   0.030   2.601  0.00  0.00    -0.031 A 
ATOM      3  C3  DEN d   1       0.893   0.583   3.416  0.00  0.00     0.027 A 
ATOM      4  C4  DEN d   1       2.028   2.893   3.257  0.00  0.00     0.027 A 
ATOM      5  C5  DEN d   1       2.051   4.088   2.571  0.00  0.00    -0.003 A 
ATOM      6  C6  DEN d   1       1.225   4.335   1.507  0.00  0.00     0.001 A 
ATOM      7  C7  DEN d   1       0.308   3.391   1.126  0.00  0.00     0.017 A 
ATOM      8  C8  DEN d   1       0.284   2.182   1.807  0.00  0.00    -0.094 A 
ATOM      9  C9  DEN d   1       1.119   1.955   2.888  0.00  0.00    -0.072 A 
ENDROOT
TORSDOF 0
ENDMDL
