MODEL 1
REMARK minimizedAffinity 3.23728657
REMARK minimizedRMSD -1
REMARK  0 active torsions:
REMARK  status: ('A' for Active; 'I' for Inactive)
ROOT
ATOM      1  C1  DEN d   1       0.739   1.137   3.414  0.00  0.00     0.130 A 
ATOM      2  C2  DEN d   1       0.421  -0.235   3.028  0.00  0.00    -0.031 A 
ATOM      3  C3  DEN d   1       0.084  -0.239   1.591  0.00  0.00     0.027 A 
ATOM      4  C4  DEN d   1       0.029   1.735  -0.068  0.00  0.00     0.027 A 
ATOM      5  C5  DEN d   1       0.212   3.093  -0.203  0.00  0.00    -0.003 A 
ATOM      6  C6  DEN d   1       0.547   3.894   0.857  0.00  0.00     0.001 A 
ATOM      7  C7  DEN d   1       0.755   3.335   2.090  0.00  0.00     0.017 A 
ATOM      8  C8  DEN d   1       0.565   1.967   2.235  0.00  0.00    -0.094 A 
ATOM      9  C9  DEN d   1       0.238   1.173   1.149  0.00  0.00    -0.072 A 
ENDROOT
TORSDOF 0
ENDMDL
