MODEL 1
REMARK minimizedAffinity 9.17449856
REMARK minimizedRMSD -1
REMARK  0 active torsions:
REMARK  status: ('A' for Active; 'I' for Inactive)
ROOT
ATOM      1  C1  DEN d   1      -0.101   0.289   1.656  0.00  0.00     0.130 A 
ATOM      2  C2  DEN d   1       0.423   0.497   3.003  0.00  0.00    -0.031 A 
ATOM      3  C3  DEN d   1       0.761   1.927   3.145  0.00  0.00     0.027 A 
ATOM      4  C4  DEN d   1       0.519   3.831   1.421  0.00  0.00     0.027 A 
ATOM      5  C5  DEN d   1       0.132   4.139   0.136  0.00  0.00    -0.003 A 
ATOM      6  C6  DEN d   1      -0.324   3.187  -0.737  0.00  0.00     0.001 A 
ATOM      7  C7  DEN d   1      -0.448   1.888  -0.321  0.00  0.00     0.017 A 
ATOM      8  C8  DEN d   1      -0.052   1.568   0.972  0.00  0.00    -0.094 A 
ATOM      9  C9  DEN d   1       0.395   2.547   1.843  0.00  0.00    -0.072 A 
ENDROOT
TORSDOF 0
ENDMDL
