MODEL 1
REMARK minimizedAffinity 8.66004944
REMARK minimizedRMSD -1
REMARK  0 active torsions:
REMARK  status: ('A' for Active; 'I' for Inactive)
ROOT
ATOM      1  C1  DEN d   1      -0.305  -1.712   0.579  0.00  0.00     0.130 A 
ATOM      2  C2  DEN d   1       0.870  -1.012   1.090  0.00  0.00    -0.031 A 
ATOM      3  C3  DEN d   1       1.096   0.178   0.246  0.00  0.00     0.027 A 
ATOM      4  C4  DEN d   1      -0.257   1.005  -1.789  0.00  0.00     0.027 A 
ATOM      5  C5  DEN d   1      -1.333   0.736  -2.605  0.00  0.00    -0.003 A 
ATOM      6  C6  DEN d   1      -2.115  -0.376  -2.440  0.00  0.00     0.001 A 
ATOM      7  C7  DEN d   1      -1.860  -1.238  -1.407  0.00  0.00     0.017 A 
ATOM      8  C8  DEN d   1      -0.772  -0.978  -0.584  0.00  0.00    -0.094 A 
ATOM      9  C9  DEN d   1      -0.001   0.159  -0.759  0.00  0.00    -0.072 A 
ENDROOT
TORSDOF 0
ENDMDL
