MODEL 1
REMARK minimizedAffinity 8.32527924
REMARK minimizedRMSD -1
REMARK  0 active torsions:
REMARK  status: ('A' for Active; 'I' for Inactive)
ROOT
ATOM      1  C1  DEN d   1       2.271  -3.927   0.197  0.00  0.00     0.130 A 
ATOM      2  C2  DEN d   1       2.398  -5.370   0.382  0.00  0.00    -0.031 A 
ATOM      3  C3  DEN d   1       1.140  -6.000  -0.067  0.00  0.00     0.027 A 
ATOM      4  C4  DEN d   1      -0.979  -4.887  -1.028  0.00  0.00     0.027 A 
ATOM      5  C5  DEN d   1      -1.562  -3.685  -1.363  0.00  0.00    -0.003 A 
ATOM      6  C6  DEN d   1      -0.927  -2.487  -1.171  0.00  0.00     0.001 A 
ATOM      7  C7  DEN d   1       0.348  -2.467  -0.671  0.00  0.00     0.017 A 
ATOM      8  C8  DEN d   1       0.940  -3.674  -0.325  0.00  0.00    -0.094 A 
ATOM      9  C9  DEN d   1       0.287  -4.876  -0.538  0.00  0.00    -0.072 A 
ENDROOT
TORSDOF 0
ENDMDL
