MODEL 1
REMARK minimizedAffinity 5.49707174
REMARK minimizedRMSD -1
REMARK  0 active torsions:
REMARK  status: ('A' for Active; 'I' for Inactive)
ROOT
ATOM      1  C1  BNZ d   1       5.593  -1.482   4.079  0.00  0.00     0.000 A 
ATOM      2  C2  BNZ d   1       5.114  -1.560   2.798  0.00  0.00     0.000 A 
ATOM      3  C3  BNZ d   1       3.899  -1.026   2.471  0.00  0.00     0.000 A 
ATOM      4  C4  BNZ d   1       3.148  -0.450   3.432  0.00  0.00     0.000 A 
ATOM      5  C5  BNZ d   1       3.613  -0.371   4.729  0.00  0.00     0.000 A 
ATOM      6  C6  BNZ d   1       4.853  -0.876   5.047  0.00  0.00     0.000 A 
ENDROOT
TORSDOF 0
ENDMDL
