MODEL 1
REMARK minimizedAffinity 5.08692217
REMARK minimizedRMSD -1
REMARK  0 active torsions:
REMARK  status: ('A' for Active; 'I' for Inactive)
ROOT
ATOM      1  C1  BNZ d   1       3.376   0.382  -2.499  0.00  0.00     0.000 A 
ATOM      2  C2  BNZ d   1       2.576  -0.147  -1.522  0.00  0.00     0.000 A 
ATOM      3  C3  BNZ d   1       2.628   0.327  -0.241  0.00  0.00     0.000 A 
ATOM      4  C4  BNZ d   1       3.508   1.300   0.070  0.00  0.00     0.000 A 
ATOM      5  C5  BNZ d   1       4.328   1.838  -0.901  0.00  0.00     0.000 A 
ATOM      6  C6  BNZ d   1       4.245   1.385  -2.198  0.00  0.00     0.000 A 
ENDROOT
TORSDOF 0
ENDMDL
