MODEL 1
REMARK minimizedAffinity -1.56514513
REMARK minimizedRMSD -1
REMARK  0 active torsions:
REMARK  status: ('A' for Active; 'I' for Inactive)
ROOT
ATOM      1  C1  BNZ d   1       0.746   5.658   2.083  0.00  0.00     0.000 A 
ATOM      2  C2  BNZ d   1       0.150   4.871   1.133  0.00  0.00     0.000 A 
ATOM      3  C3  BNZ d   1       0.708   3.681   0.760  0.00  0.00     0.000 A 
ATOM      4  C4  BNZ d   1       1.879   3.297   1.306  0.00  0.00     0.000 A 
ATOM      5  C5  BNZ d   1       2.497   4.083   2.258  0.00  0.00     0.000 A 
ATOM      6  C6  BNZ d   1       1.913   5.262   2.660  0.00  0.00     0.000 A 
ENDROOT
TORSDOF 0
ENDMDL
