MODEL 1
REMARK minimizedAffinity -2.8268621
REMARK minimizedRMSD -1
REMARK  0 active torsions:
REMARK  status: ('A' for Active; 'I' for Inactive)
ROOT
ATOM      1  C1  BNZ d   1      -2.283  -4.118  -4.150  0.00  0.00     0.000 A 
ATOM      2  C2  BNZ d   1      -3.204  -3.535  -4.979  0.00  0.00     0.000 A 
ATOM      3  C3  BNZ d   1      -3.329  -2.175  -5.039  0.00  0.00     0.000 A 
ATOM      4  C4  BNZ d   1      -2.562  -1.403  -4.242  0.00  0.00     0.000 A 
ATOM      5  C5  BNZ d   1      -1.636  -1.976  -3.395  0.00  0.00     0.000 A 
ATOM      6  C6  BNZ d   1      -1.485  -3.344  -3.366  0.00  0.00     0.000 A 
ENDROOT
TORSDOF 0
ENDMDL
