MODEL 1
REMARK minimizedAffinity -1.90239084
REMARK minimizedRMSD -1
REMARK  0 active torsions:
REMARK  status: ('A' for Active; 'I' for Inactive)
ROOT
ATOM      1  C1  BNZ d   1      -1.916  -3.902  -3.701  0.00  0.00     0.000 A 
ATOM      2  C2  BNZ d   1      -2.939  -4.228  -4.550  0.00  0.00     0.000 A 
ATOM      3  C3  BNZ d   1      -3.719  -3.257  -5.113  0.00  0.00     0.000 A 
ATOM      4  C4  BNZ d   1      -3.500  -1.964  -4.795  0.00  0.00     0.000 A 
ATOM      5  C5  BNZ d   1      -2.479  -1.620  -3.932  0.00  0.00     0.000 A 
ATOM      6  C6  BNZ d   1      -1.671  -2.598  -3.398  0.00  0.00     0.000 A 
ENDROOT
TORSDOF 0
ENDMDL
