MODEL 1
REMARK minimizedAffinity 6.3104825
REMARK minimizedRMSD -1
REMARK  0 active torsions:
REMARK  status: ('A' for Active; 'I' for Inactive)
ROOT
ATOM      1  C1  BNZ d   1       3.368   1.469   0.683  0.00  0.00     0.000 A 
ATOM      2  C2  BNZ d   1       3.713   1.302   1.997  0.00  0.00     0.000 A 
ATOM      3  C3  BNZ d   1       3.433   0.134   2.651  0.00  0.00     0.000 A 
ATOM      4  C4  BNZ d   1       2.774  -0.848   2.002  0.00  0.00     0.000 A 
ATOM      5  C5  BNZ d   1       2.412  -0.690   0.679  0.00  0.00     0.000 A 
ATOM      6  C6  BNZ d   1       2.730   0.471   0.013  0.00  0.00     0.000 A 
ENDROOT
TORSDOF 0
ENDMDL
