MODEL 1
REMARK minimizedAffinity 4.77342272
REMARK minimizedRMSD -1
REMARK  0 active torsions:
REMARK  status: ('A' for Active; 'I' for Inactive)
ROOT
ATOM      1  C1  BNZ d   1       4.990   1.990  -2.082  0.00  0.00     0.000 A 
ATOM      2  C2  BNZ d   1       3.982   1.386  -1.378  0.00  0.00     0.000 A 
ATOM      3  C3  BNZ d   1       3.961   1.425  -0.012  0.00  0.00     0.000 A 
ATOM      4  C4  BNZ d   1       4.968   2.031   0.649  0.00  0.00     0.000 A 
ATOM      5  C5  BNZ d   1       5.997   2.636  -0.045  0.00  0.00     0.000 A 
ATOM      6  C6  BNZ d   1       5.994   2.629  -1.421  0.00  0.00     0.000 A 
ENDROOT
TORSDOF 0
ENDMDL
