MODEL 1
REMARK minimizedAffinity -4.3906436
REMARK minimizedRMSD -1
REMARK  0 active torsions:
REMARK  status: ('A' for Active; 'I' for Inactive)
ROOT
ATOM      1  C   UNL d   1       3.328   1.014   0.235  0.00  0.00     0.020 A 
ATOM      2  C1  UNL d   1       3.758  -0.283  -0.043  0.00  0.00     0.020 A 
ATOM      3  C2  UNL d   1       2.823  -1.289  -0.296  0.00  0.00     0.034 A 
ATOM      4  C3  UNL d   1       1.454  -1.000  -0.272  0.00  0.00     0.017 A 
ATOM      5  C4  UNL d   1       1.023   0.302   0.007  0.00  0.00     0.017 A 
ATOM      6  C5  UNL d   1       1.963   1.305   0.260  0.00  0.00     0.034 A 
ATOM      7 Cl   UNL d   1      -0.649   0.735   0.055  0.00  0.00    -0.070 Cl
ATOM      8 Cl1  UNL d   1       0.354  -2.293  -0.595  0.00  0.00    -0.070 Cl
ENDROOT
TORSDOF 0
ENDMDL
