MODEL 1
REMARK minimizedAffinity -5.22494221
REMARK minimizedRMSD -1
REMARK  0 active torsions:
REMARK  status: ('A' for Active; 'I' for Inactive)
ROOT
ATOM      1  C   UNL d   1       2.623  -1.036   0.929  0.00  0.00     0.020 A 
ATOM      2  C1  UNL d   1       3.396   0.102   0.700  0.00  0.00     0.020 A 
ATOM      3  C2  UNL d   1       2.793   1.275   0.243  0.00  0.00     0.034 A 
ATOM      4  C3  UNL d   1       1.413   1.314   0.013  0.00  0.00     0.017 A 
ATOM      5  C4  UNL d   1       0.638   0.172   0.242  0.00  0.00     0.017 A 
ATOM      6  C5  UNL d   1       1.247  -1.001   0.700  0.00  0.00     0.034 A 
ATOM      7 Cl   UNL d   1      -1.071   0.143  -0.019  0.00  0.00    -0.070 Cl
ATOM      8 Cl1  UNL d   1       0.734   2.799  -0.552  0.00  0.00    -0.070 Cl
ENDROOT
TORSDOF 0
ENDMDL
