MODEL 1
REMARK minimizedAffinity -0.256410122
REMARK minimizedRMSD -1
REMARK  0 active torsions:
REMARK  status: ('A' for Active; 'I' for Inactive)
ROOT
ATOM      1  C   UNL d   1       2.056   1.072   0.161  0.00  0.00     0.020 A 
ATOM      2  C1  UNL d   1       1.383   2.032  -0.594  0.00  0.00     0.020 A 
ATOM      3  C2  UNL d   1       0.003   1.932  -0.782  0.00  0.00     0.034 A 
ATOM      4  C3  UNL d   1      -0.709   0.869  -0.214  0.00  0.00     0.017 A 
ATOM      5  C4  UNL d   1      -0.032  -0.095   0.543  0.00  0.00     0.017 A 
ATOM      6  C5  UNL d   1       1.350   0.011   0.728  0.00  0.00     0.034 A 
ATOM      7 Cl   UNL d   1      -0.843  -1.435   1.275  0.00  0.00    -0.070 Cl
ATOM      8 Cl1  UNL d   1      -2.414   0.807  -0.487  0.00  0.00    -0.070 Cl
ENDROOT
TORSDOF 0
ENDMDL
