MODEL 1
REMARK minimizedAffinity -0.910356641
REMARK minimizedRMSD -1
REMARK  0 active torsions:
REMARK  status: ('A' for Active; 'I' for Inactive)
ROOT
ATOM      1  C   UNL d   1       0.800   1.783  -0.040  0.00  0.00     0.020 A 
ATOM      2  C1  UNL d   1      -0.442   1.632  -0.657  0.00  0.00     0.020 A 
ATOM      3  C2  UNL d   1      -0.796   0.406  -1.223  0.00  0.00     0.034 A 
ATOM      4  C3  UNL d   1       0.093  -0.675  -1.174  0.00  0.00     0.017 A 
ATOM      5  C4  UNL d   1       1.338  -0.523  -0.554  0.00  0.00     0.017 A 
ATOM      6  C5  UNL d   1       1.688   0.708   0.011  0.00  0.00     0.034 A 
ATOM      7 Cl   UNL d   1       2.487  -1.810  -0.454  0.00  0.00    -0.070 Cl
ATOM      8 Cl1  UNL d   1      -0.411  -2.163  -1.894  0.00  0.00    -0.070 Cl
ENDROOT
TORSDOF 0
ENDMDL
