MODEL 1
REMARK minimizedAffinity -1.26289928
REMARK minimizedRMSD -1
REMARK  0 active torsions:
REMARK  status: ('A' for Active; 'I' for Inactive)
ROOT
ATOM      1  C   UNL d   1      -1.007   0.324  -0.907  0.00  0.00     0.020 A 
ATOM      2  C1  UNL d   1      -1.432   0.718   0.361  0.00  0.00     0.020 A 
ATOM      3  C2  UNL d   1      -0.772   0.245   1.498  0.00  0.00     0.034 A 
ATOM      4  C3  UNL d   1       0.316  -0.625   1.368  0.00  0.00     0.017 A 
ATOM      5  C4  UNL d   1       0.742  -1.021   0.095  0.00  0.00     0.017 A 
ATOM      6  C5  UNL d   1       0.078  -0.544  -1.039  0.00  0.00     0.034 A 
ATOM      7 Cl   UNL d   1       2.077  -2.092  -0.144  0.00  0.00    -0.070 Cl
ATOM      8 Cl1  UNL d   1       1.085  -1.171   2.816  0.00  0.00    -0.070 Cl
ENDROOT
TORSDOF 0
ENDMDL
