MODEL 1
REMARK minimizedAffinity -4.93364954
REMARK minimizedRMSD -1
REMARK  1 active torsions:
REMARK  status: ('A' for Active; 'I' for Inactive)
REMARK    1  A    between atoms: C3_4  and  O_7 
ROOT
ATOM      1  C   UNL d   1      -0.940  -0.494   1.580  0.00  0.00    -0.033 A 
ATOM      2  C1  UNL d   1      -0.823  -1.858   1.303  0.00  0.00     0.039 A 
ATOM      3  C2  UNL d   1      -0.379  -2.282   0.049  0.00  0.00    -0.080 A 
ATOM      4  C3  UNL d   1      -0.055  -1.334  -0.918  0.00  0.00     0.150 A 
ATOM      5  C4  UNL d   1      -0.166   0.026  -0.648  0.00  0.00    -0.007 A 
ATOM      6  C5  UNL d   1      -0.610   0.448   0.605  0.00  0.00     0.039 A 
ENDROOT
BRANCH   4   7
ATOM      7  O   UNL d   1       0.377  -1.700  -2.158  0.00  0.00    -0.526 OA
ATOM      8  H5  UNL d   1       0.376  -2.670  -2.210  0.00  0.00     0.418 HD
ENDBRANCH   4   7
TORSDOF 1
ENDMDL
