MODEL 1
REMARK minimizedAffinity -4.63294983
REMARK minimizedRMSD -1
REMARK  1 active torsions:
REMARK  status: ('A' for Active; 'I' for Inactive)
REMARK    1  A    between atoms: C3_4  and  O_7 
ROOT
ATOM      1  C   UNL d   1      -0.817   0.057   0.955  0.00  0.00    -0.033 A 
ATOM      2  C1  UNL d   1      -0.544  -1.293   0.728  0.00  0.00     0.039 A 
ATOM      3  C2  UNL d   1       0.032  -1.698  -0.478  0.00  0.00    -0.080 A 
ATOM      4  C3  UNL d   1       0.331  -0.744  -1.446  0.00  0.00     0.150 A 
ATOM      5  C4  UNL d   1       0.065   0.604  -1.226  0.00  0.00    -0.007 A 
ATOM      6  C5  UNL d   1      -0.511   1.006  -0.022  0.00  0.00     0.039 A 
ENDROOT
BRANCH   4   7
ATOM      7  O   UNL d   1       0.890  -1.091  -2.640  0.00  0.00    -0.526 OA
ATOM      8  H5  UNL d   1       0.990  -2.058  -2.663  0.00  0.00     0.418 HD
ENDBRANCH   4   7
TORSDOF 1
ENDMDL
