MODEL 1
REMARK minimizedAffinity -2.5105772
REMARK minimizedRMSD -1
REMARK  1 active torsions:
REMARK  status: ('A' for Active; 'I' for Inactive)
REMARK    1  A    between atoms: C3_4  and  O_7 
ROOT
ATOM      1  C   UNL d   1      -1.113  -2.302   0.803  0.00  0.00    -0.033 A 
ATOM      2  C1  UNL d   1      -0.436  -2.257  -0.417  0.00  0.00     0.039 A 
ATOM      3  C2  UNL d   1       0.031  -1.038  -0.914  0.00  0.00    -0.080 A 
ATOM      4  C3  UNL d   1      -0.185   0.126  -0.182  0.00  0.00     0.150 A 
ATOM      5  C4  UNL d   1      -0.856   0.088   1.037  0.00  0.00    -0.007 A 
ATOM      6  C5  UNL d   1      -1.321  -1.130   1.531  0.00  0.00     0.039 A 
ENDROOT
BRANCH   4   7
ATOM      7  O   UNL d   1       0.247   1.339  -0.628  0.00  0.00    -0.526 OA
ATOM      8  H5  UNL d   1       0.667   1.216  -1.496  0.00  0.00     0.418 HD
ENDBRANCH   4   7
TORSDOF 1
ENDMDL
