MODEL 1
REMARK minimizedAffinity -4.34642649
REMARK minimizedRMSD -1
REMARK  1 active torsions:
REMARK  status: ('A' for Active; 'I' for Inactive)
REMARK    1  A    between atoms: C3_4  and  O_7 
ROOT
ATOM      1  C   UNL d   1      -0.614   0.121  -0.022  0.00  0.00    -0.033 A 
ATOM      2  C1  UNL d   1      -1.489  -0.754   0.624  0.00  0.00     0.039 A 
ATOM      3  C2  UNL d   1      -1.188  -2.116   0.698  0.00  0.00    -0.080 A 
ATOM      4  C3  UNL d   1      -0.011  -2.588   0.125  0.00  0.00     0.150 A 
ATOM      5  C4  UNL d   1       0.867  -1.721  -0.517  0.00  0.00    -0.007 A 
ATOM      6  C5  UNL d   1       0.565  -0.362  -0.591  0.00  0.00     0.039 A 
ENDROOT
BRANCH   4   7
ATOM      7  O   UNL d   1       0.323  -3.909   0.168  0.00  0.00    -0.526 OA
ATOM      8  H5  UNL d   1      -0.390  -4.392   0.617  0.00  0.00     0.418 HD
ENDBRANCH   4   7
TORSDOF 1
ENDMDL
