MODEL 1
REMARK minimizedAffinity -3.29276967
REMARK minimizedRMSD -1
REMARK  1 active torsions:
REMARK  status: ('A' for Active; 'I' for Inactive)
REMARK    1  A    between atoms: C3_4  and  O_7 
ROOT
ATOM      1  C   UNL d   1      -0.104   1.050   0.040  0.00  0.00    -0.033 A 
ATOM      2  C1  UNL d   1      -0.762   0.746   1.234  0.00  0.00     0.039 A 
ATOM      3  C2  UNL d   1      -0.889  -0.582   1.644  0.00  0.00    -0.080 A 
ATOM      4  C3  UNL d   1      -0.354  -1.596   0.854  0.00  0.00     0.150 A 
ATOM      5  C4  UNL d   1       0.306  -1.300  -0.334  0.00  0.00    -0.007 A 
ATOM      6  C5  UNL d   1       0.432   0.027  -0.743  0.00  0.00     0.039 A 
ENDROOT
BRANCH   4   7
ATOM      7  O   UNL d   1      -0.458  -2.907   1.211  0.00  0.00    -0.526 OA
ATOM      8  H5  UNL d   1      -0.964  -2.962   2.039  0.00  0.00     0.418 HD
ENDBRANCH   4   7
TORSDOF 1
ENDMDL
