MODEL 1
REMARK minimizedAffinity -3.27944589
REMARK minimizedRMSD -1
REMARK  1 active torsions:
REMARK  status: ('A' for Active; 'I' for Inactive)
REMARK    1  A    between atoms: C3_4  and  O_7 
ROOT
ATOM      1  C   UNL d   1       1.578   3.810  -0.001  0.00  0.00    -0.033 A 
ATOM      2  C1  UNL d   1       0.929   3.784   1.234  0.00  0.00     0.039 A 
ATOM      3  C2  UNL d   1       0.151   2.681   1.593  0.00  0.00    -0.080 A 
ATOM      4  C3  UNL d   1       0.032   1.613   0.708  0.00  0.00     0.150 A 
ATOM      5  C4  UNL d   1       0.679   1.631  -0.523  0.00  0.00    -0.007 A 
ATOM      6  C5  UNL d   1       1.455   2.733  -0.879  0.00  0.00     0.039 A 
ENDROOT
BRANCH   4   7
ATOM      7  O   UNL d   1      -0.720   0.517   1.012  0.00  0.00    -0.526 OA
ATOM      8  H5  UNL d   1      -1.131   0.657   1.881  0.00  0.00     0.418 HD
ENDBRANCH   4   7
TORSDOF 1
ENDMDL
