MODEL 1
REMARK minimizedAffinity -2.84581923
REMARK minimizedRMSD -1
REMARK  1 active torsions:
REMARK  status: ('A' for Active; 'I' for Inactive)
REMARK    1  A    between atoms: C3_4  and  O_7 
ROOT
ATOM      1  C   UNL d   1      -0.274  -2.298   0.581  0.00  0.00    -0.033 A 
ATOM      2  C1  UNL d   1       0.593  -1.928  -0.449  0.00  0.00     0.039 A 
ATOM      3  C2  UNL d   1       0.673  -0.593  -0.850  0.00  0.00    -0.080 A 
ATOM      4  C3  UNL d   1      -0.117   0.361  -0.214  0.00  0.00     0.150 A 
ATOM      5  C4  UNL d   1      -0.980  -0.001   0.815  0.00  0.00    -0.007 A 
ATOM      6  C5  UNL d   1      -1.059  -1.334   1.214  0.00  0.00     0.039 A 
ENDROOT
BRANCH   4   7
ATOM      7  O   UNL d   1      -0.077   1.675  -0.574  0.00  0.00    -0.526 OA
ATOM      8  H5  UNL d   1       0.542   1.772  -1.317  0.00  0.00     0.418 HD
ENDBRANCH   4   7
TORSDOF 1
ENDMDL
