MODEL 1
REMARK minimizedAffinity -2.31559825
REMARK minimizedRMSD -1
REMARK  1 active torsions:
REMARK  status: ('A' for Active; 'I' for Inactive)
REMARK    1  A    between atoms: C3_4  and  O_7 
ROOT
ATOM      1  C   UNL d   1      -0.561   1.644  -0.218  0.00  0.00    -0.033 A 
ATOM      2  C1  UNL d   1      -0.039   2.858  -0.668  0.00  0.00     0.039 A 
ATOM      3  C2  UNL d   1       1.198   3.305  -0.200  0.00  0.00    -0.080 A 
ATOM      4  C3  UNL d   1       1.903   2.529   0.715  0.00  0.00     0.150 A 
ATOM      5  C4  UNL d   1       1.392   1.316   1.165  0.00  0.00    -0.007 A 
ATOM      6  C5  UNL d   1       0.155   0.872   0.698  0.00  0.00     0.039 A 
ENDROOT
BRANCH   4   7
ATOM      7  O   UNL d   1       3.113   2.926   1.204  0.00  0.00    -0.526 OA
ATOM      8  H5  UNL d   1       3.326   3.796   0.827  0.00  0.00     0.418 HD
ENDBRANCH   4   7
TORSDOF 1
ENDMDL
