MODEL 1
REMARK minimizedAffinity -4.42227125
REMARK minimizedRMSD -1
REMARK  1 active torsions:
REMARK  status: ('A' for Active; 'I' for Inactive)
REMARK    1  A    between atoms: C3_4  and  O_7 
ROOT
ATOM      1  C   UNL d   1      -0.347   0.446  -0.080  0.00  0.00    -0.033 A 
ATOM      2  C1  UNL d   1       0.507  -0.430  -0.753  0.00  0.00     0.039 A 
ATOM      3  C2  UNL d   1       0.638  -1.751  -0.320  0.00  0.00    -0.080 A 
ATOM      4  C3  UNL d   1      -0.091  -2.183   0.785  0.00  0.00     0.150 A 
ATOM      5  C4  UNL d   1      -0.947  -1.317   1.457  0.00  0.00    -0.007 A 
ATOM      6  C5  UNL d   1      -1.076   0.002   1.024  0.00  0.00     0.039 A 
ENDROOT
BRANCH   4   7
ATOM      7  O   UNL d   1       0.007  -3.462   1.247  0.00  0.00    -0.526 OA
ATOM      8  H5  UNL d   1       0.656  -3.937   0.702  0.00  0.00     0.418 HD
ENDBRANCH   4   7
TORSDOF 1
ENDMDL
