MODEL 1
REMARK minimizedAffinity -4.77795219
REMARK minimizedRMSD -1
REMARK  1 active torsions:
REMARK  status: ('A' for Active; 'I' for Inactive)
REMARK    1  A    between atoms: C3_4  and  O_7 
ROOT
ATOM      1  C   UNL d   1      -0.294  -3.121   0.824  0.00  0.00    -0.033 A 
ATOM      2  C1  UNL d   1      -1.089  -2.305   1.631  0.00  0.00     0.039 A 
ATOM      3  C2  UNL d   1      -1.125  -0.926   1.412  0.00  0.00    -0.080 A 
ATOM      4  C3  UNL d   1      -0.363  -0.377   0.385  0.00  0.00     0.150 A 
ATOM      5  C4  UNL d   1       0.428  -1.185  -0.426  0.00  0.00    -0.007 A 
ATOM      6  C5  UNL d   1       0.464  -2.561  -0.205  0.00  0.00     0.039 A 
ENDROOT
BRANCH   4   7
ATOM      7  O   UNL d   1      -0.362   0.963   0.136  0.00  0.00    -0.526 OA
ATOM      8  H5  UNL d   1      -0.932   1.398   0.792  0.00  0.00     0.418 HD
ENDBRANCH   4   7
TORSDOF 1
ENDMDL
