MODEL 1
REMARK minimizedAffinity -1.49350166
REMARK minimizedRMSD -1
REMARK  1 active torsions:
REMARK  status: ('A' for Active; 'I' for Inactive)
REMARK    1  A    between atoms: C3_4  and  O_7 
ROOT
ATOM      1  C   UNL d   1       1.920   4.532   0.771  0.00  0.00    -0.033 A 
ATOM      2  C1  UNL d   1       0.645   4.455   1.335  0.00  0.00     0.039 A 
ATOM      3  C2  UNL d   1      -0.168   3.349   1.079  0.00  0.00    -0.080 A 
ATOM      4  C3  UNL d   1       0.306   2.328   0.260  0.00  0.00     0.150 A 
ATOM      5  C4  UNL d   1       1.577   2.396  -0.301  0.00  0.00    -0.007 A 
ATOM      6  C5  UNL d   1       2.386   3.502  -0.046  0.00  0.00     0.039 A 
ENDROOT
BRANCH   4   7
ATOM      7  O   UNL d   1      -0.452   1.230  -0.022  0.00  0.00    -0.526 OA
ATOM      8  H5  UNL d   1      -1.316   1.334   0.411  0.00  0.00     0.418 HD
ENDBRANCH   4   7
TORSDOF 1
ENDMDL
