MODEL 1
REMARK minimizedAffinity -5.22920561
REMARK minimizedRMSD -1
REMARK  1 active torsions:
REMARK  status: ('A' for Active; 'I' for Inactive)
REMARK    1  A    between atoms: C3_4  and  O_7 
ROOT
ATOM      1  C   UNL d   1       0.116  -3.147  -0.708  0.00  0.00    -0.033 A 
ATOM      2  C1  UNL d   1      -0.448  -2.507   0.398  0.00  0.00     0.039 A 
ATOM      3  C2  UNL d   1      -0.411  -1.114   0.494  0.00  0.00    -0.080 A 
ATOM      4  C3  UNL d   1       0.192  -0.375  -0.520  0.00  0.00     0.150 A 
ATOM      5  C4  UNL d   1       0.752  -1.006  -1.626  0.00  0.00    -0.007 A 
ATOM      6  C5  UNL d   1       0.715  -2.397  -1.720  0.00  0.00     0.039 A 
ENDROOT
BRANCH   4   7
ATOM      7  O   UNL d   1       0.256   0.986  -0.468  0.00  0.00    -0.526 OA
ATOM      8  H5  UNL d   1      -0.145   1.281   0.366  0.00  0.00     0.418 HD
ENDBRANCH   4   7
TORSDOF 1
ENDMDL
