MODEL 1
REMARK minimizedAffinity 2.03144407
REMARK minimizedRMSD -1
REMARK  0 active torsions:
REMARK  status: ('A' for Active; 'I' for Inactive)
ROOT
ATOM      1  C   UNL d   1      -2.046  -4.234   1.641  0.00  0.00    -0.002 A 
ATOM      2  C1  UNL d   1      -2.982  -4.467   2.639  0.00  0.00     0.010 A 
ATOM      3  C2  UNL d   1      -4.230  -5.012   2.329  0.00  0.00     0.041 A 
ATOM      4  C3  UNL d   1      -4.523  -5.324   0.987  0.00  0.00    -0.075 A 
ATOM      5  S   UNL d   1      -5.985  -6.000   0.373  0.00  0.00     0.015 SA
ATOM      6  C4  UNL d   1      -5.402  -5.996  -1.228  0.00  0.00     0.022 A 
ATOM      7  C5  UNL d   1      -4.125  -5.495  -1.311  0.00  0.00     0.026 A 
ATOM      8  C6  UNL d   1      -3.597  -5.099  -0.035  0.00  0.00    -0.082 A 
ATOM      9  C7  UNL d   1      -2.341  -4.545   0.311  0.00  0.00     0.045 A 
ENDROOT
TORSDOF 0
ENDMDL
