MODEL 1
REMARK minimizedAffinity -3.22212529
REMARK minimizedRMSD -1
REMARK  0 active torsions:
REMARK  status: ('A' for Active; 'I' for Inactive)
ROOT
ATOM      1  C   UNL d   1       0.176  -2.523   2.292  0.00  0.00    -0.002 A 
ATOM      2  C1  UNL d   1       1.436  -2.642   1.723  0.00  0.00     0.010 A 
ATOM      3  C2  UNL d   1       1.879  -1.713   0.779  0.00  0.00     0.041 A 
ATOM      4  C3  UNL d   1       1.027  -0.652   0.414  0.00  0.00    -0.075 A 
ATOM      5  S   UNL d   1       1.358   0.604  -0.720  0.00  0.00     0.015 SA
ATOM      6  C4  UNL d   1      -0.166   1.327  -0.475  0.00  0.00     0.022 A 
ATOM      7  C5  UNL d   1      -0.921   0.641   0.446  0.00  0.00     0.026 A 
ATOM      8  C6  UNL d   1      -0.246  -0.511   0.974  0.00  0.00    -0.082 A 
ATOM      9  C7  UNL d   1      -0.666  -1.469   1.928  0.00  0.00     0.045 A 
ENDROOT
TORSDOF 0
ENDMDL
