MODEL 1
REMARK minimizedAffinity -0.224798292
REMARK minimizedRMSD -1
REMARK  0 active torsions:
REMARK  status: ('A' for Active; 'I' for Inactive)
ROOT
ATOM      1  C   UNL d   1       1.981  -0.973   0.239  0.00  0.00    -0.002 A 
ATOM      2  C1  UNL d   1       1.500   0.135  -0.443  0.00  0.00     0.010 A 
ATOM      3  C2  UNL d   1       0.215   0.621  -0.191  0.00  0.00     0.041 A 
ATOM      4  C3  UNL d   1      -0.584  -0.030   0.769  0.00  0.00    -0.075 A 
ATOM      5  S   UNL d   1      -2.188   0.389   1.243  0.00  0.00     0.015 SA
ATOM      6  C4  UNL d   1      -2.271  -0.893   2.364  0.00  0.00     0.022 A 
ATOM      7  C5  UNL d   1      -1.112  -1.632   2.388  0.00  0.00     0.026 A 
ATOM      8  C6  UNL d   1      -0.121  -1.147   1.470  0.00  0.00    -0.082 A 
ATOM      9  C7  UNL d   1       1.186  -1.616   1.191  0.00  0.00     0.045 A 
ENDROOT
TORSDOF 0
ENDMDL
