MODEL 1
REMARK minimizedAffinity 1.03818977
REMARK minimizedRMSD -1
REMARK  0 active torsions:
REMARK  status: ('A' for Active; 'I' for Inactive)
ROOT
ATOM      1  C   UNL d   1       0.049  -3.074   1.029  0.00  0.00    -0.002 A 
ATOM      2  C1  UNL d   1      -1.116  -2.320   1.037  0.00  0.00     0.010 A 
ATOM      3  C2  UNL d   1      -1.108  -0.996   0.594  0.00  0.00     0.041 A 
ATOM      4  C3  UNL d   1       0.102  -0.437   0.137  0.00  0.00    -0.075 A 
ATOM      5  S   UNL d   1       0.351   1.164  -0.452  0.00  0.00     0.015 SA
ATOM      6  C4  UNL d   1       2.009   0.884  -0.728  0.00  0.00     0.022 A 
ATOM      7  C5  UNL d   1       2.381  -0.394  -0.384  0.00  0.00     0.026 A 
ATOM      8  C6  UNL d   1       1.288  -1.177   0.120  0.00  0.00    -0.082 A 
ATOM      9  C7  UNL d   1       1.247  -2.516   0.576  0.00  0.00     0.045 A 
ENDROOT
TORSDOF 0
ENDMDL
