MODEL 1
REMARK minimizedAffinity -4.22507763
REMARK minimizedRMSD -1
REMARK  0 active torsions:
REMARK  status: ('A' for Active; 'I' for Inactive)
ROOT
ATOM      1  C   UNL d   1       1.646  -2.601   0.591  0.00  0.00    -0.002 A 
ATOM      2  C1  UNL d   1       0.341  -2.925   0.933  0.00  0.00     0.010 A 
ATOM      3  C2  UNL d   1      -0.667  -1.960   0.885  0.00  0.00     0.041 A 
ATOM      4  C3  UNL d   1      -0.338  -0.651   0.481  0.00  0.00    -0.075 A 
ATOM      5  S   UNL d   1      -1.407   0.694   0.346  0.00  0.00     0.015 SA
ATOM      6  C4  UNL d   1      -0.157   1.732  -0.170  0.00  0.00     0.022 A 
ATOM      7  C5  UNL d   1       1.053   1.084  -0.242  0.00  0.00     0.026 A 
ATOM      8  C6  UNL d   1       0.969  -0.300   0.131  0.00  0.00    -0.082 A 
ATOM      9  C7  UNL d   1       1.969  -1.301   0.191  0.00  0.00     0.045 A 
ENDROOT
TORSDOF 0
ENDMDL
