MODEL 1
REMARK minimizedAffinity 2.04879093
REMARK minimizedRMSD -1
REMARK  0 active torsions:
REMARK  status: ('A' for Active; 'I' for Inactive)
ROOT
ATOM      1  C   UNL d   1       0.257   1.124  -1.505  0.00  0.00    -0.002 A 
ATOM      2  C1  UNL d   1      -0.859   1.271  -0.695  0.00  0.00     0.010 A 
ATOM      3  C2  UNL d   1      -0.972   0.551   0.496  0.00  0.00     0.041 A 
ATOM      4  C3  UNL d   1       0.068  -0.326   0.863  0.00  0.00    -0.075 A 
ATOM      5  S   UNL d   1       0.147  -1.310   2.277  0.00  0.00     0.015 SA
ATOM      6  C4  UNL d   1       1.666  -1.947   1.839  0.00  0.00     0.022 A 
ATOM      7  C5  UNL d   1       2.116  -1.433   0.646  0.00  0.00     0.026 A 
ATOM      8  C6  UNL d   1       1.203  -0.490   0.064  0.00  0.00    -0.082 A 
ATOM      9  C7  UNL d   1       1.287   0.253  -1.138  0.00  0.00     0.045 A 
ENDROOT
TORSDOF 0
ENDMDL
