MODEL 1
REMARK minimizedAffinity -3.93364716
REMARK minimizedRMSD -1
REMARK  0 active torsions:
REMARK  status: ('A' for Active; 'I' for Inactive)
ROOT
ATOM      1  C   UNL d   1       0.327  -2.981   1.880  0.00  0.00    -0.002 A 
ATOM      2  C1  UNL d   1       1.603  -2.864   1.347  0.00  0.00     0.010 A 
ATOM      3  C2  UNL d   1       1.935  -1.781   0.531  0.00  0.00     0.041 A 
ATOM      4  C3  UNL d   1       0.954  -0.808   0.257  0.00  0.00    -0.075 A 
ATOM      5  S   UNL d   1       1.134   0.604  -0.715  0.00  0.00     0.015 SA
ATOM      6  C4  UNL d   1      -0.478   1.086  -0.445  0.00  0.00     0.022 A 
ATOM      7  C5  UNL d   1      -1.152   0.203   0.364  0.00  0.00     0.026 A 
ATOM      8  C6  UNL d   1      -0.338  -0.903   0.783  0.00  0.00    -0.082 A 
ATOM      9  C7  UNL d   1      -0.644  -2.014   1.606  0.00  0.00     0.045 A 
ENDROOT
TORSDOF 0
ENDMDL
