MODEL 1
REMARK minimizedAffinity -4.85325336
REMARK minimizedRMSD -1
REMARK  0 active torsions:
REMARK  status: ('A' for Active; 'I' for Inactive)
ROOT
ATOM      1  C   UNL d   1       1.118  -3.114   1.719  0.00  0.00    -0.002 A 
ATOM      2  C1  UNL d   1      -0.119  -2.727   2.214  0.00  0.00     0.010 A 
ATOM      3  C2  UNL d   1      -0.734  -1.560   1.759  0.00  0.00     0.041 A 
ATOM      4  C3  UNL d   1      -0.078  -0.780   0.785  0.00  0.00    -0.075 A 
ATOM      5  S   UNL d   1      -0.640   0.689   0.079  0.00  0.00     0.015 SA
ATOM      6  C4  UNL d   1       0.748   0.837  -0.899  0.00  0.00     0.022 A 
ATOM      7  C5  UNL d   1       1.629  -0.199  -0.703  0.00  0.00     0.026 A 
ATOM      8  C6  UNL d   1       1.168  -1.149   0.270  0.00  0.00    -0.082 A 
ATOM      9  C7  UNL d   1       1.765  -2.338   0.753  0.00  0.00     0.045 A 
ENDROOT
TORSDOF 0
ENDMDL
