MODEL 1
REMARK minimizedAffinity -2.979563
REMARK minimizedRMSD -1
REMARK  0 active torsions:
REMARK  status: ('A' for Active; 'I' for Inactive)
ROOT
ATOM      1  C   UNL d   1       0.155  -2.741   2.260  0.00  0.00    -0.002 A 
ATOM      2  C1  UNL d   1       1.453  -2.689   1.772  0.00  0.00     0.010 A 
ATOM      3  C2  UNL d   1       1.830  -1.702   0.859  0.00  0.00     0.041 A 
ATOM      4  C3  UNL d   1       0.871  -0.758   0.442  0.00  0.00    -0.075 A 
ATOM      5  S   UNL d   1       1.105   0.541  -0.667  0.00  0.00     0.015 SA
ATOM      6  C4  UNL d   1      -0.512   1.058  -0.518  0.00  0.00     0.022 A 
ATOM      7  C5  UNL d   1      -1.227   0.271   0.353  0.00  0.00     0.026 A 
ATOM      8  C6  UNL d   1      -0.442  -0.789   0.921  0.00  0.00    -0.082 A 
ATOM      9  C7  UNL d   1      -0.793  -1.802   1.845  0.00  0.00     0.045 A 
ENDROOT
TORSDOF 0
ENDMDL
