MODEL 1
REMARK minimizedAffinity -1.23714626
REMARK minimizedRMSD -1
REMARK  1 active torsions:
REMARK  status: ('A' for Active; 'I' for Inactive)
REMARK    1  A    between atoms: C1_2  and  C2_3 
ROOT
ATOM      1  C2  UNL d   1       3.902   5.783   3.807  0.00  0.00    -0.077 A 
ATOM      2  C3  UNL d   1       2.892   5.769   2.835  0.00  0.00     0.002 A 
ATOM      3  C4  UNL d   1       1.550   5.866   3.210  0.00  0.00     0.002 A 
ATOM      4  C5  UNL d   1       1.207   5.983   4.555  0.00  0.00    -0.004 A 
ATOM      5  C6  UNL d   1       2.205   5.996   5.529  0.00  0.00     0.002 A 
ATOM      6  C7  UNL d   1       3.546   5.898   5.157  0.00  0.00     0.002 A 
ENDROOT
BRANCH   1   7
ATOM      7  C1  UNL d   1       5.352   5.727   3.401  0.00  0.00     0.055 C 
ATOM      8  C   UNL d   1       5.651   4.478   2.586  0.00  0.00     0.019 C 
ENDBRANCH   1   7
TORSDOF 1
ENDMDL
