MODEL 1
REMARK minimizedAffinity 1.85014844
REMARK minimizedRMSD -1
REMARK  1 active torsions:
REMARK  status: ('A' for Active; 'I' for Inactive)
REMARK    1  A    between atoms: C1_2  and  C2_3 
ROOT
ATOM      1  C2  UNL d   1      -0.319  -1.916   2.396  0.00  0.00    -0.077 A 
ATOM      2  C3  UNL d   1      -0.239  -0.721   1.667  0.00  0.00     0.002 A 
ATOM      3  C4  UNL d   1       0.737  -0.559   0.682  0.00  0.00     0.002 A 
ATOM      4  C5  UNL d   1       1.636  -1.589   0.413  0.00  0.00    -0.004 A 
ATOM      5  C6  UNL d   1       1.566  -2.780   1.134  0.00  0.00     0.002 A 
ATOM      6  C7  UNL d   1       0.592  -2.944   2.120  0.00  0.00     0.002 A 
ENDROOT
BRANCH   1   7
ATOM      7  C1  UNL d   1      -1.401  -2.112   3.425  0.00  0.00     0.055 C 
ATOM      8  C   UNL d   1      -1.982  -3.517   3.358  0.00  0.00     0.019 C 
ENDBRANCH   1   7
TORSDOF 1
ENDMDL
