MODEL 1
REMARK minimizedAffinity 1.30011499
REMARK minimizedRMSD -1
REMARK  1 active torsions:
REMARK  status: ('A' for Active; 'I' for Inactive)
REMARK    1  A    between atoms: C1_2  and  C2_3 
ROOT
ATOM      1  C2  UNL d   1      -0.068  -1.108   1.780  0.00  0.00    -0.077 A 
ATOM      2  C3  UNL d   1       0.943  -1.811   1.110  0.00  0.00     0.002 A 
ATOM      3  C4  UNL d   1       1.195  -3.150   1.416  0.00  0.00     0.002 A 
ATOM      4  C5  UNL d   1       0.438  -3.798   2.390  0.00  0.00    -0.004 A 
ATOM      5  C6  UNL d   1      -0.568  -3.107   3.064  0.00  0.00     0.002 A 
ATOM      6  C7  UNL d   1      -0.821  -1.769   2.760  0.00  0.00     0.002 A 
ENDROOT
BRANCH   1   7
ATOM      7  C1  UNL d   1      -0.374   0.321   1.417  0.00  0.00     0.055 C 
ATOM      8  C   UNL d   1      -1.674   0.426   0.631  0.00  0.00     0.019 C 
ENDBRANCH   1   7
TORSDOF 1
ENDMDL
