MODEL 1
REMARK minimizedAffinity -3.41663957
REMARK minimizedRMSD -1
REMARK  1 active torsions:
REMARK  status: ('A' for Active; 'I' for Inactive)
REMARK    1  A    between atoms: C1_2  and  C2_3 
ROOT
ATOM      1  C2  UNL d   1       0.361  -2.037   2.334  0.00  0.00    -0.077 A 
ATOM      2  C3  UNL d   1      -0.733  -2.037   3.211  0.00  0.00     0.002 A 
ATOM      3  C4  UNL d   1      -1.836  -1.217   2.965  0.00  0.00     0.002 A 
ATOM      4  C5  UNL d   1      -1.857  -0.395   1.840  0.00  0.00    -0.004 A 
ATOM      5  C6  UNL d   1      -0.774  -0.386   0.963  0.00  0.00     0.002 A 
ATOM      6  C7  UNL d   1       0.330  -1.204   1.208  0.00  0.00     0.002 A 
ENDROOT
BRANCH   1   7
ATOM      7  C1  UNL d   1       1.529  -2.957   2.571  0.00  0.00     0.055 C 
ATOM      8  C   UNL d   1       1.765  -3.872   1.378  0.00  0.00     0.019 C 
ENDBRANCH   1   7
TORSDOF 1
ENDMDL
