MODEL 1
REMARK minimizedAffinity -1.96912456
REMARK minimizedRMSD -1
REMARK  1 active torsions:
REMARK  status: ('A' for Active; 'I' for Inactive)
REMARK    1  A    between atoms: C1_2  and  C2_3 
ROOT
ATOM      1  C2  UNL d   1      -0.238  -0.820   0.988  0.00  0.00    -0.077 A 
ATOM      2  C3  UNL d   1       0.760  -1.341   0.153  0.00  0.00     0.002 A 
ATOM      3  C4  UNL d   1       1.772  -2.147   0.680  0.00  0.00     0.002 A 
ATOM      4  C5  UNL d   1       1.792  -2.442   2.042  0.00  0.00    -0.004 A 
ATOM      5  C6  UNL d   1       0.804  -1.927   2.880  0.00  0.00     0.002 A 
ATOM      6  C7  UNL d   1      -0.207  -1.120   2.356  0.00  0.00     0.002 A 
ENDROOT
BRANCH   1   7
ATOM      7  C1  UNL d   1      -1.358   0.008   0.414  0.00  0.00     0.055 C 
ATOM      8  C   UNL d   1      -2.712  -0.456   0.931  0.00  0.00     0.019 C 
ENDBRANCH   1   7
TORSDOF 1
ENDMDL
