MODEL 1
REMARK minimizedAffinity -4.3316226
REMARK minimizedRMSD -1
REMARK  1 active torsions:
REMARK  status: ('A' for Active; 'I' for Inactive)
REMARK    1  A    between atoms: C1_2  and  C2_3 
ROOT
ATOM      1  C2  UNL d   1       0.769  -2.277   1.790  0.00  0.00    -0.077 A 
ATOM      2  C3  UNL d   1       0.415  -1.847   0.503  0.00  0.00     0.002 A 
ATOM      3  C4  UNL d   1      -0.665  -0.981   0.321  0.00  0.00     0.002 A 
ATOM      4  C5  UNL d   1      -1.396  -0.534   1.419  0.00  0.00    -0.004 A 
ATOM      5  C6  UNL d   1      -1.052  -0.957   2.703  0.00  0.00     0.002 A 
ATOM      6  C7  UNL d   1       0.026  -1.824   2.887  0.00  0.00     0.002 A 
ENDROOT
BRANCH   1   7
ATOM      7  C1  UNL d   1       1.964  -3.171   1.994  0.00  0.00     0.055 C 
ATOM      8  C   UNL d   1       1.799  -4.492   1.256  0.00  0.00     0.019 C 
ENDBRANCH   1   7
TORSDOF 1
ENDMDL
