MODEL 1
REMARK minimizedAffinity -3.25564694
REMARK minimizedRMSD -1
REMARK  1 active torsions:
REMARK  status: ('A' for Active; 'I' for Inactive)
REMARK    1  A    between atoms: C1_2  and  C2_3 
ROOT
ATOM      1  C2  UNL d   1       0.410  -3.293   1.995  0.00  0.00    -0.077 A 
ATOM      2  C3  UNL d   1      -0.341  -2.927   3.121  0.00  0.00     0.002 A 
ATOM      3  C4  UNL d   1      -1.020  -1.708   3.152  0.00  0.00     0.002 A 
ATOM      4  C5  UNL d   1      -0.958  -0.846   2.058  0.00  0.00    -0.004 A 
ATOM      5  C6  UNL d   1      -0.213  -1.200   0.934  0.00  0.00     0.002 A 
ATOM      6  C7  UNL d   1       0.468  -2.418   0.902  0.00  0.00     0.002 A 
ENDROOT
BRANCH   1   7
ATOM      7  C1  UNL d   1       1.103  -4.629   1.940  0.00  0.00     0.055 C 
ATOM      8  C   UNL d   1       2.481  -4.513   1.305  0.00  0.00     0.019 C 
ENDBRANCH   1   7
TORSDOF 1
ENDMDL
