MODEL 1
REMARK minimizedAffinity 1.25445998
REMARK minimizedRMSD -1
REMARK  1 active torsions:
REMARK  status: ('A' for Active; 'I' for Inactive)
REMARK    1  A    between atoms: C1_2  and  C2_3 
ROOT
ATOM      1  C2  UNL d   1      -2.743  -0.319   1.340  0.00  0.00    -0.077 A 
ATOM      2  C3  UNL d   1      -1.639  -0.408   2.200  0.00  0.00     0.002 A 
ATOM      3  C4  UNL d   1      -0.354  -0.579   1.683  0.00  0.00     0.002 A 
ATOM      4  C5  UNL d   1      -0.160  -0.657   0.305  0.00  0.00    -0.004 A 
ATOM      5  C6  UNL d   1      -1.251  -0.572  -0.558  0.00  0.00     0.002 A 
ATOM      6  C7  UNL d   1      -2.537  -0.402  -0.043  0.00  0.00     0.002 A 
ENDROOT
BRANCH   1   7
ATOM      7  C1  UNL d   1      -4.125  -0.085   1.893  0.00  0.00     0.055 C 
ATOM      8  C   UNL d   1      -5.179  -0.818   1.077  0.00  0.00     0.019 C 
ENDBRANCH   1   7
TORSDOF 1
ENDMDL
