MODEL 1
REMARK minimizedAffinity -3.73728251
REMARK minimizedRMSD -1
REMARK  0 active torsions:
REMARK  status: ('A' for Active; 'I' for Inactive)
ROOT
ATOM      1  C   UNL d   1       3.756  -0.453   1.580  0.00  0.00     0.078 C 
ATOM      2  C1  UNL d   1       2.383  -0.186   1.040  0.00  0.00    -0.077 A 
ATOM      3  C2  UNL d   1       1.501  -1.237   0.761  0.00  0.00    -0.001 A 
ATOM      4  C3  UNL d   1       0.229  -0.975   0.250  0.00  0.00     0.003 A 
ATOM      5  C4  UNL d   1      -0.172   0.338   0.011  0.00  0.00    -0.005 A 
ATOM      6  C5  UNL d   1       0.700   1.390   0.284  0.00  0.00     0.003 A 
ATOM      7  C6  UNL d   1       1.972   1.130   0.795  0.00  0.00    -0.001 A 
ENDROOT
TORSDOF 0
ENDMDL
