MODEL 1
REMARK minimizedAffinity -2.0348947
REMARK minimizedRMSD -1
REMARK  0 active torsions:
REMARK  status: ('A' for Active; 'I' for Inactive)
ROOT
ATOM      1  C   UNL d   1       3.765  -0.913   1.476  0.00  0.00     0.078 C 
ATOM      2  C1  UNL d   1       2.476  -0.272   1.056  0.00  0.00    -0.077 A 
ATOM      3  C2  UNL d   1       1.526  -0.983   0.313  0.00  0.00    -0.001 A 
ATOM      4  C3  UNL d   1       0.334  -0.371  -0.079  0.00  0.00     0.003 A 
ATOM      5  C4  UNL d   1       0.082   0.955   0.266  0.00  0.00    -0.005 A 
ATOM      6  C5  UNL d   1       1.023   1.671   1.004  0.00  0.00     0.003 A 
ATOM      7  C6  UNL d   1       2.215   1.061   1.397  0.00  0.00    -0.001 A 
ENDROOT
TORSDOF 0
ENDMDL
