MODEL 1
REMARK minimizedAffinity -5.08510351
REMARK minimizedRMSD -1
REMARK  0 active torsions:
REMARK  status: ('A' for Active; 'I' for Inactive)
ROOT
ATOM      1  C   UNL d   1      -1.179   0.123  -0.251  0.00  0.00     0.078 C 
ATOM      2  C1  UNL d   1       0.267  -0.021   0.118  0.00  0.00    -0.077 A 
ATOM      3  C2  UNL d   1       0.919  -1.256   0.012  0.00  0.00    -0.001 A 
ATOM      4  C3  UNL d   1       2.263  -1.377   0.368  0.00  0.00     0.003 A 
ATOM      5  C4  UNL d   1       2.966  -0.268   0.834  0.00  0.00    -0.005 A 
ATOM      6  C5  UNL d   1       2.326   0.964   0.946  0.00  0.00     0.003 A 
ATOM      7  C6  UNL d   1       0.982   1.087   0.590  0.00  0.00    -0.001 A 
ENDROOT
TORSDOF 0
ENDMDL
