MODEL 1
REMARK minimizedAffinity -2.57275772
REMARK minimizedRMSD -1
REMARK  0 active torsions:
REMARK  status: ('A' for Active; 'I' for Inactive)
ROOT
ATOM      1  C   UNL d   1      -1.379   0.049  -0.560  0.00  0.00     0.078 C 
ATOM      2  C1  UNL d   1      -0.003   0.067   0.035  0.00  0.00    -0.077 A 
ATOM      3  C2  UNL d   1       0.756   1.244   0.061  0.00  0.00    -0.001 A 
ATOM      4  C3  UNL d   1       2.039   1.244   0.611  0.00  0.00     0.003 A 
ATOM      5  C4  UNL d   1       2.575   0.071   1.137  0.00  0.00    -0.005 A 
ATOM      6  C5  UNL d   1       1.828  -1.105   1.113  0.00  0.00     0.003 A 
ATOM      7  C6  UNL d   1       0.545  -1.108   0.565  0.00  0.00    -0.001 A 
ENDROOT
TORSDOF 0
ENDMDL
