MODEL 1
REMARK minimizedAffinity -4.17617607
REMARK minimizedRMSD -1
REMARK  0 active torsions:
REMARK  status: ('A' for Active; 'I' for Inactive)
ROOT
ATOM      1  C   UNL d   1       3.460  -0.514   0.567  0.00  0.00     0.078 C 
ATOM      2  C1  UNL d   1       2.035  -0.059   0.462  0.00  0.00    -0.077 A 
ATOM      3  C2  UNL d   1       1.721   1.290   0.256  0.00  0.00    -0.001 A 
ATOM      4  C3  UNL d   1       0.390   1.700   0.170  0.00  0.00     0.003 A 
ATOM      5  C4  UNL d   1      -0.638   0.768   0.291  0.00  0.00    -0.005 A 
ATOM      6  C5  UNL d   1      -0.336  -0.577   0.498  0.00  0.00     0.003 A 
ATOM      7  C6  UNL d   1       0.994  -0.989   0.584  0.00  0.00    -0.001 A 
ENDROOT
TORSDOF 0
ENDMDL
