MODEL 1
REMARK minimizedAffinity -3.15501976
REMARK minimizedRMSD -1
REMARK  0 active torsions:
REMARK  status: ('A' for Active; 'I' for Inactive)
ROOT
ATOM      1  C   UNL d   1      -2.729  -0.394  -2.052  0.00  0.00     0.078 C 
ATOM      2  C1  UNL d   1      -1.640  -0.187  -1.043  0.00  0.00    -0.077 A 
ATOM      3  C2  UNL d   1      -0.847   0.966  -1.064  0.00  0.00    -0.001 A 
ATOM      4  C3  UNL d   1       0.170   1.141  -0.124  0.00  0.00     0.003 A 
ATOM      5  C4  UNL d   1       0.404   0.166   0.844  0.00  0.00    -0.005 A 
ATOM      6  C5  UNL d   1      -0.379  -0.986   0.871  0.00  0.00     0.003 A 
ATOM      7  C6  UNL d   1      -1.396  -1.163  -0.068  0.00  0.00    -0.001 A 
ENDROOT
TORSDOF 0
ENDMDL
