MODEL 1
REMARK minimizedAffinity -4.28615856
REMARK minimizedRMSD -1
REMARK  0 active torsions:
REMARK  status: ('A' for Active; 'I' for Inactive)
ROOT
ATOM      1  C   UNL d   1      -1.473   0.017  -0.408  0.00  0.00     0.078 C 
ATOM      2  C1  UNL d   1      -0.064   0.389  -0.057  0.00  0.00    -0.077 A 
ATOM      3  C2  UNL d   1       0.401   1.698  -0.232  0.00  0.00    -0.001 A 
ATOM      4  C3  UNL d   1       1.719   2.028   0.090  0.00  0.00     0.003 A 
ATOM      5  C4  UNL d   1       2.582   1.055   0.588  0.00  0.00    -0.005 A 
ATOM      6  C5  UNL d   1       2.129  -0.251   0.764  0.00  0.00     0.003 A 
ATOM      7  C6  UNL d   1       0.812  -0.583   0.442  0.00  0.00    -0.001 A 
ENDROOT
TORSDOF 0
ENDMDL
