MODEL 1
REMARK minimizedAffinity -4.62868309
REMARK minimizedRMSD -1
REMARK  0 active torsions:
REMARK  status: ('A' for Active; 'I' for Inactive)
ROOT
ATOM      1  C   UNL d   1       3.345  -0.329   0.468  0.00  0.00     0.078 C 
ATOM      2  C1  UNL d   1       1.870  -0.061   0.444  0.00  0.00    -0.077 A 
ATOM      3  C2  UNL d   1       1.376   1.248   0.395  0.00  0.00    -0.001 A 
ATOM      4  C3  UNL d   1      -0.000   1.483   0.382  0.00  0.00     0.003 A 
ATOM      5  C4  UNL d   1      -0.893   0.414   0.420  0.00  0.00    -0.005 A 
ATOM      6  C5  UNL d   1      -0.410  -0.892   0.471  0.00  0.00     0.003 A 
ATOM      7  C6  UNL d   1       0.965  -1.129   0.484  0.00  0.00    -0.001 A 
ENDROOT
TORSDOF 0
ENDMDL
