MODEL 1
REMARK minimizedAffinity 10.6122313
REMARK minimizedRMSD -1
REMARK  0 active torsions:
REMARK  status: ('A' for Active; 'I' for Inactive)
ROOT
ATOM      1  C4' PXY d   1       0.686   1.878   0.711  0.00  0.00     0.077 C 
ATOM      2  C1' PXY d   1      -3.320   5.995   1.357  0.00  0.00     0.077 C 
ATOM      3  C1  PXY d   1      -2.261   4.924   1.182  0.00  0.00    -0.082 A 
ATOM      4  C2  PXY d   1      -2.622   3.653   1.108  0.00  0.00     0.003 A 
ATOM      5  C3  PXY d   1      -1.675   2.669   0.982  0.00  0.00     0.003 A 
ATOM      6  C4  PXY d   1      -0.349   2.994   0.878  0.00  0.00    -0.082 A 
ATOM      7  C5  PXY d   1       0.026   4.289   0.941  0.00  0.00     0.003 A 
ATOM      8  C6  PXY d   1      -0.947   5.269   1.111  0.00  0.00     0.003 A 
ENDROOT
TORSDOF 0
ENDMDL
