MODEL 1
REMARK minimizedAffinity 2.36079526
REMARK minimizedRMSD -1
REMARK  0 active torsions:
REMARK  status: ('A' for Active; 'I' for Inactive)
ROOT
ATOM      1  C4' PXY d   1       1.186  -1.785   3.492  0.00  0.00     0.077 C 
ATOM      2  C1' PXY d   1      -0.026  -5.100  -1.086  0.00  0.00     0.077 C 
ATOM      3  C1  PXY d   1       0.286  -4.221   0.109  0.00  0.00    -0.082 A 
ATOM      4  C2  PXY d   1       1.300  -4.529   0.901  0.00  0.00     0.003 A 
ATOM      5  C3  PXY d   1       1.576  -3.763   2.004  0.00  0.00     0.003 A 
ATOM      6  C4  PXY d   1       0.840  -2.639   2.269  0.00  0.00    -0.082 A 
ATOM      7  C5  PXY d   1      -0.189  -2.312   1.460  0.00  0.00     0.003 A 
ATOM      8  C6  PXY d   1      -0.479  -3.126   0.369  0.00  0.00     0.003 A 
ENDROOT
TORSDOF 0
ENDMDL
