MODEL 1
REMARK minimizedAffinity 1.54182756
REMARK minimizedRMSD -1
REMARK  0 active torsions:
REMARK  status: ('A' for Active; 'I' for Inactive)
ROOT
ATOM      1  C4' PXY d   1       2.779  -1.972   0.493  0.00  0.00     0.077 C 
ATOM      2  C1' PXY d   1       1.291  -2.937   5.995  0.00  0.00     0.077 C 
ATOM      3  C1  PXY d   1       1.670  -2.677   4.550  0.00  0.00    -0.082 A 
ATOM      4  C2  PXY d   1       2.505  -3.499   3.935  0.00  0.00     0.003 A 
ATOM      5  C3  PXY d   1       2.883  -3.261   2.639  0.00  0.00     0.003 A 
ATOM      6  C4  PXY d   1       2.361  -2.201   1.948  0.00  0.00    -0.082 A 
ATOM      7  C5  PXY d   1       1.500  -1.364   2.565  0.00  0.00     0.003 A 
ATOM      8  C6  PXY d   1       1.161  -1.599   3.894  0.00  0.00     0.003 A 
ENDROOT
TORSDOF 0
ENDMDL
