MODEL 1
REMARK minimizedAffinity 8.53452015
REMARK minimizedRMSD -1
REMARK  0 active torsions:
REMARK  status: ('A' for Active; 'I' for Inactive)
ROOT
ATOM      1  C4' PXY d   1       2.626  -1.881   0.499  0.00  0.00     0.077 C 
ATOM      2  C1' PXY d   1       1.165  -2.894   6.000  0.00  0.00     0.077 C 
ATOM      3  C1  PXY d   1       1.538  -2.620   4.556  0.00  0.00    -0.082 A 
ATOM      4  C2  PXY d   1       2.262  -3.504   3.889  0.00  0.00     0.003 A 
ATOM      5  C3  PXY d   1       2.635  -3.258   2.592  0.00  0.00     0.003 A 
ATOM      6  C4  PXY d   1       2.218  -2.120   1.955  0.00  0.00    -0.082 A 
ATOM      7  C5  PXY d   1       1.469  -1.219   2.626  0.00  0.00     0.003 A 
ATOM      8  C6  PXY d   1       1.136  -1.468   3.954  0.00  0.00     0.003 A 
ENDROOT
TORSDOF 0
ENDMDL
