MODEL 1
REMARK minimizedAffinity 8.36573696
REMARK minimizedRMSD -1
REMARK  0 active torsions:
REMARK  status: ('A' for Active; 'I' for Inactive)
ROOT
ATOM      1  C4' PXY d   1       5.997  -5.557  -2.299  0.00  0.00     0.077 C 
ATOM      2  C1' PXY d   1       3.018  -1.818   0.951  0.00  0.00     0.077 C 
ATOM      3  C1  PXY d   1       3.811  -2.792   0.102  0.00  0.00    -0.082 A 
ATOM      4  C2  PXY d   1       3.219  -3.412  -0.907  0.00  0.00     0.003 A 
ATOM      5  C3  PXY d   1       3.912  -4.320  -1.665  0.00  0.00     0.003 A 
ATOM      6  C4  PXY d   1       5.238  -4.558  -1.421  0.00  0.00    -0.082 A 
ATOM      7  C5  PXY d   1       5.852  -3.922  -0.400  0.00  0.00     0.003 A 
ATOM      8  C6  PXY d   1       5.120  -3.034   0.383  0.00  0.00     0.003 A 
ENDROOT
TORSDOF 0
ENDMDL
