MODEL 1
REMARK minimizedAffinity 13.1132717
REMARK minimizedRMSD -1
REMARK  0 active torsions:
REMARK  status: ('A' for Active; 'I' for Inactive)
ROOT
ATOM      1  C4' PXY d   1      -3.701   6.000  -4.082  0.00  0.00     0.077 C 
ATOM      2  C1' PXY d   1      -3.599   0.417  -2.588  0.00  0.00     0.077 C 
ATOM      3  C1  PXY d   1      -3.620   1.878  -2.991  0.00  0.00    -0.082 A 
ATOM      4  C2  PXY d   1      -3.692   2.813  -2.058  0.00  0.00     0.003 A 
ATOM      5  C3  PXY d   1      -3.744   4.138  -2.406  0.00  0.00     0.003 A 
ATOM      6  C4  PXY d   1      -3.668   4.512  -3.721  0.00  0.00    -0.082 A 
ATOM      7  C5  PXY d   1      -3.584   3.565  -4.679  0.00  0.00     0.003 A 
ATOM      8  C6  PXY d   1      -3.574   2.224  -4.306  0.00  0.00     0.003 A 
ENDROOT
TORSDOF 0
ENDMDL
