MODEL 1
REMARK minimizedAffinity 6.3197875
REMARK minimizedRMSD -1
REMARK  0 active torsions:
REMARK  status: ('A' for Active; 'I' for Inactive)
ROOT
ATOM      1  C4' PXY d   1       1.346  -1.935   2.021  0.00  0.00     0.077 C 
ATOM      2  C1' PXY d   1      -2.145  -5.945  -0.248  0.00  0.00     0.077 C 
ATOM      3  C1  PXY d   1      -1.237  -4.884   0.343  0.00  0.00    -0.082 A 
ATOM      4  C2  PXY d   1       0.029  -5.174   0.597  0.00  0.00     0.003 A 
ATOM      5  C3  PXY d   1       0.855  -4.236   1.160  0.00  0.00     0.003 A 
ATOM      6  C4  PXY d   1       0.396  -2.972   1.417  0.00  0.00    -0.082 A 
ATOM      7  C5  PXY d   1      -0.892  -2.665   1.150  0.00  0.00     0.003 A 
ATOM      8  C6  PXY d   1      -1.725  -3.644   0.617  0.00  0.00     0.003 A 
ENDROOT
TORSDOF 0
ENDMDL
