MODEL 1
REMARK minimizedAffinity 7.16622782
REMARK minimizedRMSD -1
REMARK  0 active torsions:
REMARK  status: ('A' for Active; 'I' for Inactive)
ROOT
ATOM      1  C4' PXY d   1       2.611  -5.869   2.045  0.00  0.00     0.077 C 
ATOM      2  C1' PXY d   1       1.983  -0.157   1.413  0.00  0.00     0.077 C 
ATOM      3  C1  PXY d   1       2.151  -1.656   1.566  0.00  0.00    -0.082 A 
ATOM      4  C2  PXY d   1       1.504  -2.292   2.529  0.00  0.00     0.003 A 
ATOM      5  C3  PXY d   1       1.670  -3.642   2.702  0.00  0.00     0.003 A 
ATOM      6  C4  PXY d   1       2.464  -4.357   1.847  0.00  0.00    -0.082 A 
ATOM      7  C5  PXY d   1       3.119  -3.718   0.855  0.00  0.00     0.003 A 
ATOM      8  C6  PXY d   1       2.970  -2.340   0.722  0.00  0.00     0.003 A 
ENDROOT
TORSDOF 0
ENDMDL
