MODEL 1
REMARK minimizedAffinity 13.7929487
REMARK minimizedRMSD -1
REMARK  0 active torsions:
REMARK  status: ('A' for Active; 'I' for Inactive)
ROOT
ATOM      1  C4' PXY d   1       2.117  -4.182   6.000  0.00  0.00     0.077 C 
ATOM      2  C1' PXY d   1       0.779  -0.877   1.450  0.00  0.00     0.077 C 
ATOM      3  C1  PXY d   1       1.129  -1.733   2.651  0.00  0.00    -0.082 A 
ATOM      4  C2  PXY d   1       1.787  -2.868   2.476  0.00  0.00     0.003 A 
ATOM      5  C3  PXY d   1       2.084  -3.670   3.548  0.00  0.00     0.003 A 
ATOM      6  C4  PXY d   1       1.750  -3.281   4.817  0.00  0.00    -0.082 A 
ATOM      7  C5  PXY d   1       1.088  -2.120   5.005  0.00  0.00     0.003 A 
ATOM      8  C6  PXY d   1       0.760  -1.340   3.900  0.00  0.00     0.003 A 
ENDROOT
TORSDOF 0
ENDMDL
