MODEL 1
REMARK minimizedAffinity -0.382857323
REMARK minimizedRMSD -1
REMARK  0 active torsions:
REMARK  status: ('A' for Active; 'I' for Inactive)
ROOT
ATOM      1  N1  IND d   1       4.012   4.520  -2.300  0.00  0.00    -0.196 N 
ATOM      2  C2  IND d   1       4.874   5.241  -1.520  0.00  0.00     0.054 A 
ATOM      3  C3  IND d   1       5.786   5.875  -2.290  0.00  0.00    -0.031 A 
ATOM      4  C4  IND d   1       5.991   5.953  -4.855  0.00  0.00     0.051 A 
ATOM      5  C5  IND d   1       5.454   5.424  -5.995  0.00  0.00    -0.031 A 
ATOM      6  C6  IND d   1       4.386   4.551  -5.961  0.00  0.00     0.015 A 
ATOM      7  C7  IND d   1       3.805   4.182  -4.781  0.00  0.00    -0.016 A 
ATOM      8  C8  IND d   1       4.352   4.712  -3.621  0.00  0.00    -0.047 A 
ATOM      9  C9  IND d   1       5.463   5.565  -3.647  0.00  0.00    -0.096 A 
ATOM     10  HN1 IND d   1       3.367   4.030  -2.013  0.00  0.00     0.298 HD
ENDROOT
TORSDOF 0
ENDMDL
