MODEL 1
REMARK minimizedAffinity -2.39671493
REMARK minimizedRMSD -1
REMARK  0 active torsions:
REMARK  status: ('A' for Active; 'I' for Inactive)
ROOT
ATOM      1  N1  IND d   1       4.007   3.266  -5.158  0.00  0.00    -0.196 N 
ATOM      2  C2  IND d   1       5.085   3.290  -5.998  0.00  0.00     0.054 A 
ATOM      3  C3  IND d   1       5.999   4.186  -5.565  0.00  0.00    -0.031 A 
ATOM      4  C4  IND d   1       5.980   5.648  -3.446  0.00  0.00     0.051 A 
ATOM      5  C5  IND d   1       5.191   5.999  -2.387  0.00  0.00    -0.031 A 
ATOM      6  C6  IND d   1       3.942   5.444  -2.192  0.00  0.00     0.015 A 
ATOM      7  C7  IND d   1       3.439   4.505  -3.047  0.00  0.00    -0.016 A 
ATOM      8  C8  IND d   1       4.235   4.150  -4.127  0.00  0.00    -0.047 A 
ATOM      9  C9  IND d   1       5.485   4.741  -4.353  0.00  0.00    -0.096 A 
ATOM     10  HN1 IND d   1       3.305   2.780  -5.257  0.00  0.00     0.298 HD
ENDROOT
TORSDOF 0
ENDMDL
