MODEL 1
REMARK minimizedAffinity 5.89977169
REMARK minimizedRMSD -1
REMARK  0 active torsions:
REMARK  status: ('A' for Active; 'I' for Inactive)
ROOT
ATOM      1  N1  IND d   1      -0.004  -1.323   5.267  0.00  0.00    -0.196 N 
ATOM      2  C2  IND d   1       0.686  -2.249   5.999  0.00  0.00     0.054 A 
ATOM      3  C3  IND d   1       1.692  -2.775   5.265  0.00  0.00    -0.031 A 
ATOM      4  C4  IND d   1       2.452  -2.190   2.876  0.00  0.00     0.051 A 
ATOM      5  C5  IND d   1       2.110  -1.432   1.792  0.00  0.00    -0.031 A 
ATOM      6  C6  IND d   1       1.026  -0.578   1.812  0.00  0.00     0.015 A 
ATOM      7  C7  IND d   1       0.246  -0.443   2.926  0.00  0.00    -0.016 A 
ATOM      8  C8  IND d   1       0.586  -1.218   4.026  0.00  0.00    -0.047 A 
ATOM      9  C9  IND d   1       1.660  -2.117   3.998  0.00  0.00    -0.096 A 
ATOM     10  HN1 IND d   1      -0.690  -0.881   5.536  0.00  0.00     0.298 HD
ENDROOT
TORSDOF 0
ENDMDL
