MODEL 1
REMARK minimizedAffinity 20.1346588
REMARK minimizedRMSD -1
REMARK  0 active torsions:
REMARK  status: ('A' for Active; 'I' for Inactive)
ROOT
ATOM      1  N1  IND d   1      -0.135  -1.245   4.261  0.00  0.00    -0.196 N 
ATOM      2  C2  IND d   1      -0.137  -2.439   4.927  0.00  0.00     0.054 A 
ATOM      3  C3  IND d   1       0.438  -3.400   4.170  0.00  0.00    -0.031 A 
ATOM      4  C4  IND d   1       1.540  -3.215   1.851  0.00  0.00     0.051 A 
ATOM      5  C5  IND d   1       1.753  -2.336   0.827  0.00  0.00    -0.031 A 
ATOM      6  C6  IND d   1       1.342  -1.021   0.898  0.00  0.00     0.015 A 
ATOM      7  C7  IND d   1       0.710  -0.531   2.005  0.00  0.00    -0.016 A 
ATOM      8  C8  IND d   1       0.485  -1.423   3.044  0.00  0.00    -0.047 A 
ATOM      9  C9  IND d   1       0.862  -2.769   2.960  0.00  0.00    -0.096 A 
ATOM     10  HN1 IND d   1      -0.466  -0.507   4.553  0.00  0.00     0.298 HD
ENDROOT
TORSDOF 0
ENDMDL
