MODEL 1
REMARK minimizedAffinity 20.3045197
REMARK minimizedRMSD -1
REMARK  0 active torsions:
REMARK  status: ('A' for Active; 'I' for Inactive)
ROOT
ATOM      1  N1  IND d   1       5.572  -1.770   1.152  0.00  0.00    -0.196 N 
ATOM      2  C2  IND d   1       5.999  -2.605   2.147  0.00  0.00     0.054 A 
ATOM      3  C3  IND d   1       4.991  -2.864   3.010  0.00  0.00    -0.031 A 
ATOM      4  C4  IND d   1       2.532  -2.105   2.927  0.00  0.00     0.051 A 
ATOM      5  C5  IND d   1       1.676  -1.302   2.227  0.00  0.00    -0.031 A 
ATOM      6  C6  IND d   1       2.081  -0.602   1.109  0.00  0.00     0.015 A 
ATOM      7  C7  IND d   1       3.362  -0.689   0.641  0.00  0.00    -0.016 A 
ATOM      8  C8  IND d   1       4.236  -1.497   1.353  0.00  0.00    -0.047 A 
ATOM      9  C9  IND d   1       3.841  -2.177   2.513  0.00  0.00    -0.096 A 
ATOM     10  HN1 IND d   1       6.055  -1.467   0.510  0.00  0.00     0.298 HD
ENDROOT
TORSDOF 0
ENDMDL
