MODEL 1
REMARK minimizedAffinity 13.0114822
REMARK minimizedRMSD -1
REMARK  0 active torsions:
REMARK  status: ('A' for Active; 'I' for Inactive)
ROOT
ATOM      1  N1  IND d   1       3.855   4.908  -5.235  0.00  0.00    -0.196 N 
ATOM      2  C2  IND d   1       4.907   5.333  -5.998  0.00  0.00     0.054 A 
ATOM      3  C3  IND d   1       5.880   5.848  -5.212  0.00  0.00    -0.031 A 
ATOM      4  C4  IND d   1       6.000   5.998  -2.645  0.00  0.00     0.051 A 
ATOM      5  C5  IND d   1       5.262   5.771  -1.517  0.00  0.00    -0.031 A 
ATOM      6  C6  IND d   1       3.993   5.232  -1.572  0.00  0.00     0.015 A 
ATOM      7  C7  IND d   1       3.416   4.887  -2.761  0.00  0.00    -0.016 A 
ATOM      8  C8  IND d   1       4.160   5.122  -3.909  0.00  0.00    -0.047 A 
ATOM      9  C9  IND d   1       5.431   5.708  -3.863  0.00  0.00    -0.096 A 
ATOM     10  HN1 IND d   1       3.126   4.564  -5.534  0.00  0.00     0.298 HD
ENDROOT
TORSDOF 0
ENDMDL
