MODEL 1
REMARK minimizedAffinity 10.048377
REMARK minimizedRMSD -1
REMARK  0 active torsions:
REMARK  status: ('A' for Active; 'I' for Inactive)
ROOT
ATOM      1  N1  IND d   1       1.830   0.531   2.752  0.00  0.00    -0.196 N 
ATOM      2  C2  IND d   1       2.236   0.431   1.450  0.00  0.00     0.054 A 
ATOM      3  C3  IND d   1       2.237  -0.862   1.056  0.00  0.00    -0.031 A 
ATOM      4  C4  IND d   1       1.511  -2.967   2.348  0.00  0.00     0.051 A 
ATOM      5  C5  IND d   1       1.098  -3.385   3.582  0.00  0.00    -0.031 A 
ATOM      6  C6  IND d   1       0.902  -2.500   4.623  0.00  0.00     0.015 A 
ATOM      7  C7  IND d   1       1.101  -1.158   4.464  0.00  0.00    -0.016 A 
ATOM      8  C8  IND d   1       1.526  -0.731   3.214  0.00  0.00    -0.047 A 
ATOM      9  C9  IND d   1       1.768  -1.629   2.166  0.00  0.00    -0.096 A 
ATOM     10  HN1 IND d   1       1.773   1.259   3.205  0.00  0.00     0.298 HD
ENDROOT
TORSDOF 0
ENDMDL
