MODEL 1
REMARK minimizedAffinity 2.01890087
REMARK minimizedRMSD -1
REMARK  0 active torsions:
REMARK  status: ('A' for Active; 'I' for Inactive)
ROOT
ATOM      1  N1  IND d   1       6.000   5.926  -4.504  0.00  0.00    -0.196 N 
ATOM      2  C2  IND d   1       5.809   5.132  -5.601  0.00  0.00     0.054 A 
ATOM      3  C3  IND d   1       4.853   4.209  -5.352  0.00  0.00    -0.031 A 
ATOM      4  C4  IND d   1       3.399   3.884  -3.253  0.00  0.00     0.051 A 
ATOM      5  C5  IND d   1       3.232   4.344  -1.976  0.00  0.00    -0.031 A 
ATOM      6  C6  IND d   1       3.993   5.377  -1.468  0.00  0.00     0.015 A 
ATOM      7  C7  IND d   1       4.945   5.999  -2.225  0.00  0.00    -0.016 A 
ATOM      8  C8  IND d   1       5.122   5.531  -3.519  0.00  0.00    -0.047 A 
ATOM      9  C9  IND d   1       4.383   4.454  -4.026  0.00  0.00    -0.096 A 
ATOM     10  HN1 IND d   1       6.572   6.565  -4.441  0.00  0.00     0.298 HD
ENDROOT
TORSDOF 0
ENDMDL
