MODEL 1
REMARK minimizedAffinity 13.1618128
REMARK minimizedRMSD -1
REMARK  0 active torsions:
REMARK  status: ('A' for Active; 'I' for Inactive)
ROOT
ATOM      1  N1  IND d   1       0.869  -1.508   4.013  0.00  0.00    -0.196 N 
ATOM      2  C2  IND d   1       1.011  -2.839   3.733  0.00  0.00     0.054 A 
ATOM      3  C3  IND d   1       1.689  -3.006   2.575  0.00  0.00    -0.031 A 
ATOM      4  C4  IND d   1       2.745  -1.239   1.029  0.00  0.00     0.051 A 
ATOM      5  C5  IND d   1       2.847   0.112   0.849  0.00  0.00    -0.031 A 
ATOM      6  C6  IND d   1       2.286   1.010   1.733  0.00  0.00     0.015 A 
ATOM      7  C7  IND d   1       1.609   0.589   2.842  0.00  0.00    -0.016 A 
ATOM      8  C8  IND d   1       1.497  -0.783   3.025  0.00  0.00    -0.047 A 
ATOM      9  C9  IND d   1       2.027  -1.699   2.107  0.00  0.00    -0.096 A 
ATOM     10  HN1 IND d   1       0.456  -1.180   4.692  0.00  0.00     0.298 HD
ENDROOT
TORSDOF 0
ENDMDL
