MODEL 1
REMARK minimizedAffinity 3.49088597
REMARK minimizedRMSD -1
REMARK  1 active torsions:
REMARK  status: ('A' for Active; 'I' for Inactive)
REMARK    1  A    between atoms: N_2  and  C1_3 
ROOT
ATOM      1  C1  UNL d   1      -1.843   1.397   2.993  0.00  0.00     0.143 A 
ATOM      2  C2  UNL d   1      -0.559   0.854   3.113  0.00  0.00    -0.057 A 
ATOM      3  C3  UNL d   1       0.050   0.187   2.043  0.00  0.00     0.033 A 
ATOM      4  C4  UNL d   1      -0.628   0.026   0.839  0.00  0.00    -0.042 A 
ATOM      5  C5  UNL d   1      -1.915   0.535   0.706  0.00  0.00     0.033 A 
ATOM      6  C6  UNL d   1      -2.515   1.206   1.775  0.00  0.00    -0.057 A 
ENDROOT
BRANCH   1   7
ATOM      7  N   UNL d   1      -2.541   1.985   4.050  0.00  0.00    -0.732 N 
ATOM      8  C   UNL d   1      -3.363   1.180   4.929  0.00  0.00     0.284 C 
ATOM      9  H3  UNL d   1      -1.994   2.696   4.529  0.00  0.00     0.395 HD
ENDBRANCH   1   7
TORSDOF 1
ENDMDL
