MODEL 1
REMARK minimizedAffinity 4.34943676
REMARK minimizedRMSD -1
REMARK  1 active torsions:
REMARK  status: ('A' for Active; 'I' for Inactive)
REMARK    1  A    between atoms: N_2  and  C1_3 
ROOT
ATOM      1  C1  UNL d   1       3.058   0.406  -4.235  0.00  0.00     0.143 A 
ATOM      2  C2  UNL d   1       3.346   0.941  -5.495  0.00  0.00    -0.057 A 
ATOM      3  C3  UNL d   1       2.939   2.234  -5.846  0.00  0.00     0.033 A 
ATOM      4  C4  UNL d   1       2.209   3.007  -4.949  0.00  0.00    -0.042 A 
ATOM      5  C5  UNL d   1       1.890   2.487  -3.700  0.00  0.00     0.033 A 
ATOM      6  C6  UNL d   1       2.305   1.197  -3.353  0.00  0.00    -0.057 A 
ENDROOT
BRANCH   1   7
ATOM      7  N   UNL d   1       3.349  -0.908  -3.862  0.00  0.00    -0.732 N 
ATOM      8  C   UNL d   1       2.786  -2.024  -4.593  0.00  0.00     0.284 C 
ATOM      9  H3  UNL d   1       4.326  -1.031  -3.603  0.00  0.00     0.395 HD
ENDBRANCH   1   7
TORSDOF 1
ENDMDL
