MODEL 1
REMARK minimizedAffinity 0.688338459
REMARK minimizedRMSD -1
REMARK  1 active torsions:
REMARK  status: ('A' for Active; 'I' for Inactive)
REMARK    1  A    between atoms: N_2  and  C1_3 
ROOT
ATOM      1  C1  UNL d   1       1.542   0.417   2.047  0.00  0.00     0.143 A 
ATOM      2  C2  UNL d   1       2.019   1.222   1.007  0.00  0.00    -0.057 A 
ATOM      3  C3  UNL d   1       3.383   1.272   0.694  0.00  0.00     0.033 A 
ATOM      4  C4  UNL d   1       4.300   0.536   1.437  0.00  0.00    -0.042 A 
ATOM      5  C5  UNL d   1       3.852  -0.252   2.491  0.00  0.00     0.033 A 
ATOM      6  C6  UNL d   1       2.488  -0.303   2.794  0.00  0.00    -0.057 A 
ENDROOT
BRANCH   1   7
ATOM      7  N   UNL d   1       0.211   0.400   2.470  0.00  0.00    -0.732 N 
ATOM      8  C   UNL d   1      -0.822   1.036   1.681  0.00  0.00     0.284 C 
ATOM      9  H3  UNL d   1      -0.060  -0.498   2.864  0.00  0.00     0.395 HD
ENDBRANCH   1   7
TORSDOF 1
ENDMDL
