MODEL 1
REMARK minimizedAffinity 5.81599045
REMARK minimizedRMSD -1
REMARK  1 active torsions:
REMARK  status: ('A' for Active; 'I' for Inactive)
REMARK    1  A    between atoms: N_2  and  C1_3 
ROOT
ATOM      1  C1  UNL d   1      -5.369  -1.300   4.877  0.00  0.00     0.143 A 
ATOM      2  C2  UNL d   1      -4.085  -1.373   5.428  0.00  0.00    -0.057 A 
ATOM      3  C3  UNL d   1      -3.471  -0.247   5.990  0.00  0.00     0.033 A 
ATOM      4  C4  UNL d   1      -4.122   0.982   5.984  0.00  0.00    -0.042 A 
ATOM      5  C5  UNL d   1      -5.388   1.084   5.419  0.00  0.00     0.033 A 
ATOM      6  C6  UNL d   1      -5.998  -0.046   4.865  0.00  0.00    -0.057 A 
ENDROOT
BRANCH   1   7
ATOM      7  N   UNL d   1      -5.993  -2.361   4.215  0.00  0.00    -0.732 N 
ATOM      8  C   UNL d   1      -5.991  -2.431   2.770  0.00  0.00     0.284 C 
ATOM      9  H3  UNL d   1      -5.831  -3.254   4.675  0.00  0.00     0.395 HD
ENDBRANCH   1   7
TORSDOF 1
ENDMDL
