MODEL 1
REMARK minimizedAffinity 3.10099339
REMARK minimizedRMSD -1
REMARK  1 active torsions:
REMARK  status: ('A' for Active; 'I' for Inactive)
REMARK    1  A    between atoms: N_2  and  C1_3 
ROOT
ATOM      1  C1  UNL d   1      -1.810   0.935   2.500  0.00  0.00     0.143 A 
ATOM      2  C2  UNL d   1      -1.152   2.112   2.874  0.00  0.00    -0.057 A 
ATOM      3  C3  UNL d   1       0.246   2.175   2.931  0.00  0.00     0.033 A 
ATOM      4  C4  UNL d   1       1.012   1.051   2.642  0.00  0.00    -0.042 A 
ATOM      5  C5  UNL d   1       0.378  -0.137   2.292  0.00  0.00     0.033 A 
ATOM      6  C6  UNL d   1      -1.017  -0.192   2.231  0.00  0.00    -0.057 A 
ENDROOT
BRANCH   1   7
ATOM      7  N   UNL d   1      -3.198   0.780   2.520  0.00  0.00    -0.732 N 
ATOM      8  C   UNL d   1      -3.906   0.640   3.774  0.00  0.00     0.284 C 
ATOM      9  H3  UNL d   1      -3.665   1.380   1.843  0.00  0.00     0.395 HD
ENDBRANCH   1   7
TORSDOF 1
ENDMDL
