MODEL 1
REMARK minimizedAffinity 3.12123084
REMARK minimizedRMSD -1
REMARK  1 active torsions:
REMARK  status: ('A' for Active; 'I' for Inactive)
REMARK    1  A    between atoms: N_2  and  C1_3 
ROOT
ATOM      1  C1  UNL d   1       2.534   1.215  -4.408  0.00  0.00     0.143 A 
ATOM      2  C2  UNL d   1       3.364   0.766  -3.376  0.00  0.00    -0.057 A 
ATOM      3  C3  UNL d   1       3.527  -0.601  -3.119  0.00  0.00     0.033 A 
ATOM      4  C4  UNL d   1       2.838  -1.544  -3.874  0.00  0.00    -0.042 A 
ATOM      5  C5  UNL d   1       1.988  -1.119  -4.889  0.00  0.00     0.033 A 
ATOM      6  C6  UNL d   1       1.834   0.246  -5.145  0.00  0.00    -0.057 A 
ENDROOT
BRANCH   1   7
ATOM      7  N   UNL d   1       2.253   2.562  -4.650  0.00  0.00    -0.732 N 
ATOM      8  C   UNL d   1       2.258   3.086  -5.999  0.00  0.00     0.284 C 
ATOM      9  H3  UNL d   1       1.492   2.910  -4.072  0.00  0.00     0.395 HD
ENDBRANCH   1   7
TORSDOF 1
ENDMDL
