MODEL 1
REMARK minimizedAffinity 3.22074842
REMARK minimizedRMSD -1
REMARK  1 active torsions:
REMARK  status: ('A' for Active; 'I' for Inactive)
REMARK    1  A    between atoms: N_2  and  C1_3 
ROOT
ATOM      1  C1  UNL d   1      -0.019   0.651   1.854  0.00  0.00     0.143 A 
ATOM      2  C2  UNL d   1      -0.580   1.438   2.865  0.00  0.00    -0.057 A 
ATOM      3  C3  UNL d   1      -1.918   1.848   2.808  0.00  0.00     0.033 A 
ATOM      4  C4  UNL d   1      -2.712   1.501   1.721  0.00  0.00    -0.042 A 
ATOM      5  C5  UNL d   1      -2.168   0.740   0.692  0.00  0.00     0.033 A 
ATOM      6  C6  UNL d   1      -0.834   0.328   0.758  0.00  0.00    -0.057 A 
ENDROOT
BRANCH   1   7
ATOM      7  N   UNL d   1       1.331   0.294   1.805  0.00  0.00    -0.732 N 
ATOM      8  C   UNL d   1       2.151   0.666   0.672  0.00  0.00     0.284 C 
ATOM      9  H3  UNL d   1       1.793   0.399   2.706  0.00  0.00     0.395 HD
ENDBRANCH   1   7
TORSDOF 1
ENDMDL
