MODEL 1
REMARK minimizedAffinity 5.78190851
REMARK minimizedRMSD -1
REMARK  1 active torsions:
REMARK  status: ('A' for Active; 'I' for Inactive)
REMARK    1  A    between atoms: N_2  and  C1_3 
ROOT
ATOM      1  C1  UNL d   1      -1.342   0.988   1.959  0.00  0.00     0.143 A 
ATOM      2  C2  UNL d   1      -0.041   1.283   2.381  0.00  0.00    -0.057 A 
ATOM      3  C3  UNL d   1       0.198   1.940   3.593  0.00  0.00     0.033 A 
ATOM      4  C4  UNL d   1      -0.865   2.342   4.395  0.00  0.00    -0.042 A 
ATOM      5  C5  UNL d   1      -2.168   2.082   3.984  0.00  0.00     0.033 A 
ATOM      6  C6  UNL d   1      -2.400   1.419   2.775  0.00  0.00    -0.057 A 
ENDROOT
BRANCH   1   7
ATOM      7  N   UNL d   1      -1.649   0.425   0.718  0.00  0.00    -0.732 N 
ATOM      8  C   UNL d   1      -1.979  -0.980   0.608  0.00  0.00     0.284 C 
ATOM      9  H3  UNL d   1      -2.231   1.034   0.148  0.00  0.00     0.395 HD
ENDBRANCH   1   7
TORSDOF 1
ENDMDL
