MODEL 1
REMARK minimizedAffinity 1.03449821
REMARK minimizedRMSD -1
REMARK  1 active torsions:
REMARK  status: ('A' for Active; 'I' for Inactive)
REMARK    1  A    between atoms: N_2  and  C1_3 
ROOT
ATOM      1  C1  UNL d   1       0.315   0.608   2.100  0.00  0.00     0.143 A 
ATOM      2  C2  UNL d   1       0.812  -0.652   2.449  0.00  0.00    -0.057 A 
ATOM      3  C3  UNL d   1       2.169  -0.964   2.301  0.00  0.00     0.033 A 
ATOM      4  C4  UNL d   1       3.050  -0.026   1.772  0.00  0.00    -0.042 A 
ATOM      5  C5  UNL d   1       2.573   1.224   1.394  0.00  0.00     0.033 A 
ATOM      6  C6  UNL d   1       1.218   1.531   1.551  0.00  0.00    -0.057 A 
ENDROOT
BRANCH   1   7
ATOM      7  N   UNL d   1      -1.041   0.945   2.131  0.00  0.00    -0.732 N 
ATOM      8  C   UNL d   1      -1.843   0.885   0.928  0.00  0.00     0.284 C 
ATOM      9  H3  UNL d   1      -1.510   0.591   2.961  0.00  0.00     0.395 HD
ENDBRANCH   1   7
TORSDOF 1
ENDMDL
