MODEL 1
REMARK minimizedAffinity 2.2521379
REMARK minimizedRMSD -1
REMARK  1 active torsions:
REMARK  status: ('A' for Active; 'I' for Inactive)
REMARK    1  A    between atoms: N_2  and  C1_3 
ROOT
ATOM      1  C1  UNL d   1      -1.034   0.737   2.054  0.00  0.00     0.143 A 
ATOM      2  C2  UNL d   1      -0.751  -0.632   1.991  0.00  0.00    -0.057 A 
ATOM      3  C3  UNL d   1       0.568  -1.099   1.937  0.00  0.00     0.033 A 
ATOM      4  C4  UNL d   1       1.630  -0.201   1.914  0.00  0.00    -0.042 A 
ATOM      5  C5  UNL d   1       1.372   1.165   1.951  0.00  0.00     0.033 A 
ATOM      6  C6  UNL d   1       0.053   1.625   2.012  0.00  0.00    -0.057 A 
ENDROOT
BRANCH   1   7
ATOM      7  N   UNL d   1      -2.326   1.267   2.011  0.00  0.00    -0.732 N 
ATOM      8  C   UNL d   1      -3.347   0.794   2.920  0.00  0.00     0.284 C 
ATOM      9  H3  UNL d   1      -2.327   2.274   1.871  0.00  0.00     0.395 HD
ENDBRANCH   1   7
TORSDOF 1
ENDMDL
