MODEL 1
REMARK minimizedAffinity 5.98423052
REMARK minimizedRMSD -1
REMARK  1 active torsions:
REMARK  status: ('A' for Active; 'I' for Inactive)
REMARK    1  A    between atoms: N_2  and  C1_3 
ROOT
ATOM      1  C1  UNL d   1      -4.271   0.439   1.679  0.00  0.00     0.143 A 
ATOM      2  C2  UNL d   1      -3.687   1.670   1.996  0.00  0.00    -0.057 A 
ATOM      3  C3  UNL d   1      -2.416   2.015   1.521  0.00  0.00     0.033 A 
ATOM      4  C4  UNL d   1      -1.692   1.119   0.740  0.00  0.00    -0.042 A 
ATOM      5  C5  UNL d   1      -2.243  -0.120   0.433  0.00  0.00     0.033 A 
ATOM      6  C6  UNL d   1      -3.515  -0.455   0.906  0.00  0.00    -0.057 A 
ENDROOT
BRANCH   1   7
ATOM      7  N   UNL d   1      -5.489  -0.001   2.202  0.00  0.00    -0.732 N 
ATOM      8  C   UNL d   1      -5.999  -1.316   1.877  0.00  0.00     0.284 C 
ATOM      9  H3  UNL d   1      -5.611   0.262   3.178  0.00  0.00     0.395 HD
ENDBRANCH   1   7
TORSDOF 1
ENDMDL
