MODEL 1
REMARK minimizedAffinity 3.08074117
REMARK minimizedRMSD -1
REMARK  1 active torsions:
REMARK  status: ('A' for Active; 'I' for Inactive)
REMARK    1  A    between atoms: N_2  and  C1_3 
ROOT
ATOM      1  C1  UNL d   1      -2.928   1.767   2.587  0.00  0.00     0.143 A 
ATOM      2  C2  UNL d   1      -1.656   2.092   3.069  0.00  0.00    -0.057 A 
ATOM      3  C3  UNL d   1      -0.498   1.662   2.411  0.00  0.00     0.033 A 
ATOM      4  C4  UNL d   1      -0.592   0.871   1.270  0.00  0.00    -0.042 A 
ATOM      5  C5  UNL d   1      -1.846   0.516   0.786  0.00  0.00     0.033 A 
ATOM      6  C6  UNL d   1      -2.999   0.954   1.445  0.00  0.00    -0.057 A 
ENDROOT
BRANCH   1   7
ATOM      7  N   UNL d   1      -4.116   2.082   3.251  0.00  0.00    -0.732 N 
ATOM      8  C   UNL d   1      -4.209   1.964   4.691  0.00  0.00     0.284 C 
ATOM      9  H3  UNL d   1      -4.564   2.913   2.873  0.00  0.00     0.395 HD
ENDBRANCH   1   7
TORSDOF 1
ENDMDL
