MODEL 1
REMARK minimizedAffinity 7.30220079
REMARK minimizedRMSD -1
REMARK  1 active torsions:
REMARK  status: ('A' for Active; 'I' for Inactive)
REMARK    1  A    between atoms: N_2  and  C1_3 
ROOT
ATOM      1  C1  UNL d   1      -5.894   0.223   4.837  0.00  0.00     0.143 A 
ATOM      2  C2  UNL d   1      -5.938  -1.176   4.839  0.00  0.00    -0.057 A 
ATOM      3  C3  UNL d   1      -5.973  -1.903   3.643  0.00  0.00     0.033 A 
ATOM      4  C4  UNL d   1      -5.993  -1.241   2.420  0.00  0.00    -0.042 A 
ATOM      5  C5  UNL d   1      -5.975   0.149   2.395  0.00  0.00     0.033 A 
ATOM      6  C6  UNL d   1      -5.934   0.870   3.592  0.00  0.00    -0.057 A 
ENDROOT
BRANCH   1   7
ATOM      7  N   UNL d   1      -5.958   1.005   5.993  0.00  0.00    -0.732 N 
ATOM      8  C   UNL d   1      -5.496   2.376   5.982  0.00  0.00     0.284 C 
ATOM      9  H3  UNL d   1      -6.821   0.861   6.512  0.00  0.00     0.395 HD
ENDBRANCH   1   7
TORSDOF 1
ENDMDL
