MODEL 1
REMARK minimizedAffinity 2.39664555
REMARK minimizedRMSD -1
REMARK  1 active torsions:
REMARK  status: ('A' for Active; 'I' for Inactive)
REMARK    1  A    between atoms: N_2  and  C1_3 
ROOT
ATOM      1  C1  UNL d   1      -0.813   1.210   2.249  0.00  0.00     0.143 A 
ATOM      2  C2  UNL d   1      -2.101   1.725   2.427  0.00  0.00    -0.057 A 
ATOM      3  C3  UNL d   1      -3.140   1.407   1.544  0.00  0.00     0.033 A 
ATOM      4  C4  UNL d   1      -2.900   0.587   0.446  0.00  0.00    -0.042 A 
ATOM      5  C5  UNL d   1      -1.622   0.083   0.235  0.00  0.00     0.033 A 
ATOM      6  C6  UNL d   1      -0.590   0.400   1.124  0.00  0.00    -0.057 A 
ENDROOT
BRANCH   1   7
ATOM      7  N   UNL d   1       0.284   1.568   3.036  0.00  0.00    -0.732 N 
ATOM      8  C   UNL d   1       0.553   2.957   3.338  0.00  0.00     0.284 C 
ATOM      9  H3  UNL d   1       0.419   0.938   3.823  0.00  0.00     0.395 HD
ENDBRANCH   1   7
TORSDOF 1
ENDMDL
