MODEL 1
REMARK minimizedAffinity 5.64911413
REMARK minimizedRMSD -1
REMARK  1 active torsions:
REMARK  status: ('A' for Active; 'I' for Inactive)
REMARK    1  A    between atoms: N_2  and  C1_3 
ROOT
ATOM      1  C1  UNL d   1       0.076   0.383   1.968  0.00  0.00     0.143 A 
ATOM      2  C2  UNL d   1      -0.490   1.216   2.940  0.00  0.00    -0.057 A 
ATOM      3  C3  UNL d   1      -1.821   1.639   2.848  0.00  0.00     0.033 A 
ATOM      4  C4  UNL d   1      -2.604   1.260   1.762  0.00  0.00    -0.042 A 
ATOM      5  C5  UNL d   1      -2.056   0.454   0.772  0.00  0.00     0.033 A 
ATOM      6  C6  UNL d   1      -0.728   0.028   0.873  0.00  0.00    -0.057 A 
ENDROOT
BRANCH   1   7
ATOM      7  N   UNL d   1       1.421   0.008   1.952  0.00  0.00    -0.732 N 
ATOM      8  C   UNL d   1       2.275   0.371   0.841  0.00  0.00     0.284 C 
ATOM      9  H3  UNL d   1       1.862   0.105   2.864  0.00  0.00     0.395 HD
ENDBRANCH   1   7
TORSDOF 1
ENDMDL
