MODEL 1
REMARK minimizedAffinity -2.78341508
REMARK minimizedRMSD -1
REMARK  1 active torsions:
REMARK  status: ('A' for Active; 'I' for Inactive)
REMARK    1  A    between atoms: C3_4  and  O_7 
ROOT
ATOM      1  C   UNL d   1      -0.386   0.681  -0.950  0.00  0.00    -0.033 A 
ATOM      2  C1  UNL d   1      -1.035  -0.512  -0.625  0.00  0.00     0.039 A 
ATOM      3  C2  UNL d   1      -1.103  -0.932   0.705  0.00  0.00    -0.080 A 
ATOM      4  C3  UNL d   1      -0.520  -0.151   1.699  0.00  0.00     0.150 A 
ATOM      5  C4  UNL d   1       0.124   1.040   1.383  0.00  0.00    -0.007 A 
ATOM      6  C5  UNL d   1       0.192   1.458   0.054  0.00  0.00     0.039 A 
ENDROOT
BRANCH   4   7
ATOM      7  O   UNL d   1      -0.557  -0.522   3.010  0.00  0.00    -0.526 OA
ATOM      8  H5  UNL d   1      -1.009  -1.380   3.074  0.00  0.00     0.418 HD
ENDBRANCH   4   7
TORSDOF 1
ENDMDL
