MODEL 1
REMARK minimizedAffinity -4.95787048
REMARK minimizedRMSD -1
REMARK  1 active torsions:
REMARK  status: ('A' for Active; 'I' for Inactive)
REMARK    1  A    between atoms: C3_4  and  O_7 
ROOT
ATOM      1  C   UNL d   1      -0.388  -0.376  -1.050  0.00  0.00    -0.033 A 
ATOM      2  C1  UNL d   1       0.953  -0.596  -0.728  0.00  0.00     0.039 A 
ATOM      3  C2  UNL d   1       1.357  -0.623   0.608  0.00  0.00    -0.080 A 
ATOM      4  C3  UNL d   1       0.412  -0.429   1.612  0.00  0.00     0.150 A 
ATOM      5  C4  UNL d   1      -0.926  -0.213   1.299  0.00  0.00    -0.007 A 
ATOM      6  C5  UNL d   1      -1.327  -0.185  -0.036  0.00  0.00     0.039 A 
ENDROOT
BRANCH   4   7
ATOM      7  O   UNL d   1       0.760  -0.442   2.930  0.00  0.00    -0.526 OA
ATOM      8  H5  UNL d   1       1.720  -0.573   2.993  0.00  0.00     0.418 HD
ENDBRANCH   4   7
TORSDOF 1
ENDMDL
