MODEL 1
REMARK minimizedAffinity -3.62253237
REMARK minimizedRMSD -1
REMARK  1 active torsions:
REMARK  status: ('A' for Active; 'I' for Inactive)
REMARK    1  A    between atoms: C3_4  and  O_7 
ROOT
ATOM      1  C   UNL d   1      -0.405   3.167  -2.711  0.00  0.00    -0.033 A 
ATOM      2  C1  UNL d   1      -1.434   2.225  -2.654  0.00  0.00     0.039 A 
ATOM      3  C2  UNL d   1      -1.211   0.979  -2.065  0.00  0.00    -0.080 A 
ATOM      4  C3  UNL d   1       0.044   0.688  -1.537  0.00  0.00     0.150 A 
ATOM      5  C4  UNL d   1       1.073   1.622  -1.587  0.00  0.00    -0.007 A 
ATOM      6  C5  UNL d   1       0.848   2.866  -2.176  0.00  0.00     0.039 A 
ENDROOT
BRANCH   4   7
ATOM      7  O   UNL d   1       0.311  -0.517  -0.957  0.00  0.00    -0.526 OA
ATOM      8  H5  UNL d   1      -0.484  -1.072  -1.021  0.00  0.00     0.418 HD
ENDBRANCH   4   7
TORSDOF 1
ENDMDL
