MODEL 1
REMARK minimizedAffinity -5.12017155
REMARK minimizedRMSD -1
REMARK  1 active torsions:
REMARK  status: ('A' for Active; 'I' for Inactive)
REMARK    1  A    between atoms: C3_4  and  O_7 
ROOT
ATOM      1  C   UNL d   1       1.211  -0.339  -0.227  0.00  0.00    -0.033 A 
ATOM      2  C1  UNL d   1       2.218  -1.307  -0.232  0.00  0.00     0.039 A 
ATOM      3  C2  UNL d   1       2.661  -1.863   0.970  0.00  0.00    -0.080 A 
ATOM      4  C3  UNL d   1       2.089  -1.444   2.168  0.00  0.00     0.150 A 
ATOM      5  C4  UNL d   1       1.083  -0.483   2.180  0.00  0.00    -0.007 A 
ATOM      6  C5  UNL d   1       0.643   0.072   0.978  0.00  0.00     0.039 A 
ENDROOT
BRANCH   4   7
ATOM      7  O   UNL d   1       2.491  -1.954   3.366  0.00  0.00    -0.526 OA
ATOM      8  H5  UNL d   1       3.212  -2.585   3.205  0.00  0.00     0.418 HD
ENDBRANCH   4   7
TORSDOF 1
ENDMDL
