MODEL 1
REMARK minimizedAffinity -4.35761452
REMARK minimizedRMSD -1
REMARK  1 active torsions:
REMARK  status: ('A' for Active; 'I' for Inactive)
REMARK    1  A    between atoms: C3_4  and  O_7 
ROOT
ATOM      1  C   UNL d   1       0.393  -0.617  -0.977  0.00  0.00    -0.033 A 
ATOM      2  C1  UNL d   1       1.475  -1.215  -0.329  0.00  0.00     0.039 A 
ATOM      3  C2  UNL d   1       1.391  -1.531   1.028  0.00  0.00    -0.080 A 
ATOM      4  C3  UNL d   1       0.221  -1.245   1.725  0.00  0.00     0.150 A 
ATOM      5  C4  UNL d   1      -0.863  -0.653   1.086  0.00  0.00    -0.007 A 
ATOM      6  C5  UNL d   1      -0.777  -0.337  -0.270  0.00  0.00     0.039 A 
ENDROOT
BRANCH   4   7
ATOM      7  O   UNL d   1       0.094  -1.531   3.052  0.00  0.00    -0.526 OA
ATOM      8  H5  UNL d   1       0.931  -1.911   3.367  0.00  0.00     0.418 HD
ENDBRANCH   4   7
TORSDOF 1
ENDMDL
