MODEL 1
REMARK minimizedAffinity -5.73641634
REMARK minimizedRMSD -1
REMARK  1 active torsions:
REMARK  status: ('A' for Active; 'I' for Inactive)
REMARK    1  A    between atoms: C3_4  and  O_7 
ROOT
ATOM      1  C   UNL d   1       2.120  -1.723   2.515  0.00  0.00    -0.033 A 
ATOM      2  C1  UNL d   1       0.972  -0.944   2.672  0.00  0.00     0.039 A 
ATOM      3  C2  UNL d   1       0.412  -0.294   1.570  0.00  0.00    -0.080 A 
ATOM      4  C3  UNL d   1       1.008  -0.432   0.319  0.00  0.00     0.150 A 
ATOM      5  C4  UNL d   1       2.149  -1.210   0.156  0.00  0.00    -0.007 A 
ATOM      6  C5  UNL d   1       2.708  -1.857   1.257  0.00  0.00     0.039 A 
ENDROOT
BRANCH   4   7
ATOM      7  O   UNL d   1       0.500   0.187  -0.784  0.00  0.00    -0.526 OA
ATOM      8  H5  UNL d   1      -0.272   0.712  -0.514  0.00  0.00     0.418 HD
ENDBRANCH   4   7
TORSDOF 1
ENDMDL
