MODEL 1
REMARK minimizedAffinity -2.88926053
REMARK minimizedRMSD -1
REMARK  1 active torsions:
REMARK  status: ('A' for Active; 'I' for Inactive)
REMARK    1  A    between atoms: C3_4  and  O_7 
ROOT
ATOM      1  C   UNL d   1       0.608  -0.828   3.145  0.00  0.00    -0.033 A 
ATOM      2  C1  UNL d   1       0.240  -0.138   1.988  0.00  0.00     0.039 A 
ATOM      3  C2  UNL d   1       0.888  -0.402   0.780  0.00  0.00    -0.080 A 
ATOM      4  C3  UNL d   1       1.900  -1.357   0.742  0.00  0.00     0.150 A 
ATOM      5  C4  UNL d   1       2.269  -2.051   1.890  0.00  0.00    -0.007 A 
ATOM      6  C5  UNL d   1       1.621  -1.785   3.095  0.00  0.00     0.039 A 
ENDROOT
BRANCH   4   7
ATOM      7  O   UNL d   1       2.564  -1.645  -0.413  0.00  0.00    -0.526 OA
ATOM      8  H5  UNL d   1       2.223  -1.069  -1.117  0.00  0.00     0.418 HD
ENDBRANCH   4   7
TORSDOF 1
ENDMDL
