MODEL 1
REMARK minimizedAffinity 18.7444553
REMARK minimizedRMSD -1
REMARK  0 active torsions:
REMARK  status: ('A' for Active; 'I' for Inactive)
ROOT
ATOM      1  C   UNL d   1       5.112   2.944  -0.728  0.00  0.00     0.124 A 
ATOM      2  C1  UNL d   1       4.439   2.582   0.431  0.00  0.00     0.062 A 
ATOM      3  C2  UNL d   1       3.514   1.541   0.407  0.00  0.00     0.162 A 
ATOM      4  C3  UNL d   1       3.258   0.855  -0.780  0.00  0.00    -0.034 A 
ATOM      5  C4  UNL d   1       3.938   1.226  -1.941  0.00  0.00     0.162 A 
ATOM      6  C5  UNL d   1       4.861   2.267  -1.912  0.00  0.00     0.062 A 
ATOM      7  F   UNL d   1       5.510   2.616  -3.033  0.00  0.00    -0.097 F 
ATOM      8  F1  UNL d   1       3.715   0.587  -3.100  0.00  0.00    -0.096 F 
ATOM      9  I   UNL d   1       1.877  -0.701  -0.820  0.00  0.00    -0.060 I 
ATOM     10  F2  UNL d   1       2.879   1.212   1.541  0.00  0.00    -0.096 F 
ATOM     11  F3  UNL d   1       4.679   3.236   1.576  0.00  0.00    -0.097 F 
ATOM     12  F4  UNL d   1       6.000   3.946  -0.702  0.00  0.00    -0.092 F 
ENDROOT
TORSDOF 0
ENDMDL
