MODEL 1
REMARK minimizedAffinity 34.2906494
REMARK minimizedRMSD -1
REMARK  0 active torsions:
REMARK  status: ('A' for Active; 'I' for Inactive)
ROOT
ATOM      1  C   UNL d   1       1.000   2.957   4.784  0.00  0.00     0.124 A 
ATOM      2  C1  UNL d   1       0.561   3.636   3.656  0.00  0.00     0.062 A 
ATOM      3  C2  UNL d   1       0.991   3.244   2.391  0.00  0.00     0.162 A 
ATOM      4  C3  UNL d   1       1.864   2.166   2.248  0.00  0.00    -0.034 A 
ATOM      5  C4  UNL d   1       2.302   1.488   3.387  0.00  0.00     0.162 A 
ATOM      6  C5  UNL d   1       1.870   1.884   4.649  0.00  0.00     0.062 A 
ATOM      7  F   UNL d   1       2.295   1.227   5.738  0.00  0.00    -0.097 F 
ATOM      8  F1  UNL d   1       3.141   0.447   3.285  0.00  0.00    -0.096 F 
ATOM      9  I   UNL d   1       2.508   1.576   0.359  0.00  0.00    -0.060 I 
ATOM     10  F2  UNL d   1       0.550   3.918   1.319  0.00  0.00    -0.096 F 
ATOM     11  F3  UNL d   1      -0.278   4.674   3.784  0.00  0.00    -0.097 F 
ATOM     12  F4  UNL d   1       0.586   3.337   6.000  0.00  0.00    -0.092 F 
ENDROOT
TORSDOF 0
ENDMDL
