MODEL 1
REMARK minimizedAffinity 19.2451649
REMARK minimizedRMSD -1
REMARK  0 active torsions:
REMARK  status: ('A' for Active; 'I' for Inactive)
ROOT
ATOM      1  C   UNL d   1      -2.003  -0.003  -2.978  0.00  0.00     0.124 A 
ATOM      2  C1  UNL d   1      -1.143  -0.651  -2.101  0.00  0.00     0.062 A 
ATOM      3  C2  UNL d   1      -0.900  -2.015  -2.238  0.00  0.00     0.162 A 
ATOM      4  C3  UNL d   1      -1.517  -2.740  -3.257  0.00  0.00    -0.034 A 
ATOM      5  C4  UNL d   1      -2.381  -2.083  -4.134  0.00  0.00     0.162 A 
ATOM      6  C5  UNL d   1      -2.621  -0.720  -3.993  0.00  0.00     0.062 A 
ATOM      7  F   UNL d   1      -3.452  -0.096  -4.841  0.00  0.00    -0.097 F 
ATOM      8  F1  UNL d   1      -2.991  -2.750  -5.125  0.00  0.00    -0.096 F 
ATOM      9  I   UNL d   1      -1.157  -4.780  -3.465  0.00  0.00    -0.060 I 
ATOM     10  F2  UNL d   1      -0.065  -2.614  -1.377  0.00  0.00    -0.096 F 
ATOM     11  F3  UNL d   1      -0.546   0.038  -1.119  0.00  0.00    -0.097 F 
ATOM     12  F4  UNL d   1      -2.236   1.308  -2.843  0.00  0.00    -0.092 F 
ENDROOT
TORSDOF 0
ENDMDL
