MODEL 1
REMARK minimizedAffinity 18.2330532
REMARK minimizedRMSD -1
REMARK  0 active torsions:
REMARK  status: ('A' for Active; 'I' for Inactive)
ROOT
ATOM      1  C   UNL d   1       2.616  -0.082  -1.500  0.00  0.00     0.124 A 
ATOM      2  C1  UNL d   1       3.004   0.772  -0.477  0.00  0.00     0.062 A 
ATOM      3  C2  UNL d   1       3.970   1.747  -0.707  0.00  0.00     0.162 A 
ATOM      4  C3  UNL d   1       4.554   1.875  -1.968  0.00  0.00    -0.034 A 
ATOM      5  C4  UNL d   1       4.159   1.012  -2.991  0.00  0.00     0.162 A 
ATOM      6  C5  UNL d   1       3.193   0.039  -2.756  0.00  0.00     0.062 A 
ATOM      7  F   UNL d   1       2.820  -0.786  -3.745  0.00  0.00    -0.097 F 
ATOM      8  F1  UNL d   1       4.700   1.107  -4.215  0.00  0.00    -0.096 F 
ATOM      9  I   UNL d   1       5.998   3.332  -2.317  0.00  0.00    -0.060 I 
ATOM     10  F2  UNL d   1       4.325   2.559   0.299  0.00  0.00    -0.096 F 
ATOM     11  F3  UNL d   1       2.448   0.657   0.738  0.00  0.00    -0.097 F 
ATOM     12  F4  UNL d   1       1.687  -1.020  -1.274  0.00  0.00    -0.092 F 
ENDROOT
TORSDOF 0
ENDMDL
