MODEL 1
REMARK minimizedAffinity -0.740552843
REMARK minimizedRMSD -1
REMARK  1 active torsions:
REMARK  status: ('A' for Active; 'I' for Inactive)
REMARK    1  A    between atoms: N_2  and  C1_3 
ROOT
ATOM      1  C1  UNL d   1      -1.783   0.070   1.207  0.00  0.00     0.143 A 
ATOM      2  C2  UNL d   1      -0.456  -0.370   1.153  0.00  0.00    -0.057 A 
ATOM      3  C3  UNL d   1       0.154  -0.689  -0.067  0.00  0.00     0.033 A 
ATOM      4  C4  UNL d   1      -0.564  -0.601  -1.255  0.00  0.00    -0.042 A 
ATOM      5  C5  UNL d   1      -1.892  -0.191  -1.222  0.00  0.00     0.033 A 
ATOM      6  C6  UNL d   1      -2.494   0.133  -0.002  0.00  0.00    -0.057 A 
ENDROOT
BRANCH   1   7
ATOM      7  N   UNL d   1      -2.475   0.308   2.397  0.00  0.00    -0.732 N 
ATOM      8  C   UNL d   1      -3.341  -0.706   2.961  0.00  0.00     0.284 C 
ATOM      9  H3  UNL d   1      -1.909   0.800   3.084  0.00  0.00     0.395 HD
ENDBRANCH   1   7
TORSDOF 1
ENDMDL
