MODEL 1
REMARK minimizedAffinity -1.09491479
REMARK minimizedRMSD -1
REMARK  1 active torsions:
REMARK  status: ('A' for Active; 'I' for Inactive)
REMARK    1  A    between atoms: N_2  and  C1_3 
ROOT
ATOM      1  C1  UNL d   1       0.265  -0.686   1.549  0.00  0.00     0.143 A 
ATOM      2  C2  UNL d   1       0.207  -0.919   0.171  0.00  0.00    -0.057 A 
ATOM      3  C3  UNL d   1      -0.958  -0.658  -0.561  0.00  0.00     0.033 A 
ATOM      4  C4  UNL d   1      -2.098  -0.184   0.080  0.00  0.00    -0.042 A 
ATOM      5  C5  UNL d   1      -2.071   0.031   1.453  0.00  0.00     0.033 A 
ATOM      6  C6  UNL d   1      -0.903  -0.226   2.177  0.00  0.00    -0.057 A 
ENDROOT
BRANCH   1   7
ATOM      7  N   UNL d   1       1.361  -1.019   2.349  0.00  0.00    -0.732 N 
ATOM      8  C   UNL d   1       1.189  -1.287   3.760  0.00  0.00     0.284 C 
ATOM      9  H3  UNL d   1       2.005  -1.652   1.881  0.00  0.00     0.395 HD
ENDBRANCH   1   7
TORSDOF 1
ENDMDL
