MODEL 1
REMARK minimizedAffinity -0.604018152
REMARK minimizedRMSD -1
REMARK  1 active torsions:
REMARK  status: ('A' for Active; 'I' for Inactive)
REMARK    1  A    between atoms: N_2  and  C1_3 
ROOT
ATOM      1  C1  UNL d   1      -0.929  -0.610   2.977  0.00  0.00     0.143 A 
ATOM      2  C2  UNL d   1      -0.336  -0.372   1.732  0.00  0.00    -0.057 A 
ATOM      3  C3  UNL d   1      -1.110  -0.078   0.604  0.00  0.00     0.033 A 
ATOM      4  C4  UNL d   1      -2.498  -0.045   0.694  0.00  0.00    -0.042 A 
ATOM      5  C5  UNL d   1      -3.110  -0.303   1.915  0.00  0.00     0.033 A 
ATOM      6  C6  UNL d   1      -2.331  -0.590   3.040  0.00  0.00    -0.057 A 
ENDROOT
BRANCH   1   7
ATOM      7  N   UNL d   1      -0.219  -1.004   4.114  0.00  0.00    -0.732 N 
ATOM      8  C   UNL d   1       1.179  -1.366   4.022  0.00  0.00     0.284 C 
ATOM      9  H3  UNL d   1      -0.450  -0.442   4.930  0.00  0.00     0.395 HD
ENDBRANCH   1   7
TORSDOF 1
ENDMDL
