MODEL 1
REMARK minimizedAffinity -0.786816299
REMARK minimizedRMSD -1
REMARK  1 active torsions:
REMARK  status: ('A' for Active; 'I' for Inactive)
REMARK    1  A    between atoms: N_2  and  C1_3 
ROOT
ATOM      1  C1  UNL d   1      -0.029  -1.006   3.085  0.00  0.00     0.143 A 
ATOM      2  C2  UNL d   1       0.608  -0.888   1.845  0.00  0.00    -0.057 A 
ATOM      3  C3  UNL d   1      -0.083  -0.435   0.714  0.00  0.00     0.033 A 
ATOM      4  C4  UNL d   1      -1.435  -0.119   0.798  0.00  0.00    -0.042 A 
ATOM      5  C5  UNL d   1      -2.094  -0.253   2.014  0.00  0.00     0.033 A 
ATOM      6  C6  UNL d   1      -1.398  -0.699   3.141  0.00  0.00    -0.057 A 
ENDROOT
BRANCH   1   7
ATOM      7  N   UNL d   1       0.577  -1.544   4.222  0.00  0.00    -0.732 N 
ATOM      8  C   UNL d   1       2.016  -1.504   4.380  0.00  0.00     0.284 C 
ATOM      9  H3  UNL d   1       0.060  -1.336   5.073  0.00  0.00     0.395 HD
ENDBRANCH   1   7
TORSDOF 1
ENDMDL
