MODEL 1
REMARK minimizedAffinity 0.65901953
REMARK minimizedRMSD -1
REMARK  1 active torsions:
REMARK  status: ('A' for Active; 'I' for Inactive)
REMARK    1  A    between atoms: N_2  and  C1_3 
ROOT
ATOM      1  C1  UNL d   1      -0.079  -0.716   1.971  0.00  0.00     0.143 A 
ATOM      2  C2  UNL d   1       0.223  -0.855   0.612  0.00  0.00    -0.057 A 
ATOM      3  C3  UNL d   1      -0.720  -0.550  -0.376  0.00  0.00     0.033 A 
ATOM      4  C4  UNL d   1      -1.997  -0.126  -0.021  0.00  0.00    -0.042 A 
ATOM      5  C5  UNL d   1      -2.327  -0.005   1.324  0.00  0.00     0.033 A 
ATOM      6  C6  UNL d   1      -1.378  -0.305   2.306  0.00  0.00    -0.057 A 
ENDROOT
BRANCH   1   7
ATOM      7  N   UNL d   1       0.784  -1.098   3.002  0.00  0.00    -0.732 N 
ATOM      8  C   UNL d   1       0.261  -1.479   4.297  0.00  0.00     0.284 C 
ATOM      9  H3  UNL d   1       1.547  -1.684   2.673  0.00  0.00     0.395 HD
ENDBRANCH   1   7
TORSDOF 1
ENDMDL
