MODEL 1
REMARK minimizedAffinity 0.410684913
REMARK minimizedRMSD -1
REMARK  1 active torsions:
REMARK  status: ('A' for Active; 'I' for Inactive)
REMARK    1  A    between atoms: N_2  and  C1_3 
ROOT
ATOM      1  C1  UNL d   1      -1.900  -0.427   3.016  0.00  0.00     0.143 A 
ATOM      2  C2  UNL d   1      -2.722  -1.426   3.550  0.00  0.00    -0.057 A 
ATOM      3  C3  UNL d   1      -2.233  -2.343   4.488  0.00  0.00     0.033 A 
ATOM      4  C4  UNL d   1      -0.902  -2.296   4.888  0.00  0.00    -0.042 A 
ATOM      5  C5  UNL d   1      -0.061  -1.327   4.352  0.00  0.00     0.033 A 
ATOM      6  C6  UNL d   1      -0.556  -0.410   3.421  0.00  0.00    -0.057 A 
ENDROOT
BRANCH   1   7
ATOM      7  N   UNL d   1      -2.300   0.452   2.007  0.00  0.00    -0.732 N 
ATOM      8  C   UNL d   1      -2.013   0.160   0.619  0.00  0.00     0.284 C 
ATOM      9  H3  UNL d   1      -3.231   0.831   2.168  0.00  0.00     0.395 HD
ENDBRANCH   1   7
TORSDOF 1
ENDMDL
