MODEL 1
REMARK minimizedAffinity 15.4538336
REMARK minimizedRMSD -1
REMARK  0 active torsions:
REMARK  status: ('A' for Active; 'I' for Inactive)
ROOT
ATOM      1  C   UNL d   1       1.441   1.079   2.508  0.00  0.00     0.124 A 
ATOM      2  C1  UNL d   1       2.036   1.466   1.315  0.00  0.00     0.062 A 
ATOM      3  C2  UNL d   1       3.337   1.069   1.021  0.00  0.00     0.162 A 
ATOM      4  C3  UNL d   1       4.052   0.279   1.921  0.00  0.00    -0.034 A 
ATOM      5  C4  UNL d   1       3.447  -0.106   3.119  0.00  0.00     0.162 A 
ATOM      6  C5  UNL d   1       2.147   0.294   3.408  0.00  0.00     0.062 A 
ATOM      7  F   UNL d   1       1.573  -0.081   4.561  0.00  0.00    -0.097 F 
ATOM      8  F1  UNL d   1       4.106  -0.865   4.006  0.00  0.00    -0.096 F 
ATOM      9  I   UNL d   1       5.998  -0.316   1.485  0.00  0.00    -0.060 I 
ATOM     10  F2  UNL d   1       3.887   1.458  -0.139  0.00  0.00    -0.096 F 
ATOM     11  F3  UNL d   1       1.356   2.226   0.444  0.00  0.00    -0.097 F 
ATOM     12  F4  UNL d   1       0.189   1.463   2.788  0.00  0.00    -0.092 F 
ENDROOT
TORSDOF 0
ENDMDL
