MODEL 1
REMARK minimizedAffinity 14.601016
REMARK minimizedRMSD -1
REMARK  0 active torsions:
REMARK  status: ('A' for Active; 'I' for Inactive)
ROOT
ATOM      1  C   UNL d   1      -5.540   4.823   2.892  0.00  0.00     0.124 A 
ATOM      2  C1  UNL d   1      -5.381   3.760   2.014  0.00  0.00     0.062 A 
ATOM      3  C2  UNL d   1      -4.903   2.537   2.474  0.00  0.00     0.162 A 
ATOM      4  C3  UNL d   1      -4.582   2.369   3.821  0.00  0.00    -0.034 A 
ATOM      5  C4  UNL d   1      -4.743   3.443   4.699  0.00  0.00     0.162 A 
ATOM      6  C5  UNL d   1      -5.221   4.664   4.233  0.00  0.00     0.062 A 
ATOM      7  F   UNL d   1      -5.374   5.690   5.083  0.00  0.00    -0.097 F 
ATOM      8  F1  UNL d   1      -4.444   3.316   6.000  0.00  0.00    -0.096 F 
ATOM      9  I   UNL d   1      -3.867   0.541   4.515  0.00  0.00    -0.060 I 
ATOM     10  F2  UNL d   1      -4.759   1.527   1.603  0.00  0.00    -0.096 F 
ATOM     11  F3  UNL d   1      -5.687   3.912   0.717  0.00  0.00    -0.097 F 
ATOM     12  F4  UNL d   1      -5.999   5.999   2.445  0.00  0.00    -0.092 F 
ENDROOT
TORSDOF 0
ENDMDL
