MODEL 1
REMARK minimizedAffinity 20.1879921
REMARK minimizedRMSD -1
REMARK  0 active torsions:
REMARK  status: ('A' for Active; 'I' for Inactive)
ROOT
ATOM      1  C   UNL d   1       4.228   0.246   1.458  0.00  0.00     0.124 A 
ATOM      2  C1  UNL d   1       3.435   0.848   0.492  0.00  0.00     0.062 A 
ATOM      3  C2  UNL d   1       2.182   1.353   0.829  0.00  0.00     0.162 A 
ATOM      4  C3  UNL d   1       1.716   1.259   2.141  0.00  0.00    -0.034 A 
ATOM      5  C4  UNL d   1       2.520   0.652   3.107  0.00  0.00     0.162 A 
ATOM      6  C5  UNL d   1       3.771   0.148   2.764  0.00  0.00     0.062 A 
ATOM      7  F   UNL d   1       4.536  -0.433   3.699  0.00  0.00    -0.097 F 
ATOM      8  F1  UNL d   1       2.102   0.545   4.377  0.00  0.00    -0.096 F 
ATOM      9  I   UNL d   1      -0.156   2.013   2.650  0.00  0.00    -0.060 I 
ATOM     10  F2  UNL d   1       1.437   1.929  -0.125  0.00  0.00    -0.096 F 
ATOM     11  F3  UNL d   1       3.874   0.942  -0.771  0.00  0.00    -0.097 F 
ATOM     12  F4  UNL d   1       5.433  -0.240   1.130  0.00  0.00    -0.092 F 
ENDROOT
TORSDOF 0
ENDMDL
