MODEL 1
REMARK minimizedAffinity 33.8551674
REMARK minimizedRMSD -1
REMARK  0 active torsions:
REMARK  status: ('A' for Active; 'I' for Inactive)
ROOT
ATOM      1  C   UNL d   1      -3.178  -2.801  -2.426  0.00  0.00     0.124 A 
ATOM      2  C1  UNL d   1      -2.548  -2.550  -1.215  0.00  0.00     0.062 A 
ATOM      3  C2  UNL d   1      -2.654  -3.462  -0.169  0.00  0.00     0.162 A 
ATOM      4  C3  UNL d   1      -3.392  -4.634  -0.329  0.00  0.00    -0.034 A 
ATOM      5  C4  UNL d   1      -4.024  -4.880  -1.550  0.00  0.00     0.162 A 
ATOM      6  C5  UNL d   1      -3.915  -3.965  -2.592  0.00  0.00     0.062 A 
ATOM      7  F   UNL d   1      -4.524  -4.210  -3.762  0.00  0.00    -0.097 F 
ATOM      8  F1  UNL d   1      -4.741  -5.997  -1.738  0.00  0.00    -0.096 F 
ATOM      9  I   UNL d   1      -3.553  -6.000   1.233  0.00  0.00    -0.060 I 
ATOM     10  F2  UNL d   1      -2.035  -3.193   0.990  0.00  0.00    -0.096 F 
ATOM     11  F3  UNL d   1      -1.837  -1.425  -1.052  0.00  0.00    -0.097 F 
ATOM     12  F4  UNL d   1      -3.076  -1.922  -3.431  0.00  0.00    -0.092 F 
ENDROOT
TORSDOF 0
ENDMDL
