MODEL 1
REMARK minimizedAffinity 30.7185001
REMARK minimizedRMSD -1
REMARK  0 active torsions:
REMARK  status: ('A' for Active; 'I' for Inactive)
ROOT
ATOM      1  C   UNL d   1      -2.811  -2.503  -0.227  0.00  0.00     0.124 A 
ATOM      2  C1  UNL d   1      -3.005  -3.778   0.287  0.00  0.00     0.062 A 
ATOM      3  C2  UNL d   1      -3.556  -4.777  -0.510  0.00  0.00     0.162 A 
ATOM      4  C3  UNL d   1      -3.916  -4.507  -1.830  0.00  0.00    -0.034 A 
ATOM      5  C4  UNL d   1      -3.719  -3.222  -2.339  0.00  0.00     0.162 A 
ATOM      6  C5  UNL d   1      -3.168  -2.227  -1.540  0.00  0.00     0.062 A 
ATOM      7  F   UNL d   1      -2.982  -0.996  -2.038  0.00  0.00    -0.097 F 
ATOM      8  F1  UNL d   1      -4.055  -2.928  -3.604  0.00  0.00    -0.096 F 
ATOM      9  I   UNL d   1      -4.741  -5.999  -3.024  0.00  0.00    -0.060 I 
ATOM     10  F2  UNL d   1      -3.732  -6.000   0.013  0.00  0.00    -0.096 F 
ATOM     11  F3  UNL d   1      -2.661  -4.047   1.554  0.00  0.00    -0.097 F 
ATOM     12  F4  UNL d   1      -2.281  -1.543   0.541  0.00  0.00    -0.092 F 
ENDROOT
TORSDOF 0
ENDMDL
