MODEL 1
REMARK minimizedAffinity 12.5422554
REMARK minimizedRMSD -1
REMARK  0 active torsions:
REMARK  status: ('A' for Active; 'I' for Inactive)
ROOT
ATOM      1  C   UNL d   1       1.523   0.612   1.316  0.00  0.00     0.124 A 
ATOM      2  C1  UNL d   1       2.787   0.634   0.743  0.00  0.00     0.062 A 
ATOM      3  C2  UNL d   1       3.491   1.831   0.648  0.00  0.00     0.162 A 
ATOM      4  C3  UNL d   1       2.933   3.016   1.127  0.00  0.00    -0.034 A 
ATOM      5  C4  UNL d   1       1.660   2.986   1.700  0.00  0.00     0.162 A 
ATOM      6  C5  UNL d   1       0.961   1.787   1.793  0.00  0.00     0.062 A 
ATOM      7  F   UNL d   1      -0.261   1.768   2.346  0.00  0.00    -0.097 F 
ATOM      8  F1  UNL d   1       1.094   4.107   2.170  0.00  0.00    -0.096 F 
ATOM      9  I   UNL d   1       3.983   4.807   0.985  0.00  0.00    -0.060 I 
ATOM     10  F2  UNL d   1       4.711   1.823   0.090  0.00  0.00    -0.096 F 
ATOM     11  F3  UNL d   1       3.332  -0.500   0.280  0.00  0.00    -0.097 F 
ATOM     12  F4  UNL d   1       0.847  -0.541   1.406  0.00  0.00    -0.092 F 
ENDROOT
TORSDOF 0
ENDMDL
