MODEL 1
REMARK minimizedAffinity 18.4471264
REMARK minimizedRMSD -1
REMARK  0 active torsions:
REMARK  status: ('A' for Active; 'I' for Inactive)
ROOT
ATOM      1  C   UNL d   1       1.817   1.565   1.835  0.00  0.00     0.124 A 
ATOM      2  C1  UNL d   1       2.138   0.637   0.855  0.00  0.00     0.062 A 
ATOM      3  C2  UNL d   1       1.376  -0.518   0.707  0.00  0.00     0.162 A 
ATOM      4  C3  UNL d   1       0.283  -0.752   1.542  0.00  0.00    -0.034 A 
ATOM      5  C4  UNL d   1      -0.034   0.186   2.527  0.00  0.00     0.162 A 
ATOM      6  C5  UNL d   1       0.732   1.339   2.670  0.00  0.00     0.062 A 
ATOM      7  F   UNL d   1       0.420   2.234   3.619  0.00  0.00    -0.097 F 
ATOM      8  F1  UNL d   1      -1.077  -0.007   3.347  0.00  0.00    -0.096 F 
ATOM      9  I   UNL d   1      -0.860  -2.478   1.325  0.00  0.00    -0.060 I 
ATOM     10  F2  UNL d   1       1.709  -1.398  -0.249  0.00  0.00    -0.096 F 
ATOM     11  F3  UNL d   1       3.187   0.852   0.047  0.00  0.00    -0.097 F 
ATOM     12  F4  UNL d   1       2.553   2.675   1.976  0.00  0.00    -0.092 F 
ENDROOT
TORSDOF 0
ENDMDL
