MODEL 1
REMARK minimizedAffinity 20.7614746
REMARK minimizedRMSD -1
REMARK  0 active torsions:
REMARK  status: ('A' for Active; 'I' for Inactive)
ROOT
ATOM      1  C   UNL d   1       1.115   2.376  -2.807  0.00  0.00     0.124 A 
ATOM      2  C1  UNL d   1       1.499   3.697  -2.994  0.00  0.00     0.062 A 
ATOM      3  C2  UNL d   1       0.651   4.733  -2.615  0.00  0.00     0.162 A 
ATOM      4  C3  UNL d   1      -0.591   4.453  -2.045  0.00  0.00    -0.034 A 
ATOM      5  C4  UNL d   1      -0.971   3.123  -1.861  0.00  0.00     0.162 A 
ATOM      6  C5  UNL d   1      -0.120   2.091  -2.241  0.00  0.00     0.062 A 
ATOM      7  F   UNL d   1      -0.493   0.815  -2.060  0.00  0.00    -0.097 F 
ATOM      8  F1  UNL d   1      -2.158   2.818  -1.315  0.00  0.00    -0.096 F 
ATOM      9  I   UNL d   1      -1.863   6.000  -1.477  0.00  0.00    -0.060 I 
ATOM     10  F2  UNL d   1       1.048   6.000  -2.807  0.00  0.00    -0.096 F 
ATOM     11  F3  UNL d   1       2.691   3.976  -3.541  0.00  0.00    -0.097 F 
ATOM     12  F4  UNL d   1       1.933   1.381  -3.173  0.00  0.00    -0.092 F 
ENDROOT
TORSDOF 0
ENDMDL
