MODEL 1
REMARK minimizedAffinity 20.4118462
REMARK minimizedRMSD -1
REMARK  0 active torsions:
REMARK  status: ('A' for Active; 'I' for Inactive)
ROOT
ATOM      1  C   UNL d   1       2.934   3.661   1.393  0.00  0.00     0.124 A 
ATOM      2  C1  UNL d   1       2.121   4.775   1.547  0.00  0.00     0.062 A 
ATOM      3  C2  UNL d   1       0.796   4.625   1.946  0.00  0.00     0.162 A 
ATOM      4  C3  UNL d   1       0.277   3.355   2.197  0.00  0.00    -0.034 A 
ATOM      5  C4  UNL d   1       1.101   2.239   2.040  0.00  0.00     0.162 A 
ATOM      6  C5  UNL d   1       2.424   2.395   1.640  0.00  0.00     0.062 A 
ATOM      7  F   UNL d   1       3.209   1.317   1.492  0.00  0.00    -0.097 F 
ATOM      8  F1  UNL d   1       0.634   1.003   2.272  0.00  0.00    -0.096 F 
ATOM      9  I   UNL d   1      -1.704   3.125   2.795  0.00  0.00    -0.060 I 
ATOM     10  F2  UNL d   1       0.033   5.719   2.086  0.00  0.00    -0.096 F 
ATOM     11  F3  UNL d   1       2.611   6.000   1.308  0.00  0.00    -0.097 F 
ATOM     12  F4  UNL d   1       4.208   3.809   1.007  0.00  0.00    -0.092 F 
ENDROOT
TORSDOF 0
ENDMDL
