MODEL 1
REMARK minimizedAffinity 12.2060518
REMARK minimizedRMSD -1
REMARK  0 active torsions:
REMARK  status: ('A' for Active; 'I' for Inactive)
ROOT
ATOM      1  C   UNL d   1       4.248   3.621  -3.225  0.00  0.00     0.124 A 
ATOM      2  C1  UNL d   1       2.888   3.429  -3.026  0.00  0.00     0.062 A 
ATOM      3  C2  UNL d   1       1.963   4.105  -3.817  0.00  0.00     0.162 A 
ATOM      4  C3  UNL d   1       2.396   4.979  -4.815  0.00  0.00    -0.034 A 
ATOM      5  C4  UNL d   1       3.766   5.166  -5.008  0.00  0.00     0.162 A 
ATOM      6  C5  UNL d   1       4.686   4.488  -4.215  0.00  0.00     0.062 A 
ATOM      7  F   UNL d   1       6.000   4.674  -4.409  0.00  0.00    -0.097 F 
ATOM      8  F1  UNL d   1       4.216   5.999  -5.959  0.00  0.00    -0.096 F 
ATOM      9  I   UNL d   1       1.017   5.991  -6.000  0.00  0.00    -0.060 I 
ATOM     10  F2  UNL d   1       0.655   3.902  -3.603  0.00  0.00    -0.096 F 
ATOM     11  F3  UNL d   1       2.463   2.592  -2.069  0.00  0.00    -0.097 F 
ATOM     12  F4  UNL d   1       5.136   2.970  -2.462  0.00  0.00    -0.092 F 
ENDROOT
TORSDOF 0
ENDMDL
