MODEL 1
REMARK minimizedAffinity 17.7404194
REMARK minimizedRMSD -1
REMARK  0 active torsions:
REMARK  status: ('A' for Active; 'I' for Inactive)
ROOT
ATOM      1  C   UNL d   1       3.489   0.289   0.238  0.00  0.00     0.124 A 
ATOM      2  C1  UNL d   1       4.046  -0.326   1.351  0.00  0.00     0.062 A 
ATOM      3  C2  UNL d   1       3.394  -0.273   2.579  0.00  0.00     0.162 A 
ATOM      4  C3  UNL d   1       2.176   0.397   2.702  0.00  0.00    -0.034 A 
ATOM      5  C4  UNL d   1       1.623   1.014   1.578  0.00  0.00     0.162 A 
ATOM      6  C5  UNL d   1       2.279   0.958   0.353  0.00  0.00     0.062 A 
ATOM      7  F   UNL d   1       1.739   1.553  -0.721  0.00  0.00    -0.097 F 
ATOM      8  F1  UNL d   1       0.454   1.666   1.661  0.00  0.00    -0.096 F 
ATOM      9  I   UNL d   1       1.198   0.477   4.537  0.00  0.00    -0.060 I 
ATOM     10  F2  UNL d   1       3.955  -0.877   3.637  0.00  0.00    -0.096 F 
ATOM     11  F3  UNL d   1       5.216  -0.972   1.242  0.00  0.00    -0.097 F 
ATOM     12  F4  UNL d   1       4.119   0.238  -0.943  0.00  0.00    -0.092 F 
ENDROOT
TORSDOF 0
ENDMDL
