MODEL 1
REMARK minimizedAffinity 21.4982815
REMARK minimizedRMSD -1
REMARK  0 active torsions:
REMARK  status: ('A' for Active; 'I' for Inactive)
ROOT
ATOM      1  C   UNL d   1       4.152  -0.008   0.872  0.00  0.00     0.124 A 
ATOM      2  C1  UNL d   1       3.375   0.147   2.012  0.00  0.00     0.062 A 
ATOM      3  C2  UNL d   1       2.298   1.029   2.010  0.00  0.00     0.162 A 
ATOM      4  C3  UNL d   1       1.990   1.761   0.863  0.00  0.00    -0.034 A 
ATOM      5  C4  UNL d   1       2.776   1.600  -0.279  0.00  0.00     0.162 A 
ATOM      6  C5  UNL d   1       3.851   0.718  -0.272  0.00  0.00     0.062 A 
ATOM      7  F   UNL d   1       4.600   0.569  -1.375  0.00  0.00    -0.097 F 
ATOM      8  F1  UNL d   1       2.507   2.288  -1.398  0.00  0.00    -0.096 F 
ATOM      9  I   UNL d   1       0.379   3.079   0.857  0.00  0.00    -0.060 I 
ATOM     10  F2  UNL d   1       1.565   1.159   3.126  0.00  0.00    -0.096 F 
ATOM     11  F3  UNL d   1       3.664  -0.552   3.118  0.00  0.00    -0.097 F 
ATOM     12  F4  UNL d   1       5.188  -0.856   0.876  0.00  0.00    -0.092 F 
ENDROOT
TORSDOF 0
ENDMDL
