MODEL 1
REMARK minimizedAffinity 9.65907097
REMARK minimizedRMSD -1
REMARK  0 active torsions:
REMARK  status: ('A' for Active; 'I' for Inactive)
ROOT
ATOM      1  C   UNL d   1      -0.903  -3.310  -3.284  0.00  0.00     0.124 A 
ATOM      2  C1  UNL d   1       0.167  -3.395  -2.404  0.00  0.00     0.062 A 
ATOM      3  C2  UNL d   1       0.018  -2.989  -1.080  0.00  0.00     0.162 A 
ATOM      4  C3  UNL d   1      -1.206  -2.496  -0.629  0.00  0.00    -0.034 A 
ATOM      5  C4  UNL d   1      -2.277  -2.413  -1.520  0.00  0.00     0.162 A 
ATOM      6  C5  UNL d   1      -2.124  -2.820  -2.842  0.00  0.00     0.062 A 
ATOM      7  F   UNL d   1      -3.158  -2.738  -3.691  0.00  0.00    -0.097 F 
ATOM      8  F1  UNL d   1      -3.468  -1.944  -1.119  0.00  0.00    -0.096 F 
ATOM      9  I   UNL d   1      -1.432  -1.888   1.349  0.00  0.00    -0.060 I 
ATOM     10  F2  UNL d   1       1.069  -3.082  -0.252  0.00  0.00    -0.096 F 
ATOM     11  F3  UNL d   1       1.347  -3.867  -2.829  0.00  0.00    -0.097 F 
ATOM     12  F4  UNL d   1      -0.757  -3.701  -4.557  0.00  0.00    -0.092 F 
ENDROOT
TORSDOF 0
ENDMDL
