MODEL 1
REMARK minimizedAffinity 18.8874779
REMARK minimizedRMSD -1
REMARK  0 active torsions:
REMARK  status: ('A' for Active; 'I' for Inactive)
ROOT
ATOM      1  C   UNL d   1      -2.153  -2.709  -2.905  0.00  0.00     0.124 A 
ATOM      2  C1  UNL d   1      -2.084  -2.447  -1.543  0.00  0.00     0.062 A 
ATOM      3  C2  UNL d   1      -2.685  -3.312  -0.633  0.00  0.00     0.162 A 
ATOM      4  C3  UNL d   1      -3.360  -4.447  -1.081  0.00  0.00    -0.034 A 
ATOM      5  C4  UNL d   1      -3.426  -4.703  -2.452  0.00  0.00     0.162 A 
ATOM      6  C5  UNL d   1      -2.824  -3.836  -3.358  0.00  0.00     0.062 A 
ATOM      7  F   UNL d   1      -2.891  -4.090  -4.673  0.00  0.00    -0.097 F 
ATOM      8  F1  UNL d   1      -4.067  -5.786  -2.917  0.00  0.00    -0.096 F 
ATOM      9  I   UNL d   1      -4.261  -5.742   0.276  0.00  0.00    -0.060 I 
ATOM     10  F2  UNL d   1      -2.603  -3.034   0.677  0.00  0.00    -0.096 F 
ATOM     11  F3  UNL d   1      -1.438  -1.358  -1.103  0.00  0.00    -0.097 F 
ATOM     12  F4  UNL d   1      -1.575  -1.875  -3.778  0.00  0.00    -0.092 F 
ENDROOT
TORSDOF 0
ENDMDL
