MODEL 1
REMARK minimizedAffinity 28.1645164
REMARK minimizedRMSD -1
REMARK  0 active torsions:
REMARK  status: ('A' for Active; 'I' for Inactive)
ROOT
ATOM      1  C   UNL d   1      -1.511  -2.624  -0.233  0.00  0.00     0.124 A 
ATOM      2  C1  UNL d   1      -1.749  -3.699   0.611  0.00  0.00     0.062 A 
ATOM      3  C2  UNL d   1      -2.692  -4.664   0.267  0.00  0.00     0.162 A 
ATOM      4  C3  UNL d   1      -3.404  -4.557  -0.928  0.00  0.00    -0.034 A 
ATOM      5  C4  UNL d   1      -3.159  -3.472  -1.771  0.00  0.00     0.162 A 
ATOM      6  C5  UNL d   1      -2.216  -2.511  -1.423  0.00  0.00     0.062 A 
ATOM      7  F   UNL d   1      -1.987  -1.473  -2.240  0.00  0.00    -0.097 F 
ATOM      8  F1  UNL d   1      -3.825  -3.339  -2.928  0.00  0.00    -0.096 F 
ATOM      9  I   UNL d   1      -4.814  -5.997  -1.446  0.00  0.00    -0.060 I 
ATOM     10  F2  UNL d   1      -2.902  -5.692   1.102  0.00  0.00    -0.096 F 
ATOM     11  F3  UNL d   1      -1.070  -3.810   1.762  0.00  0.00    -0.097 F 
ATOM     12  F4  UNL d   1      -0.604  -1.697   0.101  0.00  0.00    -0.092 F 
ENDROOT
TORSDOF 0
ENDMDL
