MODEL 1
REMARK minimizedAffinity 22.2251568
REMARK minimizedRMSD -1
REMARK  0 active torsions:
REMARK  status: ('A' for Active; 'I' for Inactive)
ROOT
ATOM      1  C   UNL d   1      -0.611  -1.751  -0.554  0.00  0.00     0.124 A 
ATOM      2  C1  UNL d   1      -1.273  -2.691   0.223  0.00  0.00     0.062 A 
ATOM      3  C2  UNL d   1      -2.365  -3.383  -0.293  0.00  0.00     0.162 A 
ATOM      4  C3  UNL d   1      -2.801  -3.137  -1.595  0.00  0.00    -0.034 A 
ATOM      5  C4  UNL d   1      -2.131  -2.190  -2.371  0.00  0.00     0.162 A 
ATOM      6  C5  UNL d   1      -1.040  -1.501  -1.850  0.00  0.00     0.062 A 
ATOM      7  F   UNL d   1      -0.401  -0.593  -2.602  0.00  0.00    -0.097 F 
ATOM      8  F1  UNL d   1      -2.524  -1.929  -3.626  0.00  0.00    -0.096 F 
ATOM      9  I   UNL d   1      -4.434  -4.169  -2.371  0.00  0.00    -0.060 I 
ATOM     10  F2  UNL d   1      -2.986  -4.285   0.480  0.00  0.00    -0.096 F 
ATOM     11  F3  UNL d   1      -0.860  -2.934   1.476  0.00  0.00    -0.097 F 
ATOM     12  F4  UNL d   1       0.439  -1.086  -0.054  0.00  0.00    -0.092 F 
ENDROOT
TORSDOF 0
ENDMDL
