MODEL 1
REMARK minimizedAffinity 21.9936333
REMARK minimizedRMSD -1
REMARK  0 active torsions:
REMARK  status: ('A' for Active; 'I' for Inactive)
ROOT
ATOM      1  C   UNL d   1      -0.921  -2.358  -3.776  0.00  0.00     0.124 A 
ATOM      2  C1  UNL d   1      -1.432  -2.251  -2.490  0.00  0.00     0.062 A 
ATOM      3  C2  UNL d   1      -2.674  -2.799  -2.182  0.00  0.00     0.162 A 
ATOM      4  C3  UNL d   1      -3.414  -3.460  -3.163  0.00  0.00    -0.034 A 
ATOM      5  C4  UNL d   1      -2.894  -3.563  -4.454  0.00  0.00     0.162 A 
ATOM      6  C5  UNL d   1      -1.652  -3.014  -4.756  0.00  0.00     0.062 A 
ATOM      7  F   UNL d   1      -1.160  -3.118  -5.999  0.00  0.00    -0.097 F 
ATOM      8  F1  UNL d   1      -3.578  -4.192  -5.421  0.00  0.00    -0.096 F 
ATOM      9  I   UNL d   1      -5.271  -4.281  -2.707  0.00  0.00    -0.060 I 
ATOM     10  F2  UNL d   1      -3.143  -2.680  -0.931  0.00  0.00    -0.096 F 
ATOM     11  F3  UNL d   1      -0.728  -1.617  -1.541  0.00  0.00    -0.097 F 
ATOM     12  F4  UNL d   1       0.274  -1.829  -4.069  0.00  0.00    -0.092 F 
ENDROOT
TORSDOF 0
ENDMDL
