MODEL 1
REMARK minimizedAffinity -1.9970876
REMARK minimizedRMSD -1
REMARK  1 active torsions:
REMARK  status: ('A' for Active; 'I' for Inactive)
REMARK    1  A    between atoms: N_2  and  C1_3 
ROOT
ATOM      1  C1  UNL d   1      -1.763  -1.898  -0.153  0.00  0.00     0.143 A 
ATOM      2  C2  UNL d   1      -0.421  -2.285  -0.066  0.00  0.00    -0.057 A 
ATOM      3  C3  UNL d   1       0.589  -1.350   0.188  0.00  0.00     0.033 A 
ATOM      4  C4  UNL d   1       0.277  -0.002   0.331  0.00  0.00    -0.042 A 
ATOM      5  C5  UNL d   1      -1.047   0.409   0.223  0.00  0.00     0.033 A 
ATOM      6  C6  UNL d   1      -2.052  -0.531  -0.024  0.00  0.00    -0.057 A 
ENDROOT
BRANCH   1   7
ATOM      7  N   UNL d   1      -2.801  -2.765  -0.501  0.00  0.00    -0.732 N 
ATOM      8  C   UNL d   1      -2.647  -4.197  -0.353  0.00  0.00     0.284 C 
ATOM      9  H3  UNL d   1      -3.713  -2.414  -0.216  0.00  0.00     0.395 HD
ENDBRANCH   1   7
TORSDOF 1
ENDMDL
