MODEL 1
REMARK minimizedAffinity -4.75444126
REMARK minimizedRMSD -1
REMARK  1 active torsions:
REMARK  status: ('A' for Active; 'I' for Inactive)
REMARK    1  A    between atoms: N_2  and  C1_3 
ROOT
ATOM      1  C1  UNL d   1       0.168  -0.139  -0.045  0.00  0.00     0.143 A 
ATOM      2  C2  UNL d   1       0.652  -1.398  -0.417  0.00  0.00    -0.057 A 
ATOM      3  C3  UNL d   1       1.816  -1.531  -1.185  0.00  0.00     0.033 A 
ATOM      4  C4  UNL d   1       2.501  -0.401  -1.621  0.00  0.00    -0.042 A 
ATOM      5  C5  UNL d   1       2.024   0.860  -1.285  0.00  0.00     0.033 A 
ATOM      6  C6  UNL d   1       0.865   0.986  -0.512  0.00  0.00    -0.057 A 
ENDROOT
BRANCH   1   7
ATOM      7  N   UNL d   1      -1.036   0.061   0.634  0.00  0.00    -0.732 N 
ATOM      8  C   UNL d   1      -1.043   0.576   1.986  0.00  0.00     0.284 C 
ATOM      9  H3  UNL d   1      -1.759   0.456   0.035  0.00  0.00     0.395 HD
ENDBRANCH   1   7
TORSDOF 1
ENDMDL
