MODEL 1
REMARK minimizedAffinity -2.31856704
REMARK minimizedRMSD -1
REMARK  1 active torsions:
REMARK  status: ('A' for Active; 'I' for Inactive)
REMARK    1  A    between atoms: N_2  and  C1_3 
ROOT
ATOM      1  C1  UNL d   1       0.035   0.074   1.244  0.00  0.00     0.143 A 
ATOM      2  C2  UNL d   1       0.962  -0.888   1.658  0.00  0.00    -0.057 A 
ATOM      3  C3  UNL d   1       1.445  -1.861   0.774  0.00  0.00     0.033 A 
ATOM      4  C4  UNL d   1       0.985  -1.905  -0.538  0.00  0.00    -0.042 A 
ATOM      5  C5  UNL d   1       0.045  -0.974  -0.965  0.00  0.00     0.033 A 
ATOM      6  C6  UNL d   1      -0.428  -0.002  -0.079  0.00  0.00    -0.057 A 
ENDROOT
BRANCH   1   7
ATOM      7  N   UNL d   1      -0.556   1.005   2.101  0.00  0.00    -0.732 N 
ATOM      8  C   UNL d   1      -0.992   0.615   3.425  0.00  0.00     0.284 C 
ATOM      9  H3  UNL d   1      -0.097   1.912   2.066  0.00  0.00     0.395 HD
ENDBRANCH   1   7
TORSDOF 1
ENDMDL
