MODEL 1
REMARK minimizedAffinity -2.76964116
REMARK minimizedRMSD -1
REMARK  1 active torsions:
REMARK  status: ('A' for Active; 'I' for Inactive)
REMARK    1  A    between atoms: N_2  and  C1_3 
ROOT
ATOM      1  C1  UNL d   1      -1.411  -1.825  -0.479  0.00  0.00     0.143 A 
ATOM      2  C2  UNL d   1      -0.971  -0.510  -0.289  0.00  0.00    -0.057 A 
ATOM      3  C3  UNL d   1       0.348  -0.233   0.090  0.00  0.00     0.033 A 
ATOM      4  C4  UNL d   1       1.246  -1.272   0.314  0.00  0.00    -0.042 A 
ATOM      5  C5  UNL d   1       0.825  -2.587   0.155  0.00  0.00     0.033 A 
ATOM      6  C6  UNL d   1      -0.492  -2.857  -0.230  0.00  0.00    -0.057 A 
ENDROOT
BRANCH   1   7
ATOM      7  N   UNL d   1      -2.735  -2.169  -0.760  0.00  0.00    -0.732 N 
ATOM      8  C   UNL d   1      -3.089  -3.534  -1.085  0.00  0.00     0.284 C 
ATOM      9  H3  UNL d   1      -3.396  -1.705  -0.141  0.00  0.00     0.395 HD
ENDBRANCH   1   7
TORSDOF 1
ENDMDL
