MODEL 1
REMARK minimizedAffinity -4.05186081
REMARK minimizedRMSD -1
REMARK  1 active torsions:
REMARK  status: ('A' for Active; 'I' for Inactive)
REMARK    1  A    between atoms: N_2  and  C1_3 
ROOT
ATOM      1  C1  UNL d   1      -2.073  -0.392   1.227  0.00  0.00     0.143 A 
ATOM      2  C2  UNL d   1      -1.197   0.569   1.743  0.00  0.00    -0.057 A 
ATOM      3  C3  UNL d   1      -1.461   1.214   2.958  0.00  0.00     0.033 A 
ATOM      4  C4  UNL d   1      -2.624   0.929   3.665  0.00  0.00    -0.042 A 
ATOM      5  C5  UNL d   1      -3.521  -0.004   3.158  0.00  0.00     0.033 A 
ATOM      6  C6  UNL d   1      -3.249  -0.650   1.948  0.00  0.00    -0.057 A 
ENDROOT
BRANCH   1   7
ATOM      7  N   UNL d   1      -1.916  -0.996  -0.023  0.00  0.00    -0.732 N 
ATOM      8  C   UNL d   1      -2.855  -1.997  -0.481  0.00  0.00     0.284 C 
ATOM      9  H3  UNL d   1      -1.630  -0.334  -0.741  0.00  0.00     0.395 HD
ENDBRANCH   1   7
TORSDOF 1
ENDMDL
