MODEL 1
REMARK minimizedAffinity 6.15045452
REMARK minimizedRMSD -1
REMARK  1 active torsions:
REMARK  status: ('A' for Active; 'I' for Inactive)
REMARK    1  A    between atoms: N_2  and  C1_3 
ROOT
ATOM      1  C1  UNL d   1       4.728   2.303   4.744  0.00  0.00     0.143 A 
ATOM      2  C2  UNL d   1       5.744   3.149   5.199  0.00  0.00    -0.057 A 
ATOM      3  C3  UNL d   1       6.000   4.377   4.577  0.00  0.00     0.033 A 
ATOM      4  C4  UNL d   1       5.260   4.769   3.467  0.00  0.00    -0.042 A 
ATOM      5  C5  UNL d   1       4.261   3.932   2.981  0.00  0.00     0.033 A 
ATOM      6  C6  UNL d   1       4.006   2.710   3.611  0.00  0.00    -0.057 A 
ENDROOT
BRANCH   1   7
ATOM      7  N   UNL d   1       4.490   1.026   5.258  0.00  0.00    -0.732 N 
ATOM      8  C   UNL d   1       5.517   0.327   6.000  0.00  0.00     0.284 C 
ATOM      9  H3  UNL d   1       3.556   0.934   5.652  0.00  0.00     0.395 HD
ENDBRANCH   1   7
TORSDOF 1
ENDMDL
