MODEL 1
REMARK minimizedAffinity 0.644464135
REMARK minimizedRMSD -1
REMARK  1 active torsions:
REMARK  status: ('A' for Active; 'I' for Inactive)
REMARK    1  A    between atoms: N_2  and  C1_3 
ROOT
ATOM      1  C1  UNL d   1      -2.885  -1.332   2.050  0.00  0.00     0.143 A 
ATOM      2  C2  UNL d   1      -2.029  -0.235   2.192  0.00  0.00    -0.057 A 
ATOM      3  C3  UNL d   1      -1.534   0.142   3.447  0.00  0.00     0.033 A 
ATOM      4  C4  UNL d   1      -1.912  -0.557   4.589  0.00  0.00    -0.042 A 
ATOM      5  C5  UNL d   1      -2.782  -1.636   4.474  0.00  0.00     0.033 A 
ATOM      6  C6  UNL d   1      -3.267  -2.011   3.217  0.00  0.00    -0.057 A 
ENDROOT
BRANCH   1   7
ATOM      7  N   UNL d   1      -3.489  -1.696   0.843  0.00  0.00    -0.732 N 
ATOM      8  C   UNL d   1      -2.699  -1.849  -0.359  0.00  0.00     0.284 C 
ATOM      9  H3  UNL d   1      -4.202  -2.411   0.966  0.00  0.00     0.395 HD
ENDBRANCH   1   7
TORSDOF 1
ENDMDL
