MODEL 1
REMARK minimizedAffinity -4.42269564
REMARK minimizedRMSD -1
REMARK  1 active torsions:
REMARK  status: ('A' for Active; 'I' for Inactive)
REMARK    1  A    between atoms: N_2  and  C1_3 
ROOT
ATOM      1  C1  UNL d   1       5.660   1.770   4.249  0.00  0.00     0.143 A 
ATOM      2  C2  UNL d   1       5.987   2.789   5.150  0.00  0.00    -0.057 A 
ATOM      3  C3  UNL d   1       5.831   4.138   4.809  0.00  0.00     0.033 A 
ATOM      4  C4  UNL d   1       5.371   4.493   3.545  0.00  0.00    -0.042 A 
ATOM      5  C5  UNL d   1       5.063   3.498   2.625  0.00  0.00     0.033 A 
ATOM      6  C6  UNL d   1       5.215   2.152   2.974  0.00  0.00    -0.057 A 
ENDROOT
BRANCH   1   7
ATOM      7  N   UNL d   1       5.886   0.413   4.494  0.00  0.00    -0.732 N 
ATOM      8  C   UNL d   1       5.255  -0.248   5.615  0.00  0.00     0.284 C 
ATOM      9  H3  UNL d   1       5.899  -0.138   3.639  0.00  0.00     0.395 HD
ENDBRANCH   1   7
TORSDOF 1
ENDMDL
