MODEL 1
REMARK minimizedAffinity -2.26916838
REMARK minimizedRMSD -1
REMARK  1 active torsions:
REMARK  status: ('A' for Active; 'I' for Inactive)
REMARK    1  A    between atoms: N_2  and  C1_3 
ROOT
ATOM      1  C1  UNL d   1       5.628   0.642   4.892  0.00  0.00     0.143 A 
ATOM      2  C2  UNL d   1       5.438   0.006   3.661  0.00  0.00    -0.057 A 
ATOM      3  C3  UNL d   1       5.499  -1.388   3.547  0.00  0.00     0.033 A 
ATOM      4  C4  UNL d   1       5.782  -2.172   4.661  0.00  0.00    -0.042 A 
ATOM      5  C5  UNL d   1       5.999  -1.559   5.890  0.00  0.00     0.033 A 
ATOM      6  C6  UNL d   1       5.930  -0.167   5.999  0.00  0.00    -0.057 A 
ENDROOT
BRANCH   1   7
ATOM      7  N   UNL d   1       5.678   2.029   5.052  0.00  0.00    -0.732 N 
ATOM      8  C   UNL d   1       6.000   2.889   3.934  0.00  0.00     0.284 C 
ATOM      9  H3  UNL d   1       4.927   2.379   5.643  0.00  0.00     0.395 HD
ENDBRANCH   1   7
TORSDOF 1
ENDMDL
