MODEL 1
REMARK minimizedAffinity -3.87229824
REMARK minimizedRMSD -1
REMARK  1 active torsions:
REMARK  status: ('A' for Active; 'I' for Inactive)
REMARK    1  A    between atoms: N_2  and  C1_3 
ROOT
ATOM      1  C1  UNL d   1       5.757   1.205   3.342  0.00  0.00     0.143 A 
ATOM      2  C2  UNL d   1       5.976   0.453   4.500  0.00  0.00    -0.057 A 
ATOM      3  C3  UNL d   1       5.714  -0.922   4.534  0.00  0.00     0.033 A 
ATOM      4  C4  UNL d   1       5.199  -1.566   3.414  0.00  0.00    -0.042 A 
ATOM      5  C5  UNL d   1       4.949  -0.833   2.259  0.00  0.00     0.033 A 
ATOM      6  C6  UNL d   1       5.219   0.539   2.229  0.00  0.00    -0.057 A 
ENDROOT
BRANCH   1   7
ATOM      7  N   UNL d   1       5.904   2.593   3.275  0.00  0.00    -0.732 N 
ATOM      8  C   UNL d   1       6.000   3.264   1.997  0.00  0.00     0.284 C 
ATOM      9  H3  UNL d   1       5.326   3.078   3.958  0.00  0.00     0.395 HD
ENDBRANCH   1   7
TORSDOF 1
ENDMDL
