MODEL 1
REMARK minimizedAffinity -2.73095298
REMARK minimizedRMSD -1
REMARK  1 active torsions:
REMARK  status: ('A' for Active; 'I' for Inactive)
REMARK    1  A    between atoms: N_2  and  C1_3 
ROOT
ATOM      1  C1  UNL d   1       5.280   1.718   4.807  0.00  0.00     0.143 A 
ATOM      2  C2  UNL d   1       5.855   1.010   3.746  0.00  0.00    -0.057 A 
ATOM      3  C3  UNL d   1       5.999  -0.382   3.794  0.00  0.00     0.033 A 
ATOM      4  C4  UNL d   1       5.595  -1.090   4.921  0.00  0.00    -0.042 A 
ATOM      5  C5  UNL d   1       5.043  -0.405   5.998  0.00  0.00     0.033 A 
ATOM      6  C6  UNL d   1       4.896   0.984   5.941  0.00  0.00    -0.057 A 
ENDROOT
BRANCH   1   7
ATOM      7  N   UNL d   1       5.200   3.111   4.861  0.00  0.00    -0.732 N 
ATOM      8  C   UNL d   1       4.480   3.847   3.844  0.00  0.00     0.284 C 
ATOM      9  H3  UNL d   1       5.052   3.456   5.806  0.00  0.00     0.395 HD
ENDBRANCH   1   7
TORSDOF 1
ENDMDL
