MODEL 1
REMARK minimizedAffinity -4.64298153
REMARK minimizedRMSD -1
REMARK  0 active torsions:
REMARK  status: ('A' for Active; 'I' for Inactive)
ROOT
ATOM      1  C   UNL d   1       1.288  -0.308   1.933  0.00  0.00     0.023 A 
ATOM      2  C1  UNL d   1       0.347  -0.417   2.958  0.00  0.00     0.003 A 
ATOM      3  C2  UNL d   1      -1.009  -0.223   2.686  0.00  0.00     0.048 A 
ATOM      4  C3  UNL d   1      -1.417   0.078   1.387  0.00  0.00     0.023 A 
ATOM      5  C4  UNL d   1      -0.480   0.187   0.358  0.00  0.00     0.048 A 
ATOM      6  C5  UNL d   1       0.875  -0.006   0.635  0.00  0.00     0.003 A 
ATOM      7  I   UNL d   1      -3.435   0.366   0.979  0.00  0.00    -0.146 I 
ENDROOT
TORSDOF 0
ENDMDL
