MODEL 1
REMARK minimizedAffinity -2.74082446
REMARK minimizedRMSD -1
REMARK  0 active torsions:
REMARK  status: ('A' for Active; 'I' for Inactive)
ROOT
ATOM      1  C   UNL d   1      -0.524  -0.695   3.343  0.00  0.00     0.023 A 
ATOM      2  C1  UNL d   1      -1.536  -0.946   2.417  0.00  0.00     0.003 A 
ATOM      3  C2  UNL d   1      -1.345  -0.634   1.069  0.00  0.00     0.048 A 
ATOM      4  C3  UNL d   1      -0.138  -0.073   0.654  0.00  0.00     0.023 A 
ATOM      5  C4  UNL d   1       0.878   0.179   1.577  0.00  0.00     0.048 A 
ATOM      6  C5  UNL d   1       0.682  -0.133   2.923  0.00  0.00     0.003 A 
ATOM      7  I   UNL d   1       0.149   0.392  -1.351  0.00  0.00    -0.146 I 
ENDROOT
TORSDOF 0
ENDMDL
