MODEL 1
REMARK minimizedAffinity -4.29161692
REMARK minimizedRMSD -1
REMARK  0 active torsions:
REMARK  status: ('A' for Active; 'I' for Inactive)
ROOT
ATOM      1  C   UNL d   1      -0.744  -0.224   2.453  0.00  0.00     0.023 A 
ATOM      2  C1  UNL d   1      -1.468  -0.839   1.431  0.00  0.00     0.003 A 
ATOM      3  C2  UNL d   1      -0.993  -0.802   0.118  0.00  0.00     0.048 A 
ATOM      4  C3  UNL d   1       0.207  -0.151  -0.165  0.00  0.00     0.023 A 
ATOM      5  C4  UNL d   1       0.935   0.465   0.854  0.00  0.00     0.048 A 
ATOM      6  C5  UNL d   1       0.455   0.427   2.165  0.00  0.00     0.003 A 
ATOM      7  I   UNL d   1       0.916  -0.096  -2.118  0.00  0.00    -0.146 I 
ENDROOT
TORSDOF 0
ENDMDL
