MODEL 1
REMARK minimizedAffinity -3.12062812
REMARK minimizedRMSD -1
REMARK  0 active torsions:
REMARK  status: ('A' for Active; 'I' for Inactive)
ROOT
ATOM      1  C   UNL d   1      -0.622   0.351   1.925  0.00  0.00     0.023 A 
ATOM      2  C1  UNL d   1      -1.497   0.460   0.845  0.00  0.00     0.003 A 
ATOM      3  C2  UNL d   1      -1.023   0.301  -0.459  0.00  0.00     0.048 A 
ATOM      4  C3  UNL d   1       0.329   0.032  -0.675  0.00  0.00     0.023 A 
ATOM      5  C4  UNL d   1       1.208  -0.078   0.403  0.00  0.00     0.048 A 
ATOM      6  C5  UNL d   1       0.729   0.082   1.705  0.00  0.00     0.003 A 
ATOM      7  I   UNL d   1       1.037  -0.205  -2.614  0.00  0.00    -0.146 I 
ENDROOT
TORSDOF 0
ENDMDL
