MODEL 1
REMARK minimizedAffinity -0.725699484
REMARK minimizedRMSD -1
REMARK  0 active torsions:
REMARK  status: ('A' for Active; 'I' for Inactive)
ROOT
ATOM      1  C   UNL d   1      -0.947  -0.201   3.001  0.00  0.00     0.023 A 
ATOM      2  C1  UNL d   1      -1.390  -1.199   2.134  0.00  0.00     0.003 A 
ATOM      3  C2  UNL d   1      -1.006  -1.181   0.791  0.00  0.00     0.048 A 
ATOM      4  C3  UNL d   1      -0.177  -0.162   0.323  0.00  0.00     0.023 A 
ATOM      5  C4  UNL d   1       0.271   0.838   1.188  0.00  0.00     0.048 A 
ATOM      6  C5  UNL d   1      -0.117   0.817   2.529  0.00  0.00     0.003 A 
ATOM      7  I   UNL d   1       0.397  -0.133  -1.674  0.00  0.00    -0.146 I 
ENDROOT
TORSDOF 0
ENDMDL
