MODEL 1
REMARK minimizedAffinity -4.85473347
REMARK minimizedRMSD -1
REMARK  0 active torsions:
REMARK  status: ('A' for Active; 'I' for Inactive)
ROOT
ATOM      1  C   UNL d   1      -0.674  -0.379   3.198  0.00  0.00     0.023 A 
ATOM      2  C1  UNL d   1      -1.697  -0.393   2.250  0.00  0.00     0.003 A 
ATOM      3  C2  UNL d   1      -1.397  -0.239   0.895  0.00  0.00     0.048 A 
ATOM      4  C3  UNL d   1      -0.072  -0.072   0.495  0.00  0.00     0.023 A 
ATOM      5  C4  UNL d   1       0.955  -0.058   1.440  0.00  0.00     0.048 A 
ATOM      6  C5  UNL d   1       0.650  -0.212   2.794  0.00  0.00     0.003 A 
ATOM      7  I   UNL d   1       0.378   0.158  -1.521  0.00  0.00    -0.146 I 
ENDROOT
TORSDOF 0
ENDMDL
