MODEL 1
REMARK minimizedAffinity -4.94715881
REMARK minimizedRMSD -1
REMARK  0 active torsions:
REMARK  status: ('A' for Active; 'I' for Inactive)
ROOT
ATOM      1  C   UNL d   1      -3.152   0.555   1.744  0.00  0.00     0.023 A 
ATOM      2  C1  UNL d   1      -2.302   0.287   2.817  0.00  0.00     0.003 A 
ATOM      3  C2  UNL d   1      -0.938   0.089   2.595  0.00  0.00     0.048 A 
ATOM      4  C3  UNL d   1      -0.430   0.160   1.298  0.00  0.00     0.023 A 
ATOM      5  C4  UNL d   1      -1.277   0.428   0.222  0.00  0.00     0.048 A 
ATOM      6  C5  UNL d   1      -2.641   0.625   0.448  0.00  0.00     0.003 A 
ATOM      7  I   UNL d   1       1.600  -0.136   0.966  0.00  0.00    -0.146 I 
ENDROOT
TORSDOF 0
ENDMDL
