MODEL 1
REMARK minimizedAffinity -4.77995348
REMARK minimizedRMSD -1
REMARK  0 active torsions:
REMARK  status: ('A' for Active; 'I' for Inactive)
ROOT
ATOM      1  C   UNL d   1      -0.402   0.347   2.192  0.00  0.00     0.023 A 
ATOM      2  C1  UNL d   1       0.911   0.121   1.777  0.00  0.00     0.003 A 
ATOM      3  C2  UNL d   1       1.179  -0.181   0.441  0.00  0.00     0.048 A 
ATOM      4  C3  UNL d   1       0.131  -0.256  -0.476  0.00  0.00     0.023 A 
ATOM      5  C4  UNL d   1      -1.184  -0.031  -0.065  0.00  0.00     0.048 A 
ATOM      6  C5  UNL d   1      -1.448   0.271   1.272  0.00  0.00     0.003 A 
ATOM      7  I   UNL d   1       0.529  -0.706  -2.466  0.00  0.00    -0.146 I 
ENDROOT
TORSDOF 0
ENDMDL
