MODEL 1
REMARK minimizedAffinity -4.64821053
REMARK minimizedRMSD -1
REMARK  0 active torsions:
REMARK  status: ('A' for Active; 'I' for Inactive)
ROOT
ATOM      1  C   UNL d   1      -2.241  -0.017   3.034  0.00  0.00     0.023 A 
ATOM      2  C1  UNL d   1      -2.885   0.152   1.808  0.00  0.00     0.003 A 
ATOM      3  C2  UNL d   1      -2.170   0.009   0.617  0.00  0.00     0.048 A 
ATOM      4  C3  UNL d   1      -0.812  -0.306   0.659  0.00  0.00     0.023 A 
ATOM      5  C4  UNL d   1      -0.164  -0.477   1.884  0.00  0.00     0.048 A 
ATOM      6  C5  UNL d   1      -0.882  -0.332   3.072  0.00  0.00     0.003 A 
ATOM      7  I   UNL d   1       0.254  -0.521  -1.112  0.00  0.00    -0.146 I 
ENDROOT
TORSDOF 0
ENDMDL
