MODEL 1
REMARK minimizedAffinity -4.84083414
REMARK minimizedRMSD -1
REMARK  0 active torsions:
REMARK  status: ('A' for Active; 'I' for Inactive)
ROOT
ATOM      1  C   UNL d   1      -1.763   0.194   3.157  0.00  0.00     0.023 A 
ATOM      2  C1  UNL d   1      -0.395   0.454   3.072  0.00  0.00     0.003 A 
ATOM      3  C2  UNL d   1       0.253   0.393   1.837  0.00  0.00     0.048 A 
ATOM      4  C3  UNL d   1      -0.472   0.072   0.690  0.00  0.00     0.023 A 
ATOM      5  C4  UNL d   1      -1.841  -0.189   0.770  0.00  0.00     0.048 A 
ATOM      6  C5  UNL d   1      -2.485  -0.128   2.007  0.00  0.00     0.003 A 
ATOM      7  I   UNL d   1       0.491  -0.020  -1.149  0.00  0.00    -0.146 I 
ENDROOT
TORSDOF 0
ENDMDL
