MODEL 1
REMARK minimizedAffinity -5.19146442
REMARK minimizedRMSD -1
REMARK  0 active torsions:
REMARK  status: ('A' for Active; 'I' for Inactive)
ROOT
ATOM      1  C   UNL d   1      -0.826  -0.305   3.031  0.00  0.00     0.023 A 
ATOM      2  C1  UNL d   1       0.294   0.368   2.544  0.00  0.00     0.003 A 
ATOM      3  C2  UNL d   1       0.512   0.459   1.168  0.00  0.00     0.048 A 
ATOM      4  C3  UNL d   1      -0.396  -0.124   0.284  0.00  0.00     0.023 A 
ATOM      5  C4  UNL d   1      -1.519  -0.797   0.767  0.00  0.00     0.048 A 
ATOM      6  C5  UNL d   1      -1.732  -0.887   2.144  0.00  0.00     0.003 A 
ATOM      7  I   UNL d   1      -0.074   0.011  -1.765  0.00  0.00    -0.146 I 
ENDROOT
TORSDOF 0
ENDMDL
