MODEL 1
REMARK minimizedAffinity -0.665894508
REMARK minimizedRMSD -1
REMARK  0 active torsions:
REMARK  status: ('A' for Active; 'I' for Inactive)
ROOT
ATOM      1  C   UNL d   1      -0.597   0.028   2.263  0.00  0.00     0.023 A 
ATOM      2  C1  UNL d   1      -1.212  -0.818   1.340  0.00  0.00     0.003 A 
ATOM      3  C2  UNL d   1      -0.742  -0.881   0.026  0.00  0.00     0.048 A 
ATOM      4  C3  UNL d   1       0.344  -0.095  -0.357  0.00  0.00     0.023 A 
ATOM      5  C4  UNL d   1       0.963   0.753   0.563  0.00  0.00     0.048 A 
ATOM      6  C5  UNL d   1       0.489   0.812   1.875  0.00  0.00     0.003 A 
ATOM      7  I   UNL d   1       1.045  -0.186  -2.312  0.00  0.00    -0.146 I 
ENDROOT
TORSDOF 0
ENDMDL
