MODEL 1
REMARK minimizedAffinity -4.39458323
REMARK minimizedRMSD -1
REMARK  0 active torsions:
REMARK  status: ('A' for Active; 'I' for Inactive)
ROOT
ATOM      1  C   UNL d   1      -0.964  -0.438   3.166  0.00  0.00     0.023 A 
ATOM      2  C1  UNL d   1       0.364  -0.346   2.748  0.00  0.00     0.003 A 
ATOM      3  C2  UNL d   1       0.665  -0.293   1.385  0.00  0.00     0.048 A 
ATOM      4  C3  UNL d   1      -0.365  -0.331   0.447  0.00  0.00     0.023 A 
ATOM      5  C4  UNL d   1      -1.695  -0.422   0.861  0.00  0.00     0.048 A 
ATOM      6  C5  UNL d   1      -1.992  -0.476   2.224  0.00  0.00     0.003 A 
ATOM      7  I   UNL d   1       0.081  -0.252  -1.581  0.00  0.00    -0.146 I 
ENDROOT
TORSDOF 0
ENDMDL
