MODEL 1
REMARK minimizedAffinity -3.06194854
REMARK minimizedRMSD -1
REMARK  1 active torsions:
REMARK  status: ('A' for Active; 'I' for Inactive)
REMARK    1  A    between atoms: C1_2  and  C2_3 
ROOT
ATOM      1  C2  UNL d   1      -0.281   1.450   0.007  0.00  0.00    -0.077 A 
ATOM      2  C3  UNL d   1      -0.774   0.668   1.062  0.00  0.00     0.002 A 
ATOM      3  C4  UNL d   1      -0.725  -0.725   0.991  0.00  0.00     0.002 A 
ATOM      4  C5  UNL d   1      -0.181  -1.349  -0.130  0.00  0.00    -0.004 A 
ATOM      5  C6  UNL d   1       0.309  -0.580  -1.185  0.00  0.00     0.002 A 
ATOM      6  C7  UNL d   1       0.260   0.813  -1.116  0.00  0.00     0.002 A 
ENDROOT
BRANCH   1   7
ATOM      7  C1  UNL d   1      -0.288   2.953   0.103  0.00  0.00     0.055 C 
ATOM      8  C   UNL d   1       1.093   3.492   0.449  0.00  0.00     0.019 C 
ENDBRANCH   1   7
TORSDOF 1
ENDMDL
