MODEL 1
REMARK minimizedAffinity -4.56548643
REMARK minimizedRMSD -1
REMARK  1 active torsions:
REMARK  status: ('A' for Active; 'I' for Inactive)
REMARK    1  A    between atoms: C1_2  and  C2_3 
ROOT
ATOM      1  C2  UNL d   1      -0.124  -0.486   0.427  0.00  0.00    -0.077 A 
ATOM      2  C3  UNL d   1       0.820  -1.217  -0.308  0.00  0.00     0.002 A 
ATOM      3  C4  UNL d   1       0.721  -2.607  -0.400  0.00  0.00     0.002 A 
ATOM      4  C5  UNL d   1      -0.322  -3.276   0.237  0.00  0.00    -0.004 A 
ATOM      5  C6  UNL d   1      -1.264  -2.559   0.972  0.00  0.00     0.002 A 
ATOM      6  C7  UNL d   1      -1.166  -1.170   1.066  0.00  0.00     0.002 A 
ENDROOT
BRANCH   1   7
ATOM      7  C1  UNL d   1      -0.047   1.017   0.487  0.00  0.00     0.055 C 
ATOM      8  C   UNL d   1       0.377   1.603  -0.852  0.00  0.00     0.019 C 
ENDBRANCH   1   7
TORSDOF 1
ENDMDL
