MODEL 1
REMARK minimizedAffinity -3.50055432
REMARK minimizedRMSD -1
REMARK  1 active torsions:
REMARK  status: ('A' for Active; 'I' for Inactive)
REMARK    1  A    between atoms: C1_2  and  C2_3 
ROOT
ATOM      1  C2  UNL d   1       0.556  -1.174  -0.118  0.00  0.00    -0.077 A 
ATOM      2  C3  UNL d   1       0.910  -0.621  -1.357  0.00  0.00     0.002 A 
ATOM      3  C4  UNL d   1       0.533   0.684  -1.681  0.00  0.00     0.002 A 
ATOM      4  C5  UNL d   1      -0.195   1.448  -0.771  0.00  0.00    -0.004 A 
ATOM      5  C6  UNL d   1      -0.554   0.906   0.462  0.00  0.00     0.002 A 
ATOM      6  C7  UNL d   1      -0.179  -0.398   0.788  0.00  0.00     0.002 A 
ENDROOT
BRANCH   1   7
ATOM      7  C1  UNL d   1       1.003  -2.563   0.254  0.00  0.00     0.055 C 
ATOM      8  C   UNL d   1      -0.186  -3.479   0.505  0.00  0.00     0.019 C 
ENDBRANCH   1   7
TORSDOF 1
ENDMDL
