MODEL 1
REMARK minimizedAffinity -5.30681705
REMARK minimizedRMSD -1
REMARK  1 active torsions:
REMARK  status: ('A' for Active; 'I' for Inactive)
REMARK    1  A    between atoms: C1_2  and  C2_3 
ROOT
ATOM      1  C2  UNL d   1       0.168   0.181   0.054  0.00  0.00    -0.077 A 
ATOM      2  C3  UNL d   1      -0.370  -0.414   1.203  0.00  0.00     0.002 A 
ATOM      3  C4  UNL d   1      -0.574  -1.795   1.253  0.00  0.00     0.002 A 
ATOM      4  C5  UNL d   1      -0.239  -2.591   0.160  0.00  0.00    -0.004 A 
ATOM      5  C6  UNL d   1       0.295  -2.007  -0.988  0.00  0.00     0.002 A 
ATOM      6  C7  UNL d   1       0.499  -0.628  -1.041  0.00  0.00     0.002 A 
ENDROOT
BRANCH   1   7
ATOM      7  C1  UNL d   1       0.435   1.664   0.015  0.00  0.00     0.055 C 
ATOM      8  C   UNL d   1       1.928   1.957  -0.004  0.00  0.00     0.019 C 
ENDBRANCH   1   7
TORSDOF 1
ENDMDL
