MODEL 1
REMARK minimizedAffinity -0.0395395085
REMARK minimizedRMSD -1
REMARK  1 active torsions:
REMARK  status: ('A' for Active; 'I' for Inactive)
REMARK    1  A    between atoms: C1_2  and  C2_3 
ROOT
ATOM      1  C2  UNL d   1       0.178   0.084  -0.201  0.00  0.00    -0.077 A 
ATOM      2  C3  UNL d   1       0.566  -1.141   0.359  0.00  0.00     0.002 A 
ATOM      3  C4  UNL d   1       1.026  -2.177  -0.456  0.00  0.00     0.002 A 
ATOM      4  C5  UNL d   1       1.107  -1.996  -1.835  0.00  0.00    -0.004 A 
ATOM      5  C6  UNL d   1       0.722  -0.781  -2.402  0.00  0.00     0.002 A 
ATOM      6  C7  UNL d   1       0.261   0.254  -1.589  0.00  0.00     0.002 A 
ENDROOT
BRANCH   1   7
ATOM      7  C1  UNL d   1      -0.272   1.218   0.682  0.00  0.00     0.055 C 
ATOM      8  C   UNL d   1       0.809   2.281   0.813  0.00  0.00     0.019 C 
ENDBRANCH   1   7
TORSDOF 1
ENDMDL
