MODEL 1
REMARK minimizedAffinity -5.91140413
REMARK minimizedRMSD -1
REMARK  1 active torsions:
REMARK  status: ('A' for Active; 'I' for Inactive)
REMARK    1  A    between atoms: C1_2  and  C2_3 
ROOT
ATOM      1  C2  UNL d   1       0.009  -1.060  -1.063  0.00  0.00    -0.077 A 
ATOM      2  C3  UNL d   1      -0.046  -1.951  -2.143  0.00  0.00     0.002 A 
ATOM      3  C4  UNL d   1      -0.014  -3.330  -1.925  0.00  0.00     0.002 A 
ATOM      4  C5  UNL d   1       0.069  -3.829  -0.627  0.00  0.00    -0.004 A 
ATOM      5  C6  UNL d   1       0.126  -2.951   0.455  0.00  0.00     0.002 A 
ATOM      6  C7  UNL d   1       0.095  -1.573   0.238  0.00  0.00     0.002 A 
ENDROOT
BRANCH   1   7
ATOM      7  C1  UNL d   1      -0.076   0.426  -1.293  0.00  0.00     0.055 C 
ATOM      8  C   UNL d   1       0.015   1.196   0.016  0.00  0.00     0.019 C 
ENDBRANCH   1   7
TORSDOF 1
ENDMDL
