MODEL 1
REMARK minimizedAffinity -3.3324852
REMARK minimizedRMSD -1
REMARK  1 active torsions:
REMARK  status: ('A' for Active; 'I' for Inactive)
REMARK    1  A    between atoms: C1_2  and  C2_3 
ROOT
ATOM      1  C2  UNL d   1      -0.147   0.099  -0.447  0.00  0.00    -0.077 A 
ATOM      2  C3  UNL d   1      -0.977  -0.329   0.598  0.00  0.00     0.002 A 
ATOM      3  C4  UNL d   1      -0.979  -1.668   0.995  0.00  0.00     0.002 A 
ATOM      4  C5  UNL d   1      -0.151  -2.588   0.355  0.00  0.00    -0.004 A 
ATOM      5  C6  UNL d   1       0.676  -2.172  -0.687  0.00  0.00     0.002 A 
ATOM      6  C7  UNL d   1       0.679  -0.835  -1.086  0.00  0.00     0.002 A 
ENDROOT
BRANCH   1   7
ATOM      7  C1  UNL d   1      -0.106   1.552  -0.844  0.00  0.00     0.055 C 
ATOM      8  C   UNL d   1       0.913   2.323  -0.017  0.00  0.00     0.019 C 
ENDBRANCH   1   7
TORSDOF 1
ENDMDL
