MODEL 1
REMARK minimizedAffinity -4.30502796
REMARK minimizedRMSD -1
REMARK  1 active torsions:
REMARK  status: ('A' for Active; 'I' for Inactive)
REMARK    1  A    between atoms: C1_2  and  C2_3 
ROOT
ATOM      1  C2  UNL d   1      -0.466  -2.001   0.238  0.00  0.00    -0.077 A 
ATOM      2  C3  UNL d   1      -0.122  -0.884  -0.536  0.00  0.00     0.002 A 
ATOM      3  C4  UNL d   1       0.098  -1.016  -1.908  0.00  0.00     0.002 A 
ATOM      4  C5  UNL d   1      -0.029  -2.261  -2.519  0.00  0.00    -0.004 A 
ATOM      5  C6  UNL d   1      -0.369  -3.379  -1.758  0.00  0.00     0.002 A 
ATOM      6  C7  UNL d   1      -0.588  -3.249  -0.386  0.00  0.00     0.002 A 
ENDROOT
BRANCH   1   7
ATOM      7  C1  UNL d   1      -0.752  -1.851   1.709  0.00  0.00     0.055 C 
ATOM      8  C   UNL d   1      -1.175  -0.430   2.050  0.00  0.00     0.019 C 
ENDBRANCH   1   7
TORSDOF 1
ENDMDL
