MODEL 1
REMARK minimizedAffinity -4.85109091
REMARK minimizedRMSD -1
REMARK  1 active torsions:
REMARK  status: ('A' for Active; 'I' for Inactive)
REMARK    1  A    between atoms: C1_2  and  C2_3 
ROOT
ATOM      1  C2  UNL d   1      -0.091  -0.374   0.036  0.00  0.00    -0.077 A 
ATOM      2  C3  UNL d   1      -0.707  -1.177   1.007  0.00  0.00     0.002 A 
ATOM      3  C4  UNL d   1      -0.402  -2.536   1.096  0.00  0.00     0.002 A 
ATOM      4  C5  UNL d   1       0.521  -3.104   0.220  0.00  0.00    -0.004 A 
ATOM      5  C6  UNL d   1       1.137  -2.314  -0.750  0.00  0.00     0.002 A 
ATOM      6  C7  UNL d   1       0.833  -0.955  -0.841  0.00  0.00     0.002 A 
ENDROOT
BRANCH   1   7
ATOM      7  C1  UNL d   1      -0.381   1.103  -0.029  0.00  0.00     0.055 C 
ATOM      8  C   UNL d   1       0.859   1.925   0.290  0.00  0.00     0.019 C 
ENDBRANCH   1   7
TORSDOF 1
ENDMDL
