MODEL 1
REMARK minimizedAffinity -4.17009544
REMARK minimizedRMSD -1
REMARK  1 active torsions:
REMARK  status: ('A' for Active; 'I' for Inactive)
REMARK    1  A    between atoms: C1_2  and  C2_3 
ROOT
ATOM      1  C2  UNL d   1      -0.249  -1.123   0.280  0.00  0.00    -0.077 A 
ATOM      2  C3  UNL d   1      -0.613   0.177   0.660  0.00  0.00     0.002 A 
ATOM      3  C4  UNL d   1      -0.430   1.247  -0.218  0.00  0.00     0.002 A 
ATOM      4  C5  UNL d   1       0.113   1.028  -1.482  0.00  0.00    -0.004 A 
ATOM      5  C6  UNL d   1       0.479  -0.261  -1.869  0.00  0.00     0.002 A 
ATOM      6  C7  UNL d   1       0.299  -1.331  -0.992  0.00  0.00     0.002 A 
ENDROOT
BRANCH   1   7
ATOM      7  C1  UNL d   1      -0.491  -2.285   1.208  0.00  0.00     0.055 C 
ATOM      8  C   UNL d   1       0.224  -3.538   0.722  0.00  0.00     0.019 C 
ENDBRANCH   1   7
TORSDOF 1
ENDMDL
