MODEL 1
REMARK minimizedAffinity -3.72356224
REMARK minimizedRMSD -1
REMARK  1 active torsions:
REMARK  status: ('A' for Active; 'I' for Inactive)
REMARK    1  A    between atoms: C1_2  and  C2_3 
ROOT
ATOM      1  C2  UNL d   1      -0.252   0.156  -0.085  0.00  0.00    -0.077 A 
ATOM      2  C3  UNL d   1       0.912  -0.594  -0.306  0.00  0.00     0.002 A 
ATOM      3  C4  UNL d   1       0.951  -1.950   0.024  0.00  0.00     0.002 A 
ATOM      4  C5  UNL d   1      -0.170  -2.569   0.572  0.00  0.00    -0.004 A 
ATOM      5  C6  UNL d   1      -1.332  -1.831   0.797  0.00  0.00     0.002 A 
ATOM      6  C7  UNL d   1      -1.373  -0.476   0.470  0.00  0.00     0.002 A 
ENDROOT
BRANCH   1   7
ATOM      7  C1  UNL d   1      -0.313   1.606  -0.486  0.00  0.00     0.055 C 
ATOM      8  C   UNL d   1       0.967   2.339  -0.109  0.00  0.00     0.019 C 
ENDBRANCH   1   7
TORSDOF 1
ENDMDL
