MODEL 1
REMARK minimizedAffinity -0.129763752
REMARK minimizedRMSD -1
REMARK  1 active torsions:
REMARK  status: ('A' for Active; 'I' for Inactive)
REMARK    1  A    between atoms: C1_2  and  C2_3 
ROOT
ATOM      1  C2  UNL d   1      -3.052   3.096  -5.859  0.00  0.00    -0.081 A 
ATOM      2  C3  UNL d   1      -2.065   2.104  -5.905  0.00  0.00     0.006 A 
ATOM      3  C4  UNL d   1      -2.419   0.753  -5.939  0.00  0.00     0.002 A 
ATOM      4  C5  UNL d   1      -3.764   0.372  -5.934  0.00  0.00    -0.080 A 
ATOM      5  C6  UNL d   1      -4.158  -1.074  -6.000  0.00  0.00     0.076 C 
ATOM      6  C7  UNL d   1      -4.751   1.362  -5.870  0.00  0.00     0.002 A 
ATOM      7  C8  UNL d   1      -4.398   2.713  -5.836  0.00  0.00     0.006 A 
ENDROOT
BRANCH   1   8
ATOM      8  C1  UNL d   1      -2.675   4.555  -5.888  0.00  0.00     0.054 C 
ATOM      9  C   UNL d   1      -1.867   4.943  -4.658  0.00  0.00     0.018 C 
ENDBRANCH   1   8
TORSDOF 1
ENDMDL
