MODEL 1
REMARK minimizedAffinity 2.87877536
REMARK minimizedRMSD -1
REMARK  1 active torsions:
REMARK  status: ('A' for Active; 'I' for Inactive)
REMARK    1  A    between atoms: C1_2  and  C2_3 
ROOT
ATOM      1  C2  UNL d   1      -3.741   3.202  -5.946  0.00  0.00    -0.081 A 
ATOM      2  C3  UNL d   1      -5.047   2.697  -5.973  0.00  0.00     0.006 A 
ATOM      3  C4  UNL d   1      -5.272   1.319  -5.998  0.00  0.00     0.002 A 
ATOM      4  C5  UNL d   1      -4.198   0.423  -5.987  0.00  0.00    -0.080 A 
ATOM      5  C6  UNL d   1      -4.427  -1.059  -5.982  0.00  0.00     0.076 C 
ATOM      6  C7  UNL d   1      -2.893   0.928  -5.977  0.00  0.00     0.002 A 
ATOM      7  C8  UNL d   1      -2.666   2.306  -5.953  0.00  0.00     0.006 A 
ENDROOT
BRANCH   1   8
ATOM      8  C1  UNL d   1      -3.495   4.686  -5.854  0.00  0.00     0.054 C 
ATOM      9  C   UNL d   1      -4.794   5.471  -5.970  0.00  0.00     0.018 C 
ENDBRANCH   1   8
TORSDOF 1
ENDMDL
