MODEL 1
REMARK minimizedAffinity 8.60565853
REMARK minimizedRMSD -1
REMARK  1 active torsions:
REMARK  status: ('A' for Active; 'I' for Inactive)
REMARK    1  A    between atoms: C1_2  and  C2_3 
ROOT
ATOM      1  C2  UNL d   1      -4.334   0.306  -5.952  0.00  0.00    -0.081 A 
ATOM      2  C3  UNL d   1      -5.606  -0.281  -5.973  0.00  0.00     0.006 A 
ATOM      3  C4  UNL d   1      -5.744  -1.671  -5.999  0.00  0.00     0.002 A 
ATOM      4  C5  UNL d   1      -4.614  -2.496  -5.996  0.00  0.00    -0.080 A 
ATOM      5  C6  UNL d   1      -4.749  -3.990  -5.993  0.00  0.00     0.076 C 
ATOM      6  C7  UNL d   1      -3.344  -1.910  -5.993  0.00  0.00     0.002 A 
ATOM      7  C8  UNL d   1      -3.205  -0.520  -5.967  0.00  0.00     0.006 A 
ENDROOT
BRANCH   1   8
ATOM      8  C1  UNL d   1      -4.183   1.803  -5.858  0.00  0.00     0.054 C 
ATOM      9  C   UNL d   1      -2.717   2.211  -5.856  0.00  0.00     0.018 C 
ENDBRANCH   1   8
TORSDOF 1
ENDMDL
