MODEL 1
REMARK minimizedAffinity 0.0617387891
REMARK minimizedRMSD -1
REMARK  1 active torsions:
REMARK  status: ('A' for Active; 'I' for Inactive)
REMARK    1  A    between atoms: C1_2  and  C2_3 
ROOT
ATOM      1  C2  UNL d   1      -3.599   1.643  -5.941  0.00  0.00    -0.081 A 
ATOM      2  C3  UNL d   1      -4.835   2.298  -5.994  0.00  0.00     0.006 A 
ATOM      3  C4  UNL d   1      -4.898   3.694  -6.000  0.00  0.00     0.002 A 
ATOM      4  C5  UNL d   1      -3.726   4.456  -5.961  0.00  0.00    -0.080 A 
ATOM      5  C6  UNL d   1      -3.777   5.955  -5.997  0.00  0.00     0.076 C 
ATOM      6  C7  UNL d   1      -2.491   3.802  -5.890  0.00  0.00     0.002 A 
ATOM      7  C8  UNL d   1      -2.428   2.407  -5.883  0.00  0.00     0.006 A 
ENDROOT
BRANCH   1   8
ATOM      8  C1  UNL d   1      -3.526   0.138  -5.999  0.00  0.00     0.054 C 
ATOM      9  C   UNL d   1      -4.915  -0.484  -5.997  0.00  0.00     0.018 C 
ENDBRANCH   1   8
TORSDOF 1
ENDMDL
