MODEL 1
REMARK minimizedAffinity -3.1348021
REMARK minimizedRMSD -1
REMARK  1 active torsions:
REMARK  status: ('A' for Active; 'I' for Inactive)
REMARK    1  A    between atoms: C1_2  and  C2_3 
ROOT
ATOM      1  C2  UNL d   1      -4.351   3.004  -5.933  0.00  0.00    -0.081 A 
ATOM      2  C3  UNL d   1      -3.071   2.441  -5.866  0.00  0.00     0.006 A 
ATOM      3  C4  UNL d   1      -2.905   1.054  -5.870  0.00  0.00     0.002 A 
ATOM      4  C5  UNL d   1      -4.016   0.207  -5.949  0.00  0.00    -0.080 A 
ATOM      5  C6  UNL d   1      -3.850  -1.283  -5.985  0.00  0.00     0.076 C 
ATOM      6  C7  UNL d   1      -5.296   0.769  -5.999  0.00  0.00     0.002 A 
ATOM      7  C8  UNL d   1      -5.462   2.155  -5.994  0.00  0.00     0.006 A 
ENDROOT
BRANCH   1   8
ATOM      8  C1  UNL d   1      -4.530   4.499  -5.994  0.00  0.00     0.054 C 
ATOM      9  C   UNL d   1      -5.997   4.887  -5.876  0.00  0.00     0.018 C 
ENDBRANCH   1   8
TORSDOF 1
ENDMDL
