MODEL 1
REMARK minimizedAffinity 0.0264790189
REMARK minimizedRMSD -1
REMARK  1 active torsions:
REMARK  status: ('A' for Active; 'I' for Inactive)
REMARK    1  A    between atoms: C1_2  and  C2_3 
ROOT
ATOM      1  C2  UNL d   1       1.601   2.019   0.613  0.00  0.00    -0.081 A 
ATOM      2  C3  UNL d   1       2.614   1.618  -0.266  0.00  0.00     0.006 A 
ATOM      3  C4  UNL d   1       2.381   0.604  -1.198  0.00  0.00     0.002 A 
ATOM      4  C5  UNL d   1       1.131  -0.020  -1.272  0.00  0.00    -0.080 A 
ATOM      5  C6  UNL d   1       0.859  -1.089  -2.288  0.00  0.00     0.076 C 
ATOM      6  C7  UNL d   1       0.124   0.369  -0.382  0.00  0.00     0.002 A 
ATOM      7  C8  UNL d   1       0.356   1.383   0.551  0.00  0.00     0.006 A 
ENDROOT
BRANCH   1   8
ATOM      8  C1  UNL d   1       1.828   3.157   1.576  0.00  0.00     0.054 C 
ATOM      9  C   UNL d   1       1.729   4.504   0.874  0.00  0.00     0.018 C 
ENDBRANCH   1   8
TORSDOF 1
ENDMDL
