MODEL 1
REMARK minimizedAffinity -1.13176906
REMARK minimizedRMSD -1
REMARK  1 active torsions:
REMARK  status: ('A' for Active; 'I' for Inactive)
REMARK    1  A    between atoms: C1_2  and  C2_3 
ROOT
ATOM      1  C2  UNL d   1      -4.372   2.535  -5.810  0.00  0.00    -0.081 A 
ATOM      2  C3  UNL d   1      -4.444   3.931  -5.890  0.00  0.00     0.006 A 
ATOM      3  C4  UNL d   1      -3.288   4.707  -5.779  0.00  0.00     0.002 A 
ATOM      4  C5  UNL d   1      -2.041   4.100  -5.593  0.00  0.00    -0.080 A 
ATOM      5  C6  UNL d   1      -0.788   4.920  -5.502  0.00  0.00     0.076 C 
ATOM      6  C7  UNL d   1      -1.972   2.706  -5.495  0.00  0.00     0.002 A 
ATOM      7  C8  UNL d   1      -3.127   1.930  -5.605  0.00  0.00     0.006 A 
ENDROOT
BRANCH   1   8
ATOM      8  C1  UNL d   1      -5.608   1.692  -5.994  0.00  0.00     0.054 C 
ATOM      9  C   UNL d   1      -5.271   0.208  -6.000  0.00  0.00     0.018 C 
ENDBRANCH   1   8
TORSDOF 1
ENDMDL
