MODEL 1
REMARK minimizedAffinity 0.262313604
REMARK minimizedRMSD -1
REMARK  1 active torsions:
REMARK  status: ('A' for Active; 'I' for Inactive)
REMARK    1  A    between atoms: C1_2  and  C2_3 
ROOT
ATOM      1  C2  UNL d   1      -3.058   1.349  -5.925  0.00  0.00    -0.081 A 
ATOM      2  C3  UNL d   1      -4.294   2.004  -5.993  0.00  0.00     0.006 A 
ATOM      3  C4  UNL d   1      -4.357   3.399  -5.994  0.00  0.00     0.002 A 
ATOM      4  C5  UNL d   1      -3.186   4.162  -5.935  0.00  0.00    -0.080 A 
ATOM      5  C6  UNL d   1      -3.238   5.661  -5.965  0.00  0.00     0.076 C 
ATOM      6  C7  UNL d   1      -1.952   3.508  -5.849  0.00  0.00     0.002 A 
ATOM      7  C8  UNL d   1      -1.888   2.113  -5.848  0.00  0.00     0.006 A 
ENDROOT
BRANCH   1   8
ATOM      8  C1  UNL d   1      -2.983  -0.155  -5.989  0.00  0.00     0.054 C 
ATOM      9  C   UNL d   1      -4.371  -0.779  -5.997  0.00  0.00     0.018 C 
ENDBRANCH   1   8
TORSDOF 1
ENDMDL
