MODEL 1
REMARK minimizedAffinity -2.63051915
REMARK minimizedRMSD -1
REMARK  0 active torsions:
REMARK  status: ('A' for Active; 'I' for Inactive)
ROOT
ATOM      1  C   UNL d   1      -2.876   1.037   2.154  0.00  0.00     0.077 C 
ATOM      2  C1  UNL d   1      -1.474   0.685   1.753  0.00  0.00    -0.074 A 
ATOM      3  C2  UNL d   1      -0.465   0.547   2.712  0.00  0.00    -0.005 A 
ATOM      4  C3  UNL d   1       0.832   0.210   2.325  0.00  0.00     0.006 A 
ATOM      5  C4  UNL d   1       1.133   0.008   0.978  0.00  0.00    -0.005 A 
ATOM      6  C5  UNL d   1       0.137   0.141   0.005  0.00  0.00    -0.074 A 
ATOM      7  C6  UNL d   1       0.442  -0.082  -1.447  0.00  0.00     0.077 C 
ATOM      8  C7  UNL d   1      -1.165   0.473   0.402  0.00  0.00    -0.001 A 
ENDROOT
TORSDOF 0
ENDMDL
