MODEL 1
REMARK minimizedAffinity -3.84577918
REMARK minimizedRMSD -1
REMARK  0 active torsions:
REMARK  status: ('A' for Active; 'I' for Inactive)
ROOT
ATOM      1  C   UNL d   1      -3.673   0.346   0.550  0.00  0.00     0.077 C 
ATOM      2  C1  UNL d   1      -2.400   0.155   1.320  0.00  0.00    -0.074 A 
ATOM      3  C2  UNL d   1      -2.409   0.091   2.717  0.00  0.00    -0.005 A 
ATOM      4  C3  UNL d   1      -1.218  -0.097   3.420  0.00  0.00     0.006 A 
ATOM      5  C4  UNL d   1      -0.010  -0.221   2.733  0.00  0.00    -0.005 A 
ATOM      6  C5  UNL d   1       0.018  -0.160   1.336  0.00  0.00    -0.074 A 
ATOM      7  C6  UNL d   1       1.307  -0.301   0.583  0.00  0.00     0.077 C 
ATOM      8  C7  UNL d   1      -1.183   0.022   0.637  0.00  0.00    -0.001 A 
ENDROOT
TORSDOF 0
ENDMDL
