MODEL 1
REMARK minimizedAffinity -3.93079519
REMARK minimizedRMSD -1
REMARK  0 active torsions:
REMARK  status: ('A' for Active; 'I' for Inactive)
ROOT
ATOM      1  C   UNL d   1      -2.889   1.109   1.736  0.00  0.00     0.077 C 
ATOM      2  C1  UNL d   1      -1.464   0.756   1.429  0.00  0.00    -0.074 A 
ATOM      3  C2  UNL d   1      -0.535   0.558   2.456  0.00  0.00    -0.005 A 
ATOM      4  C3  UNL d   1       0.784   0.221   2.156  0.00  0.00     0.006 A 
ATOM      5  C4  UNL d   1       1.188   0.076   0.828  0.00  0.00    -0.005 A 
ATOM      6  C5  UNL d   1       0.273   0.269  -0.212  0.00  0.00    -0.074 A 
ATOM      7  C6  UNL d   1       0.687   0.108  -1.645  0.00  0.00     0.077 C 
ATOM      8  C7  UNL d   1      -1.053   0.601   0.098  0.00  0.00    -0.001 A 
ENDROOT
TORSDOF 0
ENDMDL
