MODEL 1
REMARK minimizedAffinity -2.71009946
REMARK minimizedRMSD -1
REMARK  0 active torsions:
REMARK  status: ('A' for Active; 'I' for Inactive)
ROOT
ATOM      1  C   UNL d   1       1.457   0.096   1.836  0.00  0.00     0.077 C 
ATOM      2  C1  UNL d   1       0.716   0.224   0.538  0.00  0.00    -0.074 A 
ATOM      3  C2  UNL d   1      -0.504   0.905   0.471  0.00  0.00    -0.005 A 
ATOM      4  C3  UNL d   1      -1.177   1.024  -0.744  0.00  0.00     0.006 A 
ATOM      5  C4  UNL d   1      -0.639   0.464  -1.904  0.00  0.00    -0.005 A 
ATOM      6  C5  UNL d   1       0.580  -0.220  -1.856  0.00  0.00    -0.074 A 
ATOM      7  C6  UNL d   1       1.178  -0.819  -3.095  0.00  0.00     0.077 C 
ATOM      8  C7  UNL d   1       1.254  -0.329  -0.632  0.00  0.00    -0.001 A 
ENDROOT
TORSDOF 0
ENDMDL
