MODEL 1
REMARK minimizedAffinity 6.08824778
REMARK minimizedRMSD -1
REMARK  0 active torsions:
REMARK  status: ('A' for Active; 'I' for Inactive)
ROOT
ATOM      1  C   UNL d   1       0.624   2.282   3.536  0.00  0.00     0.077 C 
ATOM      2  C1  UNL d   1       0.901   1.333   2.408  0.00  0.00    -0.074 A 
ATOM      3  C2  UNL d   1       1.416   1.793   1.192  0.00  0.00    -0.005 A 
ATOM      4  C3  UNL d   1       1.678   0.898   0.155  0.00  0.00     0.006 A 
ATOM      5  C4  UNL d   1       1.428  -0.465   0.324  0.00  0.00    -0.005 A 
ATOM      6  C5  UNL d   1       0.914  -0.943   1.533  0.00  0.00    -0.074 A 
ATOM      7  C6  UNL d   1       0.649  -2.406   1.735  0.00  0.00     0.077 C 
ATOM      8  C7  UNL d   1       0.660  -0.038   2.573  0.00  0.00    -0.001 A 
ENDROOT
TORSDOF 0
ENDMDL
