MODEL 1
REMARK minimizedAffinity -2.61867785
REMARK minimizedRMSD -1
REMARK  0 active torsions:
REMARK  status: ('A' for Active; 'I' for Inactive)
ROOT
ATOM      1  C   UNL d   1      -3.395   0.425  -0.768  0.00  0.00     0.077 C 
ATOM      2  C1  UNL d   1      -1.944   0.092  -0.949  0.00  0.00    -0.074 A 
ATOM      3  C2  UNL d   1      -0.953   0.792  -0.252  0.00  0.00    -0.005 A 
ATOM      4  C3  UNL d   1       0.392   0.464  -0.423  0.00  0.00     0.006 A 
ATOM      5  C4  UNL d   1       0.760  -0.564  -1.291  0.00  0.00    -0.005 A 
ATOM      6  C5  UNL d   1      -0.217  -1.276  -1.996  0.00  0.00    -0.074 A 
ATOM      7  C6  UNL d   1       0.161  -2.391  -2.925  0.00  0.00     0.077 C 
ATOM      8  C7  UNL d   1      -1.567  -0.945  -1.813  0.00  0.00    -0.001 A 
ENDROOT
TORSDOF 0
ENDMDL
