MODEL 1
REMARK minimizedAffinity 0.723609567
REMARK minimizedRMSD -1
REMARK  0 active torsions:
REMARK  status: ('A' for Active; 'I' for Inactive)
ROOT
ATOM      1  C   UNL d   1       1.655   0.040   1.921  0.00  0.00     0.077 C 
ATOM      2  C1  UNL d   1       0.753   0.097   0.724  0.00  0.00    -0.074 A 
ATOM      3  C2  UNL d   1      -0.377   0.921   0.715  0.00  0.00    -0.005 A 
ATOM      4  C3  UNL d   1      -1.202   0.971  -0.409  0.00  0.00     0.006 A 
ATOM      5  C4  UNL d   1      -0.907   0.198  -1.532  0.00  0.00    -0.005 A 
ATOM      6  C5  UNL d   1       0.219  -0.631  -1.541  0.00  0.00    -0.074 A 
ATOM      7  C6  UNL d   1       0.557  -1.461  -2.744  0.00  0.00     0.077 C 
ATOM      8  C7  UNL d   1       1.047  -0.670  -0.411  0.00  0.00    -0.001 A 
ENDROOT
TORSDOF 0
ENDMDL
