MODEL 1
REMARK minimizedAffinity -0.779766202
REMARK minimizedRMSD -1
REMARK  0 active torsions:
REMARK  status: ('A' for Active; 'I' for Inactive)
ROOT
ATOM      1  C   UNL d   1       3.479  -0.677  -3.722  0.00  0.00     0.077 C 
ATOM      2  C1  UNL d   1       2.123  -0.868  -3.111  0.00  0.00    -0.074 A 
ATOM      3  C2  UNL d   1       1.236  -1.825  -3.615  0.00  0.00    -0.005 A 
ATOM      4  C3  UNL d   1      -0.019  -1.997  -3.030  0.00  0.00     0.006 A 
ATOM      5  C4  UNL d   1      -0.398  -1.216  -1.938  0.00  0.00    -0.005 A 
ATOM      6  C5  UNL d   1       0.476  -0.255  -1.420  0.00  0.00    -0.074 A 
ATOM      7  C6  UNL d   1       0.088   0.586  -0.241  0.00  0.00     0.077 C 
ATOM      8  C7  UNL d   1       1.738  -0.093  -2.009  0.00  0.00    -0.001 A 
ENDROOT
TORSDOF 0
ENDMDL
