MODEL 1
REMARK minimizedAffinity -2.07282734
REMARK minimizedRMSD -1
REMARK  0 active torsions:
REMARK  status: ('A' for Active; 'I' for Inactive)
ROOT
ATOM      1  C   UNL d   1       0.860   0.917  -1.321  0.00  0.00     0.077 C 
ATOM      2  C1  UNL d   1       0.388   0.619   0.072  0.00  0.00    -0.074 A 
ATOM      3  C2  UNL d   1       1.237   0.013   1.004  0.00  0.00    -0.005 A 
ATOM      4  C3  UNL d   1       0.787  -0.249   2.298  0.00  0.00     0.006 A 
ATOM      5  C4  UNL d   1      -0.513   0.092   2.673  0.00  0.00    -0.005 A 
ATOM      6  C5  UNL d   1      -1.375   0.700   1.755  0.00  0.00    -0.074 A 
ATOM      7  C6  UNL d   1      -2.772   1.082   2.144  0.00  0.00     0.077 C 
ATOM      8  C7  UNL d   1      -0.914   0.966   0.458  0.00  0.00    -0.001 A 
ENDROOT
TORSDOF 0
ENDMDL
