MODEL 1
REMARK minimizedAffinity -1.97147989
REMARK minimizedRMSD -1
REMARK  0 active torsions:
REMARK  status: ('A' for Active; 'I' for Inactive)
ROOT
ATOM      1  C   UNL d   1       1.634  -1.470  -2.361  0.00  0.00     0.077 C 
ATOM      2  C1  UNL d   1       1.053  -0.780  -1.163  0.00  0.00    -0.074 A 
ATOM      3  C2  UNL d   1       1.820  -0.569  -0.012  0.00  0.00    -0.005 A 
ATOM      4  C3  UNL d   1       1.269   0.083   1.091  0.00  0.00     0.006 A 
ATOM      5  C4  UNL d   1      -0.052   0.530   1.055  0.00  0.00    -0.005 A 
ATOM      6  C5  UNL d   1      -0.835   0.328  -0.087  0.00  0.00    -0.074 A 
ATOM      7  C6  UNL d   1      -2.254   0.810  -0.145  0.00  0.00     0.077 C 
ATOM      8  C7  UNL d   1      -0.271  -0.321  -1.194  0.00  0.00    -0.001 A 
ENDROOT
TORSDOF 0
ENDMDL
