MODEL 1
REMARK minimizedAffinity -3.27613735
REMARK minimizedRMSD -1
REMARK  0 active torsions:
REMARK  status: ('A' for Active; 'I' for Inactive)
ROOT
ATOM      1  C   UNL d   1       2.937   0.655  -3.783  0.00  0.00     0.077 C 
ATOM      2  C1  UNL d   1       1.882  -0.203  -3.151  0.00  0.00    -0.074 A 
ATOM      3  C2  UNL d   1       1.590  -1.474  -3.657  0.00  0.00    -0.005 A 
ATOM      4  C3  UNL d   1       0.613  -2.264  -3.052  0.00  0.00     0.006 A 
ATOM      5  C4  UNL d   1      -0.082  -1.792  -1.938  0.00  0.00    -0.005 A 
ATOM      6  C5  UNL d   1       0.196  -0.525  -1.417  0.00  0.00    -0.074 A 
ATOM      7  C6  UNL d   1      -0.534  -0.007  -0.214  0.00  0.00     0.077 C 
ATOM      8  C7  UNL d   1       1.185   0.261  -2.026  0.00  0.00    -0.001 A 
ENDROOT
TORSDOF 0
ENDMDL
