MODEL 1
REMARK minimizedAffinity -5.40431166
REMARK minimizedRMSD -1
REMARK  0 active torsions:
REMARK  status: ('A' for Active; 'I' for Inactive)
ROOT
ATOM      1  C   UNL d   1       1.446  -2.971  -2.610  0.00  0.00     0.077 C 
ATOM      2  C1  UNL d   1       0.824  -1.615  -2.451  0.00  0.00    -0.074 A 
ATOM      3  C2  UNL d   1       1.012  -0.620  -3.416  0.00  0.00    -0.005 A 
ATOM      4  C3  UNL d   1       0.419   0.632  -3.259  0.00  0.00     0.006 A 
ATOM      5  C4  UNL d   1      -0.367   0.902  -2.137  0.00  0.00    -0.005 A 
ATOM      6  C5  UNL d   1      -0.567  -0.081  -1.163  0.00  0.00    -0.074 A 
ATOM      7  C6  UNL d   1      -1.416   0.189   0.043  0.00  0.00     0.077 C 
ATOM      8  C7  UNL d   1       0.027  -1.339  -1.331  0.00  0.00    -0.001 A 
ENDROOT
TORSDOF 0
ENDMDL
