MODEL 1
REMARK minimizedAffinity 2.54071593
REMARK minimizedRMSD -1
REMARK  0 active torsions:
REMARK  status: ('A' for Active; 'I' for Inactive)
ROOT
ATOM      1  C   UNL d   1       0.816   0.388   3.170  0.00  0.00     0.077 C 
ATOM      2  C1  UNL d   1       0.546   0.308   1.697  0.00  0.00    -0.074 A 
ATOM      3  C2  UNL d   1       1.574   0.024   0.792  0.00  0.00    -0.005 A 
ATOM      4  C3  UNL d   1       1.306  -0.056  -0.574  0.00  0.00     0.006 A 
ATOM      5  C4  UNL d   1       0.009   0.147  -1.049  0.00  0.00    -0.005 A 
ATOM      6  C5  UNL d   1      -1.032   0.431  -0.159  0.00  0.00    -0.074 A 
ATOM      7  C6  UNL d   1      -2.432   0.642  -0.652  0.00  0.00     0.077 C 
ATOM      8  C7  UNL d   1      -0.756   0.503   1.213  0.00  0.00    -0.001 A 
ENDROOT
TORSDOF 0
ENDMDL
