MODEL 1
REMARK minimizedAffinity -1.65995872
REMARK minimizedRMSD -1
REMARK  0 active torsions:
REMARK  status: ('A' for Active; 'I' for Inactive)
ROOT
ATOM      1  C   UNL d   1       1.262  -1.493   0.301  0.00  0.00     0.077 C 
ATOM      2  C1  UNL d   1       0.275  -0.760   1.160  0.00  0.00    -0.074 A 
ATOM      3  C2  UNL d   1       0.706   0.117   2.161  0.00  0.00    -0.005 A 
ATOM      4  C3  UNL d   1      -0.224   0.799   2.946  0.00  0.00     0.006 A 
ATOM      5  C4  UNL d   1      -1.591   0.611   2.739  0.00  0.00    -0.005 A 
ATOM      6  C5  UNL d   1      -2.040  -0.261   1.742  0.00  0.00    -0.074 A 
ATOM      7  C6  UNL d   1      -3.506  -0.467   1.500  0.00  0.00     0.077 C 
ATOM      8  C7  UNL d   1      -1.100  -0.937   0.953  0.00  0.00    -0.001 A 
ENDROOT
TORSDOF 0
ENDMDL
