MODEL 1
REMARK minimizedAffinity -5.39189291
REMARK minimizedRMSD -1
REMARK  0 active torsions:
REMARK  status: ('A' for Active; 'I' for Inactive)
ROOT
ATOM      1  C   UNL d   1       1.486   0.600   0.015  0.00  0.00     0.077 C 
ATOM      2  C1  UNL d   1       0.030   0.543   0.370  0.00  0.00    -0.074 A 
ATOM      3  C2  UNL d   1      -0.949   0.965  -0.536  0.00  0.00    -0.005 A 
ATOM      4  C3  UNL d   1      -2.299   0.897  -0.194  0.00  0.00     0.006 A 
ATOM      5  C4  UNL d   1      -2.685   0.407   1.054  0.00  0.00    -0.005 A 
ATOM      6  C5  UNL d   1      -1.721  -0.020   1.972  0.00  0.00    -0.074 A 
ATOM      7  C6  UNL d   1      -2.119  -0.559   3.315  0.00  0.00     0.077 C 
ATOM      8  C7  UNL d   1      -0.366   0.044   1.619  0.00  0.00    -0.001 A 
ENDROOT
TORSDOF 0
ENDMDL
