MODEL 1
REMARK minimizedAffinity -4.7254014
REMARK minimizedRMSD -1
REMARK  0 active torsions:
REMARK  status: ('A' for Active; 'I' for Inactive)
ROOT
ATOM      1  C   UNL d   1       0.816   0.278  -1.292  0.00  0.00     0.077 C 
ATOM      2  C1  UNL d   1      -0.278   0.378  -0.271  0.00  0.00    -0.074 A 
ATOM      3  C2  UNL d   1      -1.596   0.648  -0.654  0.00  0.00    -0.005 A 
ATOM      4  C3  UNL d   1      -2.605   0.729   0.305  0.00  0.00     0.006 A 
ATOM      5  C4  UNL d   1      -2.307   0.541   1.656  0.00  0.00    -0.005 A 
ATOM      6  C5  UNL d   1      -0.995   0.269   2.057  0.00  0.00    -0.074 A 
ATOM      7  C6  UNL d   1      -0.660   0.054   3.503  0.00  0.00     0.077 C 
ATOM      8  C7  UNL d   1       0.012   0.182   1.086  0.00  0.00    -0.001 A 
ENDROOT
TORSDOF 0
ENDMDL
