MODEL 1
REMARK minimizedAffinity -4.31578875
REMARK minimizedRMSD -1
REMARK  0 active torsions:
REMARK  status: ('A' for Active; 'I' for Inactive)
ROOT
ATOM      1  C   UNL d   1       1.974   0.072   2.248  0.00  0.00     0.077 C 
ATOM      2  C1  UNL d   1       0.508  -0.166   2.040  0.00  0.00    -0.074 A 
ATOM      3  C2  UNL d   1      -0.245  -0.876   2.980  0.00  0.00    -0.005 A 
ATOM      4  C3  UNL d   1      -1.610  -1.081   2.778  0.00  0.00     0.006 A 
ATOM      5  C4  UNL d   1      -2.234  -0.581   1.634  0.00  0.00    -0.005 A 
ATOM      6  C5  UNL d   1      -1.497   0.132   0.683  0.00  0.00    -0.074 A 
ATOM      7  C6  UNL d   1      -2.154   0.685  -0.546  0.00  0.00     0.077 C 
ATOM      8  C7  UNL d   1      -0.127   0.340   0.897  0.00  0.00    -0.001 A 
ENDROOT
TORSDOF 0
ENDMDL
