MODEL 1
REMARK minimizedAffinity -3.25536156
REMARK minimizedRMSD -1
REMARK  0 active torsions:
REMARK  status: ('A' for Active; 'I' for Inactive)
ROOT
ATOM      1  C   UNL d   1      -2.830   0.542   0.201  0.00  0.00     0.077 C 
ATOM      2  C1  UNL d   1      -1.505   0.305   0.862  0.00  0.00    -0.074 A 
ATOM      3  C2  UNL d   1      -1.233   0.823   2.132  0.00  0.00    -0.005 A 
ATOM      4  C3  UNL d   1       0.000   0.586   2.739  0.00  0.00     0.006 A 
ATOM      5  C4  UNL d   1       0.972  -0.171   2.083  0.00  0.00    -0.005 A 
ATOM      6  C5  UNL d   1       0.717  -0.698   0.813  0.00  0.00    -0.074 A 
ATOM      7  C6  UNL d   1       1.747  -1.522   0.098  0.00  0.00     0.077 C 
ATOM      8  C7  UNL d   1      -0.527  -0.461   0.213  0.00  0.00    -0.001 A 
ENDROOT
TORSDOF 0
ENDMDL
