MODEL 1
REMARK minimizedAffinity 8.46750259
REMARK minimizedRMSD -1
REMARK  0 active torsions:
REMARK  status: ('A' for Active; 'I' for Inactive)
ROOT
ATOM      1  C   UNL d   1       2.829  -2.984   0.178  0.00  0.00     0.023 A 
ATOM      2  C1  UNL d   1       2.419  -1.717   0.591  0.00  0.00     0.003 A 
ATOM      3  C2  UNL d   1       1.335  -1.582   1.462  0.00  0.00     0.048 A 
ATOM      4  C3  UNL d   1       0.667  -2.718   1.916  0.00  0.00     0.023 A 
ATOM      5  C4  UNL d   1       1.075  -3.989   1.506  0.00  0.00     0.048 A 
ATOM      6  C5  UNL d   1       2.158  -4.119   0.635  0.00  0.00     0.003 A 
ATOM      7  I   UNL d   1      -0.946  -2.520   3.212  0.00  0.00    -0.146 I 
ENDROOT
TORSDOF 0
ENDMDL
