MODEL 1
REMARK minimizedAffinity 15.7877645
REMARK minimizedRMSD -1
REMARK  0 active torsions:
REMARK  status: ('A' for Active; 'I' for Inactive)
ROOT
ATOM      1  C   UNL d   1       6.000   1.989  -0.779  0.00  0.00     0.023 A 
ATOM      2  C1  UNL d   1       5.930   0.857  -1.591  0.00  0.00     0.003 A 
ATOM      3  C2  UNL d   1       5.861  -0.414  -1.015  0.00  0.00     0.048 A 
ATOM      4  C3  UNL d   1       5.861  -0.545   0.373  0.00  0.00     0.023 A 
ATOM      5  C4  UNL d   1       5.930   0.586   1.189  0.00  0.00     0.048 A 
ATOM      6  C5  UNL d   1       6.000   1.854   0.609  0.00  0.00     0.003 A 
ATOM      7  I   UNL d   1       5.759  -2.434   1.232  0.00  0.00    -0.146 I 
ENDROOT
TORSDOF 0
ENDMDL
