MODEL 1
REMARK minimizedAffinity 6.41185951
REMARK minimizedRMSD -1
REMARK  0 active torsions:
REMARK  status: ('A' for Active; 'I' for Inactive)
ROOT
ATOM      1  C   UNL d   1       1.371   2.260   3.254  0.00  0.00     0.023 A 
ATOM      2  C1  UNL d   1       1.988   2.409   2.012  0.00  0.00     0.003 A 
ATOM      3  C2  UNL d   1       2.209   1.293   1.202  0.00  0.00     0.048 A 
ATOM      4  C3  UNL d   1       1.808   0.031   1.640  0.00  0.00     0.023 A 
ATOM      5  C4  UNL d   1       1.189  -0.123   2.881  0.00  0.00     0.048 A 
ATOM      6  C5  UNL d   1       0.972   0.996   3.688  0.00  0.00     0.003 A 
ATOM      7  I   UNL d   1       2.135  -1.631   0.436  0.00  0.00    -0.146 I 
ENDROOT
TORSDOF 0
ENDMDL
