MODEL 1
REMARK minimizedAffinity 5.02848911
REMARK minimizedRMSD -1
REMARK  0 active torsions:
REMARK  status: ('A' for Active; 'I' for Inactive)
ROOT
ATOM      1  C   UNL d   1       1.875   2.999  -5.246  0.00  0.00     0.023 A 
ATOM      2  C1  UNL d   1       1.585   3.724  -4.090  0.00  0.00     0.003 A 
ATOM      3  C2  UNL d   1       0.400   3.482  -3.392  0.00  0.00     0.048 A 
ATOM      4  C3  UNL d   1      -0.489   2.512  -3.854  0.00  0.00     0.023 A 
ATOM      5  C4  UNL d   1      -0.202   1.784  -5.010  0.00  0.00     0.048 A 
ATOM      6  C5  UNL d   1       0.983   2.030  -5.705  0.00  0.00     0.003 A 
ATOM      7  I   UNL d   1      -2.253   2.150  -2.816  0.00  0.00    -0.146 I 
ENDROOT
TORSDOF 0
ENDMDL
