MODEL 1
REMARK minimizedAffinity 11.3746824
REMARK minimizedRMSD -1
REMARK  0 active torsions:
REMARK  status: ('A' for Active; 'I' for Inactive)
ROOT
ATOM      1  C   UNL d   1      -1.998  -2.183   3.390  0.00  0.00     0.023 A 
ATOM      2  C1  UNL d   1      -0.825  -1.454   3.192  0.00  0.00     0.003 A 
ATOM      3  C2  UNL d   1       0.275  -2.053   2.575  0.00  0.00     0.048 A 
ATOM      4  C3  UNL d   1       0.195  -3.381   2.158  0.00  0.00     0.023 A 
ATOM      5  C4  UNL d   1      -0.976  -4.114   2.352  0.00  0.00     0.048 A 
ATOM      6  C5  UNL d   1      -2.074  -3.511   2.970  0.00  0.00     0.003 A 
ATOM      7  I   UNL d   1       1.832  -4.274   1.239  0.00  0.00    -0.146 I 
ENDROOT
TORSDOF 0
ENDMDL
