MODEL 1
REMARK minimizedAffinity 4.84294224
REMARK minimizedRMSD -1
REMARK  0 active torsions:
REMARK  status: ('A' for Active; 'I' for Inactive)
ROOT
ATOM      1  C   UNL d   1       5.807   1.489   0.368  0.00  0.00     0.023 A 
ATOM      2  C1  UNL d   1       6.000   0.179  -0.072  0.00  0.00     0.003 A 
ATOM      3  C2  UNL d   1       4.983  -0.766   0.076  0.00  0.00     0.048 A 
ATOM      4  C3  UNL d   1       3.774  -0.394   0.665  0.00  0.00     0.023 A 
ATOM      5  C4  UNL d   1       3.576   0.916   1.105  0.00  0.00     0.048 A 
ATOM      6  C5  UNL d   1       4.597   1.857   0.956  0.00  0.00     0.003 A 
ATOM      7  I   UNL d   1       2.258  -1.798   0.887  0.00  0.00    -0.146 I 
ENDROOT
TORSDOF 0
ENDMDL
