MODEL 1
REMARK minimizedAffinity -4.37381983
REMARK minimizedRMSD -1
REMARK  0 active torsions:
REMARK  status: ('A' for Active; 'I' for Inactive)
ROOT
ATOM      1  C2' OXE d   1      -3.145  -0.140   1.136  0.00  0.00     0.078 C 
ATOM      2  C1' OXE d   1      -1.792  -2.594   1.307  0.00  0.00     0.078 C 
ATOM      3  C1  OXE d   1      -0.994  -1.376   0.913  0.00  0.00    -0.078 A 
ATOM      4  C2  OXE d   1      -1.673  -0.188   0.786  0.00  0.00    -0.078 A 
ATOM      5  C3  OXE d   1      -0.975   0.976   0.479  0.00  0.00     0.003 A 
ATOM      6  C4  OXE d   1       0.384   0.921   0.147  0.00  0.00    -0.002 A 
ATOM      7  C5  OXE d   1       1.087  -0.286   0.231  0.00  0.00    -0.002 A 
ATOM      8  C6  OXE d   1       0.423  -1.433   0.653  0.00  0.00     0.003 A 
ENDROOT
TORSDOF 0
ENDMDL
