MODEL 1
REMARK minimizedAffinity -2.86538839
REMARK minimizedRMSD -1
REMARK  0 active torsions:
REMARK  status: ('A' for Active; 'I' for Inactive)
ROOT
ATOM      1  C2' OXE d   1       2.039  -1.167   0.188  0.00  0.00     0.078 C 
ATOM      2  C1' OXE d   1       0.536   1.069  -0.601  0.00  0.00     0.078 C 
ATOM      3  C1  OXE d   1      -0.200  -0.087   0.029  0.00  0.00    -0.078 A 
ATOM      4  C2  OXE d   1       0.537  -1.196   0.370  0.00  0.00    -0.078 A 
ATOM      5  C3  OXE d   1      -0.084  -2.268   1.004  0.00  0.00     0.003 A 
ATOM      6  C4  OXE d   1      -1.475  -2.291   1.159  0.00  0.00    -0.002 A 
ATOM      7  C5  OXE d   1      -2.250  -1.188   0.783  0.00  0.00    -0.002 A 
ATOM      8  C6  OXE d   1      -1.624  -0.064   0.257  0.00  0.00     0.003 A 
ENDROOT
TORSDOF 0
ENDMDL
