MODEL 1
REMARK minimizedAffinity -4.35426426
REMARK minimizedRMSD -1
REMARK  0 active torsions:
REMARK  status: ('A' for Active; 'I' for Inactive)
ROOT
ATOM      1  C2' OXE d   1       1.982  -1.256   0.729  0.00  0.00     0.078 C 
ATOM      2  C1' OXE d   1       0.170   0.554  -0.422  0.00  0.00     0.078 C 
ATOM      3  C1  OXE d   1      -0.393  -0.577   0.401  0.00  0.00    -0.078 A 
ATOM      4  C2  OXE d   1       0.498  -1.485   0.921  0.00  0.00    -0.078 A 
ATOM      5  C3  OXE d   1       0.036  -2.517   1.733  0.00  0.00     0.003 A 
ATOM      6  C4  OXE d   1      -1.339  -2.728   1.898  0.00  0.00    -0.002 A 
ATOM      7  C5  OXE d   1      -2.265  -1.838   1.343  0.00  0.00    -0.002 A 
ATOM      8  C6  OXE d   1      -1.808  -0.736   0.629  0.00  0.00     0.003 A 
ENDROOT
TORSDOF 0
ENDMDL
