MODEL 1
REMARK minimizedAffinity -5.79503489
REMARK minimizedRMSD -1
REMARK  0 active torsions:
REMARK  status: ('A' for Active; 'I' for Inactive)
ROOT
ATOM      1  C2' OXE d   1      -1.549   1.753   1.158  0.00  0.00     0.078 C 
ATOM      2  C1' OXE d   1       0.098   0.680  -0.847  0.00  0.00     0.078 C 
ATOM      3  C1  OXE d   1      -0.560  -0.281   0.112  0.00  0.00    -0.078 A 
ATOM      4  C2  OXE d   1      -1.327   0.256   1.118  0.00  0.00    -0.078 A 
ATOM      5  C3  OXE d   1      -2.000  -0.588   1.996  0.00  0.00     0.003 A 
ATOM      6  C4  OXE d   1      -1.781  -1.970   1.959  0.00  0.00    -0.002 A 
ATOM      7  C5  OXE d   1      -0.973  -2.535   0.967  0.00  0.00    -0.002 A 
ATOM      8  C6  OXE d   1      -0.390  -1.709   0.011  0.00  0.00     0.003 A 
ENDROOT
TORSDOF 0
ENDMDL
