MODEL 1
REMARK minimizedAffinity -5.30003691
REMARK minimizedRMSD -1
REMARK  0 active torsions:
REMARK  status: ('A' for Active; 'I' for Inactive)
ROOT
ATOM      1  C2' OXE d   1      -0.025   0.277  -0.507  0.00  0.00     0.078 C 
ATOM      2  C1' OXE d   1      -1.598   1.900   1.158  0.00  0.00     0.078 C 
ATOM      3  C1  OXE d   1      -1.766   0.405   1.271  0.00  0.00    -0.078 A 
ATOM      4  C2  OXE d   1      -1.026  -0.380   0.419  0.00  0.00    -0.078 A 
ATOM      5  C3  OXE d   1      -1.102  -1.766   0.519  0.00  0.00     0.003 A 
ATOM      6  C4  OXE d   1      -2.038  -2.365   1.371  0.00  0.00    -0.002 A 
ATOM      7  C5  OXE d   1      -2.830  -1.583   2.218  0.00  0.00    -0.002 A 
ATOM      8  C6  OXE d   1      -2.676  -0.201   2.211  0.00  0.00     0.003 A 
ENDROOT
TORSDOF 0
ENDMDL
