MODEL 1
REMARK minimizedAffinity -2.37660003
REMARK minimizedRMSD -1
REMARK  0 active torsions:
REMARK  status: ('A' for Active; 'I' for Inactive)
ROOT
ATOM      1  C2' OXE d   1       0.112   0.999  -0.711  0.00  0.00     0.078 C 
ATOM      2  C1' OXE d   1       1.862  -0.529   0.865  0.00  0.00     0.078 C 
ATOM      3  C1  OXE d   1       0.449  -1.029   0.696  0.00  0.00    -0.078 A 
ATOM      4  C2  OXE d   1      -0.413  -0.250  -0.038  0.00  0.00    -0.078 A 
ATOM      5  C3  OXE d   1      -1.713  -0.692  -0.270  0.00  0.00     0.003 A 
ATOM      6  C4  OXE d   1      -2.194  -1.844   0.364  0.00  0.00    -0.002 A 
ATOM      7  C5  OXE d   1      -1.343  -2.630   1.149  0.00  0.00    -0.002 A 
ATOM      8  C6  OXE d   1      -0.010  -2.260   1.290  0.00  0.00     0.003 A 
ENDROOT
TORSDOF 0
ENDMDL
