MODEL 1
REMARK minimizedAffinity -4.74871874
REMARK minimizedRMSD -1
REMARK  0 active torsions:
REMARK  status: ('A' for Active; 'I' for Inactive)
ROOT
ATOM      1  C2' OXE d   1       1.348  -2.153  -0.058  0.00  0.00     0.078 C 
ATOM      2  C1' OXE d   1      -1.315  -2.715   0.630  0.00  0.00     0.078 C 
ATOM      3  C1  OXE d   1      -0.943  -1.276   0.375  0.00  0.00    -0.078 A 
ATOM      4  C2  OXE d   1       0.372  -1.004   0.085  0.00  0.00    -0.078 A 
ATOM      5  C3  OXE d   1       0.757   0.300  -0.212  0.00  0.00     0.003 A 
ATOM      6  C4  OXE d   1      -0.149   1.357  -0.068  0.00  0.00    -0.002 A 
ATOM      7  C5  OXE d   1      -1.485   1.107   0.265  0.00  0.00    -0.002 A 
ATOM      8  C6  OXE d   1      -1.907  -0.205   0.448  0.00  0.00     0.003 A 
ENDROOT
TORSDOF 0
ENDMDL
