MODEL 1
REMARK minimizedAffinity -1.22799528
REMARK minimizedRMSD -1
REMARK  0 active torsions:
REMARK  status: ('A' for Active; 'I' for Inactive)
ROOT
ATOM      1  C2' OXE d   1      -2.211  -1.598   0.126  0.00  0.00     0.078 C 
ATOM      2  C1' OXE d   1      -3.257   0.841   1.042  0.00  0.00     0.078 C 
ATOM      3  C1  OXE d   1      -1.849   0.838   0.500  0.00  0.00    -0.078 A 
ATOM      4  C2  OXE d   1      -1.329  -0.368   0.097  0.00  0.00    -0.078 A 
ATOM      5  C3  OXE d   1      -0.055  -0.418  -0.461  0.00  0.00     0.003 A 
ATOM      6  C4  OXE d   1       0.758   0.722  -0.474  0.00  0.00    -0.002 A 
ATOM      7  C5  OXE d   1       0.262   1.953  -0.032  0.00  0.00    -0.002 A 
ATOM      8  C6  OXE d   1      -1.051   2.037   0.417  0.00  0.00     0.003 A 
ENDROOT
TORSDOF 0
ENDMDL
