MODEL 1
REMARK minimizedAffinity -3.99626088
REMARK minimizedRMSD -1
REMARK  0 active torsions:
REMARK  status: ('A' for Active; 'I' for Inactive)
ROOT
ATOM      1  C2' OXE d   1       1.971  -1.519   0.367  0.00  0.00     0.078 C 
ATOM      2  C1' OXE d   1       0.411   0.367  -1.009  0.00  0.00     0.078 C 
ATOM      3  C1  OXE d   1      -0.299  -0.604  -0.099  0.00  0.00    -0.078 A 
ATOM      4  C2  OXE d   1       0.467  -1.553   0.534  0.00  0.00    -0.078 A 
ATOM      5  C3  OXE d   1      -0.131  -2.438   1.427  0.00  0.00     0.003 A 
ATOM      6  C4  OXE d   1      -1.524  -2.469   1.569  0.00  0.00    -0.002 A 
ATOM      7  C5  OXE d   1      -2.326  -1.537   0.902  0.00  0.00    -0.002 A 
ATOM      8  C6  OXE d   1      -1.727  -0.572   0.100  0.00  0.00     0.003 A 
ENDROOT
TORSDOF 0
ENDMDL
