MODEL 1
REMARK minimizedAffinity -3.79515743
REMARK minimizedRMSD -1
REMARK  0 active torsions:
REMARK  status: ('A' for Active; 'I' for Inactive)
ROOT
ATOM      1  C2' OXE d   1       2.413  -0.925   0.332  0.00  0.00     0.078 C 
ATOM      2  C1' OXE d   1       0.987   1.350  -0.485  0.00  0.00     0.078 C 
ATOM      3  C1  OXE d   1       0.200   0.182   0.054  0.00  0.00    -0.078 A 
ATOM      4  C2  OXE d   1       0.902  -0.945   0.407  0.00  0.00    -0.078 A 
ATOM      5  C3  OXE d   1       0.230  -2.030   0.961  0.00  0.00     0.003 A 
ATOM      6  C4  OXE d   1      -1.169  -2.044   1.017  0.00  0.00    -0.002 A 
ATOM      7  C5  OXE d   1      -1.907  -0.922   0.625  0.00  0.00    -0.002 A 
ATOM      8  C6  OXE d   1      -1.237   0.213   0.182  0.00  0.00     0.003 A 
ENDROOT
TORSDOF 0
ENDMDL
