MODEL 1
REMARK minimizedAffinity -3.3033309
REMARK minimizedRMSD -1
REMARK  0 active torsions:
REMARK  status: ('A' for Active; 'I' for Inactive)
ROOT
ATOM      1  C2' OXE d   1       1.238  -1.662   0.040  0.00  0.00     0.078 C 
ATOM      2  C1' OXE d   1      -1.459  -2.284   0.506  0.00  0.00     0.078 C 
ATOM      3  C1  OXE d   1      -1.070  -0.827   0.465  0.00  0.00    -0.078 A 
ATOM      4  C2  OXE d   1       0.260  -0.533   0.283  0.00  0.00    -0.078 A 
ATOM      5  C3  OXE d   1       0.665   0.795   0.182  0.00  0.00     0.003 A 
ATOM      6  C4  OXE d   1      -0.245   1.833   0.418  0.00  0.00    -0.002 A 
ATOM      7  C5  OXE d   1      -1.597   1.554   0.645  0.00  0.00    -0.002 A 
ATOM      8  C6  OXE d   1      -2.032   0.234   0.629  0.00  0.00     0.003 A 
ENDROOT
TORSDOF 0
ENDMDL
