MODEL 1
REMARK minimizedAffinity -2.67913914
REMARK minimizedRMSD -1
REMARK  0 active torsions:
REMARK  status: ('A' for Active; 'I' for Inactive)
ROOT
ATOM      1  C2' OXE d   1      -0.023   0.436  -1.126  0.00  0.00     0.078 C 
ATOM      2  C1' OXE d   1       1.931  -0.182   0.792  0.00  0.00     0.078 C 
ATOM      3  C1  OXE d   1       0.613  -0.912   0.870  0.00  0.00    -0.078 A 
ATOM      4  C2  OXE d   1      -0.354  -0.569  -0.044  0.00  0.00    -0.078 A 
ATOM      5  C3  OXE d   1      -1.568  -1.250  -0.051  0.00  0.00     0.003 A 
ATOM      6  C4  OXE d   1      -1.870  -2.171   0.959  0.00  0.00    -0.002 A 
ATOM      7  C5  OXE d   1      -0.914  -2.505   1.924  0.00  0.00    -0.002 A 
ATOM      8  C6  OXE d   1       0.345  -1.918   1.868  0.00  0.00     0.003 A 
ENDROOT
TORSDOF 0
ENDMDL
