MODEL 1
REMARK minimizedAffinity -5.19617033
REMARK minimizedRMSD -1
REMARK  0 active torsions:
REMARK  status: ('A' for Active; 'I' for Inactive)
ROOT
ATOM      1  C2' OXE d   1       1.813  -1.774   0.260  0.00  0.00     0.078 C 
ATOM      2  C1' OXE d   1      -0.651  -2.581   1.336  0.00  0.00     0.078 C 
ATOM      3  C1  OXE d   1      -0.452  -1.112   1.059  0.00  0.00    -0.078 A 
ATOM      4  C2  OXE d   1       0.774  -0.720   0.576  0.00  0.00    -0.078 A 
ATOM      5  C3  OXE d   1       0.992   0.616   0.251  0.00  0.00     0.003 A 
ATOM      6  C4  OXE d   1       0.029   1.585   0.556  0.00  0.00    -0.002 A 
ATOM      7  C5  OXE d   1      -1.212   1.213   1.085  0.00  0.00    -0.002 A 
ATOM      8  C6  OXE d   1      -1.483  -0.134   1.302  0.00  0.00     0.003 A 
ENDROOT
TORSDOF 0
ENDMDL
