MODEL 1
REMARK minimizedAffinity -4.38339424
REMARK minimizedRMSD -1
REMARK  0 active torsions:
REMARK  status: ('A' for Active; 'I' for Inactive)
ROOT
ATOM      1  C2' OXE d   1       0.336   1.046  -0.736  0.00  0.00     0.078 C 
ATOM      2  C1' OXE d   1       2.161  -0.506   0.728  0.00  0.00     0.078 C 
ATOM      3  C1  OXE d   1       0.719  -0.950   0.704  0.00  0.00    -0.078 A 
ATOM      4  C2  OXE d   1      -0.175  -0.159   0.024  0.00  0.00    -0.078 A 
ATOM      5  C3  OXE d   1      -1.506  -0.552  -0.075  0.00  0.00     0.003 A 
ATOM      6  C4  OXE d   1      -1.973  -1.662   0.639  0.00  0.00    -0.002 A 
ATOM      7  C5  OXE d   1      -1.086  -2.459   1.371  0.00  0.00    -0.002 A 
ATOM      8  C6  OXE d   1       0.268  -2.142   1.379  0.00  0.00     0.003 A 
ENDROOT
TORSDOF 0
ENDMDL
