MODEL 1
REMARK minimizedAffinity -3.57937765
REMARK minimizedRMSD -1
REMARK  0 active torsions:
REMARK  status: ('A' for Active; 'I' for Inactive)
ROOT
ATOM      1  C2' OXE d   1       0.399   1.453  -0.626  0.00  0.00     0.078 C 
ATOM      2  C1' OXE d   1      -1.743   1.283   1.181  0.00  0.00     0.078 C 
ATOM      3  C1  OXE d   1      -0.982   0.018   0.871  0.00  0.00    -0.078 A 
ATOM      4  C2  OXE d   1       0.034   0.102  -0.050  0.00  0.00    -0.078 A 
ATOM      5  C3  OXE d   1       0.803  -1.024  -0.332  0.00  0.00     0.003 A 
ATOM      6  C4  OXE d   1       0.454  -2.272   0.198  0.00  0.00    -0.002 A 
ATOM      7  C5  OXE d   1      -0.603  -2.386   1.107  0.00  0.00    -0.002 A 
ATOM      8  C6  OXE d   1      -1.303  -1.246   1.486  0.00  0.00     0.003 A 
ENDROOT
TORSDOF 0
ENDMDL
