MODEL 1
REMARK minimizedAffinity -3.08310485
REMARK minimizedRMSD -1
REMARK  0 active torsions:
REMARK  status: ('A' for Active; 'I' for Inactive)
ROOT
ATOM      1  C2' OXE d   1      -1.138  -2.738   0.871  0.00  0.00     0.078 C 
ATOM      2  C1' OXE d   1       1.609  -2.578   0.314  0.00  0.00     0.078 C 
ATOM      3  C1  OXE d   1       0.825  -1.290   0.363  0.00  0.00    -0.078 A 
ATOM      4  C2  OXE d   1      -0.527  -1.382   0.590  0.00  0.00    -0.078 A 
ATOM      5  C3  OXE d   1      -1.288  -0.221   0.700  0.00  0.00     0.003 A 
ATOM      6  C4  OXE d   1      -0.717   1.029   0.429  0.00  0.00    -0.002 A 
ATOM      7  C5  OXE d   1       0.651   1.140   0.156  0.00  0.00    -0.002 A 
ATOM      8  C6  OXE d   1       1.442  -0.003   0.162  0.00  0.00     0.003 A 
ENDROOT
TORSDOF 0
ENDMDL
