MODEL 1
REMARK minimizedAffinity 18.1870651
REMARK minimizedRMSD -1
REMARK  0 active torsions:
REMARK  status: ('A' for Active; 'I' for Inactive)
ROOT
ATOM      1  C   UNL d   1       0.056   0.646   1.428  0.00  0.00    -0.002 A 
ATOM      2  C1  UNL d   1       0.690  -0.232   0.560  0.00  0.00     0.010 A 
ATOM      3  C2  UNL d   1       0.105  -0.570  -0.662  0.00  0.00     0.041 A 
ATOM      4  C3  UNL d   1      -1.140  -0.005  -1.000  0.00  0.00    -0.075 A 
ATOM      5  S   UNL d   1      -2.046  -0.274  -2.443  0.00  0.00     0.015 SA
ATOM      6  C4  UNL d   1      -3.296   0.771  -1.941  0.00  0.00     0.022 A 
ATOM      7  C5  UNL d   1      -3.045   1.319  -0.706  0.00  0.00     0.026 A 
ATOM      8  C6  UNL d   1      -1.798   0.882  -0.143  0.00  0.00    -0.082 A 
ATOM      9  C7  UNL d   1      -1.179   1.204   1.088  0.00  0.00     0.045 A 
ENDROOT
TORSDOF 0
ENDMDL
