MODEL 1
REMARK minimizedAffinity -5.49414968
REMARK minimizedRMSD -1
REMARK  0 active torsions:
REMARK  status: ('A' for Active; 'I' for Inactive)
ROOT
ATOM      1  C   UNL d   1      -1.321  -0.763  -1.015  0.00  0.00    -0.002 A 
ATOM      2  C1  UNL d   1      -0.668  -0.213  -2.109  0.00  0.00     0.010 A 
ATOM      3  C2  UNL d   1      -0.457   1.165  -2.191  0.00  0.00     0.041 A 
ATOM      4  C3  UNL d   1      -0.915   1.988  -1.144  0.00  0.00    -0.075 A 
ATOM      5  S   UNL d   1      -0.767   3.702  -1.029  0.00  0.00     0.015 SA
ATOM      6  C4  UNL d   1      -1.566   3.745   0.476  0.00  0.00     0.022 A 
ATOM      7  C5  UNL d   1      -1.943   2.491   0.895  0.00  0.00     0.026 A 
ATOM      8  C6  UNL d   1      -1.574   1.458  -0.031  0.00  0.00    -0.082 A 
ATOM      9  C7  UNL d   1      -1.774   0.057   0.022  0.00  0.00     0.045 A 
ENDROOT
TORSDOF 0
ENDMDL
