MODEL 1
REMARK minimizedAffinity -1.85877979
REMARK minimizedRMSD -1
REMARK  0 active torsions:
REMARK  status: ('A' for Active; 'I' for Inactive)
ROOT
ATOM      1  C   UNL d   1      -1.652   3.377   0.707  0.00  0.00    -0.002 A 
ATOM      2  C1  UNL d   1      -1.314   2.131   0.197  0.00  0.00     0.010 A 
ATOM      3  C2  UNL d   1      -0.147   1.487   0.613  0.00  0.00     0.041 A 
ATOM      4  C3  UNL d   1       0.682   2.121   1.559  0.00  0.00    -0.075 A 
ATOM      5  S   UNL d   1       2.159   1.521   2.215  0.00  0.00     0.015 SA
ATOM      6  C4  UNL d   1       2.376   2.903   3.188  0.00  0.00     0.022 A 
ATOM      7  C5  UNL d   1       1.355   3.811   3.029  0.00  0.00     0.026 A 
ATOM      8  C6  UNL d   1       0.362   3.375   2.088  0.00  0.00    -0.082 A 
ATOM      9  C7  UNL d   1      -0.828   4.002   1.646  0.00  0.00     0.045 A 
ENDROOT
TORSDOF 0
ENDMDL
