MODEL 1
REMARK minimizedAffinity 6.85089064
REMARK minimizedRMSD -1
REMARK  0 active torsions:
REMARK  status: ('A' for Active; 'I' for Inactive)
ROOT
ATOM      1  C   UNL d   1       1.918  -0.539  -1.098  0.00  0.00    -0.002 A 
ATOM      2  C1  UNL d   1       1.758  -0.877   0.238  0.00  0.00     0.010 A 
ATOM      3  C2  UNL d   1       0.540  -0.656   0.885  0.00  0.00     0.041 A 
ATOM      4  C3  UNL d   1      -0.524  -0.087   0.158  0.00  0.00    -0.075 A 
ATOM      5  S   UNL d   1      -2.106   0.274   0.742  0.00  0.00     0.015 SA
ATOM      6  C4  UNL d   1      -2.606   0.884  -0.768  0.00  0.00     0.022 A 
ATOM      7  C5  UNL d   1      -1.603   0.822  -1.707  0.00  0.00     0.026 A 
ATOM      8  C6  UNL d   1      -0.387   0.261  -1.188  0.00  0.00    -0.082 A 
ATOM      9  C7  UNL d   1       0.860   0.026  -1.816  0.00  0.00     0.045 A 
ENDROOT
TORSDOF 0
ENDMDL
