MODEL 1
REMARK minimizedAffinity 2.2748282
REMARK minimizedRMSD -1
REMARK  0 active torsions:
REMARK  status: ('A' for Active; 'I' for Inactive)
ROOT
ATOM      1  C   UNL d   1       0.505   4.240   0.063  0.00  0.00    -0.002 A 
ATOM      2  C1  UNL d   1       0.858   4.137   1.401  0.00  0.00     0.010 A 
ATOM      3  C2  UNL d   1       1.070   2.887   1.985  0.00  0.00     0.041 A 
ATOM      4  C3  UNL d   1       0.923   1.731   1.193  0.00  0.00    -0.075 A 
ATOM      5  S   UNL d   1       1.134   0.094   1.693  0.00  0.00     0.015 SA
ATOM      6  C4  UNL d   1       0.761  -0.506   0.142  0.00  0.00     0.022 A 
ATOM      7  C5  UNL d   1       0.480   0.503  -0.748  0.00  0.00     0.026 A 
ATOM      8  C6  UNL d   1       0.569   1.809  -0.157  0.00  0.00    -0.082 A 
ATOM      9  C7  UNL d   1       0.359   3.091  -0.719  0.00  0.00     0.045 A 
ENDROOT
TORSDOF 0
ENDMDL
