MODEL 1
REMARK minimizedAffinity 2.06539655
REMARK minimizedRMSD -1
REMARK  0 active torsions:
REMARK  status: ('A' for Active; 'I' for Inactive)
ROOT
ATOM      1  C   UNL d   1       2.241   5.999  -0.371  0.00  0.00    -0.002 A 
ATOM      2  C1  UNL d   1       1.109   5.351  -0.843  0.00  0.00     0.010 A 
ATOM      3  C2  UNL d   1       0.579   4.257  -0.157  0.00  0.00     0.041 A 
ATOM      4  C3  UNL d   1       1.211   3.822   1.025  0.00  0.00    -0.075 A 
ATOM      5  S   UNL d   1       0.739   2.505   2.032  0.00  0.00     0.015 SA
ATOM      6  C4  UNL d   1       2.029   2.773   3.114  0.00  0.00     0.022 A 
ATOM      7  C5  UNL d   1       2.811   3.837   2.730  0.00  0.00     0.026 A 
ATOM      8  C6  UNL d   1       2.352   4.460   1.521  0.00  0.00    -0.082 A 
ATOM      9  C7  UNL d   1       2.866   5.565   0.801  0.00  0.00     0.045 A 
ENDROOT
TORSDOF 0
ENDMDL
