MODEL 1
REMARK minimizedAffinity 0.446251899
REMARK minimizedRMSD -1
REMARK  0 active torsions:
REMARK  status: ('A' for Active; 'I' for Inactive)
ROOT
ATOM      1  C   UNL d   1       1.342  -1.139   2.723  0.00  0.00    -0.002 A 
ATOM      2  C1  UNL d   1       1.407   0.011   3.497  0.00  0.00     0.010 A 
ATOM      3  C2  UNL d   1       1.042   1.248   2.963  0.00  0.00     0.041 A 
ATOM      4  C3  UNL d   1       0.604   1.311   1.626  0.00  0.00    -0.075 A 
ATOM      5  S   UNL d   1       0.105   2.716   0.760  0.00  0.00     0.015 SA
ATOM      6  C4  UNL d   1      -0.208   1.822  -0.658  0.00  0.00     0.022 A 
ATOM      7  C5  UNL d   1       0.057   0.483  -0.492  0.00  0.00     0.026 A 
ATOM      8  C6  UNL d   1       0.529   0.166   0.827  0.00  0.00    -0.082 A 
ATOM      9  C7  UNL d   1       0.907  -1.073   1.397  0.00  0.00     0.045 A 
ENDROOT
TORSDOF 0
ENDMDL
