MODEL 1
REMARK minimizedAffinity 9.60731411
REMARK minimizedRMSD -1
REMARK  0 active torsions:
REMARK  status: ('A' for Active; 'I' for Inactive)
ROOT
ATOM      1  C   UNL d   1      -0.238   0.062   2.356  0.00  0.00    -0.002 A 
ATOM      2  C1  UNL d   1      -0.786   1.106   3.088  0.00  0.00     0.010 A 
ATOM      3  C2  UNL d   1      -1.908   1.791   2.619  0.00  0.00     0.041 A 
ATOM      4  C3  UNL d   1      -2.477   1.405   1.389  0.00  0.00    -0.075 A 
ATOM      5  S   UNL d   1      -3.854   2.099   0.618  0.00  0.00     0.015 SA
ATOM      6  C4  UNL d   1      -3.748   1.026  -0.702  0.00  0.00     0.022 A 
ATOM      7  C5  UNL d   1      -2.694   0.152  -0.574  0.00  0.00     0.026 A 
ATOM      8  C6  UNL d   1      -1.945   0.356   0.634  0.00  0.00    -0.082 A 
ATOM      9  C7  UNL d   1      -0.806  -0.319   1.137  0.00  0.00     0.045 A 
ENDROOT
TORSDOF 0
ENDMDL
