MODEL 1
REMARK minimizedAffinity 8.44147301
REMARK minimizedRMSD -1
REMARK  0 active torsions:
REMARK  status: ('A' for Active; 'I' for Inactive)
ROOT
ATOM      1  C   UNL d   1      -2.825  -0.564   2.650  0.00  0.00    -0.002 A 
ATOM      2  C1  UNL d   1      -1.675   0.211   2.612  0.00  0.00     0.010 A 
ATOM      3  C2  UNL d   1      -0.739   0.043   1.589  0.00  0.00     0.041 A 
ATOM      4  C3  UNL d   1      -0.982  -0.925   0.595  0.00  0.00    -0.075 A 
ATOM      5  S   UNL d   1       0.023  -1.304  -0.754  0.00  0.00     0.015 SA
ATOM      6  C4  UNL d   1      -1.052  -2.504  -1.312  0.00  0.00     0.022 A 
ATOM      7  C5  UNL d   1      -2.155  -2.625  -0.500  0.00  0.00     0.026 A 
ATOM      8  C6  UNL d   1      -2.134  -1.717   0.611  0.00  0.00    -0.082 A 
ATOM      9  C7  UNL d   1      -3.063  -1.523   1.662  0.00  0.00     0.045 A 
ENDROOT
TORSDOF 0
ENDMDL
