MODEL 1
REMARK minimizedAffinity 7.00686693
REMARK minimizedRMSD -1
REMARK  0 active torsions:
REMARK  status: ('A' for Active; 'I' for Inactive)
ROOT
ATOM      1  C   UNL d   1      -1.822   0.251   3.057  0.00  0.00    -0.002 A 
ATOM      2  C1  UNL d   1      -2.035   0.211   1.686  0.00  0.00     0.010 A 
ATOM      3  C2  UNL d   1      -0.968   0.010   0.808  0.00  0.00     0.041 A 
ATOM      4  C3  UNL d   1       0.327  -0.156   1.336  0.00  0.00    -0.075 A 
ATOM      5  S   UNL d   1       1.784  -0.416   0.451  0.00  0.00     0.015 SA
ATOM      6  C4  UNL d   1       2.723  -0.483   1.872  0.00  0.00     0.022 A 
ATOM      7  C5  UNL d   1       1.960  -0.312   3.003  0.00  0.00     0.026 A 
ATOM      8  C6  UNL d   1       0.566  -0.121   2.712  0.00  0.00    -0.082 A 
ATOM      9  C7  UNL d   1      -0.535   0.087   3.577  0.00  0.00     0.045 A 
ENDROOT
TORSDOF 0
ENDMDL
