MODEL 1
REMARK minimizedAffinity 16.355442
REMARK minimizedRMSD -1
REMARK  0 active torsions:
REMARK  status: ('A' for Active; 'I' for Inactive)
ROOT
ATOM      1  C   UNL d   1      -4.123   1.873  -0.031  0.00  0.00    -0.002 A 
ATOM      2  C1  UNL d   1      -4.097   0.602  -0.587  0.00  0.00     0.010 A 
ATOM      3  C2  UNL d   1      -3.234  -0.375  -0.086  0.00  0.00     0.041 A 
ATOM      4  C3  UNL d   1      -2.392  -0.050   0.995  0.00  0.00    -0.075 A 
ATOM      5  S   UNL d   1      -1.254  -1.086   1.774  0.00  0.00     0.015 SA
ATOM      6  C4  UNL d   1      -0.777   0.135   2.864  0.00  0.00     0.022 A 
ATOM      7  C5  UNL d   1      -1.458   1.310   2.653  0.00  0.00     0.026 A 
ATOM      8  C6  UNL d   1      -2.400   1.223   1.573  0.00  0.00    -0.082 A 
ATOM      9  C7  UNL d   1      -3.286   2.192   1.042  0.00  0.00     0.045 A 
ENDROOT
TORSDOF 0
ENDMDL
