MODEL 1
REMARK minimizedAffinity 8.54044342
REMARK minimizedRMSD -1
REMARK  0 active torsions:
REMARK  status: ('A' for Active; 'I' for Inactive)
ROOT
ATOM      1  C1  DEN d   1       1.423   4.110   3.352  0.00  0.00     0.130 A 
ATOM      2  C2  DEN d   1       1.693   3.238   4.492  0.00  0.00    -0.031 A 
ATOM      3  C3  DEN d   1       1.445   1.845   4.070  0.00  0.00     0.027 A 
ATOM      4  C4  DEN d   1       0.680   0.957   1.773  0.00  0.00     0.027 A 
ATOM      5  C5  DEN d   1       0.314   1.318   0.495  0.00  0.00    -0.003 A 
ATOM      6  C6  DEN d   1       0.259   2.627   0.093  0.00  0.00     0.001 A 
ATOM      7  C7  DEN d   1       0.620   3.620   0.965  0.00  0.00     0.017 A 
ATOM      8  C8  DEN d   1       0.983   3.264   2.257  0.00  0.00    -0.094 A 
ATOM      9  C9  DEN d   1       1.044   1.935   2.640  0.00  0.00    -0.072 A 
ENDROOT
TORSDOF 0
ENDMDL
