MODEL 1
REMARK minimizedAffinity 0.212405711
REMARK minimizedRMSD -1
REMARK  0 active torsions:
REMARK  status: ('A' for Active; 'I' for Inactive)
ROOT
ATOM      1  C1  DEN d   1       1.992  -0.257   1.380  0.00  0.00     0.130 A 
ATOM      2  C2  DEN d   1       0.801   0.437   0.899  0.00  0.00    -0.031 A 
ATOM      3  C3  DEN d   1      -0.307   0.142   1.829  0.00  0.00     0.027 A 
ATOM      4  C4  DEN d   1      -0.293  -1.310   3.961  0.00  0.00     0.027 A 
ATOM      5  C5  DEN d   1       0.484  -2.112   4.767  0.00  0.00    -0.003 A 
ATOM      6  C6  DEN d   1       1.798  -2.377   4.485  0.00  0.00     0.001 A 
ATOM      7  C7  DEN d   1       2.387  -1.799   3.393  0.00  0.00     0.017 A 
ATOM      8  C8  DEN d   1       1.609  -0.995   2.571  0.00  0.00    -0.094 A 
ATOM      9  C9  DEN d   1       0.286  -0.729   2.880  0.00  0.00    -0.072 A 
ENDROOT
TORSDOF 0
ENDMDL
