MODEL 1
REMARK minimizedAffinity -2.67647719
REMARK minimizedRMSD -1
REMARK  0 active torsions:
REMARK  status: ('A' for Active; 'I' for Inactive)
ROOT
ATOM      1  C1  DEN d   1      -2.468   4.938  -5.994  0.00  0.00     0.130 A 
ATOM      2  C2  DEN d   1      -1.515   5.308  -4.951  0.00  0.00    -0.031 A 
ATOM      3  C3  DEN d   1      -1.862   4.557  -3.728  0.00  0.00     0.027 A 
ATOM      4  C4  DEN d   1      -3.770   2.863  -3.350  0.00  0.00     0.027 A 
ATOM      5  C5  DEN d   1      -4.846   2.234  -3.938  0.00  0.00    -0.003 A 
ATOM      6  C6  DEN d   1      -5.222   2.486  -5.231  0.00  0.00     0.001 A 
ATOM      7  C7  DEN d   1      -4.489   3.357  -5.993  0.00  0.00     0.017 A 
ATOM      8  C8  DEN d   1      -3.408   4.000  -5.406  0.00  0.00    -0.094 A 
ATOM      9  C9  DEN d   1      -3.036   3.723  -4.101  0.00  0.00    -0.072 A 
ENDROOT
TORSDOF 0
ENDMDL
