MODEL 1
REMARK minimizedAffinity 2.41439939
REMARK minimizedRMSD -1
REMARK  0 active torsions:
REMARK  status: ('A' for Active; 'I' for Inactive)
ROOT
ATOM      1  C1  DEN d   1      -2.160   3.668  -3.727  0.00  0.00     0.130 A 
ATOM      2  C2  DEN d   1      -1.458   4.183  -4.899  0.00  0.00    -0.031 A 
ATOM      3  C3  DEN d   1      -2.436   4.304  -6.000  0.00  0.00     0.027 A 
ATOM      4  C4  DEN d   1      -4.955   3.750  -6.000  0.00  0.00     0.027 A 
ATOM      5  C5  DEN d   1      -6.000   3.274  -5.239  0.00  0.00    -0.003 A 
ATOM      6  C6  DEN d   1      -5.832   2.867  -3.942  0.00  0.00     0.001 A 
ATOM      7  C7  DEN d   1      -4.601   2.971  -3.352  0.00  0.00     0.017 A 
ATOM      8  C8  DEN d   1      -3.541   3.443  -4.115  0.00  0.00    -0.094 A 
ATOM      9  C9  DEN d   1      -3.733   3.862  -5.420  0.00  0.00    -0.072 A 
ENDROOT
TORSDOF 0
ENDMDL
