MODEL 1
REMARK minimizedAffinity -0.0809332281
REMARK minimizedRMSD -1
REMARK  0 active torsions:
REMARK  status: ('A' for Active; 'I' for Inactive)
ROOT
ATOM      1  C1  DEN d   1      -2.290   5.143  -5.192  0.00  0.00     0.130 A 
ATOM      2  C2  DEN d   1      -1.511   4.514  -4.129  0.00  0.00    -0.031 A 
ATOM      3  C3  DEN d   1      -2.365   3.502  -3.475  0.00  0.00     0.027 A 
ATOM      4  C4  DEN d   1      -4.803   2.850  -4.003  0.00  0.00     0.027 A 
ATOM      5  C5  DEN d   1      -5.886   3.116  -4.812  0.00  0.00    -0.003 A 
ATOM      6  C6  DEN d   1      -5.858   4.091  -5.773  0.00  0.00     0.001 A 
ATOM      7  C7  DEN d   1      -4.708   4.806  -5.981  0.00  0.00     0.017 A 
ATOM      8  C8  DEN d   1      -3.614   4.549  -5.165  0.00  0.00    -0.094 A 
ATOM      9  C9  DEN d   1      -3.659   3.551  -4.206  0.00  0.00    -0.072 A 
ENDROOT
TORSDOF 0
ENDMDL
