MODEL 1
REMARK minimizedAffinity 0.904014885
REMARK minimizedRMSD -1
REMARK  0 active torsions:
REMARK  status: ('A' for Active; 'I' for Inactive)
ROOT
ATOM      1  C1  DEN d   1      -1.983   3.610  -4.507  0.00  0.00     0.130 A 
ATOM      2  C2  DEN d   1      -1.537   4.786  -5.250  0.00  0.00    -0.031 A 
ATOM      3  C3  DEN d   1      -2.702   5.340  -5.969  0.00  0.00     0.027 A 
ATOM      4  C4  DEN d   1      -5.140   4.499  -6.000  0.00  0.00     0.027 A 
ATOM      5  C5  DEN d   1      -5.999   3.529  -5.532  0.00  0.00    -0.003 A 
ATOM      6  C6  DEN d   1      -5.576   2.507  -4.724  0.00  0.00     0.001 A 
ATOM      7  C7  DEN d   1      -4.267   2.457  -4.323  0.00  0.00     0.017 A 
ATOM      8  C8  DEN d   1      -3.394   3.427  -4.796  0.00  0.00    -0.094 A 
ATOM      9  C9  DEN d   1      -3.843   4.459  -5.602  0.00  0.00    -0.072 A 
ENDROOT
TORSDOF 0
ENDMDL
