MODEL 1
REMARK minimizedAffinity 3.89999914
REMARK minimizedRMSD -1
REMARK  0 active torsions:
REMARK  status: ('A' for Active; 'I' for Inactive)
ROOT
ATOM      1  C1  DEN d   1       0.864  -0.029   3.130  0.00  0.00     0.130 A 
ATOM      2  C2  DEN d   1       1.201  -1.331   2.562  0.00  0.00    -0.031 A 
ATOM      3  C3  DEN d   1       0.978  -1.264   1.103  0.00  0.00     0.027 A 
ATOM      4  C4  DEN d   1       0.153   0.721  -0.322  0.00  0.00     0.027 A 
ATOM      5  C5  DEN d   1      -0.271   2.031  -0.284  0.00  0.00    -0.003 A 
ATOM      6  C6  DEN d   1      -0.378   2.730   0.889  0.00  0.00     0.001 A 
ATOM      7  C7  DEN d   1      -0.013   2.136   2.069  0.00  0.00     0.017 A 
ATOM      8  C8  DEN d   1       0.408   0.813   2.039  0.00  0.00    -0.094 A 
ATOM      9  C9  DEN d   1       0.521   0.128   0.841  0.00  0.00    -0.072 A 
ENDROOT
TORSDOF 0
ENDMDL
