MODEL 1
REMARK minimizedAffinity 0.0769459307
REMARK minimizedRMSD -1
REMARK  0 active torsions:
REMARK  status: ('A' for Active; 'I' for Inactive)
ROOT
ATOM      1  C1  DEN d   1      -2.317   4.580  -5.524  0.00  0.00     0.130 A 
ATOM      2  C2  DEN d   1      -1.465   4.017  -4.480  0.00  0.00    -0.031 A 
ATOM      3  C3  DEN d   1      -2.306   3.169  -3.611  0.00  0.00     0.027 A 
ATOM      4  C4  DEN d   1      -4.831   2.671  -3.785  0.00  0.00     0.027 A 
ATOM      5  C5  DEN d   1      -5.980   2.930  -4.499  0.00  0.00    -0.003 A 
ATOM      6  C6  DEN d   1      -5.995   3.777  -5.575  0.00  0.00     0.001 A 
ATOM      7  C7  DEN d   1      -4.830   4.360  -5.996  0.00  0.00     0.017 A 
ATOM      8  C8  DEN d   1      -3.668   4.110  -5.277  0.00  0.00    -0.094 A 
ATOM      9  C9  DEN d   1      -3.671   3.241  -4.199  0.00  0.00    -0.072 A 
ENDROOT
TORSDOF 0
ENDMDL
