MODEL 1
REMARK minimizedAffinity 2.43256593
REMARK minimizedRMSD -1
REMARK  0 active torsions:
REMARK  status: ('A' for Active; 'I' for Inactive)
ROOT
ATOM      1  C1  DEN d   1      -2.581   2.562  -3.759  0.00  0.00     0.130 A 
ATOM      2  C2  DEN d   1      -1.779   3.730  -4.113  0.00  0.00    -0.031 A 
ATOM      3  C3  DEN d   1      -2.561   4.552  -5.059  0.00  0.00     0.027 A 
ATOM      4  C4  DEN d   1      -4.926   4.134  -6.000  0.00  0.00     0.027 A 
ATOM      5  C5  DEN d   1      -5.998   3.269  -5.999  0.00  0.00    -0.003 A 
ATOM      6  C6  DEN d   1      -5.993   2.100  -5.283  0.00  0.00     0.001 A 
ATOM      7  C7  DEN d   1      -4.911   1.787  -4.503  0.00  0.00     0.017 A 
ATOM      8  C8  DEN d   1      -3.824   2.651  -4.505  0.00  0.00    -0.094 A 
ATOM      9  C9  DEN d   1      -3.853   3.833  -5.225  0.00  0.00    -0.072 A 
ENDROOT
TORSDOF 0
ENDMDL
