MODEL 1
REMARK minimizedAffinity -0.910578787
REMARK minimizedRMSD -1
REMARK  0 active torsions:
REMARK  status: ('A' for Active; 'I' for Inactive)
ROOT
ATOM      1  C1  DEN d   1      -4.867   2.098  -4.432  0.00  0.00     0.130 A 
ATOM      2  C2  DEN d   1      -6.000   2.543  -5.240  0.00  0.00    -0.031 A 
ATOM      3  C3  DEN d   1      -5.579   3.739  -5.997  0.00  0.00     0.027 A 
ATOM      4  C4  DEN d   1      -3.295   4.937  -6.000  0.00  0.00     0.027 A 
ATOM      5  C5  DEN d   1      -2.025   4.935  -5.465  0.00  0.00    -0.003 A 
ATOM      6  C6  DEN d   1      -1.628   4.015  -4.531  0.00  0.00     0.001 A 
ATOM      7  C7  DEN d   1      -2.495   3.031  -4.136  0.00  0.00     0.017 A 
ATOM      8  C8  DEN d   1      -3.779   3.031  -4.665  0.00  0.00    -0.094 A 
ATOM      9  C9  DEN d   1      -4.158   3.962  -5.618  0.00  0.00    -0.072 A 
ENDROOT
TORSDOF 0
ENDMDL
