MODEL 1
REMARK minimizedAffinity -2.73649859
REMARK minimizedRMSD -1
REMARK  0 active torsions:
REMARK  status: ('A' for Active; 'I' for Inactive)
ROOT
ATOM      1  C   UNL d   1       1.561   0.988   0.428  0.00  0.00     0.078 C 
ATOM      2  C1  UNL d   1       0.376   0.373  -0.255  0.00  0.00    -0.077 A 
ATOM      3  C2  UNL d   1      -0.282  -0.733   0.297  0.00  0.00    -0.001 A 
ATOM      4  C3  UNL d   1      -1.378  -1.300  -0.355  0.00  0.00     0.003 A 
ATOM      5  C4  UNL d   1      -1.825  -0.769  -1.563  0.00  0.00    -0.005 A 
ATOM      6  C5  UNL d   1      -1.175   0.330  -2.122  0.00  0.00     0.003 A 
ATOM      7  C6  UNL d   1      -0.079   0.899  -1.471  0.00  0.00    -0.001 A 
ENDROOT
TORSDOF 0
ENDMDL
