MODEL 1
REMARK minimizedAffinity -2.33743429
REMARK minimizedRMSD -1
REMARK  0 active torsions:
REMARK  status: ('A' for Active; 'I' for Inactive)
ROOT
ATOM      1  C   UNL d   1       1.701   1.140   0.322  0.00  0.00     0.078 C 
ATOM      2  C1  UNL d   1       0.429   0.680  -0.324  0.00  0.00    -0.077 A 
ATOM      3  C2  UNL d   1      -0.323   1.542  -1.132  0.00  0.00    -0.001 A 
ATOM      4  C3  UNL d   1      -1.510   1.103  -1.719  0.00  0.00     0.003 A 
ATOM      5  C4  UNL d   1      -1.958  -0.199  -1.504  0.00  0.00    -0.005 A 
ATOM      6  C5  UNL d   1      -1.218  -1.063  -0.699  0.00  0.00     0.003 A 
ATOM      7  C6  UNL d   1      -0.030  -0.626  -0.111  0.00  0.00    -0.001 A 
ENDROOT
TORSDOF 0
ENDMDL
