MODEL 1
REMARK minimizedAffinity -4.9598217
REMARK minimizedRMSD -1
REMARK  0 active torsions:
REMARK  status: ('A' for Active; 'I' for Inactive)
ROOT
ATOM      1  C   UNL d   1       0.201   0.015   0.145  0.00  0.00     0.078 C 
ATOM      2  C1  UNL d   1       1.033   1.126   0.714  0.00  0.00    -0.077 A 
ATOM      3  C2  UNL d   1       0.457   2.123   1.511  0.00  0.00    -0.001 A 
ATOM      4  C3  UNL d   1       1.242   3.156   2.025  0.00  0.00     0.003 A 
ATOM      5  C4  UNL d   1       2.607   3.203   1.747  0.00  0.00    -0.005 A 
ATOM      6  C5  UNL d   1       3.188   2.216   0.954  0.00  0.00     0.003 A 
ATOM      7  C6  UNL d   1       2.405   1.182   0.438  0.00  0.00    -0.001 A 
ENDROOT
TORSDOF 0
ENDMDL
