MODEL 1
REMARK minimizedAffinity -3.92792201
REMARK minimizedRMSD -1
REMARK  0 active torsions:
REMARK  status: ('A' for Active; 'I' for Inactive)
ROOT
ATOM      1  C   UNL d   1       0.273   0.549  -0.025  0.00  0.00     0.078 C 
ATOM      2  C1  UNL d   1      -0.724  -0.542   0.226  0.00  0.00    -0.077 A 
ATOM      3  C2  UNL d   1      -1.945  -0.576  -0.459  0.00  0.00    -0.001 A 
ATOM      4  C3  UNL d   1      -2.868  -1.592  -0.208  0.00  0.00     0.003 A 
ATOM      5  C4  UNL d   1      -2.580  -2.582   0.729  0.00  0.00    -0.005 A 
ATOM      6  C5  UNL d   1      -1.369  -2.556   1.418  0.00  0.00     0.003 A 
ATOM      7  C6  UNL d   1      -0.445  -1.541   1.168  0.00  0.00    -0.001 A 
ENDROOT
TORSDOF 0
ENDMDL
