MODEL 1
REMARK minimizedAffinity -3.63310957
REMARK minimizedRMSD -1
REMARK  0 active torsions:
REMARK  status: ('A' for Active; 'I' for Inactive)
ROOT
ATOM      1  C   UNL d   1       1.046  -0.057  -0.010  0.00  0.00     0.078 C 
ATOM      2  C1  UNL d   1      -0.208  -0.875  -0.086  0.00  0.00    -0.077 A 
ATOM      3  C2  UNL d   1      -0.415  -1.960   0.775  0.00  0.00    -0.001 A 
ATOM      4  C3  UNL d   1      -1.582  -2.719   0.686  0.00  0.00     0.003 A 
ATOM      5  C4  UNL d   1      -2.553  -2.403  -0.262  0.00  0.00    -0.005 A 
ATOM      6  C5  UNL d   1      -2.355  -1.326  -1.125  0.00  0.00     0.003 A 
ATOM      7  C6  UNL d   1      -1.188  -0.566  -1.038  0.00  0.00    -0.001 A 
ENDROOT
TORSDOF 0
ENDMDL
