MODEL 1
REMARK minimizedAffinity -3.17476797
REMARK minimizedRMSD -1
REMARK  0 active torsions:
REMARK  status: ('A' for Active; 'I' for Inactive)
ROOT
ATOM      1  C   UNL d   1      -1.729  -3.231   0.700  0.00  0.00     0.078 C 
ATOM      2  C1  UNL d   1      -1.463  -1.912   0.039  0.00  0.00    -0.077 A 
ATOM      3  C2  UNL d   1      -2.283  -1.446  -0.996  0.00  0.00    -0.001 A 
ATOM      4  C3  UNL d   1      -2.018  -0.220  -1.610  0.00  0.00     0.003 A 
ATOM      5  C4  UNL d   1      -0.932   0.549  -1.196  0.00  0.00    -0.005 A 
ATOM      6  C5  UNL d   1      -0.109   0.092  -0.169  0.00  0.00     0.003 A 
ATOM      7  C6  UNL d   1      -0.373  -1.133   0.446  0.00  0.00    -0.001 A 
ENDROOT
TORSDOF 0
ENDMDL
