MODEL 1
REMARK minimizedAffinity -3.33656573
REMARK minimizedRMSD -1
REMARK  0 active torsions:
REMARK  status: ('A' for Active; 'I' for Inactive)
ROOT
ATOM      1  C   UNL d   1      -0.783  -0.499  -0.494  0.00  0.00     0.078 C 
ATOM      2  C1  UNL d   1       0.275   0.458  -0.031  0.00  0.00    -0.077 A 
ATOM      3  C2  UNL d   1      -0.063   1.727   0.454  0.00  0.00    -0.001 A 
ATOM      4  C3  UNL d   1       0.932   2.611   0.873  0.00  0.00     0.003 A 
ATOM      5  C4  UNL d   1       2.273   2.236   0.809  0.00  0.00    -0.005 A 
ATOM      6  C5  UNL d   1       2.619   0.976   0.326  0.00  0.00     0.003 A 
ATOM      7  C6  UNL d   1       1.625   0.090  -0.093  0.00  0.00    -0.001 A 
ENDROOT
TORSDOF 0
ENDMDL
