MODEL 1
REMARK minimizedAffinity -1.20386088
REMARK minimizedRMSD -1
REMARK  0 active torsions:
REMARK  status: ('A' for Active; 'I' for Inactive)
ROOT
ATOM      1  C   UNL d   1       2.132   1.904   1.429  0.00  0.00     0.078 C 
ATOM      2  C1  UNL d   1       1.121   1.323   0.487  0.00  0.00    -0.077 A 
ATOM      3  C2  UNL d   1       1.459   0.275  -0.378  0.00  0.00    -0.001 A 
ATOM      4  C3  UNL d   1       0.510  -0.250  -1.257  0.00  0.00     0.003 A 
ATOM      5  C4  UNL d   1      -0.784   0.268  -1.280  0.00  0.00    -0.005 A 
ATOM      6  C5  UNL d   1      -1.129   1.312  -0.424  0.00  0.00     0.003 A 
ATOM      7  C6  UNL d   1      -0.181   1.838   0.455  0.00  0.00    -0.001 A 
ENDROOT
TORSDOF 0
ENDMDL
