MODEL 1
REMARK minimizedAffinity -3.06171751
REMARK minimizedRMSD -1
REMARK  0 active torsions:
REMARK  status: ('A' for Active; 'I' for Inactive)
ROOT
ATOM      1  C   UNL d   1       2.237   2.696   2.024  0.00  0.00     0.078 C 
ATOM      2  C1  UNL d   1       1.445   1.660   1.285  0.00  0.00    -0.077 A 
ATOM      3  C2  UNL d   1       0.102   1.878   0.954  0.00  0.00    -0.001 A 
ATOM      4  C3  UNL d   1      -0.626   0.901   0.274  0.00  0.00     0.003 A 
ATOM      5  C4  UNL d   1      -0.020  -0.303  -0.080  0.00  0.00    -0.005 A 
ATOM      6  C5  UNL d   1       1.315  -0.531   0.247  0.00  0.00     0.003 A 
ATOM      7  C6  UNL d   1       2.045   0.446   0.926  0.00  0.00    -0.001 A 
ENDROOT
TORSDOF 0
ENDMDL
