MODEL 1
REMARK minimizedAffinity -5.08333778
REMARK minimizedRMSD -1
REMARK  0 active torsions:
REMARK  status: ('A' for Active; 'I' for Inactive)
ROOT
ATOM      1  C   UNL d   1      -1.833  -2.887   1.133  0.00  0.00     0.078 C 
ATOM      2  C1  UNL d   1      -1.634  -1.642   0.320  0.00  0.00    -0.077 A 
ATOM      3  C2  UNL d   1      -0.435  -0.922   0.387  0.00  0.00    -0.001 A 
ATOM      4  C3  UNL d   1      -0.267   0.240  -0.368  0.00  0.00     0.003 A 
ATOM      5  C4  UNL d   1      -1.294   0.693  -1.194  0.00  0.00    -0.005 A 
ATOM      6  C5  UNL d   1      -2.492  -0.016  -1.265  0.00  0.00     0.003 A 
ATOM      7  C6  UNL d   1      -2.661  -1.179  -0.511  0.00  0.00    -0.001 A 
ENDROOT
TORSDOF 0
ENDMDL
