MODEL 1
REMARK minimizedAffinity -4.6084547
REMARK minimizedRMSD -1
REMARK  0 active torsions:
REMARK  status: ('A' for Active; 'I' for Inactive)
ROOT
ATOM      1  C   UNL d   1      -0.826   0.140  -0.184  0.00  0.00     0.078 C 
ATOM      2  C1  UNL d   1       0.310   0.968   0.337  0.00  0.00    -0.077 A 
ATOM      3  C2  UNL d   1       0.075   2.163   1.028  0.00  0.00    -0.001 A 
ATOM      4  C3  UNL d   1       1.143   2.928   1.499  0.00  0.00     0.003 A 
ATOM      5  C4  UNL d   1       2.454   2.508   1.283  0.00  0.00    -0.005 A 
ATOM      6  C5  UNL d   1       2.698   1.321   0.594  0.00  0.00     0.003 A 
ATOM      7  C6  UNL d   1       1.631   0.555   0.123  0.00  0.00    -0.001 A 
ENDROOT
TORSDOF 0
ENDMDL
