MODEL 1
REMARK minimizedAffinity -3.66064382
REMARK minimizedRMSD -1
REMARK  0 active torsions:
REMARK  status: ('A' for Active; 'I' for Inactive)
ROOT
ATOM      1  C   UNL d   1       2.176   2.718   0.911  0.00  0.00     0.078 C 
ATOM      2  C1  UNL d   1       1.120   1.881   0.253  0.00  0.00    -0.077 A 
ATOM      3  C2  UNL d   1      -0.170   2.383   0.042  0.00  0.00    -0.001 A 
ATOM      4  C3  UNL d   1      -1.146   1.590  -0.563  0.00  0.00     0.003 A 
ATOM      5  C4  UNL d   1      -0.842   0.289  -0.961  0.00  0.00    -0.005 A 
ATOM      6  C5  UNL d   1       0.438  -0.219  -0.754  0.00  0.00     0.003 A 
ATOM      7  C6  UNL d   1       1.415   0.572  -0.148  0.00  0.00    -0.001 A 
ENDROOT
TORSDOF 0
ENDMDL
