MODEL 1
REMARK minimizedAffinity -5.19724989
REMARK minimizedRMSD -1
REMARK  0 active torsions:
REMARK  status: ('A' for Active; 'I' for Inactive)
ROOT
ATOM      1  C   UNL d   1       1.558  -0.178  -0.102  0.00  0.00     0.078 C 
ATOM      2  C1  UNL d   1       0.065  -0.307  -0.133  0.00  0.00    -0.077 A 
ATOM      3  C2  UNL d   1      -0.634  -0.862   0.947  0.00  0.00    -0.001 A 
ATOM      4  C3  UNL d   1      -2.023  -0.985   0.900  0.00  0.00     0.003 A 
ATOM      5  C4  UNL d   1      -2.726  -0.557  -0.225  0.00  0.00    -0.005 A 
ATOM      6  C5  UNL d   1      -2.039  -0.007  -1.305  0.00  0.00     0.003 A 
ATOM      7  C6  UNL d   1      -0.650   0.117  -1.260  0.00  0.00    -0.001 A 
ENDROOT
TORSDOF 0
ENDMDL
