MODEL 1
REMARK minimizedAffinity -5.23945284
REMARK minimizedRMSD -1
REMARK  0 active torsions:
REMARK  status: ('A' for Active; 'I' for Inactive)
ROOT
ATOM      1  C   UNL d   1       1.014   0.681   0.598  0.00  0.00     0.078 C 
ATOM      2  C1  UNL d   1      -0.388   0.236   0.303  0.00  0.00    -0.077 A 
ATOM      3  C2  UNL d   1      -0.700  -0.421  -0.893  0.00  0.00    -0.001 A 
ATOM      4  C3  UNL d   1      -2.010  -0.821  -1.158  0.00  0.00     0.003 A 
ATOM      5  C4  UNL d   1      -3.020  -0.567  -0.232  0.00  0.00    -0.005 A 
ATOM      6  C5  UNL d   1      -2.720   0.089   0.960  0.00  0.00     0.003 A 
ATOM      7  C6  UNL d   1      -1.410   0.489   1.227  0.00  0.00    -0.001 A 
ENDROOT
TORSDOF 0
ENDMDL
