MODEL 1
REMARK minimizedAffinity 10.4955711
REMARK minimizedRMSD -1
REMARK  0 active torsions:
REMARK  status: ('A' for Active; 'I' for Inactive)
ROOT
ATOM      1  C4' PXY d   1       5.056   0.140   0.031  0.00  0.00     0.077 C 
ATOM      2  C1' PXY d   1      -0.444   0.893   1.643  0.00  0.00     0.077 C 
ATOM      3  C1  PXY d   1       1.002   0.697   1.232  0.00  0.00    -0.082 A 
ATOM      4  C2  PXY d   1       1.368   0.945  -0.015  0.00  0.00     0.003 A 
ATOM      5  C3  PXY d   1       2.665   0.742  -0.411  0.00  0.00     0.003 A 
ATOM      6  C4  PXY d   1       3.609   0.333   0.492  0.00  0.00    -0.082 A 
ATOM      7  C5  PXY d   1       3.246   0.088   1.769  0.00  0.00     0.003 A 
ATOM      8  C6  PXY d   1       1.916   0.261   2.141  0.00  0.00     0.003 A 
ENDROOT
TORSDOF 0
ENDMDL
