MODEL 1
REMARK minimizedAffinity 3.30771184
REMARK minimizedRMSD -1
REMARK  0 active torsions:
REMARK  status: ('A' for Active; 'I' for Inactive)
ROOT
ATOM      1  C4' PXY d   1      -0.411  -1.827   0.271  0.00  0.00     0.077 C 
ATOM      2  C1' PXY d   1       1.506   3.610   0.694  0.00  0.00     0.077 C 
ATOM      3  C1  PXY d   1       1.006   2.184   0.570  0.00  0.00    -0.082 A 
ATOM      4  C2  PXY d   1       0.130   1.720   1.447  0.00  0.00     0.003 A 
ATOM      5  C3  PXY d   1      -0.308   0.423   1.369  0.00  0.00     0.003 A 
ATOM      6  C4  PXY d   1       0.114  -0.391   0.352  0.00  0.00    -0.082 A 
ATOM      7  C5  PXY d   1       0.999   0.079  -0.553  0.00  0.00     0.003 A 
ATOM      8  C6  PXY d   1       1.463   1.386  -0.432  0.00  0.00     0.003 A 
ENDROOT
TORSDOF 0
ENDMDL
