MODEL 1
REMARK minimizedAffinity 6.8282423
REMARK minimizedRMSD -1
REMARK  0 active torsions:
REMARK  status: ('A' for Active; 'I' for Inactive)
ROOT
ATOM      1  C4' PXY d   1      -0.426   5.895  -4.514  0.00  0.00     0.077 C 
ATOM      2  C1' PXY d   1      -3.090   2.363  -0.793  0.00  0.00     0.077 C 
ATOM      3  C1  PXY d   1      -2.393   3.299  -1.761  0.00  0.00    -0.082 A 
ATOM      4  C2  PXY d   1      -2.374   3.010  -3.052  0.00  0.00     0.003 A 
ATOM      5  C3  PXY d   1      -1.721   3.829  -3.936  0.00  0.00     0.003 A 
ATOM      6  C4  PXY d   1      -1.126   4.983  -3.502  0.00  0.00    -0.082 A 
ATOM      7  C5  PXY d   1      -1.149   5.290  -2.188  0.00  0.00     0.003 A 
ATOM      8  C6  PXY d   1      -1.782   4.425  -1.300  0.00  0.00     0.003 A 
ENDROOT
TORSDOF 0
ENDMDL
