MODEL 1
REMARK minimizedAffinity 14.6261196
REMARK minimizedRMSD -1
REMARK  0 active torsions:
REMARK  status: ('A' for Active; 'I' for Inactive)
ROOT
ATOM      1  C4' PXY d   1      -2.508  -0.714   2.309  0.00  0.00     0.077 C 
ATOM      2  C1' PXY d   1       1.502   1.559  -1.179  0.00  0.00     0.077 C 
ATOM      3  C1  PXY d   1       0.443   0.973  -0.267  0.00  0.00    -0.082 A 
ATOM      4  C2  PXY d   1       0.794   0.113   0.675  0.00  0.00     0.003 A 
ATOM      5  C3  PXY d   1      -0.156  -0.451   1.488  0.00  0.00     0.003 A 
ATOM      6  C4  PXY d   1      -1.471  -0.090   1.371  0.00  0.00    -0.082 A 
ATOM      7  C5  PXY d   1      -1.836   0.796   0.419  0.00  0.00     0.003 A 
ATOM      8  C6  PXY d   1      -0.862   1.325  -0.423  0.00  0.00     0.003 A 
ENDROOT
TORSDOF 0
ENDMDL
