MODEL 1
REMARK minimizedAffinity 0.40846464
REMARK minimizedRMSD -1
REMARK  0 active torsions:
REMARK  status: ('A' for Active; 'I' for Inactive)
ROOT
ATOM      1  C4' PXY d   1       1.575   0.756   0.445  0.00  0.00     0.077 C 
ATOM      2  C1' PXY d   1      -2.291  -3.502   1.022  0.00  0.00     0.077 C 
ATOM      3  C1  PXY d   1      -1.287  -2.376   0.873  0.00  0.00    -0.082 A 
ATOM      4  C2  PXY d   1      -0.214  -2.552   0.119  0.00  0.00     0.003 A 
ATOM      5  C3  PXY d   1       0.721  -1.557  -0.000  0.00  0.00     0.003 A 
ATOM      6  C4  PXY d   1       0.529  -0.349   0.616  0.00  0.00    -0.082 A 
ATOM      7  C5  PXY d   1      -0.568  -0.158   1.378  0.00  0.00     0.003 A 
ATOM      8  C6  PXY d   1      -1.484  -1.196   1.520  0.00  0.00     0.003 A 
ENDROOT
TORSDOF 0
ENDMDL
