MODEL 1
REMARK minimizedAffinity 2.8980608
REMARK minimizedRMSD -1
REMARK  0 active torsions:
REMARK  status: ('A' for Active; 'I' for Inactive)
ROOT
ATOM      1  C4' PXY d   1      -2.456  -3.295   1.419  0.00  0.00     0.077 C 
ATOM      2  C1' PXY d   1       1.167   1.166   0.791  0.00  0.00     0.077 C 
ATOM      3  C1  PXY d   1       0.217  -0.006   0.943  0.00  0.00    -0.082 A 
ATOM      4  C2  PXY d   1      -0.603  -0.054   1.980  0.00  0.00     0.003 A 
ATOM      5  C3  PXY d   1      -1.445  -1.122   2.150  0.00  0.00     0.003 A 
ATOM      6  C4  PXY d   1      -1.487  -2.126   1.220  0.00  0.00    -0.082 A 
ATOM      7  C5  PXY d   1      -0.661  -2.080   0.154  0.00  0.00     0.003 A 
ATOM      8  C6  PXY d   1       0.216  -1.008   0.021  0.00  0.00     0.003 A 
ENDROOT
TORSDOF 0
ENDMDL
