MODEL 1
REMARK minimizedAffinity -0.589930058
REMARK minimizedRMSD -1
REMARK  0 active torsions:
REMARK  status: ('A' for Active; 'I' for Inactive)
ROOT
ATOM      1  C4' PXY d   1       1.003   1.051  -2.650  0.00  0.00     0.077 C 
ATOM      2  C1' PXY d   1       0.231   1.313   3.073  0.00  0.00     0.077 C 
ATOM      3  C1  PXY d   1       0.433   1.231   1.573  0.00  0.00    -0.082 A 
ATOM      4  C2  PXY d   1       0.985   2.248   0.931  0.00  0.00     0.003 A 
ATOM      5  C3  PXY d   1       1.146   2.204  -0.430  0.00  0.00     0.003 A 
ATOM      6  C4  PXY d   1       0.788   1.086  -1.134  0.00  0.00    -0.082 A 
ATOM      7  C5  PXY d   1       0.234   0.040  -0.485  0.00  0.00     0.003 A 
ATOM      8  C6  PXY d   1       0.041   0.121   0.891  0.00  0.00     0.003 A 
ENDROOT
TORSDOF 0
ENDMDL
