MODEL 1
REMARK minimizedAffinity 0.349993736
REMARK minimizedRMSD -1
REMARK  0 active torsions:
REMARK  status: ('A' for Active; 'I' for Inactive)
ROOT
ATOM      1  C4' PXY d   1       4.500   3.277  -4.094  0.00  0.00     0.077 C 
ATOM      2  C1' PXY d   1      -0.260   6.000  -5.923  0.00  0.00     0.077 C 
ATOM      3  C1  PXY d   1       0.996   5.295  -5.449  0.00  0.00    -0.082 A 
ATOM      4  C2  PXY d   1       0.965   3.994  -5.210  0.00  0.00     0.003 A 
ATOM      5  C3  PXY d   1       2.083   3.347  -4.750  0.00  0.00     0.003 A 
ATOM      6  C4  PXY d   1       3.259   4.028  -4.583  0.00  0.00    -0.082 A 
ATOM      7  C5  PXY d   1       3.301   5.353  -4.835  0.00  0.00     0.003 A 
ATOM      8  C6  PXY d   1       2.145   6.000  -5.262  0.00  0.00     0.003 A 
ENDROOT
TORSDOF 0
ENDMDL
