MODEL 1
REMARK minimizedAffinity 0.664918721
REMARK minimizedRMSD -1
REMARK  0 active torsions:
REMARK  status: ('A' for Active; 'I' for Inactive)
ROOT
ATOM      1  C4' PXY d   1      -2.395   5.997  -3.170  0.00  0.00     0.077 C 
ATOM      2  C1' PXY d   1       2.646   5.943  -6.000  0.00  0.00     0.077 C 
ATOM      3  C1  PXY d   1       1.330   5.952  -5.247  0.00  0.00    -0.082 A 
ATOM      4  C2  PXY d   1       0.191   5.933  -5.921  0.00  0.00     0.003 A 
ATOM      5  C3  PXY d   1      -1.008   5.974  -5.257  0.00  0.00     0.003 A 
ATOM      6  C4  PXY d   1      -1.042   5.979  -3.888  0.00  0.00    -0.082 A 
ATOM      7  C5  PXY d   1       0.115   5.988  -3.194  0.00  0.00     0.003 A 
ATOM      8  C6  PXY d   1       1.322   5.988  -3.887  0.00  0.00     0.003 A 
ENDROOT
TORSDOF 0
ENDMDL
