MODEL 1
REMARK minimizedAffinity -0.108226582
REMARK minimizedRMSD -1
REMARK  0 active torsions:
REMARK  status: ('A' for Active; 'I' for Inactive)
ROOT
ATOM      1  C4' PXY d   1      -0.226   6.000  -1.930  0.00  0.00     0.077 C 
ATOM      2  C1' PXY d   1      -5.220   5.979  -4.842  0.00  0.00     0.077 C 
ATOM      3  C1  PXY d   1      -3.916   5.990  -4.068  0.00  0.00    -0.082 A 
ATOM      4  C2  PXY d   1      -2.767   6.000  -4.723  0.00  0.00     0.003 A 
ATOM      5  C3  PXY d   1      -1.578   5.977  -4.039  0.00  0.00     0.003 A 
ATOM      6  C4  PXY d   1      -1.567   5.999  -2.670  0.00  0.00    -0.082 A 
ATOM      7  C5  PXY d   1      -2.735   6.000  -1.994  0.00  0.00     0.003 A 
ATOM      8  C6  PXY d   1      -3.930   5.981  -2.707  0.00  0.00     0.003 A 
ENDROOT
TORSDOF 0
ENDMDL
