MODEL 1
REMARK minimizedAffinity 4.53827381
REMARK minimizedRMSD -1
REMARK  0 active torsions:
REMARK  status: ('A' for Active; 'I' for Inactive)
ROOT
ATOM      1  C4' PXY d   1       1.107   5.764  -4.480  0.00  0.00     0.077 C 
ATOM      2  C1' PXY d   1      -3.798   5.998  -1.430  0.00  0.00     0.077 C 
ATOM      3  C1  PXY d   1      -2.505   5.941  -2.220  0.00  0.00    -0.082 A 
ATOM      4  C2  PXY d   1      -2.542   5.999  -3.541  0.00  0.00     0.003 A 
ATOM      5  C3  PXY d   1      -1.385   5.917  -4.272  0.00  0.00     0.003 A 
ATOM      6  C4  PXY d   1      -0.173   5.828  -3.642  0.00  0.00    -0.082 A 
ATOM      7  C5  PXY d   1      -0.126   5.778  -2.294  0.00  0.00     0.003 A 
ATOM      8  C6  PXY d   1      -1.315   5.822  -1.571  0.00  0.00     0.003 A 
ENDROOT
TORSDOF 0
ENDMDL
