MODEL 1
REMARK minimizedAffinity 4.85420418
REMARK minimizedRMSD -1
REMARK  0 active torsions:
REMARK  status: ('A' for Active; 'I' for Inactive)
ROOT
ATOM      1  C4' PXY d   1       2.639   2.635  -1.778  0.00  0.00     0.077 C 
ATOM      2  C1' PXY d   1      -0.512   1.225   2.859  0.00  0.00     0.077 C 
ATOM      3  C1  PXY d   1       0.309   1.606   1.642  0.00  0.00    -0.082 A 
ATOM      4  C2  PXY d   1       0.845   0.658   0.892  0.00  0.00     0.003 A 
ATOM      5  C3  PXY d   1       1.616   0.986  -0.194  0.00  0.00     0.003 A 
ATOM      6  C4  PXY d   1       1.796   2.297  -0.545  0.00  0.00    -0.082 A 
ATOM      7  C5  PXY d   1       1.243   3.270   0.209  0.00  0.00     0.003 A 
ATOM      8  C6  PXY d   1       0.498   2.917   1.330  0.00  0.00     0.003 A 
ENDROOT
TORSDOF 0
ENDMDL
