MODEL 1
REMARK minimizedAffinity 5.02655983
REMARK minimizedRMSD -1
REMARK  0 active torsions:
REMARK  status: ('A' for Active; 'I' for Inactive)
ROOT
ATOM      1  C4' PXY d   1      -1.681   5.866  -3.565  0.00  0.00     0.077 C 
ATOM      2  C1' PXY d   1       3.691   5.995  -5.694  0.00  0.00     0.077 C 
ATOM      3  C1  PXY d   1       2.278   5.967  -5.147  0.00  0.00    -0.082 A 
ATOM      4  C2  PXY d   1       2.084   5.922  -3.839  0.00  0.00     0.003 A 
ATOM      5  C3  PXY d   1       0.813   5.864  -3.328  0.00  0.00     0.003 A 
ATOM      6  C4  PXY d   1      -0.272   5.905  -4.162  0.00  0.00    -0.082 A 
ATOM      7  C5  PXY d   1      -0.083   5.961  -5.497  0.00  0.00     0.003 A 
ATOM      8  C6  PXY d   1       1.216   5.978  -5.998  0.00  0.00     0.003 A 
ENDROOT
TORSDOF 0
ENDMDL
