MODEL 1
REMARK minimizedAffinity 0.950823188
REMARK minimizedRMSD -1
REMARK  0 active torsions:
REMARK  status: ('A' for Active; 'I' for Inactive)
ROOT
ATOM      1  C4' PXY d   1      -0.652  -1.810   1.195  0.00  0.00     0.077 C 
ATOM      2  C1' PXY d   1       1.815   3.311   0.142  0.00  0.00     0.077 C 
ATOM      3  C1  PXY d   1       1.170   1.965   0.406  0.00  0.00    -0.082 A 
ATOM      4  C2  PXY d   1       0.353   1.821   1.437  0.00  0.00     0.003 A 
ATOM      5  C3  PXY d   1      -0.214   0.603   1.708  0.00  0.00     0.003 A 
ATOM      6  C4  PXY d   1       0.015  -0.467   0.885  0.00  0.00    -0.082 A 
ATOM      7  C5  PXY d   1       0.838  -0.326  -0.176  0.00  0.00     0.003 A 
ATOM      8  C6  PXY d   1       1.437   0.909  -0.410  0.00  0.00     0.003 A 
ENDROOT
TORSDOF 0
ENDMDL
