MODEL 1
REMARK minimizedAffinity 3.51404595
REMARK minimizedRMSD -1
REMARK  0 active torsions:
REMARK  status: ('A' for Active; 'I' for Inactive)
ROOT
ATOM      1  C4' PXY d   1      -1.498  -0.844  -4.870  0.00  0.00     0.077 C 
ATOM      2  C1' PXY d   1       0.332   0.310   0.491  0.00  0.00     0.077 C 
ATOM      3  C1  PXY d   1      -0.159   0.002  -0.910  0.00  0.00    -0.082 A 
ATOM      4  C2  PXY d   1       0.716  -0.161  -1.889  0.00  0.00     0.003 A 
ATOM      5  C3  PXY d   1       0.288  -0.408  -3.168  0.00  0.00     0.003 A 
ATOM      6  C4  PXY d   1      -1.047  -0.542  -3.438  0.00  0.00    -0.082 A 
ATOM      7  C5  PXY d   1      -1.946  -0.387  -2.443  0.00  0.00     0.003 A 
ATOM      8  C6  PXY d   1      -1.493  -0.096  -1.160  0.00  0.00     0.003 A 
ENDROOT
TORSDOF 0
ENDMDL
