MODEL 1
REMARK minimizedAffinity -0.588434517
REMARK minimizedRMSD -1
REMARK  0 active torsions:
REMARK  status: ('A' for Active; 'I' for Inactive)
ROOT
ATOM      1  C4' PXY d   1      -2.916   5.946  -3.790  0.00  0.00     0.077 C 
ATOM      2  C1' PXY d   1       2.765   5.974  -4.860  0.00  0.00     0.077 C 
ATOM      3  C1  PXY d   1       1.277   5.962  -4.567  0.00  0.00    -0.082 A 
ATOM      4  C2  PXY d   1       0.414   5.928  -5.570  0.00  0.00     0.003 A 
ATOM      5  C3  PXY d   1      -0.935   5.948  -5.324  0.00  0.00     0.003 A 
ATOM      6  C4  PXY d   1      -1.405   5.950  -4.038  0.00  0.00    -0.082 A 
ATOM      7  C5  PXY d   1      -0.530   5.974  -3.010  0.00  0.00     0.003 A 
ATOM      8  C6  PXY d   1       0.835   5.994  -3.281  0.00  0.00     0.003 A 
ENDROOT
TORSDOF 0
ENDMDL
