MODEL 1
REMARK minimizedAffinity -0.000705031445
REMARK minimizedRMSD -1
REMARK  0 active torsions:
REMARK  status: ('A' for Active; 'I' for Inactive)
ROOT
ATOM      1  C4' PXY d   1      -0.721  -1.634   0.300  0.00  0.00     0.077 C 
ATOM      2  C1' PXY d   1       1.941   3.492   0.529  0.00  0.00     0.077 C 
ATOM      3  C1  PXY d   1       1.239   2.151   0.457  0.00  0.00    -0.082 A 
ATOM      4  C2  PXY d   1       0.904   1.527   1.575  0.00  0.00     0.003 A 
ATOM      5  C3  PXY d   1       0.297   0.298   1.528  0.00  0.00     0.003 A 
ATOM      6  C4  PXY d   1      -0.019  -0.273   0.325  0.00  0.00    -0.082 A 
ATOM      7  C5  PXY d   1       0.310   0.362  -0.820  0.00  0.00     0.003 A 
ATOM      8  C6  PXY d   1       0.963   1.589  -0.751  0.00  0.00     0.003 A 
ENDROOT
TORSDOF 0
ENDMDL
