MODEL 1
REMARK minimizedAffinity 5.51527309
REMARK minimizedRMSD -1
REMARK  0 active torsions:
REMARK  status: ('A' for Active; 'I' for Inactive)
ROOT
ATOM      1  C4' PXY d   1      -1.303   1.506   3.669  0.00  0.00     0.077 C 
ATOM      2  C1' PXY d   1       1.875   0.205  -0.982  0.00  0.00     0.077 C 
ATOM      3  C1  PXY d   1       1.053   0.551   0.244  0.00  0.00    -0.082 A 
ATOM      4  C2  PXY d   1      -0.063  -0.116   0.492  0.00  0.00     0.003 A 
ATOM      5  C3  PXY d   1      -0.836   0.206   1.578  0.00  0.00     0.003 A 
ATOM      6  C4  PXY d   1      -0.435   1.184   2.448  0.00  0.00    -0.082 A 
ATOM      7  C5  PXY d   1       0.707   1.862   2.208  0.00  0.00     0.003 A 
ATOM      8  C6  PXY d   1       1.456   1.548   1.077  0.00  0.00     0.003 A 
ENDROOT
TORSDOF 0
ENDMDL
