MODEL 1
REMARK minimizedAffinity -5.88565063
REMARK minimizedRMSD -1
REMARK  2 active torsions:
REMARK  status: ('A' for Active; 'I' for Inactive)
REMARK    1  A    between atoms: C2'_3  and  C1'_4 
REMARK    2  A    between atoms: C1'_4  and  C1_5 
ROOT
ATOM      1  C1  I4B d   1      -1.024  -0.491   1.219  0.00  0.00    -0.075 A 
ATOM      2  C2  I4B d   1      -0.170   0.094   0.317  0.00  0.00     0.003 A 
ATOM      3  C3  I4B d   1       1.231  -0.016   0.487  0.00  0.00     0.002 A 
ATOM      4  C4  I4B d   1       1.732  -0.672   1.593  0.00  0.00    -0.004 A 
ATOM      5  C5  I4B d   1       0.865  -1.284   2.494  0.00  0.00     0.002 A 
ATOM      6  C6  I4B d   1      -0.521  -1.203   2.299  0.00  0.00     0.003 A 
ENDROOT
BRANCH   1   7
ATOM      7  C1' I4B d   1      -2.498  -0.327   1.026  0.00  0.00     0.060 C 
BRANCH   7   8
ATOM      8  C2' I4B d   1      -2.982  -1.460   0.143  0.00  0.00    -0.013 C 
ATOM      9  C4' I4B d   1      -4.400  -1.843   0.477  0.00  0.00     0.013 C 
ATOM     10  C3' I4B d   1      -2.862  -1.018  -1.285  0.00  0.00     0.013 C 
ENDBRANCH   7   8
ENDBRANCH   1   7
TORSDOF 2
ENDMDL
