MODEL 1
REMARK minimizedAffinity -3.44933224
REMARK minimizedRMSD -1
REMARK  2 active torsions:
REMARK  status: ('A' for Active; 'I' for Inactive)
REMARK    1  A    between atoms: C2'_3  and  C1'_4 
REMARK    2  A    between atoms: C1'_4  and  C1_5 
ROOT
ATOM      1  C1  I4B d   1      -0.298   0.356  -0.548  0.00  0.00    -0.075 A 
ATOM      2  C2  I4B d   1       0.980   0.253  -0.059  0.00  0.00     0.003 A 
ATOM      3  C3  I4B d   1       1.199  -0.112   1.292  0.00  0.00     0.002 A 
ATOM      4  C4  I4B d   1       0.118  -0.315   2.125  0.00  0.00    -0.004 A 
ATOM      5  C5  I4B d   1      -1.177  -0.233   1.621  0.00  0.00     0.002 A 
ATOM      6  C6  I4B d   1      -1.387   0.092   0.273  0.00  0.00     0.003 A 
ENDROOT
BRANCH   1   7
ATOM      7  C1' I4B d   1      -0.494   0.776  -1.970  0.00  0.00     0.060 C 
BRANCH   7   8
ATOM      8  C2' I4B d   1       0.078   2.170  -2.128  0.00  0.00    -0.013 C 
ATOM      9  C4' I4B d   1       0.686   2.358  -3.493  0.00  0.00     0.013 C 
ATOM     10  C3' I4B d   1      -1.028   3.154  -1.888  0.00  0.00     0.013 C 
ENDBRANCH   7   8
ENDBRANCH   1   7
TORSDOF 2
ENDMDL
