MODEL 1
REMARK minimizedAffinity -4.40740728
REMARK minimizedRMSD -1
REMARK  2 active torsions:
REMARK  status: ('A' for Active; 'I' for Inactive)
REMARK    1  A    between atoms: C2'_3  and  C1'_4 
REMARK    2  A    between atoms: C1'_4  and  C1_5 
ROOT
ATOM      1  C1  I4B d   1      -1.390  -0.641  -0.317  0.00  0.00    -0.075 A 
ATOM      2  C2  I4B d   1      -0.195  -0.524  -0.981  0.00  0.00     0.003 A 
ATOM      3  C3  I4B d   1       1.020  -0.462  -0.256  0.00  0.00     0.002 A 
ATOM      4  C4  I4B d   1       0.989  -0.469   1.124  0.00  0.00    -0.004 A 
ATOM      5  C5  I4B d   1      -0.222  -0.611   1.795  0.00  0.00     0.002 A 
ATOM      6  C6  I4B d   1      -1.419  -0.710   1.070  0.00  0.00     0.003 A 
ENDROOT
BRANCH   1   7
ATOM      7  C1' I4B d   1      -2.657  -0.671  -1.112  0.00  0.00     0.060 C 
BRANCH   7   8
ATOM      8  C2' I4B d   1      -3.232  -2.070  -1.022  0.00  0.00    -0.013 C 
ATOM      9  C4' I4B d   1      -4.483  -2.092  -0.184  0.00  0.00     0.013 C 
ATOM     10  C3' I4B d   1      -3.505  -2.549  -2.417  0.00  0.00     0.013 C 
ENDBRANCH   7   8
ENDBRANCH   1   7
TORSDOF 2
ENDMDL
