MODEL 1
REMARK minimizedAffinity 2.4795506
REMARK minimizedRMSD -1
REMARK  2 active torsions:
REMARK  status: ('A' for Active; 'I' for Inactive)
REMARK    1  A    between atoms: C2'_3  and  C1'_4 
REMARK    2  A    between atoms: C1'_4  and  C1_5 
ROOT
ATOM      1  C1  I4B d   1       0.898  -3.454   2.214  0.00  0.00    -0.075 A 
ATOM      2  C2  I4B d   1       0.004  -2.447   1.950  0.00  0.00     0.003 A 
ATOM      3  C3  I4B d   1      -1.330  -2.539   2.415  0.00  0.00     0.002 A 
ATOM      4  C4  I4B d   1      -1.738  -3.671   3.091  0.00  0.00    -0.004 A 
ATOM      5  C5  I4B d   1      -0.824  -4.680   3.377  0.00  0.00     0.002 A 
ATOM      6  C6  I4B d   1       0.506  -4.566   2.947  0.00  0.00     0.003 A 
ENDROOT
BRANCH   1   7
ATOM      7  C1' I4B d   1       2.291  -3.339   1.680  0.00  0.00     0.060 C 
BRANCH   7   8
ATOM      8  C2' I4B d   1       2.966  -2.179   2.382  0.00  0.00    -0.013 C 
ATOM      9  C4' I4B d   1       4.466  -2.280   2.284  0.00  0.00     0.013 C 
ATOM     10  C3' I4B d   1       2.468  -0.908   1.762  0.00  0.00     0.013 C 
ENDBRANCH   7   8
ENDBRANCH   1   7
TORSDOF 2
ENDMDL
