MODEL 1
REMARK minimizedAffinity -1.86986542
REMARK minimizedRMSD -1
REMARK  2 active torsions:
REMARK  status: ('A' for Active; 'I' for Inactive)
REMARK    1  A    between atoms: C2'_3  and  C1'_4 
REMARK    2  A    between atoms: C1'_4  and  C1_5 
ROOT
ATOM      1  C1  I4B d   1      -1.233  -0.644   0.445  0.00  0.00    -0.075 A 
ATOM      2  C2  I4B d   1       0.001  -0.586  -0.152  0.00  0.00     0.003 A 
ATOM      3  C3  I4B d   1       1.177  -0.612   0.637  0.00  0.00     0.002 A 
ATOM      4  C4  I4B d   1       1.071  -0.646   2.013  0.00  0.00    -0.004 A 
ATOM      5  C5  I4B d   1      -0.181  -0.728   2.615  0.00  0.00     0.002 A 
ATOM      6  C6  I4B d   1      -1.340  -0.740   1.826  0.00  0.00     0.003 A 
ENDROOT
BRANCH   1   7
ATOM      7  C1' I4B d   1      -2.454  -0.582  -0.417  0.00  0.00     0.060 C 
BRANCH   7   8
ATOM      8  C2' I4B d   1      -3.225  -1.873  -0.229  0.00  0.00    -0.013 C 
ATOM      9  C4' I4B d   1      -4.562  -1.621   0.415  0.00  0.00     0.013 C 
ATOM     10  C3' I4B d   1      -3.385  -2.516  -1.574  0.00  0.00     0.013 C 
ENDBRANCH   7   8
ENDBRANCH   1   7
TORSDOF 2
ENDMDL
