MODEL 1
REMARK minimizedAffinity -4.72072268
REMARK minimizedRMSD -1
REMARK  2 active torsions:
REMARK  status: ('A' for Active; 'I' for Inactive)
REMARK    1  A    between atoms: C2'_3  and  C1'_4 
REMARK    2  A    between atoms: C1'_4  and  C1_5 
ROOT
ATOM      1  C1  I4B d   1      -1.181  -0.769  -0.099  0.00  0.00    -0.075 A 
ATOM      2  C2  I4B d   1       0.003  -0.763  -0.792  0.00  0.00     0.003 A 
ATOM      3  C3  I4B d   1       1.236  -0.763  -0.097  0.00  0.00     0.002 A 
ATOM      4  C4  I4B d   1       1.239  -0.718   1.282  0.00  0.00    -0.004 A 
ATOM      5  C5  I4B d   1       0.037  -0.748   1.984  0.00  0.00     0.002 A 
ATOM      6  C6  I4B d   1      -1.181  -0.786   1.290  0.00  0.00     0.003 A 
ENDROOT
BRANCH   1   7
ATOM      7  C1' I4B d   1      -2.466  -0.736  -0.865  0.00  0.00     0.060 C 
BRANCH   7   8
ATOM      8  C2' I4B d   1      -3.170  -2.061  -0.653  0.00  0.00    -0.013 C 
ATOM      9  C4' I4B d   1      -4.434  -1.884   0.147  0.00  0.00     0.013 C 
ATOM     10  C3' I4B d   1      -3.460  -2.652  -2.001  0.00  0.00     0.013 C 
ENDBRANCH   7   8
ENDBRANCH   1   7
TORSDOF 2
ENDMDL
