MODEL 1
REMARK minimizedAffinity -4.04928112
REMARK minimizedRMSD -1
REMARK  2 active torsions:
REMARK  status: ('A' for Active; 'I' for Inactive)
REMARK    1  A    between atoms: C2'_3  and  C1'_4 
REMARK    2  A    between atoms: C1'_4  and  C1_5 
ROOT
ATOM      1  C1  I4B d   1      -0.769  -0.386  -0.995  0.00  0.00    -0.075 A 
ATOM      2  C2  I4B d   1      -0.675  -0.158   0.355  0.00  0.00     0.003 A 
ATOM      3  C3  I4B d   1       0.565  -0.318   1.021  0.00  0.00     0.002 A 
ATOM      4  C4  I4B d   1       1.666  -0.752   0.311  0.00  0.00    -0.004 A 
ATOM      5  C5  I4B d   1       1.574  -0.960  -1.062  0.00  0.00     0.002 A 
ATOM      6  C6  I4B d   1       0.353  -0.764  -1.722  0.00  0.00     0.003 A 
ENDROOT
BRANCH   1   7
ATOM      7  C1' I4B d   1      -2.101  -0.240  -1.660  0.00  0.00     0.060 C 
BRANCH   7   8
ATOM      8  C2' I4B d   1      -2.855  -1.542  -1.484  0.00  0.00    -0.013 C 
ATOM      9  C4' I4B d   1      -4.070  -1.355  -0.614  0.00  0.00     0.013 C 
ATOM     10  C3' I4B d   1      -3.237  -2.043  -2.845  0.00  0.00     0.013 C 
ENDBRANCH   7   8
ENDBRANCH   1   7
TORSDOF 2
ENDMDL
