MODEL 1
REMARK minimizedAffinity -3.31550765
REMARK minimizedRMSD -1
REMARK  1 active torsions:
REMARK  status: ('A' for Active; 'I' for Inactive)
REMARK    1  A    between atoms: C3_4  and  O_7 
ROOT
ATOM      1  C   UNL d   1       2.331  -0.053   1.974  0.00  0.00    -0.033 A 
ATOM      2  C1  UNL d   1       1.355  -1.041   2.117  0.00  0.00     0.039 A 
ATOM      3  C2  UNL d   1       0.216  -1.021   1.310  0.00  0.00    -0.080 A 
ATOM      4  C3  UNL d   1       0.066  -0.010   0.365  0.00  0.00     0.150 A 
ATOM      5  C4  UNL d   1       1.036   0.975   0.215  0.00  0.00    -0.007 A 
ATOM      6  C5  UNL d   1       2.173   0.954   1.022  0.00  0.00     0.039 A 
ENDROOT
BRANCH   4   7
ATOM      7  O   UNL d   1      -1.031   0.054  -0.442  0.00  0.00    -0.526 OA
ATOM      8  H5  UNL d   1      -1.630  -0.674  -0.206  0.00  0.00     0.418 HD
ENDBRANCH   4   7
TORSDOF 1
ENDMDL
