MODEL 1
REMARK minimizedAffinity -3.62499475
REMARK minimizedRMSD -1
REMARK  1 active torsions:
REMARK  status: ('A' for Active; 'I' for Inactive)
REMARK    1  A    between atoms: C3_4  and  O_7 
ROOT
ATOM      1  C   UNL d   1       2.033   1.161   0.802  0.00  0.00    -0.033 A 
ATOM      2  C1  UNL d   1       1.683  -0.160   1.087  0.00  0.00     0.039 A 
ATOM      3  C2  UNL d   1       0.404  -0.628   0.778  0.00  0.00    -0.080 A 
ATOM      4  C3  UNL d   1      -0.513   0.234   0.183  0.00  0.00     0.150 A 
ATOM      5  C4  UNL d   1      -0.170   1.550  -0.107  0.00  0.00    -0.007 A 
ATOM      6  C5  UNL d   1       1.107   2.016   0.203  0.00  0.00     0.039 A 
ENDROOT
BRANCH   4   7
ATOM      7  O   UNL d   1      -1.775  -0.175  -0.132  0.00  0.00    -0.526 OA
ATOM      8  H5  UNL d   1      -1.879  -1.099   0.152  0.00  0.00     0.418 HD
ENDBRANCH   4   7
TORSDOF 1
ENDMDL
