MODEL 1
REMARK minimizedAffinity -2.90241623
REMARK minimizedRMSD -1
REMARK  1 active torsions:
REMARK  status: ('A' for Active; 'I' for Inactive)
REMARK    1  A    between atoms: C3_4  and  O_7 
ROOT
ATOM      1  C   UNL d   1      -1.269  -1.229   0.623  0.00  0.00    -0.033 A 
ATOM      2  C1  UNL d   1      -0.002  -1.532   1.125  0.00  0.00     0.039 A 
ATOM      3  C2  UNL d   1       1.039  -0.609   1.001  0.00  0.00    -0.080 A 
ATOM      4  C3  UNL d   1       0.799   0.611   0.375  0.00  0.00     0.150 A 
ATOM      5  C4  UNL d   1      -0.462   0.921  -0.124  0.00  0.00    -0.007 A 
ATOM      6  C5  UNL d   1      -1.500  -0.002   0.000  0.00  0.00     0.039 A 
ENDROOT
BRANCH   4   7
ATOM      7  O   UNL d   1       1.784   1.542   0.226  0.00  0.00    -0.526 OA
ATOM      8  H5  UNL d   1       2.608   1.179   0.592  0.00  0.00     0.418 HD
ENDBRANCH   4   7
TORSDOF 1
ENDMDL
