MODEL 1
REMARK minimizedAffinity 1.06268954
REMARK minimizedRMSD -1
REMARK  1 active torsions:
REMARK  status: ('A' for Active; 'I' for Inactive)
REMARK    1  A    between atoms: C3_4  and  O_7 
ROOT
ATOM      1  C   UNL d   1       2.700   0.929   0.526  0.00  0.00    -0.033 A 
ATOM      2  C1  UNL d   1       2.007   0.271   1.545  0.00  0.00     0.039 A 
ATOM      3  C2  UNL d   1       0.634   0.046   1.424  0.00  0.00    -0.080 A 
ATOM      4  C3  UNL d   1      -0.032   0.481   0.282  0.00  0.00     0.150 A 
ATOM      5  C4  UNL d   1       0.652   1.133  -0.738  0.00  0.00    -0.007 A 
ATOM      6  C5  UNL d   1       2.023   1.358  -0.616  0.00  0.00     0.039 A 
ENDROOT
BRANCH   4   7
ATOM      7  O   UNL d   1      -1.372   0.287   0.122  0.00  0.00    -0.526 OA
ATOM      8  H5  UNL d   1      -1.718  -0.150   0.918  0.00  0.00     0.418 HD
ENDBRANCH   4   7
TORSDOF 1
ENDMDL
