MODEL 1
REMARK minimizedAffinity -4.4341774
REMARK minimizedRMSD -1
REMARK  1 active torsions:
REMARK  status: ('A' for Active; 'I' for Inactive)
REMARK    1  A    between atoms: C3_4  and  O_7 
ROOT
ATOM      1  C   UNL d   1      -0.782  -0.467   0.311  0.00  0.00    -0.033 A 
ATOM      2  C1  UNL d   1      -0.439   0.814  -0.126  0.00  0.00     0.039 A 
ATOM      3  C2  UNL d   1       0.849   1.307   0.093  0.00  0.00    -0.080 A 
ATOM      4  C3  UNL d   1       1.783   0.510   0.748  0.00  0.00     0.150 A 
ATOM      5  C4  UNL d   1       1.450  -0.769   1.183  0.00  0.00    -0.007 A 
ATOM      6  C5  UNL d   1       0.163  -1.259   0.965  0.00  0.00     0.039 A 
ENDROOT
BRANCH   4   7
ATOM      7  O   UNL d   1       3.051   0.950   0.989  0.00  0.00    -0.526 OA
ATOM      8  H5  UNL d   1       3.129   1.860   0.658  0.00  0.00     0.418 HD
ENDBRANCH   4   7
TORSDOF 1
ENDMDL
