MODEL 1
REMARK minimizedAffinity -4.54129601
REMARK minimizedRMSD -1
REMARK  1 active torsions:
REMARK  status: ('A' for Active; 'I' for Inactive)
REMARK    1  A    between atoms: C3_4  and  O_7 
ROOT
ATOM      1  C   UNL d   1       2.824  -0.658   2.017  0.00  0.00    -0.033 A 
ATOM      2  C1  UNL d   1       2.448   0.409   1.199  0.00  0.00     0.039 A 
ATOM      3  C2  UNL d   1       1.196   0.411   0.581  0.00  0.00    -0.080 A 
ATOM      4  C3  UNL d   1       0.330  -0.659   0.789  0.00  0.00     0.150 A 
ATOM      5  C4  UNL d   1       0.696  -1.724   1.605  0.00  0.00    -0.007 A 
ATOM      6  C5  UNL d   1       1.947  -1.725   2.221  0.00  0.00     0.039 A 
ENDROOT
BRANCH   4   7
ATOM      7  O   UNL d   1      -0.900  -0.705   0.203  0.00  0.00    -0.526 OA
ATOM      8  H5  UNL d   1      -1.004   0.084  -0.355  0.00  0.00     0.418 HD
ENDBRANCH   4   7
TORSDOF 1
ENDMDL
