MODEL 1
REMARK minimizedAffinity -3.87458086
REMARK minimizedRMSD -1
REMARK  1 active torsions:
REMARK  status: ('A' for Active; 'I' for Inactive)
REMARK    1  A    between atoms: C3_4  and  O_7 
ROOT
ATOM      1  C   UNL d   1       2.510   0.234   1.410  0.00  0.00    -0.033 A 
ATOM      2  C1  UNL d   1       2.270   1.170   0.402  0.00  0.00     0.039 A 
ATOM      3  C2  UNL d   1       1.087   1.116  -0.337  0.00  0.00    -0.080 A 
ATOM      4  C3  UNL d   1       0.152   0.123  -0.058  0.00  0.00     0.150 A 
ATOM      5  C4  UNL d   1       0.382  -0.811   0.947  0.00  0.00    -0.007 A 
ATOM      6  C5  UNL d   1       1.565  -0.756   1.684  0.00  0.00     0.039 A 
ENDROOT
BRANCH   4   7
ATOM      7  O   UNL d   1      -1.015   0.027  -0.756  0.00  0.00    -0.526 OA
ATOM      8  H5  UNL d   1      -1.024   0.720  -1.437  0.00  0.00     0.418 HD
ENDBRANCH   4   7
TORSDOF 1
ENDMDL
