MODEL 1
REMARK minimizedAffinity -5.42524672
REMARK minimizedRMSD -1
REMARK  1 active torsions:
REMARK  status: ('A' for Active; 'I' for Inactive)
REMARK    1  A    between atoms: C3_4  and  O_7 
ROOT
ATOM      1  C   UNL d   1       2.915  -1.451   1.971  0.00  0.00    -0.033 A 
ATOM      2  C1  UNL d   1       3.580  -0.341   1.447  0.00  0.00     0.039 A 
ATOM      3  C2  UNL d   1       2.965   0.448   0.473  0.00  0.00    -0.080 A 
ATOM      4  C3  UNL d   1       1.687   0.117   0.033  0.00  0.00     0.150 A 
ATOM      5  C4  UNL d   1       1.017  -0.986   0.553  0.00  0.00    -0.007 A 
ATOM      6  C5  UNL d   1       1.633  -1.773   1.525  0.00  0.00     0.039 A 
ENDROOT
BRANCH   4   7
ATOM      7  O   UNL d   1       1.048   0.854  -0.920  0.00  0.00    -0.526 OA
ATOM      8  H5  UNL d   1       1.643   1.567  -1.207  0.00  0.00     0.418 HD
ENDBRANCH   4   7
TORSDOF 1
ENDMDL
