MODEL 1
REMARK minimizedAffinity -2.45315456
REMARK minimizedRMSD -1
REMARK  1 active torsions:
REMARK  status: ('A' for Active; 'I' for Inactive)
REMARK    1  A    between atoms: C3_4  and  O_7 
ROOT
ATOM      1  C   UNL d   1       2.556   0.775   0.732  0.00  0.00    -0.033 A 
ATOM      2  C1  UNL d   1       1.877  -0.219   1.439  0.00  0.00     0.039 A 
ATOM      3  C2  UNL d   1       0.600  -0.615   1.038  0.00  0.00    -0.080 A 
ATOM      4  C3  UNL d   1       0.014  -0.010  -0.071  0.00  0.00     0.150 A 
ATOM      5  C4  UNL d   1       0.686   0.978  -0.782  0.00  0.00    -0.007 A 
ATOM      6  C5  UNL d   1       1.961   1.373  -0.380  0.00  0.00     0.039 A 
ENDROOT
BRANCH   4   7
ATOM      7  O   UNL d   1      -1.233  -0.360  -0.498  0.00  0.00    -0.526 OA
ATOM      8  H5  UNL d   1      -1.587  -1.033   0.106  0.00  0.00     0.418 HD
ENDBRANCH   4   7
TORSDOF 1
ENDMDL
