MODEL 1
REMARK minimizedAffinity 3.35607433
REMARK minimizedRMSD -1
REMARK  0 active torsions:
REMARK  status: ('A' for Active; 'I' for Inactive)
ROOT
ATOM      1  C   UNL d   1      -3.001  -1.866  -1.314  0.00  0.00     0.172 C 
ATOM      2  N   UNL d   1      -3.978  -1.652  -2.355  0.00  0.00    -0.070 N 
ATOM      3  C1  UNL d   1      -4.541  -2.627  -3.135  0.00  0.00    -0.004 A 
ATOM      4  C2  UNL d   1      -5.420  -2.018  -4.003  0.00  0.00    -0.047 A 
ATOM      5  C3  UNL d   1      -5.384  -0.629  -3.737  0.00  0.00    -0.047 A 
ATOM      6  C4  UNL d   1      -4.483  -0.430  -2.713  0.00  0.00    -0.004 A 
ENDROOT
TORSDOF 0
ENDMDL
