MODEL 1
REMARK minimizedAffinity 0.726103008
REMARK minimizedRMSD -1
REMARK  0 active torsions:
REMARK  status: ('A' for Active; 'I' for Inactive)
ROOT
ATOM      1  C   UNL d   1      -1.866   2.998  -5.956  0.00  0.00     0.172 C 
ATOM      2  N   UNL d   1      -3.081   3.529  -5.384  0.00  0.00    -0.070 N 
ATOM      3  C1  UNL d   1      -3.193   4.117  -4.153  0.00  0.00    -0.004 A 
ATOM      4  C2  UNL d   1      -4.509   4.488  -3.980  0.00  0.00    -0.047 A 
ATOM      5  C3  UNL d   1      -5.213   4.108  -5.147  0.00  0.00    -0.047 A 
ATOM      6  C4  UNL d   1      -4.305   3.516  -6.000  0.00  0.00    -0.004 A 
ENDROOT
TORSDOF 0
ENDMDL
