MODEL 1
REMARK minimizedAffinity 6.92417336
REMARK minimizedRMSD -1
REMARK  0 active torsions:
REMARK  status: ('A' for Active; 'I' for Inactive)
ROOT
ATOM      1  C   UNL d   1      -2.044  -0.421  -1.265  0.00  0.00     0.172 C 
ATOM      2  N   UNL d   1      -0.670   0.007  -1.149  0.00  0.00    -0.070 N 
ATOM      3  C1  UNL d   1       0.381  -0.780  -0.760  0.00  0.00    -0.004 A 
ATOM      4  C2  UNL d   1       1.519  -0.004  -0.778  0.00  0.00    -0.047 A 
ATOM      5  C3  UNL d   1       1.139   1.296  -1.191  0.00  0.00    -0.047 A 
ATOM      6  C4  UNL d   1      -0.221   1.274  -1.414  0.00  0.00    -0.004 A 
ENDROOT
TORSDOF 0
ENDMDL
