MODEL 1
REMARK minimizedAffinity 7.17066813
REMARK minimizedRMSD -1
REMARK  0 active torsions:
REMARK  status: ('A' for Active; 'I' for Inactive)
ROOT
ATOM      1  C   UNL d   1       1.383  -2.362   1.597  0.00  0.00     0.172 C 
ATOM      2  N   UNL d   1       1.311  -1.218   0.719  0.00  0.00    -0.070 N 
ATOM      3  C1  UNL d   1       0.450  -1.075  -0.336  0.00  0.00    -0.004 A 
ATOM      4  C2  UNL d   1       0.696   0.150  -0.918  0.00  0.00    -0.047 A 
ATOM      5  C3  UNL d   1       1.741   0.764  -0.188  0.00  0.00    -0.047 A 
ATOM      6  C4  UNL d   1       2.103  -0.105   0.820  0.00  0.00    -0.004 A 
ENDROOT
TORSDOF 0
ENDMDL
