MODEL 1
REMARK minimizedAffinity 0.725099504
REMARK minimizedRMSD -1
REMARK  0 active torsions:
REMARK  status: ('A' for Active; 'I' for Inactive)
ROOT
ATOM      1  C   UNL d   1       2.619   3.370   3.532  0.00  0.00     0.172 C 
ATOM      2  N   UNL d   1       2.233   4.440   4.422  0.00  0.00    -0.070 N 
ATOM      3  C1  UNL d   1       0.996   5.025   4.478  0.00  0.00    -0.004 A 
ATOM      4  C2  UNL d   1       1.034   5.999   5.452  0.00  0.00    -0.047 A 
ATOM      5  C3  UNL d   1       2.339   6.000   6.000  0.00  0.00    -0.047 A 
ATOM      6  C4  UNL d   1       3.060   5.025   5.344  0.00  0.00    -0.004 A 
ENDROOT
TORSDOF 0
ENDMDL
