MODEL 1
REMARK minimizedAffinity 9.09157944
REMARK minimizedRMSD -1
REMARK  0 active torsions:
REMARK  status: ('A' for Active; 'I' for Inactive)
ROOT
ATOM      1  C   UNL d   1      -0.875  -1.042  -0.879  0.00  0.00     0.172 C 
ATOM      2  N   UNL d   1       0.306  -0.263  -1.169  0.00  0.00    -0.070 N 
ATOM      3  C1  UNL d   1       0.753   0.074  -2.419  0.00  0.00    -0.004 A 
ATOM      4  C2  UNL d   1       1.904   0.817  -2.269  0.00  0.00    -0.047 A 
ATOM      5  C3  UNL d   1       2.159   0.929  -0.882  0.00  0.00    -0.047 A 
ATOM      6  C4  UNL d   1       1.154   0.251  -0.224  0.00  0.00    -0.004 A 
ENDROOT
TORSDOF 0
ENDMDL
