MODEL 1
REMARK minimizedAffinity 5.9938035
REMARK minimizedRMSD -1
REMARK  0 active torsions:
REMARK  status: ('A' for Active; 'I' for Inactive)
ROOT
ATOM      1  C   UNL d   1      -2.745  -1.375  -1.290  0.00  0.00     0.172 C 
ATOM      2  N   UNL d   1      -3.712  -1.422  -2.362  0.00  0.00    -0.070 N 
ATOM      3  C1  UNL d   1      -4.048  -2.535  -3.086  0.00  0.00    -0.004 A 
ATOM      4  C2  UNL d   1      -5.002  -2.165  -4.010  0.00  0.00    -0.047 A 
ATOM      5  C3  UNL d   1      -5.245  -0.781  -3.836  0.00  0.00    -0.047 A 
ATOM      6  C4  UNL d   1      -4.434  -0.347  -2.810  0.00  0.00    -0.004 A 
ENDROOT
TORSDOF 0
ENDMDL
