MODEL 1
REMARK minimizedAffinity -5.77484894
REMARK minimizedRMSD -1
REMARK  1 active torsions:
REMARK  status: ('A' for Active; 'I' for Inactive)
REMARK    1  A    between atoms: C1_2  and  C2_3 
ROOT
ATOM      1  C2  UNL d   1       0.261  -0.106   0.229  0.00  0.00    -0.077 A 
ATOM      2  C3  UNL d   1       0.909  -1.101  -0.518  0.00  0.00     0.002 A 
ATOM      3  C4  UNL d   1       0.636  -2.450  -0.283  0.00  0.00     0.002 A 
ATOM      4  C5  UNL d   1      -0.287  -2.817   0.694  0.00  0.00    -0.004 A 
ATOM      5  C6  UNL d   1      -0.934  -1.835   1.443  0.00  0.00     0.002 A 
ATOM      6  C7  UNL d   1      -0.662  -0.486   1.212  0.00  0.00     0.002 A 
ENDROOT
BRANCH   1   7
ATOM      7  C1  UNL d   1       0.517   1.351  -0.055  0.00  0.00     0.055 C 
ATOM      8  C   UNL d   1       1.998   1.683   0.050  0.00  0.00     0.019 C 
ENDBRANCH   1   7
TORSDOF 1
ENDMDL
