MODEL 1
REMARK minimizedAffinity -4.33924627
REMARK minimizedRMSD -1
REMARK  1 active torsions:
REMARK  status: ('A' for Active; 'I' for Inactive)
REMARK    1  A    between atoms: C1_2  and  C2_3 
ROOT
ATOM      1  C2  UNL d   1       0.181  -1.435   0.096  0.00  0.00    -0.077 A 
ATOM      2  C3  UNL d   1       0.730  -0.750  -0.997  0.00  0.00     0.002 A 
ATOM      3  C4  UNL d   1       0.547   0.628  -1.130  0.00  0.00     0.002 A 
ATOM      4  C5  UNL d   1      -0.180   1.332  -0.172  0.00  0.00    -0.004 A 
ATOM      5  C6  UNL d   1      -0.731   0.659   0.917  0.00  0.00     0.002 A 
ATOM      6  C7  UNL d   1      -0.550  -0.719   1.051  0.00  0.00     0.002 A 
ENDROOT
BRANCH   1   7
ATOM      7  C1  UNL d   1       0.419  -2.913   0.266  0.00  0.00     0.055 C 
ATOM      8  C   UNL d   1      -0.894  -3.681   0.333  0.00  0.00     0.019 C 
ENDBRANCH   1   7
TORSDOF 1
ENDMDL
