MODEL 1
REMARK minimizedAffinity -3.9832809
REMARK minimizedRMSD -1
REMARK  1 active torsions:
REMARK  status: ('A' for Active; 'I' for Inactive)
REMARK    1  A    between atoms: C1_2  and  C2_3 
ROOT
ATOM      1  C2  UNL d   1       0.143   0.010  -0.218  0.00  0.00    -0.077 A 
ATOM      2  C3  UNL d   1       0.756  -1.178  -0.642  0.00  0.00     0.002 A 
ATOM      3  C4  UNL d   1       0.430  -2.394  -0.040  0.00  0.00     0.002 A 
ATOM      4  C5  UNL d   1      -0.511  -2.436   0.987  0.00  0.00    -0.004 A 
ATOM      5  C6  UNL d   1      -1.124  -1.260   1.417  0.00  0.00     0.002 A 
ATOM      6  C7  UNL d   1      -0.799  -0.043   0.817  0.00  0.00     0.002 A 
ENDROOT
BRANCH   1   7
ATOM      7  C1  UNL d   1       0.456   1.316  -0.900  0.00  0.00     0.055 C 
ATOM      8  C   UNL d   1       0.816   2.396   0.110  0.00  0.00     0.019 C 
ENDBRANCH   1   7
TORSDOF 1
ENDMDL
