MODEL 1
REMARK minimizedAffinity -1.93134153
REMARK minimizedRMSD -1
REMARK  1 active torsions:
REMARK  status: ('A' for Active; 'I' for Inactive)
REMARK    1  A    between atoms: C1_2  and  C2_3 
ROOT
ATOM      1  C2  UNL d   1       0.866   1.406  -0.532  0.00  0.00    -0.077 A 
ATOM      2  C3  UNL d   1       0.806   0.252   0.262  0.00  0.00     0.002 A 
ATOM      3  C4  UNL d   1       0.808  -1.013  -0.329  0.00  0.00     0.002 A 
ATOM      4  C5  UNL d   1       0.874  -1.136  -1.715  0.00  0.00    -0.004 A 
ATOM      5  C6  UNL d   1       0.933   0.006  -2.514  0.00  0.00     0.002 A 
ATOM      6  C7  UNL d   1       0.930   1.271  -1.924  0.00  0.00     0.002 A 
ENDROOT
BRANCH   1   7
ATOM      7  C1  UNL d   1       0.914   2.770   0.106  0.00  0.00     0.055 C 
ATOM      8  C   UNL d   1       2.342   3.289   0.198  0.00  0.00     0.019 C 
ENDBRANCH   1   7
TORSDOF 1
ENDMDL
