MODEL 1
REMARK minimizedAffinity -2.85023975
REMARK minimizedRMSD -1
REMARK  1 active torsions:
REMARK  status: ('A' for Active; 'I' for Inactive)
REMARK    1  A    between atoms: C1_2  and  C2_3 
ROOT
ATOM      1  C2  UNL d   1       0.441   0.766  -0.309  0.00  0.00    -0.077 A 
ATOM      2  C3  UNL d   1       0.499  -0.350   0.539  0.00  0.00     0.002 A 
ATOM      3  C4  UNL d   1       0.708  -1.626   0.013  0.00  0.00     0.002 A 
ATOM      4  C5  UNL d   1       0.864  -1.798  -1.361  0.00  0.00    -0.004 A 
ATOM      5  C6  UNL d   1       0.805  -0.696  -2.212  0.00  0.00     0.002 A 
ATOM      6  C7  UNL d   1       0.595   0.581  -1.688  0.00  0.00     0.002 A 
ENDROOT
BRANCH   1   7
ATOM      7  C1  UNL d   1       0.265   2.149   0.261  0.00  0.00     0.055 C 
ATOM      8  C   UNL d   1       1.590   2.895   0.322  0.00  0.00     0.019 C 
ENDBRANCH   1   7
TORSDOF 1
ENDMDL
