MODEL 1
REMARK minimizedAffinity -4.91359806
REMARK minimizedRMSD -1
REMARK  1 active torsions:
REMARK  status: ('A' for Active; 'I' for Inactive)
REMARK    1  A    between atoms: C1_2  and  C2_3 
ROOT
ATOM      1  C2  UNL d   1       0.971   1.862   0.365  0.00  0.00    -0.077 A 
ATOM      2  C3  UNL d   1       0.883   2.089   1.746  0.00  0.00     0.002 A 
ATOM      3  C4  UNL d   1       1.557   3.163   2.330  0.00  0.00     0.002 A 
ATOM      4  C5  UNL d   1       2.321   4.020   1.541  0.00  0.00    -0.004 A 
ATOM      5  C6  UNL d   1       2.417   3.802   0.168  0.00  0.00     0.002 A 
ATOM      6  C7  UNL d   1       1.745   2.728  -0.418  0.00  0.00     0.002 A 
ENDROOT
BRANCH   1   7
ATOM      7  C1  UNL d   1       0.205   0.734  -0.274  0.00  0.00     0.055 C 
ATOM      8  C   UNL d   1       0.064  -0.447   0.675  0.00  0.00     0.019 C 
ENDBRANCH   1   7
TORSDOF 1
ENDMDL
