MODEL 1
REMARK minimizedAffinity -3.69196534
REMARK minimizedRMSD -1
REMARK  1 active torsions:
REMARK  status: ('A' for Active; 'I' for Inactive)
REMARK    1  A    between atoms: C1_2  and  C2_3 
ROOT
ATOM      1  C2  UNL d   1      -0.486  -2.058  -0.654  0.00  0.00    -0.077 A 
ATOM      2  C3  UNL d   1      -0.958  -2.768   0.459  0.00  0.00     0.002 A 
ATOM      3  C4  UNL d   1      -1.168  -2.116   1.676  0.00  0.00     0.002 A 
ATOM      4  C5  UNL d   1      -0.913  -0.751   1.790  0.00  0.00    -0.004 A 
ATOM      5  C6  UNL d   1      -0.441  -0.036   0.689  0.00  0.00     0.002 A 
ATOM      6  C7  UNL d   1      -0.230  -0.687  -0.527  0.00  0.00     0.002 A 
ENDROOT
BRANCH   1   7
ATOM      7  C1  UNL d   1      -0.305  -2.749  -1.980  0.00  0.00     0.055 C 
ATOM      8  C   UNL d   1       0.653  -1.982  -2.879  0.00  0.00     0.019 C 
ENDBRANCH   1   7
TORSDOF 1
ENDMDL
