MODEL 1
REMARK minimizedAffinity -5.25573254
REMARK minimizedRMSD -1
REMARK  1 active torsions:
REMARK  status: ('A' for Active; 'I' for Inactive)
REMARK    1  A    between atoms: C1_2  and  C2_3 
ROOT
ATOM      1  C2  UNL d   1      -0.022  -2.254  -0.546  0.00  0.00    -0.077 A 
ATOM      2  C3  UNL d   1      -0.732  -2.736   0.563  0.00  0.00     0.002 A 
ATOM      3  C4  UNL d   1      -1.293  -1.847   1.483  0.00  0.00     0.002 A 
ATOM      4  C5  UNL d   1      -1.152  -0.473   1.301  0.00  0.00    -0.004 A 
ATOM      5  C6  UNL d   1      -0.446   0.015   0.203  0.00  0.00     0.002 A 
ATOM      6  C7  UNL d   1       0.116  -0.871  -0.717  0.00  0.00     0.002 A 
ENDROOT
BRANCH   1   7
ATOM      7  C1  UNL d   1       0.541  -3.210  -1.565  0.00  0.00     0.055 C 
ATOM      8  C   UNL d   1       0.822  -2.508  -2.886  0.00  0.00     0.019 C 
ENDBRANCH   1   7
TORSDOF 1
ENDMDL
