MODEL 1
REMARK minimizedAffinity -5.7463603
REMARK minimizedRMSD -1
REMARK  1 active torsions:
REMARK  status: ('A' for Active; 'I' for Inactive)
REMARK    1  A    between atoms: C1_2  and  C2_3 
ROOT
ATOM      1  C2  UNL d   1      -0.110  -0.051   0.308  0.00  0.00    -0.077 A 
ATOM      2  C3  UNL d   1       0.772  -1.004  -0.220  0.00  0.00     0.002 A 
ATOM      3  C4  UNL d   1       0.546  -2.366  -0.014  0.00  0.00     0.002 A 
ATOM      4  C5  UNL d   1      -0.562  -2.788   0.716  0.00  0.00    -0.004 A 
ATOM      5  C6  UNL d   1      -1.445  -1.848   1.248  0.00  0.00     0.002 A 
ATOM      6  C7  UNL d   1      -1.220  -0.486   1.044  0.00  0.00     0.002 A 
ENDROOT
BRANCH   1   7
ATOM      7  C1  UNL d   1       0.104   1.417   0.046  0.00  0.00     0.055 C 
ATOM      8  C   UNL d   1       1.498   1.857   0.469  0.00  0.00     0.019 C 
ENDBRANCH   1   7
TORSDOF 1
ENDMDL
