MODEL 1
REMARK minimizedAffinity -3.70782208
REMARK minimizedRMSD -1
REMARK  1 active torsions:
REMARK  status: ('A' for Active; 'I' for Inactive)
REMARK    1  A    between atoms: C1_2  and  C2_3 
ROOT
ATOM      1  C2  UNL d   1      -0.652  -0.091   0.629  0.00  0.00    -0.077 A 
ATOM      2  C3  UNL d   1      -1.088  -1.372   0.260  0.00  0.00     0.002 A 
ATOM      3  C4  UNL d   1      -1.812  -2.158   1.158  0.00  0.00     0.002 A 
ATOM      4  C5  UNL d   1      -2.110  -1.671   2.429  0.00  0.00    -0.004 A 
ATOM      5  C6  UNL d   1      -1.679  -0.400   2.807  0.00  0.00     0.002 A 
ATOM      6  C7  UNL d   1      -0.954   0.387   1.910  0.00  0.00     0.002 A 
ENDROOT
BRANCH   1   7
ATOM      7  C1  UNL d   1       0.086   0.777  -0.356  0.00  0.00     0.055 C 
ATOM      8  C   UNL d   1       0.265   2.191   0.178  0.00  0.00     0.019 C 
ENDBRANCH   1   7
TORSDOF 1
ENDMDL
