MODEL 1
REMARK minimizedAffinity -4.14175701
REMARK minimizedRMSD -1
REMARK  2 active torsions:
REMARK  status: ('A' for Active; 'I' for Inactive)
REMARK    1  A    between atoms: C1_2  and  C2_3 
REMARK    2  A    between atoms: C2_3  and  C3_4 
ROOT
ATOM      1  C3  UNL d   1       0.396   0.654   1.448  0.00  0.00    -0.075 A 
ATOM      2  C4  UNL d   1      -0.044   1.841   2.052  0.00  0.00     0.002 A 
ATOM      3  C5  UNL d   1      -1.116   2.554   1.516  0.00  0.00     0.002 A 
ATOM      4  C6  UNL d   1      -1.755   2.097   0.365  0.00  0.00    -0.004 A 
ATOM      5  C7  UNL d   1      -1.316   0.928  -0.253  0.00  0.00     0.002 A 
ATOM      6  C8  UNL d   1      -0.246   0.210   0.284  0.00  0.00     0.002 A 
ENDROOT
BRANCH   1   7
ATOM      7  C2  UNL d   1       1.536  -0.139   2.041  0.00  0.00     0.056 C 
BRANCH   7   8
ATOM      8  C1  UNL d   1       2.554  -0.634   1.008  0.00  0.00     0.007 C 
ATOM      9  C   UNL d   1       3.972  -0.725   1.558  0.00  0.00     0.009 C 
ENDBRANCH   7   8
ENDBRANCH   1   7
TORSDOF 2
ENDMDL
