MODEL 1
REMARK minimizedAffinity -1.68550897
REMARK minimizedRMSD -1
REMARK  2 active torsions:
REMARK  status: ('A' for Active; 'I' for Inactive)
REMARK    1  A    between atoms: C1_2  and  C2_3 
REMARK    2  A    between atoms: C2_3  and  C3_4 
ROOT
ATOM      1  C3  UNL d   1      -0.034  -0.024  -0.446  0.00  0.00    -0.075 A 
ATOM      2  C4  UNL d   1      -0.164   0.430   0.874  0.00  0.00     0.002 A 
ATOM      3  C5  UNL d   1      -0.476   1.764   1.137  0.00  0.00     0.002 A 
ATOM      4  C6  UNL d   1      -0.653   2.661   0.086  0.00  0.00    -0.004 A 
ATOM      5  C7  UNL d   1      -0.510   2.225  -1.229  0.00  0.00     0.002 A 
ATOM      6  C8  UNL d   1      -0.202   0.890  -1.495  0.00  0.00     0.002 A 
ENDROOT
BRANCH   1   7
ATOM      7  C2  UNL d   1       0.275  -1.473  -0.739  0.00  0.00     0.056 C 
BRANCH   7   8
ATOM      8  C1  UNL d   1      -0.609  -2.092  -1.827  0.00  0.00     0.007 C 
ATOM      9  C   UNL d   1      -0.667  -3.612  -1.760  0.00  0.00     0.009 C 
ENDBRANCH   7   8
ENDBRANCH   1   7
TORSDOF 2
ENDMDL
