MODEL 1
REMARK minimizedAffinity -3.32016039
REMARK minimizedRMSD -1
REMARK  2 active torsions:
REMARK  status: ('A' for Active; 'I' for Inactive)
REMARK    1  A    between atoms: C1_2  and  C2_3 
REMARK    2  A    between atoms: C2_3  and  C3_4 
ROOT
ATOM      1  C3  UNL d   1       0.970  -3.223  -0.365  0.00  0.00    -0.075 A 
ATOM      2  C4  UNL d   1      -0.299  -3.235  -0.962  0.00  0.00     0.002 A 
ATOM      3  C5  UNL d   1      -0.908  -4.441  -1.308  0.00  0.00     0.002 A 
ATOM      4  C6  UNL d   1      -0.253  -5.648  -1.073  0.00  0.00    -0.004 A 
ATOM      5  C7  UNL d   1       1.015  -5.648  -0.496  0.00  0.00     0.002 A 
ATOM      6  C8  UNL d   1       1.625  -4.442  -0.144  0.00  0.00     0.002 A 
ENDROOT
BRANCH   1   7
ATOM      7  C2  UNL d   1       1.622  -1.922   0.039  0.00  0.00     0.056 C 
BRANCH   7   8
ATOM      8  C1  UNL d   1       3.150  -1.926  -0.084  0.00  0.00     0.007 C 
ATOM      9  C   UNL d   1       3.826  -0.894   0.809  0.00  0.00     0.009 C 
ENDBRANCH   7   8
ENDBRANCH   1   7
TORSDOF 2
ENDMDL
