MODEL 1
REMARK minimizedAffinity -0.551223993
REMARK minimizedRMSD -1
REMARK  2 active torsions:
REMARK  status: ('A' for Active; 'I' for Inactive)
REMARK    1  A    between atoms: C1_2  and  C2_3 
REMARK    2  A    between atoms: C2_3  and  C3_4 
ROOT
ATOM      1  C3  UNL d   1      -0.299   1.740   0.596  0.00  0.00    -0.075 A 
ATOM      2  C4  UNL d   1       0.059   0.385   0.561  0.00  0.00     0.002 A 
ATOM      3  C5  UNL d   1       0.258  -0.264  -0.657  0.00  0.00     0.002 A 
ATOM      4  C6  UNL d   1       0.093   0.429  -1.854  0.00  0.00    -0.004 A 
ATOM      5  C7  UNL d   1      -0.278   1.771  -1.832  0.00  0.00     0.002 A 
ATOM      6  C8  UNL d   1      -0.474   2.425  -0.614  0.00  0.00     0.002 A 
ENDROOT
BRANCH   1   7
ATOM      7  C2  UNL d   1      -0.488   2.456   1.912  0.00  0.00     0.056 C 
BRANCH   7   8
ATOM      8  C1  UNL d   1      -1.939   2.855   2.203  0.00  0.00     0.007 C 
ATOM      9  C   UNL d   1      -2.218   4.330   1.951  0.00  0.00     0.009 C 
ENDBRANCH   7   8
ENDBRANCH   1   7
TORSDOF 2
ENDMDL
