MODEL 1
REMARK minimizedAffinity -3.40530777
REMARK minimizedRMSD -1
REMARK  2 active torsions:
REMARK  status: ('A' for Active; 'I' for Inactive)
REMARK    1  A    between atoms: C1_2  and  C2_3 
REMARK    2  A    between atoms: C2_3  and  C3_4 
ROOT
ATOM      1  C3  UNL d   1       0.205   0.244   0.320  0.00  0.00    -0.075 A 
ATOM      2  C4  UNL d   1      -1.056  -0.232  -0.066  0.00  0.00     0.002 A 
ATOM      3  C5  UNL d   1      -2.206   0.513   0.200  0.00  0.00     0.002 A 
ATOM      4  C6  UNL d   1      -2.110   1.735   0.862  0.00  0.00    -0.004 A 
ATOM      5  C7  UNL d   1      -0.864   2.210   1.265  0.00  0.00     0.002 A 
ATOM      6  C8  UNL d   1       0.288   1.469   0.996  0.00  0.00     0.002 A 
ENDROOT
BRANCH   1   7
ATOM      7  C2  UNL d   1       1.456  -0.543   0.010  0.00  0.00     0.056 C 
BRANCH   7   8
ATOM      8  C1  UNL d   1       2.512  -0.500   1.120  0.00  0.00     0.007 C 
ATOM      9  C   UNL d   1       3.904  -0.889   0.640  0.00  0.00     0.009 C 
ENDBRANCH   7   8
ENDBRANCH   1   7
TORSDOF 2
ENDMDL
