MODEL 1
REMARK minimizedAffinity 2.39909887
REMARK minimizedRMSD -1
REMARK  0 active torsions:
REMARK  status: ('A' for Active; 'I' for Inactive)
ROOT
ATOM      1  C   UNL d   1       2.885  -2.457  -0.827  0.00  0.00     0.078 C 
ATOM      2  C1  UNL d   1       3.646  -1.303  -1.408  0.00  0.00    -0.077 A 
ATOM      3  C2  UNL d   1       3.176   0.010  -1.277  0.00  0.00    -0.001 A 
ATOM      4  C3  UNL d   1       3.890   1.074  -1.832  0.00  0.00     0.003 A 
ATOM      5  C4  UNL d   1       5.077   0.836  -2.522  0.00  0.00    -0.005 A 
ATOM      6  C5  UNL d   1       5.551  -0.467  -2.659  0.00  0.00     0.003 A 
ATOM      7  C6  UNL d   1       4.838  -1.532  -2.105  0.00  0.00    -0.001 A 
ENDROOT
TORSDOF 0
ENDMDL
