MODEL 1
REMARK minimizedAffinity 4.34188557
REMARK minimizedRMSD -1
REMARK  0 active torsions:
REMARK  status: ('A' for Active; 'I' for Inactive)
ROOT
ATOM      1  C   UNL d   1      -2.586   0.822   2.639  0.00  0.00     0.078 C 
ATOM      2  C1  UNL d   1      -3.758   1.611   2.136  0.00  0.00    -0.077 A 
ATOM      3  C2  UNL d   1      -3.721   2.239   0.885  0.00  0.00    -0.001 A 
ATOM      4  C3  UNL d   1      -4.815   2.978   0.434  0.00  0.00     0.003 A 
ATOM      5  C4  UNL d   1      -5.954   3.097   1.227  0.00  0.00    -0.005 A 
ATOM      6  C5  UNL d   1      -6.000   2.477   2.474  0.00  0.00     0.003 A 
ATOM      7  C6  UNL d   1      -4.906   1.738   2.927  0.00  0.00    -0.001 A 
ENDROOT
TORSDOF 0
ENDMDL
