MODEL 1
REMARK minimizedAffinity 1.28305793
REMARK minimizedRMSD -1
REMARK  0 active torsions:
REMARK  status: ('A' for Active; 'I' for Inactive)
ROOT
ATOM      1  C   UNL d   1      -0.349   5.850  -1.971  0.00  0.00     0.078 C 
ATOM      2  C1  UNL d   1      -1.126   4.723  -2.586  0.00  0.00    -0.077 A 
ATOM      3  C2  UNL d   1      -2.520   4.665  -2.475  0.00  0.00    -0.001 A 
ATOM      4  C3  UNL d   1      -3.229   3.605  -3.044  0.00  0.00     0.003 A 
ATOM      5  C4  UNL d   1      -2.552   2.596  -3.726  0.00  0.00    -0.005 A 
ATOM      6  C5  UNL d   1      -1.164   2.645  -3.839  0.00  0.00     0.003 A 
ATOM      7  C6  UNL d   1      -0.454   3.703  -3.271  0.00  0.00    -0.001 A 
ENDROOT
TORSDOF 0
ENDMDL
