MODEL 1
REMARK minimizedAffinity 4.18603277
REMARK minimizedRMSD -1
REMARK  0 active torsions:
REMARK  status: ('A' for Active; 'I' for Inactive)
ROOT
ATOM      1  C   UNL d   1       0.107   4.378  -2.856  0.00  0.00     0.078 C 
ATOM      2  C1  UNL d   1      -0.715   4.944  -1.738  0.00  0.00    -0.077 A 
ATOM      3  C2  UNL d   1      -0.171   5.122  -0.460  0.00  0.00    -0.001 A 
ATOM      4  C3  UNL d   1      -0.951   5.640   0.574  0.00  0.00     0.003 A 
ATOM      5  C4  UNL d   1      -2.281   5.985   0.342  0.00  0.00    -0.005 A 
ATOM      6  C5  UNL d   1      -2.833   5.810  -0.926  0.00  0.00     0.003 A 
ATOM      7  C6  UNL d   1      -2.054   5.291  -1.961  0.00  0.00    -0.001 A 
ENDROOT
TORSDOF 0
ENDMDL
