MODEL 1
REMARK minimizedAffinity 6.02115154
REMARK minimizedRMSD -1
REMARK  0 active torsions:
REMARK  status: ('A' for Active; 'I' for Inactive)
ROOT
ATOM      1  C   UNL d   1      -3.783  -1.787   1.521  0.00  0.00     0.078 C 
ATOM      2  C1  UNL d   1      -3.787  -3.252   1.203  0.00  0.00    -0.077 A 
ATOM      3  C2  UNL d   1      -4.461  -4.166   2.022  0.00  0.00    -0.001 A 
ATOM      4  C3  UNL d   1      -4.448  -5.529   1.719  0.00  0.00     0.003 A 
ATOM      5  C4  UNL d   1      -3.761  -5.990   0.598  0.00  0.00    -0.005 A 
ATOM      6  C5  UNL d   1      -3.085  -5.088  -0.222  0.00  0.00     0.003 A 
ATOM      7  C6  UNL d   1      -3.097  -3.725   0.079  0.00  0.00    -0.001 A 
ENDROOT
TORSDOF 0
ENDMDL
