MODEL 1
REMARK minimizedAffinity 3.42874384
REMARK minimizedRMSD -1
REMARK  0 active torsions:
REMARK  status: ('A' for Active; 'I' for Inactive)
ROOT
ATOM      1  C   UNL d   1      -2.762   2.076   1.514  0.00  0.00     0.078 C 
ATOM      2  C1  UNL d   1      -2.179   3.446   1.341  0.00  0.00    -0.077 A 
ATOM      3  C2  UNL d   1      -2.893   4.588   1.726  0.00  0.00    -0.001 A 
ATOM      4  C3  UNL d   1      -2.341   5.858   1.550  0.00  0.00     0.003 A 
ATOM      5  C4  UNL d   1      -1.075   5.999   0.986  0.00  0.00    -0.005 A 
ATOM      6  C5  UNL d   1      -0.358   4.869   0.597  0.00  0.00     0.003 A 
ATOM      7  C6  UNL d   1      -0.908   3.598   0.773  0.00  0.00    -0.001 A 
ENDROOT
TORSDOF 0
ENDMDL
