MODEL 1
REMARK minimizedAffinity -0.117547035
REMARK minimizedRMSD -1
REMARK  0 active torsions:
REMARK  status: ('A' for Active; 'I' for Inactive)
ROOT
ATOM      1  C   UNL d   1      -1.125   5.544  -2.556  0.00  0.00     0.078 C 
ATOM      2  C1  UNL d   1      -1.422   5.693  -1.094  0.00  0.00    -0.077 A 
ATOM      3  C2  UNL d   1      -2.737   5.853  -0.637  0.00  0.00    -0.001 A 
ATOM      4  C3  UNL d   1      -2.997   6.000   0.726  0.00  0.00     0.003 A 
ATOM      5  C4  UNL d   1      -1.949   5.989   1.644  0.00  0.00    -0.005 A 
ATOM      6  C5  UNL d   1      -0.638   5.831   1.199  0.00  0.00     0.003 A 
ATOM      7  C6  UNL d   1      -0.375   5.685  -0.164  0.00  0.00    -0.001 A 
ENDROOT
TORSDOF 0
ENDMDL
