MODEL 1
REMARK minimizedAffinity -3.84035158
REMARK minimizedRMSD -1
REMARK  0 active torsions:
REMARK  status: ('A' for Active; 'I' for Inactive)
ROOT
ATOM      1  C   UNL d   1      -3.764   2.987  -0.004  0.00  0.00     0.078 C 
ATOM      2  C1  UNL d   1      -2.707   4.007   0.296  0.00  0.00    -0.077 A 
ATOM      3  C2  UNL d   1      -1.441   3.930  -0.296  0.00  0.00    -0.001 A 
ATOM      4  C3  UNL d   1      -0.463   4.881   0.000  0.00  0.00     0.003 A 
ATOM      5  C4  UNL d   1      -0.741   5.916   0.891  0.00  0.00    -0.005 A 
ATOM      6  C5  UNL d   1      -1.998   6.000   1.487  0.00  0.00     0.003 A 
ATOM      7  C6  UNL d   1      -2.977   5.050   1.192  0.00  0.00    -0.001 A 
ENDROOT
TORSDOF 0
ENDMDL
