MODEL 1
REMARK minimizedAffinity 3.17357206
REMARK minimizedRMSD -1
REMARK  0 active torsions:
REMARK  status: ('A' for Active; 'I' for Inactive)
ROOT
ATOM      1  C   UNL d   1      -0.240   4.680  -1.110  0.00  0.00     0.078 C 
ATOM      2  C1  UNL d   1      -0.218   3.628  -2.177  0.00  0.00    -0.077 A 
ATOM      3  C2  UNL d   1       0.946   3.366  -2.909  0.00  0.00    -0.001 A 
ATOM      4  C3  UNL d   1       0.949   2.390  -3.907  0.00  0.00     0.003 A 
ATOM      5  C4  UNL d   1      -0.210   1.668  -4.182  0.00  0.00    -0.005 A 
ATOM      6  C5  UNL d   1      -1.375   1.922  -3.461  0.00  0.00     0.003 A 
ATOM      7  C6  UNL d   1      -1.379   2.898  -2.463  0.00  0.00    -0.001 A 
ENDROOT
TORSDOF 0
ENDMDL
