MODEL 1
REMARK minimizedAffinity 7.21387482
REMARK minimizedRMSD -1
REMARK  0 active torsions:
REMARK  status: ('A' for Active; 'I' for Inactive)
ROOT
ATOM      1  C   UNL d   1       2.223   3.425  -4.277  0.00  0.00     0.078 C 
ATOM      2  C1  UNL d   1       0.846   2.961  -3.907  0.00  0.00    -0.077 A 
ATOM      3  C2  UNL d   1       0.275   1.839  -4.521  0.00  0.00    -0.001 A 
ATOM      4  C3  UNL d   1      -1.012   1.424  -4.173  0.00  0.00     0.003 A 
ATOM      5  C4  UNL d   1      -1.738   2.125  -3.213  0.00  0.00    -0.005 A 
ATOM      6  C5  UNL d   1      -1.178   3.243  -2.599  0.00  0.00     0.003 A 
ATOM      7  C6  UNL d   1       0.108   3.660  -2.945  0.00  0.00    -0.001 A 
ENDROOT
TORSDOF 0
ENDMDL
