MODEL 1
REMARK minimizedAffinity 6.92284012
REMARK minimizedRMSD -1
REMARK  0 active torsions:
REMARK  status: ('A' for Active; 'I' for Inactive)
ROOT
ATOM      1  C   UNL d   1      -3.957  -2.291   1.730  0.00  0.00     0.078 C 
ATOM      2  C1  UNL d   1      -4.182  -3.580   0.998  0.00  0.00    -0.077 A 
ATOM      3  C2  UNL d   1      -4.201  -3.620  -0.402  0.00  0.00    -0.001 A 
ATOM      4  C3  UNL d   1      -4.422  -4.825  -1.071  0.00  0.00     0.003 A 
ATOM      5  C4  UNL d   1      -4.627  -5.998  -0.348  0.00  0.00    -0.005 A 
ATOM      6  C5  UNL d   1      -4.612  -5.968   1.045  0.00  0.00     0.003 A 
ATOM      7  C6  UNL d   1      -4.392  -4.764   1.715  0.00  0.00    -0.001 A 
ENDROOT
TORSDOF 0
ENDMDL
