MODEL 1
REMARK minimizedAffinity -0.372448742
REMARK minimizedRMSD -1
REMARK  0 active torsions:
REMARK  status: ('A' for Active; 'I' for Inactive)
ROOT
ATOM      1  C   UNL d   1       6.000  -0.051  -3.014  0.00  0.00     0.078 C 
ATOM      2  C1  UNL d   1       4.765  -0.250  -2.188  0.00  0.00    -0.077 A 
ATOM      3  C2  UNL d   1       3.857   0.797  -1.984  0.00  0.00    -0.001 A 
ATOM      4  C3  UNL d   1       2.716   0.600  -1.204  0.00  0.00     0.003 A 
ATOM      5  C4  UNL d   1       2.473  -0.642  -0.622  0.00  0.00    -0.005 A 
ATOM      6  C5  UNL d   1       3.371  -1.689  -0.817  0.00  0.00     0.003 A 
ATOM      7  C6  UNL d   1       4.513  -1.494  -1.596  0.00  0.00    -0.001 A 
ENDROOT
TORSDOF 0
ENDMDL
