MODEL 1
REMARK minimizedAffinity 1.24948549
REMARK minimizedRMSD -1
REMARK  0 active torsions:
REMARK  status: ('A' for Active; 'I' for Inactive)
ROOT
ATOM      1  C   UNL d   1       5.921  -0.469  -3.007  0.00  0.00     0.078 C 
ATOM      2  C1  UNL d   1       4.693  -1.060  -2.380  0.00  0.00    -0.077 A 
ATOM      3  C2  UNL d   1       3.998  -2.105  -3.000  0.00  0.00    -0.001 A 
ATOM      4  C3  UNL d   1       2.851  -2.638  -2.409  0.00  0.00     0.003 A 
ATOM      5  C4  UNL d   1       2.389  -2.131  -1.196  0.00  0.00    -0.005 A 
ATOM      6  C5  UNL d   1       3.072  -1.089  -0.573  0.00  0.00     0.003 A 
ATOM      7  C6  UNL d   1       4.219  -0.555  -1.163  0.00  0.00    -0.001 A 
ENDROOT
TORSDOF 0
ENDMDL
