MODEL 1
REMARK minimizedAffinity 1.97911942
REMARK minimizedRMSD -1
REMARK  0 active torsions:
REMARK  status: ('A' for Active; 'I' for Inactive)
ROOT
ATOM      1  C   UNL d   1       2.605   0.684   2.227  0.00  0.00     0.078 C 
ATOM      2  C1  UNL d   1       2.697  -0.522   1.339  0.00  0.00    -0.077 A 
ATOM      3  C2  UNL d   1       3.672  -0.607   0.337  0.00  0.00    -0.001 A 
ATOM      4  C3  UNL d   1       3.740  -1.730  -0.488  0.00  0.00     0.003 A 
ATOM      5  C4  UNL d   1       2.836  -2.777  -0.321  0.00  0.00    -0.005 A 
ATOM      6  C5  UNL d   1       1.861  -2.701   0.672  0.00  0.00     0.003 A 
ATOM      7  C6  UNL d   1       1.791  -1.578   1.498  0.00  0.00    -0.001 A 
ENDROOT
TORSDOF 0
ENDMDL
