MODEL 1
REMARK minimizedAffinity 5.42358065
REMARK minimizedRMSD -1
REMARK  0 active torsions:
REMARK  status: ('A' for Active; 'I' for Inactive)
ROOT
ATOM      1  C   UNL d   1      -0.903   4.914  -1.795  0.00  0.00     0.078 C 
ATOM      2  C1  UNL d   1      -0.640   3.624  -2.513  0.00  0.00    -0.077 A 
ATOM      3  C2  UNL d   1       0.640   3.312  -2.989  0.00  0.00    -0.001 A 
ATOM      4  C3  UNL d   1       0.869   2.112  -3.664  0.00  0.00     0.003 A 
ATOM      5  C4  UNL d   1      -0.178   1.215  -3.871  0.00  0.00    -0.005 A 
ATOM      6  C5  UNL d   1      -1.455   1.518  -3.403  0.00  0.00     0.003 A 
ATOM      7  C6  UNL d   1      -1.685   2.717  -2.727  0.00  0.00    -0.001 A 
ENDROOT
TORSDOF 0
ENDMDL
