MODEL 1
REMARK minimizedAffinity 4.20173645
REMARK minimizedRMSD -1
REMARK  0 active torsions:
REMARK  status: ('A' for Active; 'I' for Inactive)
ROOT
ATOM      1  C   UNL d   1       3.171   1.312  -0.343  0.00  0.00     0.078 C 
ATOM      2  C1  UNL d   1       3.746   0.201  -1.170  0.00  0.00    -0.077 A 
ATOM      3  C2  UNL d   1       3.175  -1.077  -1.157  0.00  0.00    -0.001 A 
ATOM      4  C3  UNL d   1       3.727  -2.104  -1.925  0.00  0.00     0.003 A 
ATOM      5  C4  UNL d   1       4.853  -1.864  -2.709  0.00  0.00    -0.005 A 
ATOM      6  C5  UNL d   1       5.430  -0.596  -2.726  0.00  0.00     0.003 A 
ATOM      7  C6  UNL d   1       4.879   0.433  -1.960  0.00  0.00    -0.001 A 
ENDROOT
TORSDOF 0
ENDMDL
