MODEL 1
REMARK minimizedAffinity -0.859220147
REMARK minimizedRMSD -1
REMARK  1 active torsions:
REMARK  status: ('A' for Active; 'I' for Inactive)
REMARK    1  A    between atoms: C1_2  and  C2_3 
ROOT
ATOM      1  C2  UNL d   1      -0.621  -5.959  -3.547  0.00  0.00    -0.077 A 
ATOM      2  C3  UNL d   1      -1.333  -5.949  -4.755  0.00  0.00     0.002 A 
ATOM      3  C4  UNL d   1      -0.655  -5.959  -5.975  0.00  0.00     0.002 A 
ATOM      4  C5  UNL d   1       0.738  -5.983  -6.000  0.00  0.00    -0.004 A 
ATOM      5  C6  UNL d   1       1.455  -5.991  -4.804  0.00  0.00     0.002 A 
ATOM      6  C7  UNL d   1       0.779  -5.980  -3.583  0.00  0.00     0.002 A 
ENDROOT
BRANCH   1   7
ATOM      7  C1  UNL d   1      -1.352  -5.998  -2.231  0.00  0.00     0.055 C 
ATOM      8  C   UNL d   1      -2.814  -5.610  -2.397  0.00  0.00     0.019 C 
ENDBRANCH   1   7
TORSDOF 1
ENDMDL
