MODEL 1
REMARK minimizedAffinity 0.998527229
REMARK minimizedRMSD -1
REMARK  1 active torsions:
REMARK  status: ('A' for Active; 'I' for Inactive)
REMARK    1  A    between atoms: C1_2  and  C2_3 
ROOT
ATOM      1  C2  UNL d   1      -0.244  -5.869  -4.416  0.00  0.00    -0.077 A 
ATOM      2  C3  UNL d   1      -1.611  -5.597  -4.264  0.00  0.00     0.002 A 
ATOM      3  C4  UNL d   1      -2.166  -5.458  -2.990  0.00  0.00     0.002 A 
ATOM      4  C5  UNL d   1      -1.361  -5.586  -1.860  0.00  0.00    -0.004 A 
ATOM      5  C6  UNL d   1      -0.001  -5.859  -2.001  0.00  0.00     0.002 A 
ATOM      6  C7  UNL d   1       0.555  -5.999  -3.274  0.00  0.00     0.002 A 
ENDROOT
BRANCH   1   7
ATOM      7  C1  UNL d   1       0.366  -5.970  -5.790  0.00  0.00     0.055 C 
ATOM      8  C   UNL d   1       1.886  -5.983  -5.721  0.00  0.00     0.019 C 
ENDBRANCH   1   7
TORSDOF 1
ENDMDL
