MODEL 1
REMARK minimizedAffinity -0.351721823
REMARK minimizedRMSD -1
REMARK  1 active torsions:
REMARK  status: ('A' for Active; 'I' for Inactive)
REMARK    1  A    between atoms: C1_2  and  C2_3 
ROOT
ATOM      1  C2  UNL d   1      -0.667  -5.991  -4.176  0.00  0.00    -0.077 A 
ATOM      2  C3  UNL d   1      -1.781  -5.993  -5.028  0.00  0.00     0.002 A 
ATOM      3  C4  UNL d   1      -3.073  -6.000  -4.499  0.00  0.00     0.002 A 
ATOM      4  C5  UNL d   1      -3.264  -6.000  -3.119  0.00  0.00    -0.004 A 
ATOM      5  C6  UNL d   1      -2.163  -6.000  -2.264  0.00  0.00     0.002 A 
ATOM      6  C7  UNL d   1      -0.870  -5.994  -2.790  0.00  0.00     0.002 A 
ENDROOT
BRANCH   1   7
ATOM      7  C1  UNL d   1       0.727  -5.934  -4.743  0.00  0.00     0.055 C 
ATOM      8  C   UNL d   1       1.073  -4.532  -5.224  0.00  0.00     0.019 C 
ENDBRANCH   1   7
TORSDOF 1
ENDMDL
