MODEL 1
REMARK minimizedAffinity 0.00903463271
REMARK minimizedRMSD -1
REMARK  1 active torsions:
REMARK  status: ('A' for Active; 'I' for Inactive)
REMARK    1  A    between atoms: C1_2  and  C2_3 
ROOT
ATOM      1  C2  UNL d   1      -0.967  -5.998  -3.329  0.00  0.00    -0.077 A 
ATOM      2  C3  UNL d   1       0.400  -5.957  -3.638  0.00  0.00     0.002 A 
ATOM      3  C4  UNL d   1       0.822  -5.919  -4.968  0.00  0.00     0.002 A 
ATOM      4  C5  UNL d   1      -0.116  -5.917  -5.999  0.00  0.00    -0.004 A 
ATOM      5  C6  UNL d   1      -1.477  -5.960  -5.702  0.00  0.00     0.002 A 
ATOM      6  C7  UNL d   1      -1.901  -5.999  -4.373  0.00  0.00     0.002 A 
ENDROOT
BRANCH   1   7
ATOM      7  C1  UNL d   1      -1.426  -5.989  -1.894  0.00  0.00     0.055 C 
ATOM      8  C   UNL d   1      -2.944  -5.972  -1.798  0.00  0.00     0.019 C 
ENDBRANCH   1   7
TORSDOF 1
ENDMDL
