MODEL 1
REMARK minimizedAffinity -2.03252554
REMARK minimizedRMSD -1
REMARK  1 active torsions:
REMARK  status: ('A' for Active; 'I' for Inactive)
REMARK    1  A    between atoms: C1_2  and  C2_3 
ROOT
ATOM      1  C2  UNL d   1      -1.306  -5.995  -3.581  0.00  0.00    -0.077 A 
ATOM      2  C3  UNL d   1       0.076  -5.997  -3.348  0.00  0.00     0.002 A 
ATOM      3  C4  UNL d   1       0.973  -5.995  -4.418  0.00  0.00     0.002 A 
ATOM      4  C5  UNL d   1       0.498  -5.987  -5.727  0.00  0.00    -0.004 A 
ATOM      5  C6  UNL d   1      -0.875  -5.987  -5.970  0.00  0.00     0.002 A 
ATOM      6  C7  UNL d   1      -1.773  -5.990  -4.901  0.00  0.00     0.002 A 
ENDROOT
BRANCH   1   7
ATOM      7  C1  UNL d   1      -2.275  -5.947  -2.428  0.00  0.00     0.055 C 
ATOM      8  C   UNL d   1      -3.716  -5.994  -2.914  0.00  0.00     0.019 C 
ENDBRANCH   1   7
TORSDOF 1
ENDMDL
