MODEL 1
REMARK minimizedAffinity -1.59967506
REMARK minimizedRMSD -1
REMARK  1 active torsions:
REMARK  status: ('A' for Active; 'I' for Inactive)
REMARK    1  A    between atoms: C1_2  and  C2_3 
ROOT
ATOM      1  C2  UNL d   1      -0.751  -5.930  -4.657  0.00  0.00    -0.077 A 
ATOM      2  C3  UNL d   1       0.005  -5.937  -3.476  0.00  0.00     0.002 A 
ATOM      3  C4  UNL d   1      -0.629  -5.970  -2.232  0.00  0.00     0.002 A 
ATOM      4  C5  UNL d   1      -2.020  -6.000  -2.158  0.00  0.00    -0.004 A 
ATOM      5  C6  UNL d   1      -2.780  -5.990  -3.326  0.00  0.00     0.002 A 
ATOM      6  C7  UNL d   1      -2.148  -5.956  -4.570  0.00  0.00     0.002 A 
ENDROOT
BRANCH   1   7
ATOM      7  C1  UNL d   1      -0.068  -5.944  -6.000  0.00  0.00     0.055 C 
ATOM      8  C   UNL d   1       1.446  -5.970  -5.851  0.00  0.00     0.019 C 
ENDBRANCH   1   7
TORSDOF 1
ENDMDL
