MODEL 1
REMARK minimizedAffinity -3.15283012
REMARK minimizedRMSD -1
REMARK  1 active torsions:
REMARK  status: ('A' for Active; 'I' for Inactive)
REMARK    1  A    between atoms: C1_2  and  C2_3 
ROOT
ATOM      1  C2  UNL d   1      -0.636  -5.999  -4.553  0.00  0.00    -0.077 A 
ATOM      2  C3  UNL d   1      -1.946  -5.999  -5.053  0.00  0.00     0.002 A 
ATOM      3  C4  UNL d   1      -3.035  -5.999  -4.179  0.00  0.00     0.002 A 
ATOM      4  C5  UNL d   1      -2.826  -5.994  -2.802  0.00  0.00    -0.004 A 
ATOM      5  C6  UNL d   1      -1.527  -5.997  -2.295  0.00  0.00     0.002 A 
ATOM      6  C7  UNL d   1      -0.437  -5.998  -3.166  0.00  0.00     0.002 A 
ENDROOT
BRANCH   1   7
ATOM      7  C1  UNL d   1       0.540  -5.950  -5.493  0.00  0.00     0.055 C 
ATOM      8  C   UNL d   1       1.857  -5.941  -4.731  0.00  0.00     0.019 C 
ENDBRANCH   1   7
TORSDOF 1
ENDMDL
