MODEL 1
REMARK minimizedAffinity -1.74602032
REMARK minimizedRMSD -1
REMARK  1 active torsions:
REMARK  status: ('A' for Active; 'I' for Inactive)
REMARK    1  A    between atoms: C1_2  and  C2_3 
ROOT
ATOM      1  C2  UNL d   1      -1.970  -5.890  -4.327  0.00  0.00    -0.077 A 
ATOM      2  C3  UNL d   1      -3.328  -5.894  -3.981  0.00  0.00     0.002 A 
ATOM      3  C4  UNL d   1      -3.716  -5.950  -2.641  0.00  0.00     0.002 A 
ATOM      4  C5  UNL d   1      -2.751  -5.998  -1.637  0.00  0.00    -0.004 A 
ATOM      5  C6  UNL d   1      -1.398  -5.997  -1.971  0.00  0.00     0.002 A 
ATOM      6  C7  UNL d   1      -1.009  -5.942  -3.310  0.00  0.00     0.002 A 
ENDROOT
BRANCH   1   7
ATOM      7  C1  UNL d   1      -1.550  -5.779  -5.769  0.00  0.00     0.055 C 
ATOM      8  C   UNL d   1      -0.049  -5.977  -5.925  0.00  0.00     0.019 C 
ENDBRANCH   1   7
TORSDOF 1
ENDMDL
