MODEL 1
REMARK minimizedAffinity -2.58997679
REMARK minimizedRMSD -1
REMARK  1 active torsions:
REMARK  status: ('A' for Active; 'I' for Inactive)
REMARK    1  A    between atoms: C1_2  and  C2_3 
ROOT
ATOM      1  C2  UNL d   1      -1.872  -5.963  -3.360  0.00  0.00    -0.077 A 
ATOM      2  C3  UNL d   1      -2.312  -5.988  -4.691  0.00  0.00     0.002 A 
ATOM      3  C4  UNL d   1      -1.389  -5.999  -5.739  0.00  0.00     0.002 A 
ATOM      4  C5  UNL d   1      -0.023  -5.991  -5.467  0.00  0.00    -0.004 A 
ATOM      5  C6  UNL d   1       0.424  -5.964  -4.147  0.00  0.00     0.002 A 
ATOM      6  C7  UNL d   1      -0.496  -5.951  -3.098  0.00  0.00     0.002 A 
ENDROOT
BRANCH   1   7
ATOM      7  C1  UNL d   1      -2.865  -6.000  -2.227  0.00  0.00     0.055 C 
ATOM      8  C   UNL d   1      -4.296  -5.989  -2.745  0.00  0.00     0.019 C 
ENDBRANCH   1   7
TORSDOF 1
ENDMDL
