MODEL 1
REMARK minimizedAffinity 0.537539303
REMARK minimizedRMSD -1
REMARK  1 active torsions:
REMARK  status: ('A' for Active; 'I' for Inactive)
REMARK    1  A    between atoms: C1_2  and  C2_3 
ROOT
ATOM      1  C2  UNL d   1      -3.804  -5.068   1.208  0.00  0.00    -0.077 A 
ATOM      2  C3  UNL d   1      -5.060  -5.538   1.616  0.00  0.00     0.002 A 
ATOM      3  C4  UNL d   1      -5.982  -6.000   0.675  0.00  0.00     0.002 A 
ATOM      4  C5  UNL d   1      -5.656  -6.000  -0.680  0.00  0.00    -0.004 A 
ATOM      5  C6  UNL d   1      -4.411  -5.532  -1.096  0.00  0.00     0.002 A 
ATOM      6  C7  UNL d   1      -3.488  -5.069  -0.157  0.00  0.00     0.002 A 
ENDROOT
BRANCH   1   7
ATOM      7  C1  UNL d   1      -2.790  -4.615   2.225  0.00  0.00     0.055 C 
ATOM      8  C   UNL d   1      -2.064  -3.360   1.763  0.00  0.00     0.019 C 
ENDBRANCH   1   7
TORSDOF 1
ENDMDL
