MODEL 1
REMARK minimizedAffinity -5.30479717
REMARK minimizedRMSD -1
REMARK  1 active torsions:
REMARK  status: ('A' for Active; 'I' for Inactive)
REMARK    1  A    between atoms: C1_2  and  C2_3 
ROOT
ATOM      1  C2  UNL d   1      -0.237   0.990  -0.347  0.00  0.00    -0.081 A 
ATOM      2  C3  UNL d   1      -0.017   2.307  -0.768  0.00  0.00     0.006 A 
ATOM      3  C4  UNL d   1      -0.910   3.322  -0.416  0.00  0.00     0.002 A 
ATOM      4  C5  UNL d   1      -2.032   3.039   0.370  0.00  0.00    -0.080 A 
ATOM      5  C6  UNL d   1      -2.982   4.125   0.780  0.00  0.00     0.076 C 
ATOM      6  C7  UNL d   1      -2.262   1.720   0.776  0.00  0.00     0.002 A 
ATOM      7  C8  UNL d   1      -1.370   0.705   0.424  0.00  0.00     0.006 A 
ENDROOT
BRANCH   1   8
ATOM      8  C1  UNL d   1       0.758  -0.095  -0.671  0.00  0.00     0.054 C 
ATOM      9  C   UNL d   1       0.102  -1.237  -1.434  0.00  0.00     0.018 C 
ENDBRANCH   1   8
TORSDOF 1
ENDMDL
