MODEL 1
REMARK minimizedAffinity -4.91774511
REMARK minimizedRMSD -1
REMARK  1 active torsions:
REMARK  status: ('A' for Active; 'I' for Inactive)
REMARK    1  A    between atoms: C1_2  and  C2_3 
ROOT
ATOM      1  C2  UNL d   1      -0.754   2.370   0.419  0.00  0.00    -0.081 A 
ATOM      2  C3  UNL d   1      -1.590   2.185   1.527  0.00  0.00     0.006 A 
ATOM      3  C4  UNL d   1      -1.728   0.923   2.108  0.00  0.00     0.002 A 
ATOM      4  C5  UNL d   1      -1.026  -0.174   1.597  0.00  0.00    -0.080 A 
ATOM      5  C6  UNL d   1      -1.141  -1.529   2.230  0.00  0.00     0.076 C 
ATOM      6  C7  UNL d   1      -0.204   0.006   0.479  0.00  0.00     0.002 A 
ATOM      7  C8  UNL d   1      -0.066   1.268  -0.103  0.00  0.00     0.006 A 
ENDROOT
BRANCH   1   8
ATOM      8  C1  UNL d   1      -0.553   3.743  -0.170  0.00  0.00     0.054 C 
ATOM      9  C   UNL d   1       0.413   3.705  -1.345  0.00  0.00     0.018 C 
ENDBRANCH   1   8
TORSDOF 1
ENDMDL
