MODEL 1
REMARK minimizedAffinity -2.36279678
REMARK minimizedRMSD -1
REMARK  1 active torsions:
REMARK  status: ('A' for Active; 'I' for Inactive)
REMARK    1  A    between atoms: C1_2  and  C2_3 
ROOT
ATOM      1  C2  UNL d   1       0.530  -1.114  -0.414  0.00  0.00    -0.081 A 
ATOM      2  C3  UNL d   1       0.080  -1.398   0.881  0.00  0.00     0.006 A 
ATOM      3  C4  UNL d   1      -0.474  -0.391   1.675  0.00  0.00     0.002 A 
ATOM      4  C5  UNL d   1      -0.594   0.914   1.186  0.00  0.00    -0.080 A 
ATOM      5  C6  UNL d   1      -1.214   1.997   2.017  0.00  0.00     0.076 C 
ATOM      6  C7  UNL d   1      -0.128   1.202  -0.101  0.00  0.00     0.002 A 
ATOM      7  C8  UNL d   1       0.427   0.196  -0.896  0.00  0.00     0.006 A 
ENDROOT
BRANCH   1   8
ATOM      8  C1  UNL d   1       1.068  -2.211  -1.296  0.00  0.00     0.054 C 
ATOM      9  C   UNL d   1       0.250  -2.346  -2.572  0.00  0.00     0.018 C 
ENDBRANCH   1   8
TORSDOF 1
ENDMDL
