MODEL 1
REMARK minimizedAffinity -1.63284945
REMARK minimizedRMSD -1
REMARK  1 active torsions:
REMARK  status: ('A' for Active; 'I' for Inactive)
REMARK    1  A    between atoms: C1_2  and  C2_3 
ROOT
ATOM      1  C2  UNL d   1       0.722  -0.980  -0.505  0.00  0.00    -0.081 A 
ATOM      2  C3  UNL d   1       0.461  -1.236   0.847  0.00  0.00     0.006 A 
ATOM      3  C4  UNL d   1      -0.125  -0.256   1.652  0.00  0.00     0.002 A 
ATOM      4  C5  UNL d   1      -0.465   0.991   1.118  0.00  0.00    -0.080 A 
ATOM      5  C6  UNL d   1      -1.122   2.041   1.964  0.00  0.00     0.076 C 
ATOM      6  C7  UNL d   1      -0.188   1.253  -0.228  0.00  0.00     0.002 A 
ATOM      7  C8  UNL d   1       0.398   0.274  -1.033  0.00  0.00     0.006 A 
ENDROOT
BRANCH   1   8
ATOM      8  C1  UNL d   1       1.294  -2.057  -1.391  0.00  0.00     0.054 C 
ATOM      9  C   UNL d   1       0.194  -2.826  -2.108  0.00  0.00     0.018 C 
ENDBRANCH   1   8
TORSDOF 1
ENDMDL
