MODEL 1
REMARK minimizedAffinity -5.54552221
REMARK minimizedRMSD -1
REMARK  1 active torsions:
REMARK  status: ('A' for Active; 'I' for Inactive)
REMARK    1  A    between atoms: C1_2  and  C2_3 
ROOT
ATOM      1  C2  UNL d   1       0.120   0.878  -0.502  0.00  0.00    -0.081 A 
ATOM      2  C3  UNL d   1      -0.718   0.417   0.520  0.00  0.00     0.006 A 
ATOM      3  C4  UNL d   1      -1.748   1.224   1.010  0.00  0.00     0.002 A 
ATOM      4  C5  UNL d   1      -1.962   2.501   0.482  0.00  0.00    -0.080 A 
ATOM      5  C6  UNL d   1      -3.082   3.365   0.978  0.00  0.00     0.076 C 
ATOM      6  C7  UNL d   1      -1.113   2.969  -0.528  0.00  0.00     0.002 A 
ATOM      7  C8  UNL d   1      -0.083   2.163  -1.018  0.00  0.00     0.006 A 
ENDROOT
BRANCH   1   8
ATOM      8  C1  UNL d   1       1.190  -0.014  -1.077  0.00  0.00     0.054 C 
ATOM      9  C   UNL d   1       0.586  -1.143  -1.900  0.00  0.00     0.018 C 
ENDBRANCH   1   8
TORSDOF 1
ENDMDL
