MODEL 1
REMARK minimizedAffinity -3.05759645
REMARK minimizedRMSD -1
REMARK  1 active torsions:
REMARK  status: ('A' for Active; 'I' for Inactive)
REMARK    1  A    between atoms: C1_2  and  C2_3 
ROOT
ATOM      1  C2  UNL d   1       0.707  -0.646  -0.854  0.00  0.00    -0.081 A 
ATOM      2  C3  UNL d   1       0.942   0.690  -1.200  0.00  0.00     0.006 A 
ATOM      3  C4  UNL d   1       0.414   1.726  -0.425  0.00  0.00     0.002 A 
ATOM      4  C5  UNL d   1      -0.349   1.442   0.713  0.00  0.00    -0.080 A 
ATOM      5  C6  UNL d   1      -0.896   2.544   1.571  0.00  0.00     0.076 C 
ATOM      6  C7  UNL d   1      -0.598   0.107   1.049  0.00  0.00     0.002 A 
ATOM      7  C8  UNL d   1      -0.072  -0.928   0.273  0.00  0.00     0.006 A 
ENDROOT
BRANCH   1   8
ATOM      8  C1  UNL d   1       1.329  -1.764  -1.651  0.00  0.00     0.054 C 
ATOM      9  C   UNL d   1       0.302  -2.442  -2.548  0.00  0.00     0.018 C 
ENDBRANCH   1   8
TORSDOF 1
ENDMDL
