MODEL 1
REMARK minimizedAffinity -3.1683023
REMARK minimizedRMSD -1
REMARK  1 active torsions:
REMARK  status: ('A' for Active; 'I' for Inactive)
REMARK    1  A    between atoms: C1_2  and  C2_3 
ROOT
ATOM      1  C2  UNL d   1      -0.550   2.799   1.605  0.00  0.00    -0.081 A 
ATOM      2  C3  UNL d   1      -0.369   1.460   1.971  0.00  0.00     0.006 A 
ATOM      3  C4  UNL d   1      -0.428   0.449   1.009  0.00  0.00     0.002 A 
ATOM      4  C5  UNL d   1      -0.660   0.760  -0.335  0.00  0.00    -0.080 A 
ATOM      5  C6  UNL d   1      -0.695  -0.313  -1.382  0.00  0.00     0.076 C 
ATOM      6  C7  UNL d   1      -0.857   2.096  -0.698  0.00  0.00     0.002 A 
ATOM      7  C8  UNL d   1      -0.799   3.108   0.263  0.00  0.00     0.006 A 
ENDROOT
BRANCH   1   8
ATOM      8  C1  UNL d   1      -0.423   3.898   2.629  0.00  0.00     0.054 C 
ATOM      9  C   UNL d   1       0.509   3.493   3.762  0.00  0.00     0.018 C 
ENDBRANCH   1   8
TORSDOF 1
ENDMDL
