MODEL 1
REMARK minimizedAffinity -6.21203852
REMARK minimizedRMSD -1
REMARK  1 active torsions:
REMARK  status: ('A' for Active; 'I' for Inactive)
REMARK    1  A    between atoms: C1_2  and  C2_3 
ROOT
ATOM      1  C2  UNL d   1      -0.503   2.157   0.373  0.00  0.00    -0.081 A 
ATOM      2  C3  UNL d   1      -1.046   2.085   1.662  0.00  0.00     0.006 A 
ATOM      3  C4  UNL d   1      -0.889   0.931   2.433  0.00  0.00     0.002 A 
ATOM      4  C5  UNL d   1      -0.180  -0.166   1.933  0.00  0.00    -0.080 A 
ATOM      5  C6  UNL d   1       0.022  -1.399   2.763  0.00  0.00     0.076 C 
ATOM      6  C7  UNL d   1       0.348  -0.101   0.639  0.00  0.00     0.002 A 
ATOM      7  C8  UNL d   1       0.191   1.052  -0.133  0.00  0.00     0.006 A 
ENDROOT
BRANCH   1   8
ATOM      8  C1  UNL d   1      -0.615   3.423  -0.436  0.00  0.00     0.054 C 
ATOM      9  C   UNL d   1       0.489   4.408  -0.079  0.00  0.00     0.018 C 
ENDBRANCH   1   8
TORSDOF 1
ENDMDL
