MODEL 1
REMARK minimizedAffinity -3.65265584
REMARK minimizedRMSD -1
REMARK  1 active torsions:
REMARK  status: ('A' for Active; 'I' for Inactive)
REMARK    1  A    between atoms: C1_2  and  C2_3 
ROOT
ATOM      1  C2  UNL d   1      -0.134   0.114   0.547  0.00  0.00    -0.073 A 
ATOM      2  C3  UNL d   1      -0.152   1.505   0.697  0.00  0.00    -0.002 A 
ATOM      3  C4  UNL d   1       1.041   2.212   0.855  0.00  0.00     0.004 A 
ATOM      4  C5  UNL d   1       2.262   1.538   0.857  0.00  0.00    -0.004 A 
ATOM      5  C6  UNL d   1       2.301   0.149   0.697  0.00  0.00    -0.075 A 
ATOM      6  C7  UNL d   1       3.606  -0.592   0.699  0.00  0.00     0.076 C 
ATOM      7  C8  UNL d   1       1.098  -0.554   0.542  0.00  0.00     0.001 A 
ENDROOT
BRANCH   1   8
ATOM      8  C1  UNL d   1      -1.419  -0.653   0.370  0.00  0.00     0.053 C 
ATOM      9  C   UNL d   1      -2.223  -0.151  -0.819  0.00  0.00     0.018 C 
ENDBRANCH   1   8
TORSDOF 1
ENDMDL
