MODEL 1
REMARK minimizedAffinity -3.68605542
REMARK minimizedRMSD -1
REMARK  1 active torsions:
REMARK  status: ('A' for Active; 'I' for Inactive)
REMARK    1  A    between atoms: C1_2  and  C2_3 
ROOT
ATOM      1  C2  UNL d   1      -0.129  -0.226  -0.447  0.00  0.00    -0.073 A 
ATOM      2  C3  UNL d   1      -0.291   1.160  -0.340  0.00  0.00    -0.002 A 
ATOM      3  C4  UNL d   1       0.691   1.940   0.272  0.00  0.00     0.004 A 
ATOM      4  C5  UNL d   1       1.847   1.344   0.777  0.00  0.00    -0.004 A 
ATOM      5  C6  UNL d   1       2.033  -0.038   0.670  0.00  0.00    -0.075 A 
ATOM      6  C7  UNL d   1       3.269  -0.695   1.210  0.00  0.00     0.076 C 
ATOM      7  C8  UNL d   1       1.040  -0.815   0.056  0.00  0.00     0.001 A 
ENDROOT
BRANCH   1   8
ATOM      8  C1  UNL d   1      -1.184  -1.071  -1.113  0.00  0.00     0.053 C 
ATOM      9  C   UNL d   1      -2.014  -0.271  -2.103  0.00  0.00     0.018 C 
ENDBRANCH   1   8
TORSDOF 1
ENDMDL
