MODEL 1
REMARK minimizedAffinity -5.30907249
REMARK minimizedRMSD -1
REMARK  1 active torsions:
REMARK  status: ('A' for Active; 'I' for Inactive)
REMARK    1  A    between atoms: C1_2  and  C2_3 
ROOT
ATOM      1  C2  UNL d   1      -1.333  -0.193  -0.572  0.00  0.00    -0.073 A 
ATOM      2  C3  UNL d   1      -2.503  -0.738  -0.033  0.00  0.00    -0.002 A 
ATOM      3  C4  UNL d   1      -3.700  -0.685  -0.749  0.00  0.00     0.004 A 
ATOM      4  C5  UNL d   1      -3.738  -0.094  -2.011  0.00  0.00    -0.004 A 
ATOM      5  C6  UNL d   1      -2.576   0.446  -2.572  0.00  0.00    -0.075 A 
ATOM      6  C7  UNL d   1      -2.600   1.087  -3.929  0.00  0.00     0.076 C 
ATOM      7  C8  UNL d   1      -1.378   0.391  -1.847  0.00  0.00     0.001 A 
ENDROOT
BRANCH   1   8
ATOM      8  C1  UNL d   1      -0.036  -0.253   0.194  0.00  0.00     0.053 C 
ATOM      9  C   UNL d   1       0.751   1.043   0.084  0.00  0.00     0.018 C 
ENDBRANCH   1   8
TORSDOF 1
ENDMDL
