MODEL 1
REMARK minimizedAffinity -5.55346441
REMARK minimizedRMSD -1
REMARK  1 active torsions:
REMARK  status: ('A' for Active; 'I' for Inactive)
REMARK    1  A    between atoms: C1_2  and  C2_3 
ROOT
ATOM      1  C2  UNL d   1      -1.054  -0.383  -0.239  0.00  0.00    -0.073 A 
ATOM      2  C3  UNL d   1      -1.456  -1.306   0.733  0.00  0.00    -0.002 A 
ATOM      3  C4  UNL d   1      -0.505  -1.978   1.502  0.00  0.00     0.004 A 
ATOM      4  C5  UNL d   1       0.854  -1.729   1.313  0.00  0.00    -0.004 A 
ATOM      5  C6  UNL d   1       1.275  -0.801   0.355  0.00  0.00    -0.075 A 
ATOM      6  C7  UNL d   1       2.733  -0.524   0.138  0.00  0.00     0.076 C 
ATOM      7  C8  UNL d   1       0.314  -0.133  -0.415  0.00  0.00     0.001 A 
ENDROOT
BRANCH   1   8
ATOM      8  C1  UNL d   1      -2.078   0.350  -1.067  0.00  0.00     0.053 C 
ATOM      9  C   UNL d   1      -2.415  -0.397  -2.348  0.00  0.00     0.018 C 
ENDBRANCH   1   8
TORSDOF 1
ENDMDL
