MODEL 1
REMARK minimizedAffinity 20.7658997
REMARK minimizedRMSD -1
REMARK  0 active torsions:
REMARK  status: ('A' for Active; 'I' for Inactive)
ROOT
ATOM      1  O1  BZF d   1      -1.034   0.108  -2.031  0.00  0.00    -0.204 OA
ATOM      2  C2  BZF d   1      -2.273  -0.388  -2.388  0.00  0.00     0.174 A 
ATOM      3  C3  BZF d   1      -2.188  -1.692  -2.723  0.00  0.00    -0.012 A 
ATOM      4  C3A BZF d   1      -0.826  -2.055  -2.477  0.00  0.00    -0.107 A 
ATOM      5  C4  BZF d   1      -0.128  -3.222  -2.603  0.00  0.00     0.055 A 
ATOM      6  C5  BZF d   1       1.207  -3.224  -2.349  0.00  0.00    -0.016 A 
ATOM      7  C6  BZF d   1       1.876  -2.078  -1.974  0.00  0.00     0.022 A 
ATOM      8  C7  BZF d   1       1.226  -0.898  -1.830  0.00  0.00     0.029 A 
ATOM      9  C7A BZF d   1      -0.129  -0.900  -2.054  0.00  0.00     0.058 A 
ENDROOT
TORSDOF 0
ENDMDL
