MODEL 1
REMARK minimizedAffinity 14.1061859
REMARK minimizedRMSD -1
REMARK  0 active torsions:
REMARK  status: ('A' for Active; 'I' for Inactive)
ROOT
ATOM      1  O1  BZF d   1       5.810   4.084   1.234  0.00  0.00    -0.204 OA
ATOM      2  C2  BZF d   1       5.552   3.817   2.564  0.00  0.00     0.174 A 
ATOM      3  C3  BZF d   1       4.615   2.855   2.686  0.00  0.00    -0.012 A 
ATOM      4  C3A BZF d   1       4.332   2.434   1.348  0.00  0.00    -0.107 A 
ATOM      5  C4  BZF d   1       3.496   1.494   0.817  0.00  0.00     0.055 A 
ATOM      6  C5  BZF d   1       3.401   1.381  -0.534  0.00  0.00    -0.016 A 
ATOM      7  C6  BZF d   1       4.123   2.195  -1.382  0.00  0.00     0.022 A 
ATOM      8  C7  BZF d   1       4.969   3.139  -0.902  0.00  0.00     0.029 A 
ATOM      9  C7A BZF d   1       5.092   3.232   0.463  0.00  0.00     0.058 A 
ENDROOT
TORSDOF 0
ENDMDL
