MODEL 1
REMARK minimizedAffinity 8.03419876
REMARK minimizedRMSD -1
REMARK  0 active torsions:
REMARK  status: ('A' for Active; 'I' for Inactive)
ROOT
ATOM      1  O1  BZF d   1       3.830   2.237  -2.009  0.00  0.00    -0.204 OA
ATOM      2  C2  BZF d   1       4.918   2.779  -1.350  0.00  0.00     0.174 A 
ATOM      3  C3  BZF d   1       4.930   2.401  -0.056  0.00  0.00    -0.012 A 
ATOM      4  C3A BZF d   1       3.830   1.497   0.083  0.00  0.00    -0.107 A 
ATOM      5  C4  BZF d   1       3.334   0.775   1.130  0.00  0.00     0.055 A 
ATOM      6  C5  BZF d   1       2.202   0.045   0.952  0.00  0.00    -0.016 A 
ATOM      7  C6  BZF d   1       1.538   0.017  -0.257  0.00  0.00     0.022 A 
ATOM      8  C7  BZF d   1       1.994   0.713  -1.326  0.00  0.00     0.029 A 
ATOM      9  C7A BZF d   1       3.156   1.426  -1.159  0.00  0.00     0.058 A 
ENDROOT
TORSDOF 0
ENDMDL
