MODEL 1
REMARK minimizedAffinity 17.8086452
REMARK minimizedRMSD -1
REMARK  0 active torsions:
REMARK  status: ('A' for Active; 'I' for Inactive)
ROOT
ATOM      1  O1  BZF d   1       2.222   0.543  -1.094  0.00  0.00    -0.204 OA
ATOM      2  C2  BZF d   1       2.964   1.702  -1.215  0.00  0.00     0.174 A 
ATOM      3  C3  BZF d   1       3.962   1.728  -0.309  0.00  0.00    -0.012 A 
ATOM      4  C3A BZF d   1       3.894   0.466   0.363  0.00  0.00    -0.107 A 
ATOM      5  C4  BZF d   1       4.631  -0.110   1.357  0.00  0.00     0.055 A 
ATOM      6  C5  BZF d   1       4.258  -1.324   1.838  0.00  0.00    -0.016 A 
ATOM      7  C6  BZF d   1       3.150  -1.988   1.353  0.00  0.00     0.022 A 
ATOM      8  C7  BZF d   1       2.390  -1.459   0.363  0.00  0.00     0.029 A 
ATOM      9  C7A BZF d   1       2.784  -0.247  -0.148  0.00  0.00     0.058 A 
ENDROOT
TORSDOF 0
ENDMDL
