MODEL 1
REMARK minimizedAffinity 9.534235
REMARK minimizedRMSD -1
REMARK  0 active torsions:
REMARK  status: ('A' for Active; 'I' for Inactive)
ROOT
ATOM      1  O1  BZF d   1       2.391  -2.161  -0.295  0.00  0.00    -0.204 OA
ATOM      2  C2  BZF d   1       1.890  -2.158  -1.582  0.00  0.00     0.174 A 
ATOM      3  C3  BZF d   1       1.583  -0.905  -1.974  0.00  0.00    -0.012 A 
ATOM      4  C3A BZF d   1       2.000  -0.061  -0.895  0.00  0.00    -0.107 A 
ATOM      5  C4  BZF d   1       1.974   1.289  -0.696  0.00  0.00     0.055 A 
ATOM      6  C5  BZF d   1       2.390   1.789   0.497  0.00  0.00    -0.016 A 
ATOM      7  C6  BZF d   1       2.832   0.968   1.514  0.00  0.00     0.022 A 
ATOM      8  C7  BZF d   1       2.880  -0.378   1.361  0.00  0.00     0.029 A 
ATOM      9  C7A BZF d   1       2.492  -0.883   0.145  0.00  0.00     0.058 A 
ENDROOT
TORSDOF 0
ENDMDL
