MODEL 1
REMARK minimizedAffinity 15.3534002
REMARK minimizedRMSD -1
REMARK  0 active torsions:
REMARK  status: ('A' for Active; 'I' for Inactive)
ROOT
ATOM      1  O1  BZF d   1      -4.156   4.074   0.204  0.00  0.00    -0.204 OA
ATOM      2  C2  BZF d   1      -4.507   5.113  -0.636  0.00  0.00     0.174 A 
ATOM      3  C3  BZF d   1      -5.297   5.999   0.004  0.00  0.00    -0.012 A 
ATOM      4  C3A BZF d   1      -5.374   5.529   1.353  0.00  0.00    -0.107 A 
ATOM      5  C4  BZF d   1      -6.000   5.993   2.475  0.00  0.00     0.055 A 
ATOM      6  C5  BZF d   1      -5.937   5.261   3.617  0.00  0.00    -0.016 A 
ATOM      7  C6  BZF d   1      -5.262   4.059   3.673  0.00  0.00     0.022 A 
ATOM      8  C7  BZF d   1      -4.621   3.561   2.588  0.00  0.00     0.029 A 
ATOM      9  C7A BZF d   1      -4.655   4.315   1.440  0.00  0.00     0.058 A 
ENDROOT
TORSDOF 0
ENDMDL
