MODEL 1
REMARK minimizedAffinity 11.008132
REMARK minimizedRMSD -1
REMARK  0 active torsions:
REMARK  status: ('A' for Active; 'I' for Inactive)
ROOT
ATOM      1  O1  BZF d   1       4.262   3.617   4.226  0.00  0.00    -0.204 OA
ATOM      2  C2  BZF d   1       4.079   2.995   3.007  0.00  0.00     0.174 A 
ATOM      3  C3  BZF d   1       2.908   3.367   2.451  0.00  0.00    -0.012 A 
ATOM      4  C3A BZF d   1       2.366   4.349   3.338  0.00  0.00    -0.107 A 
ATOM      5  C4  BZF d   1       1.227   5.103   3.321  0.00  0.00     0.055 A 
ATOM      6  C5  BZF d   1       0.957   5.916   4.376  0.00  0.00    -0.016 A 
ATOM      7  C6  BZF d   1       1.800   5.996   5.465  0.00  0.00     0.022 A 
ATOM      8  C7  BZF d   1       2.944   5.271   5.525  0.00  0.00     0.029 A 
ATOM      9  C7A BZF d   1       3.236   4.474   4.446  0.00  0.00     0.058 A 
ENDROOT
TORSDOF 0
ENDMDL
