MODEL 1
REMARK minimizedAffinity 9.82134724
REMARK minimizedRMSD -1
REMARK  0 active torsions:
REMARK  status: ('A' for Active; 'I' for Inactive)
ROOT
ATOM      1  O1  BZF d   1      -1.778  -0.336  -4.450  0.00  0.00    -0.204 OA
ATOM      2  C2  BZF d   1      -1.623  -0.242  -3.081  0.00  0.00     0.174 A 
ATOM      3  C3  BZF d   1      -2.755   0.206  -2.501  0.00  0.00    -0.012 A 
ATOM      4  C3A BZF d   1      -3.705   0.318  -3.565  0.00  0.00    -0.107 A 
ATOM      5  C4  BZF d   1      -5.015   0.698  -3.618  0.00  0.00     0.055 A 
ATOM      6  C5  BZF d   1      -5.635   0.767  -4.826  0.00  0.00    -0.016 A 
ATOM      7  C6  BZF d   1      -4.973   0.469  -5.999  0.00  0.00     0.022 A 
ATOM      8  C7  BZF d   1      -3.674   0.082  -5.996  0.00  0.00     0.029 A 
ATOM      9  C7A BZF d   1      -3.055  -0.020  -4.775  0.00  0.00     0.058 A 
ENDROOT
TORSDOF 0
ENDMDL
