MODEL 1
REMARK minimizedAffinity 22.6343307
REMARK minimizedRMSD -1
REMARK  0 active torsions:
REMARK  status: ('A' for Active; 'I' for Inactive)
ROOT
ATOM      1  O1  BZF d   1      -4.770   1.048   0.716  0.00  0.00    -0.204 OA
ATOM      2  C2  BZF d   1      -4.383   2.318   1.099  0.00  0.00     0.174 A 
ATOM      3  C3  BZF d   1      -3.333   2.740   0.366  0.00  0.00    -0.012 A 
ATOM      4  C3A BZF d   1      -3.103   1.704  -0.594  0.00  0.00    -0.107 A 
ATOM      5  C4  BZF d   1      -2.204   1.547  -1.610  0.00  0.00     0.055 A 
ATOM      6  C5  BZF d   1      -2.198   0.385  -2.314  0.00  0.00    -0.016 A 
ATOM      7  C6  BZF d   1      -3.072  -0.643  -2.026  0.00  0.00     0.022 A 
ATOM      8  C7  BZF d   1      -3.985  -0.532  -1.030  0.00  0.00     0.029 A 
ATOM      9  C7A BZF d   1      -4.016   0.654  -0.339  0.00  0.00     0.058 A 
ENDROOT
TORSDOF 0
ENDMDL
