MODEL 1
REMARK minimizedAffinity 11.4512911
REMARK minimizedRMSD -1
REMARK  0 active torsions:
REMARK  status: ('A' for Active; 'I' for Inactive)
ROOT
ATOM      1  O1  BZF d   1      -5.535   0.436  -0.319  0.00  0.00    -0.204 OA
ATOM      2  C2  BZF d   1      -5.103   1.389   0.583  0.00  0.00     0.174 A 
ATOM      3  C3  BZF d   1      -3.780   1.612   0.447  0.00  0.00    -0.012 A 
ATOM      4  C3A BZF d   1      -3.377   0.811  -0.668  0.00  0.00    -0.107 A 
ATOM      5  C4  BZF d   1      -2.183   0.618  -1.302  0.00  0.00     0.055 A 
ATOM      6  C5  BZF d   1      -2.111  -0.286  -2.314  0.00  0.00    -0.016 A 
ATOM      7  C6  BZF d   1      -3.210  -1.018  -2.713  0.00  0.00     0.022 A 
ATOM      8  C7  BZF d   1      -4.417  -0.858  -2.118  0.00  0.00     0.029 A 
ATOM      9  C7A BZF d   1      -4.500   0.079  -1.117  0.00  0.00     0.058 A 
ENDROOT
TORSDOF 0
ENDMDL
