MODEL 1
REMARK minimizedAffinity 5.04740143
REMARK minimizedRMSD -1
REMARK  0 active torsions:
REMARK  status: ('A' for Active; 'I' for Inactive)
ROOT
ATOM      1  O1  BZF d   1      -5.134   0.641  -0.114  0.00  0.00    -0.204 OA
ATOM      2  C2  BZF d   1      -4.973   1.425   1.012  0.00  0.00     0.174 A 
ATOM      3  C3  BZF d   1      -3.684   1.794   1.158  0.00  0.00    -0.012 A 
ATOM      4  C3A BZF d   1      -3.013   1.281   0.003  0.00  0.00    -0.107 A 
ATOM      5  C4  BZF d   1      -1.720   1.335  -0.433  0.00  0.00     0.055 A 
ATOM      6  C5  BZF d   1      -1.376   0.668  -1.566  0.00  0.00    -0.016 A 
ATOM      7  C6  BZF d   1      -2.298  -0.066  -2.284  0.00  0.00     0.022 A 
ATOM      8  C7  BZF d   1      -3.593  -0.145  -1.894  0.00  0.00     0.029 A 
ATOM      9  C7A BZF d   1      -3.951   0.555  -0.768  0.00  0.00     0.058 A 
ENDROOT
TORSDOF 0
ENDMDL
