MODEL 1
REMARK minimizedAffinity -3.88147068
REMARK minimizedRMSD -1
REMARK  1 active torsions:
REMARK  status: ('A' for Active; 'I' for Inactive)
REMARK    1  A    between atoms: C1_2  and  C2_3 
ROOT
ATOM      1  C2  UNL d   1       0.135  -0.605  -0.420  0.00  0.00    -0.081 A 
ATOM      2  C3  UNL d   1       0.665  -0.431   0.865  0.00  0.00     0.006 A 
ATOM      3  C4  UNL d   1       0.179   0.579   1.699  0.00  0.00     0.002 A 
ATOM      4  C5  UNL d   1      -0.848   1.425   1.267  0.00  0.00    -0.080 A 
ATOM      5  C6  UNL d   1      -1.398   2.493   2.164  0.00  0.00     0.076 C 
ATOM      6  C7  UNL d   1      -1.365   1.262  -0.023  0.00  0.00     0.002 A 
ATOM      7  C8  UNL d   1      -0.879   0.253  -0.858  0.00  0.00     0.006 A 
ENDROOT
BRANCH   1   8
ATOM      8  C1  UNL d   1       0.611  -1.734  -1.298  0.00  0.00     0.054 C 
ATOM      9  C   UNL d   1      -0.488  -2.763  -1.521  0.00  0.00     0.018 C 
ENDBRANCH   1   8
TORSDOF 1
ENDMDL
