MODEL 1
REMARK minimizedAffinity -4.67828178
REMARK minimizedRMSD -1
REMARK  1 active torsions:
REMARK  status: ('A' for Active; 'I' for Inactive)
REMARK    1  A    between atoms: C1_2  and  C2_3 
ROOT
ATOM      1  C2  UNL d   1       0.257  -0.978  -0.643  0.00  0.00    -0.081 A 
ATOM      2  C3  UNL d   1       0.501  -0.852   0.730  0.00  0.00     0.006 A 
ATOM      3  C4  UNL d   1       0.024   0.257   1.435  0.00  0.00     0.002 A 
ATOM      4  C5  UNL d   1      -0.710   1.252   0.780  0.00  0.00    -0.080 A 
ATOM      5  C6  UNL d   1      -1.253   2.431   1.531  0.00  0.00     0.076 C 
ATOM      6  C7  UNL d   1      -0.938   1.134  -0.595  0.00  0.00     0.002 A 
ATOM      7  C8  UNL d   1      -0.462   0.027  -1.300  0.00  0.00     0.006 A 
ENDROOT
BRANCH   1   8
ATOM      8  C1  UNL d   1       0.714  -2.204  -1.392  0.00  0.00     0.054 C 
ATOM      9  C   UNL d   1      -0.359  -3.283  -1.395  0.00  0.00     0.018 C 
ENDBRANCH   1   8
TORSDOF 1
ENDMDL
