MODEL 1
REMARK minimizedAffinity -4.28317976
REMARK minimizedRMSD -1
REMARK  1 active torsions:
REMARK  status: ('A' for Active; 'I' for Inactive)
REMARK    1  A    between atoms: C1_2  and  C2_3 
ROOT
ATOM      1  C2  UNL d   1       0.043  -0.055  -0.485  0.00  0.00    -0.081 A 
ATOM      2  C3  UNL d   1       0.170   0.118   0.899  0.00  0.00     0.006 A 
ATOM      3  C4  UNL d   1      -0.467   1.182   1.542  0.00  0.00     0.002 A 
ATOM      4  C5  UNL d   1      -1.248   2.085   0.813  0.00  0.00    -0.080 A 
ATOM      5  C6  UNL d   1      -1.962   3.214   1.495  0.00  0.00     0.076 C 
ATOM      6  C7  UNL d   1      -1.361   1.923  -0.572  0.00  0.00     0.002 A 
ATOM      7  C8  UNL d   1      -0.723   0.860  -1.215  0.00  0.00     0.006 A 
ENDROOT
BRANCH   1   8
ATOM      8  C1  UNL d   1       0.676  -1.238  -1.171  0.00  0.00     0.054 C 
ATOM      9  C   UNL d   1      -0.356  -2.312  -1.487  0.00  0.00     0.018 C 
ENDBRANCH   1   8
TORSDOF 1
ENDMDL
