MODEL 1
REMARK minimizedAffinity -4.37483215
REMARK minimizedRMSD -1
REMARK  1 active torsions:
REMARK  status: ('A' for Active; 'I' for Inactive)
REMARK    1  A    between atoms: C1_2  and  C2_3 
ROOT
ATOM      1  C2  UNL d   1       0.570  -1.210  -0.586  0.00  0.00    -0.081 A 
ATOM      2  C3  UNL d   1       1.424  -0.873   0.472  0.00  0.00     0.006 A 
ATOM      3  C4  UNL d   1       1.096   0.168   1.343  0.00  0.00     0.002 A 
ATOM      4  C5  UNL d   1      -0.095   0.884   1.177  0.00  0.00    -0.080 A 
ATOM      5  C6  UNL d   1      -0.474   1.983   2.124  0.00  0.00     0.076 C 
ATOM      6  C7  UNL d   1      -0.939   0.559   0.110  0.00  0.00     0.002 A 
ATOM      7  C8  UNL d   1      -0.611  -0.481  -0.762  0.00  0.00     0.006 A 
ENDROOT
BRANCH   1   8
ATOM      8  C1  UNL d   1       0.890  -2.374  -1.489  0.00  0.00     0.054 C 
ATOM      9  C   UNL d   1      -0.371  -3.127  -1.889  0.00  0.00     0.018 C 
ENDBRANCH   1   8
TORSDOF 1
ENDMDL
