MODEL 1
REMARK minimizedAffinity -4.07758379
REMARK minimizedRMSD -1
REMARK  1 active torsions:
REMARK  status: ('A' for Active; 'I' for Inactive)
REMARK    1  A    between atoms: C1_2  and  C2_3 
ROOT
ATOM      1  C2  UNL d   1       0.171  -0.757  -0.542  0.00  0.00    -0.081 A 
ATOM      2  C3  UNL d   1       0.518  -0.731   0.815  0.00  0.00     0.006 A 
ATOM      3  C4  UNL d   1       0.091   0.315   1.635  0.00  0.00     0.002 A 
ATOM      4  C5  UNL d   1      -0.697   1.348   1.115  0.00  0.00    -0.080 A 
ATOM      5  C6  UNL d   1      -1.188   2.462   1.992  0.00  0.00     0.076 C 
ATOM      6  C7  UNL d   1      -1.029   1.331  -0.244  0.00  0.00     0.002 A 
ATOM      7  C8  UNL d   1      -0.601   0.285  -1.065  0.00  0.00     0.006 A 
ENDROOT
BRANCH   1   8
ATOM      8  C1  UNL d   1       0.577  -1.918  -1.414  0.00  0.00     0.054 C 
ATOM      9  C   UNL d   1      -0.545  -2.941  -1.531  0.00  0.00     0.018 C 
ENDBRANCH   1   8
TORSDOF 1
ENDMDL
