MODEL 1
REMARK minimizedAffinity -0.791487992
REMARK minimizedRMSD -1
REMARK  1 active torsions:
REMARK  status: ('A' for Active; 'I' for Inactive)
REMARK    1  A    between atoms: C1_2  and  C2_3 
ROOT
ATOM      1  C2  UNL d   1       0.528  -0.800  -0.368  0.00  0.00    -0.081 A 
ATOM      2  C3  UNL d   1       0.141   0.383  -1.008  0.00  0.00     0.006 A 
ATOM      3  C4  UNL d   1      -0.065   1.552  -0.271  0.00  0.00     0.002 A 
ATOM      4  C5  UNL d   1       0.119   1.559   1.116  0.00  0.00    -0.080 A 
ATOM      5  C6  UNL d   1      -0.070   2.814   1.915  0.00  0.00     0.076 C 
ATOM      6  C7  UNL d   1       0.489   0.372   1.758  0.00  0.00     0.002 A 
ATOM      7  C8  UNL d   1       0.695  -0.797   1.021  0.00  0.00     0.006 A 
ENDROOT
BRANCH   1   8
ATOM      8  C1  UNL d   1       0.815  -2.046  -1.167  0.00  0.00     0.054 C 
ATOM      9  C   UNL d   1      -0.118  -3.182  -0.774  0.00  0.00     0.018 C 
ENDBRANCH   1   8
TORSDOF 1
ENDMDL
