MODEL 1
REMARK minimizedAffinity -4.64934444
REMARK minimizedRMSD -1
REMARK  1 active torsions:
REMARK  status: ('A' for Active; 'I' for Inactive)
REMARK    1  A    between atoms: C1_2  and  C2_3 
ROOT
ATOM      1  C2  UNL d   1       0.036   1.743   1.043  0.00  0.00    -0.081 A 
ATOM      2  C3  UNL d   1      -0.048   1.806  -0.353  0.00  0.00     0.006 A 
ATOM      3  C4  UNL d   1       0.001   0.638  -1.119  0.00  0.00     0.002 A 
ATOM      4  C5  UNL d   1       0.127  -0.611  -0.501  0.00  0.00    -0.080 A 
ATOM      5  C6  UNL d   1       0.151  -1.874  -1.310  0.00  0.00     0.076 C 
ATOM      6  C7  UNL d   1       0.229  -0.672   0.893  0.00  0.00     0.002 A 
ATOM      7  C8  UNL d   1       0.181   0.495   1.658  0.00  0.00     0.006 A 
ENDROOT
BRANCH   1   8
ATOM      8  C1  UNL d   1      -0.081   2.994   1.875  0.00  0.00     0.054 C 
ATOM      9  C   UNL d   1      -1.518   3.495   1.920  0.00  0.00     0.018 C 
ENDBRANCH   1   8
TORSDOF 1
ENDMDL
