MODEL 1
REMARK minimizedAffinity 2.08818603
REMARK minimizedRMSD -1
REMARK  2 active torsions:
REMARK  status: ('A' for Active; 'I' for Inactive)
REMARK    1  A    between atoms: C2'_3  and  C1'_4 
REMARK    2  A    between atoms: C1'_4  and  C1_5 
ROOT
ATOM      1  C1  I4B d   1       0.254   1.094   0.783  0.00  0.00    -0.075 A 
ATOM      2  C2  I4B d   1      -0.121  -0.208   0.999  0.00  0.00     0.003 A 
ATOM      3  C3  I4B d   1      -1.348  -0.499   1.644  0.00  0.00     0.002 A 
ATOM      4  C4  I4B d   1      -2.139   0.536   2.099  0.00  0.00    -0.004 A 
ATOM      5  C5  I4B d   1      -1.768   1.856   1.859  0.00  0.00     0.002 A 
ATOM      6  C6  I4B d   1      -0.570   2.137   1.186  0.00  0.00     0.003 A 
ENDROOT
BRANCH   1   7
ATOM      7  C1' I4B d   1       1.571   1.366   0.129  0.00  0.00     0.060 C 
BRANCH   7   8
ATOM      8  C2' I4B d   1       2.050   0.078  -0.509  0.00  0.00    -0.013 C 
ATOM      9  C4' I4B d   1       2.950   0.353  -1.684  0.00  0.00     0.013 C 
ATOM     10  C3' I4B d   1       2.760  -0.723   0.541  0.00  0.00     0.013 C 
ENDBRANCH   7   8
ENDBRANCH   1   7
TORSDOF 2
ENDMDL
