MODEL 1
REMARK minimizedAffinity 4.38857985
REMARK minimizedRMSD -1
REMARK  2 active torsions:
REMARK  status: ('A' for Active; 'I' for Inactive)
REMARK    1  A    between atoms: C2'_3  and  C1'_4 
REMARK    2  A    between atoms: C1'_4  and  C1_5 
ROOT
ATOM      1  C1  I4B d   1      -1.434   1.467   1.632  0.00  0.00    -0.075 A 
ATOM      2  C2  I4B d   1      -0.275   2.176   1.438  0.00  0.00     0.003 A 
ATOM      3  C3  I4B d   1       0.922   1.504   1.090  0.00  0.00     0.002 A 
ATOM      4  C4  I4B d   1       0.926   0.127   0.997  0.00  0.00    -0.004 A 
ATOM      5  C5  I4B d   1      -0.255  -0.588   1.171  0.00  0.00     0.002 A 
ATOM      6  C6  I4B d   1      -1.445   0.086   1.479  0.00  0.00     0.003 A 
ENDROOT
BRANCH   1   7
ATOM      7  C1' I4B d   1      -2.672   2.205   2.031  0.00  0.00     0.060 C 
BRANCH   7   8
ATOM      8  C2' I4B d   1      -3.332   1.435   3.156  0.00  0.00    -0.013 C 
ATOM      9  C4' I4B d   1      -4.573   2.137   3.642  0.00  0.00     0.013 C 
ATOM     10  C3' I4B d   1      -3.651   0.060   2.652  0.00  0.00     0.013 C 
ENDBRANCH   7   8
ENDBRANCH   1   7
TORSDOF 2
ENDMDL
