MODEL 1
REMARK minimizedAffinity -0.318796277
REMARK minimizedRMSD -1
REMARK  2 active torsions:
REMARK  status: ('A' for Active; 'I' for Inactive)
REMARK    1  A    between atoms: C2'_3  and  C1'_4 
REMARK    2  A    between atoms: C1'_4  and  C1_5 
ROOT
ATOM      1  C1  I4B d   1      -4.171  -3.616  -0.366  0.00  0.00    -0.075 A 
ATOM      2  C2  I4B d   1      -3.460  -4.779  -0.524  0.00  0.00     0.003 A 
ATOM      3  C3  I4B d   1      -3.962  -5.998  -0.007  0.00  0.00     0.002 A 
ATOM      4  C4  I4B d   1      -5.147  -5.998   0.701  0.00  0.00    -0.004 A 
ATOM      5  C5  I4B d   1      -5.878  -4.822   0.841  0.00  0.00     0.002 A 
ATOM      6  C6  I4B d   1      -5.393  -3.625   0.294  0.00  0.00     0.003 A 
ENDROOT
BRANCH   1   7
ATOM      7  C1' I4B d   1      -3.595  -2.341  -0.896  0.00  0.00     0.060 C 
BRANCH   7   8
ATOM      8  C2' I4B d   1      -4.381  -1.952  -2.131  0.00  0.00    -0.013 C 
ATOM      9  C4' I4B d   1      -4.042  -0.553  -2.575  0.00  0.00     0.013 C 
ATOM     10  C3' I4B d   1      -4.076  -2.950  -3.208  0.00  0.00     0.013 C 
ENDBRANCH   7   8
ENDBRANCH   1   7
TORSDOF 2
ENDMDL
