MODEL 1
REMARK minimizedAffinity 13.6902399
REMARK minimizedRMSD -1
REMARK  2 active torsions:
REMARK  status: ('A' for Active; 'I' for Inactive)
REMARK    1  A    between atoms: C2'_3  and  C1'_4 
REMARK    2  A    between atoms: C1'_4  and  C1_5 
ROOT
ATOM      1  C1  I4B d   1      -2.567   2.649   2.225  0.00  0.00    -0.075 A 
ATOM      2  C2  I4B d   1      -2.094   3.408   1.184  0.00  0.00     0.003 A 
ATOM      3  C3  I4B d   1      -0.843   3.106   0.593  0.00  0.00     0.002 A 
ATOM      4  C4  I4B d   1      -0.081   2.076   1.105  0.00  0.00    -0.004 A 
ATOM      5  C5  I4B d   1      -0.572   1.294   2.145  0.00  0.00     0.002 A 
ATOM      6  C6  I4B d   1      -1.829   1.574   2.702  0.00  0.00     0.003 A 
ENDROOT
BRANCH   1   7
ATOM      7  C1' I4B d   1      -3.878   3.016   2.847  0.00  0.00     0.060 C 
BRANCH   7   8
ATOM      8  C2' I4B d   1      -3.996   2.269   4.160  0.00  0.00    -0.013 C 
ATOM      9  C4' I4B d   1      -4.654   3.121   5.214  0.00  0.00     0.013 C 
ATOM     10  C3' I4B d   1      -4.779   1.015   3.911  0.00  0.00     0.013 C 
ENDBRANCH   7   8
ENDBRANCH   1   7
TORSDOF 2
ENDMDL
