MODEL 1
REMARK minimizedAffinity 0.0330130011
REMARK minimizedRMSD -1
REMARK  2 active torsions:
REMARK  status: ('A' for Active; 'I' for Inactive)
REMARK    1  A    between atoms: C2'_3  and  C1'_4 
REMARK    2  A    between atoms: C1'_4  and  C1_5 
ROOT
ATOM      1  C1  I4B d   1      -2.005   1.400   1.725  0.00  0.00    -0.075 A 
ATOM      2  C2  I4B d   1      -0.844   2.129   1.657  0.00  0.00     0.003 A 
ATOM      3  C3  I4B d   1       0.361   1.513   1.240  0.00  0.00     0.002 A 
ATOM      4  C4  I4B d   1       0.370   0.164   0.951  0.00  0.00    -0.004 A 
ATOM      5  C5  I4B d   1      -0.813  -0.569   0.999  0.00  0.00     0.002 A 
ATOM      6  C6  I4B d   1      -2.010   0.055   1.377  0.00  0.00     0.003 A 
ENDROOT
BRANCH   1   7
ATOM      7  C1' I4B d   1      -3.253   2.074   2.201  0.00  0.00     0.060 C 
BRANCH   7   8
ATOM      8  C2' I4B d   1      -3.727   1.353   3.447  0.00  0.00    -0.013 C 
ATOM      9  C4' I4B d   1      -4.705   2.193   4.225  0.00  0.00     0.013 C 
ATOM     10  C3' I4B d   1      -4.346   0.055   3.023  0.00  0.00     0.013 C 
ENDBRANCH   7   8
ENDBRANCH   1   7
TORSDOF 2
ENDMDL
