MODEL 1
REMARK minimizedAffinity 2.72479939
REMARK minimizedRMSD -1
REMARK  2 active torsions:
REMARK  status: ('A' for Active; 'I' for Inactive)
REMARK    1  A    between atoms: C2'_3  and  C1'_4 
REMARK    2  A    between atoms: C1'_4  and  C1_5 
ROOT
ATOM      1  C1  I4B d   1       0.806   0.571   0.370  0.00  0.00    -0.075 A 
ATOM      2  C2  I4B d   1       0.923  -0.642   1.002  0.00  0.00     0.003 A 
ATOM      3  C3  I4B d   1      -0.170  -1.178   1.724  0.00  0.00     0.002 A 
ATOM      4  C4  I4B d   1      -1.337  -0.449   1.831  0.00  0.00    -0.004 A 
ATOM      5  C5  I4B d   1      -1.462   0.770   1.171  0.00  0.00     0.002 A 
ATOM      6  C6  I4B d   1      -0.388   1.278   0.425  0.00  0.00     0.003 A 
ENDROOT
BRANCH   1   7
ATOM      7  C1' I4B d   1       1.991   1.123  -0.357  0.00  0.00     0.060 C 
BRANCH   7   8
ATOM      8  C2' I4B d   1       2.661  -0.020  -1.093  0.00  0.00    -0.013 C 
ATOM      9  C4' I4B d   1       3.332   0.462  -2.352  0.00  0.00     0.013 C 
ATOM     10  C3' I4B d   1       3.650  -0.654  -0.161  0.00  0.00     0.013 C 
ENDBRANCH   7   8
ENDBRANCH   1   7
TORSDOF 2
ENDMDL
