MODEL 1
REMARK minimizedAffinity 3.31070399
REMARK minimizedRMSD -1
REMARK  2 active torsions:
REMARK  status: ('A' for Active; 'I' for Inactive)
REMARK    1  A    between atoms: C2'_3  and  C1'_4 
REMARK    2  A    between atoms: C1'_4  and  C1_5 
ROOT
ATOM      1  C1  I4B d   1       1.971   1.343  -0.165  0.00  0.00    -0.075 A 
ATOM      2  C2  I4B d   1       2.361   0.220   0.521  0.00  0.00     0.003 A 
ATOM      3  C3  I4B d   1       3.017  -0.836  -0.155  0.00  0.00     0.002 A 
ATOM      4  C4  I4B d   1       3.216  -0.751  -1.518  0.00  0.00    -0.004 A 
ATOM      5  C5  I4B d   1       2.840   0.398  -2.208  0.00  0.00     0.002 A 
ATOM      6  C6  I4B d   1       2.225   1.458  -1.525  0.00  0.00     0.003 A 
ENDROOT
BRANCH   1   7
ATOM      7  C1' I4B d   1       1.251   2.426   0.575  0.00  0.00     0.060 C 
BRANCH   7   8
ATOM      8  C2' I4B d   1      -0.168   1.957   0.825  0.00  0.00    -0.013 C 
ATOM      9  C4' I4B d   1      -0.496   1.971   2.295  0.00  0.00     0.013 C 
ATOM     10  C3' I4B d   1      -1.094   2.851   0.055  0.00  0.00     0.013 C 
ENDBRANCH   7   8
ENDBRANCH   1   7
TORSDOF 2
ENDMDL
