MODEL 1
REMARK minimizedAffinity 5.09452915
REMARK minimizedRMSD -1
REMARK  2 active torsions:
REMARK  status: ('A' for Active; 'I' for Inactive)
REMARK    1  A    between atoms: C2'_3  and  C1'_4 
REMARK    2  A    between atoms: C1'_4  and  C1_5 
ROOT
ATOM      1  C1  I4B d   1      -3.741  -2.880  -2.210  0.00  0.00    -0.075 A 
ATOM      2  C2  I4B d   1      -4.140  -2.327  -1.019  0.00  0.00     0.003 A 
ATOM      3  C3  I4B d   1      -4.557  -0.975  -0.966  0.00  0.00     0.002 A 
ATOM      4  C4  I4B d   1      -4.513  -0.204  -2.110  0.00  0.00    -0.004 A 
ATOM      5  C5  I4B d   1      -4.130  -0.774  -3.321  0.00  0.00     0.002 A 
ATOM      6  C6  I4B d   1      -3.754  -2.123  -3.375  0.00  0.00     0.003 A 
ENDROOT
BRANCH   1   7
ATOM      7  C1' I4B d   1      -3.275  -4.302  -2.224  0.00  0.00     0.060 C 
BRANCH   7   8
ATOM      8  C2' I4B d   1      -3.379  -4.841  -0.812  0.00  0.00    -0.013 C 
ATOM      9  C4' I4B d   1      -4.338  -6.000  -0.740  0.00  0.00     0.013 C 
ATOM     10  C3' I4B d   1      -2.005  -5.247  -0.369  0.00  0.00     0.013 C 
ENDBRANCH   7   8
ENDBRANCH   1   7
TORSDOF 2
ENDMDL
