MODEL 1
REMARK minimizedAffinity -0.229277849
REMARK minimizedRMSD -1
REMARK  2 active torsions:
REMARK  status: ('A' for Active; 'I' for Inactive)
REMARK    1  A    between atoms: C2'_3  and  C1'_4 
REMARK    2  A    between atoms: C1'_4  and  C1_5 
ROOT
ATOM      1  C1  I4B d   1       0.412   0.260   1.088  0.00  0.00    -0.075 A 
ATOM      2  C2  I4B d   1       0.520   1.627   1.149  0.00  0.00     0.003 A 
ATOM      3  C3  I4B d   1      -0.616   2.420   1.440  0.00  0.00     0.002 A 
ATOM      4  C4  I4B d   1      -1.843   1.812   1.612  0.00  0.00    -0.004 A 
ATOM      5  C5  I4B d   1      -1.947   0.425   1.572  0.00  0.00     0.002 A 
ATOM      6  C6  I4B d   1      -0.810  -0.357   1.321  0.00  0.00     0.003 A 
ENDROOT
BRANCH   1   7
ATOM      7  C1' I4B d   1       1.625  -0.545   0.746  0.00  0.00     0.060 C 
BRANCH   7   8
ATOM      8  C2' I4B d   1       2.738  -0.136   1.690  0.00  0.00    -0.013 C 
ATOM      9  C4' I4B d   1       2.533  -0.723   3.061  0.00  0.00     0.013 C 
ATOM     10  C3' I4B d   1       4.038  -0.589   1.096  0.00  0.00     0.013 C 
ENDBRANCH   7   8
ENDBRANCH   1   7
TORSDOF 2
ENDMDL
