MODEL 1
REMARK minimizedAffinity -1.68509984
REMARK minimizedRMSD -1
REMARK  2 active torsions:
REMARK  status: ('A' for Active; 'I' for Inactive)
REMARK    1  A    between atoms: C2'_3  and  C1'_4 
REMARK    2  A    between atoms: C1'_4  and  C1_5 
ROOT
ATOM      1  C1  I4B d   1       0.313   1.379   1.125  0.00  0.00    -0.075 A 
ATOM      2  C2  I4B d   1      -0.157   0.093   1.228  0.00  0.00     0.003 A 
ATOM      3  C3  I4B d   1      -1.470  -0.150   1.698  0.00  0.00     0.002 A 
ATOM      4  C4  I4B d   1      -2.256   0.910   2.099  0.00  0.00    -0.004 A 
ATOM      5  C5  I4B d   1      -1.787   2.215   1.972  0.00  0.00     0.002 A 
ATOM      6  C6  I4B d   1      -0.499   2.452   1.470  0.00  0.00     0.003 A 
ENDROOT
BRANCH   1   7
ATOM      7  C1' I4B d   1       1.716   1.599   0.656  0.00  0.00     0.060 C 
BRANCH   7   8
ATOM      8  C2' I4B d   1       2.003   0.597  -0.444  0.00  0.00    -0.013 C 
ATOM      9  C4' I4B d   1       2.760   1.235  -1.579  0.00  0.00     0.013 C 
ATOM     10  C3' I4B d   1       2.779  -0.538   0.154  0.00  0.00     0.013 C 
ENDBRANCH   7   8
ENDBRANCH   1   7
TORSDOF 2
ENDMDL
