MODEL 1
REMARK minimizedAffinity -1.33598328
REMARK minimizedRMSD -1
REMARK  2 active torsions:
REMARK  status: ('A' for Active; 'I' for Inactive)
REMARK    1  A    between atoms: C2'_3  and  C1'_4 
REMARK    2  A    between atoms: C1'_4  and  C1_5 
ROOT
ATOM      1  C1  I4B d   1       0.388   1.119   1.336  0.00  0.00    -0.075 A 
ATOM      2  C2  I4B d   1      -0.326   2.256   1.621  0.00  0.00     0.003 A 
ATOM      3  C3  I4B d   1      -1.690   2.168   1.991  0.00  0.00     0.002 A 
ATOM      4  C4  I4B d   1      -2.309   0.935   2.014  0.00  0.00    -0.004 A 
ATOM      5  C5  I4B d   1      -1.578  -0.219   1.746  0.00  0.00     0.002 A 
ATOM      6  C6  I4B d   1      -0.218  -0.128   1.417  0.00  0.00     0.003 A 
ENDROOT
BRANCH   1   7
ATOM      7  C1' I4B d   1       1.818   1.252   0.916  0.00  0.00     0.060 C 
BRANCH   7   8
ATOM      8  C2' I4B d   1       2.020   0.410  -0.327  0.00  0.00    -0.013 C 
ATOM      9  C4' I4B d   1       2.630   1.220  -1.441  0.00  0.00     0.013 C 
ATOM     10  C3' I4B d   1       2.894  -0.753   0.038  0.00  0.00     0.013 C 
ENDBRANCH   7   8
ENDBRANCH   1   7
TORSDOF 2
ENDMDL
