MODEL 1
REMARK minimizedAffinity -4.7136054
REMARK minimizedRMSD -1
REMARK  0 active torsions:
REMARK  status: ('A' for Active; 'I' for Inactive)
ROOT
ATOM      1  C   UNL d   1      -1.304   1.427  -1.497  0.00  0.00     0.077 C 
ATOM      2  C1  UNL d   1      -0.330   0.552  -0.767  0.00  0.00    -0.074 A 
ATOM      3  C2  UNL d   1       0.525  -0.309  -1.464  0.00  0.00    -0.005 A 
ATOM      4  C3  UNL d   1       1.433  -1.110  -0.772  0.00  0.00     0.006 A 
ATOM      5  C4  UNL d   1       1.496  -1.059   0.621  0.00  0.00    -0.005 A 
ATOM      6  C5  UNL d   1       0.650  -0.204   1.335  0.00  0.00    -0.074 A 
ATOM      7  C6  UNL d   1       0.711  -0.129   2.832  0.00  0.00     0.077 C 
ATOM      8  C7  UNL d   1      -0.255   0.604   0.632  0.00  0.00    -0.001 A 
ENDROOT
TORSDOF 0
ENDMDL
