MODEL 1
REMARK minimizedAffinity -4.2971983
REMARK minimizedRMSD -1
REMARK  0 active torsions:
REMARK  status: ('A' for Active; 'I' for Inactive)
ROOT
ATOM      1  C   UNL d   1      -5.657   1.608  -3.140  0.00  0.00     0.077 C 
ATOM      2  C1  UNL d   1      -4.326   2.292  -3.033  0.00  0.00    -0.074 A 
ATOM      3  C2  UNL d   1      -4.236   3.687  -3.001  0.00  0.00    -0.005 A 
ATOM      4  C3  UNL d   1      -2.992   4.309  -2.891  0.00  0.00     0.006 A 
ATOM      5  C4  UNL d   1      -1.828   3.543  -2.813  0.00  0.00    -0.005 A 
ATOM      6  C5  UNL d   1      -1.899   2.147  -2.842  0.00  0.00    -0.074 A 
ATOM      7  C6  UNL d   1      -0.659   1.309  -2.749  0.00  0.00     0.077 C 
ATOM      8  C7  UNL d   1      -3.153   1.529  -2.945  0.00  0.00    -0.001 A 
ENDROOT
TORSDOF 0
ENDMDL
