MODEL 1
REMARK minimizedAffinity -4.5316515
REMARK minimizedRMSD -1
REMARK  0 active torsions:
REMARK  status: ('A' for Active; 'I' for Inactive)
ROOT
ATOM      1  C   UNL d   1       1.974  -0.668   2.979  0.00  0.00     0.077 C 
ATOM      2  C1  UNL d   1       0.881  -0.569   1.957  0.00  0.00    -0.074 A 
ATOM      3  C2  UNL d   1      -0.456  -0.436   2.345  0.00  0.00    -0.005 A 
ATOM      4  C3  UNL d   1      -1.461  -0.336   1.383  0.00  0.00     0.006 A 
ATOM      5  C4  UNL d   1      -1.140  -0.367   0.026  0.00  0.00    -0.005 A 
ATOM      6  C5  UNL d   1       0.191  -0.499  -0.381  0.00  0.00    -0.074 A 
ATOM      7  C6  UNL d   1       0.555  -0.525  -1.836  0.00  0.00     0.077 C 
ATOM      8  C7  UNL d   1       1.196  -0.592   0.591  0.00  0.00    -0.001 A 
ENDROOT
TORSDOF 0
ENDMDL
