MODEL 1
REMARK minimizedAffinity -4.11469316
REMARK minimizedRMSD -1
REMARK  0 active torsions:
REMARK  status: ('A' for Active; 'I' for Inactive)
ROOT
ATOM      1  C   UNL d   1       1.631  -1.032   3.264  0.00  0.00     0.077 C 
ATOM      2  C1  UNL d   1       0.874  -0.634   2.032  0.00  0.00    -0.074 A 
ATOM      3  C2  UNL d   1       1.528  -0.478   0.805  0.00  0.00    -0.005 A 
ATOM      4  C3  UNL d   1       0.809  -0.117  -0.334  0.00  0.00     0.006 A 
ATOM      5  C4  UNL d   1      -0.569   0.092  -0.259  0.00  0.00    -0.005 A 
ATOM      6  C5  UNL d   1      -1.240  -0.060   0.959  0.00  0.00    -0.074 A 
ATOM      7  C6  UNL d   1      -2.722   0.151   1.055  0.00  0.00     0.077 C 
ATOM      8  C7  UNL d   1      -0.511  -0.430   2.098  0.00  0.00    -0.001 A 
ENDROOT
TORSDOF 0
ENDMDL
