MODEL 1
REMARK minimizedAffinity -4.60894442
REMARK minimizedRMSD -1
REMARK  0 active torsions:
REMARK  status: ('A' for Active; 'I' for Inactive)
ROOT
ATOM      1  C   UNL d   1       1.250  -1.405   2.882  0.00  0.00     0.077 C 
ATOM      2  C1  UNL d   1       1.150  -1.194   1.400  0.00  0.00    -0.074 A 
ATOM      3  C2  UNL d   1       2.064  -1.791   0.526  0.00  0.00    -0.005 A 
ATOM      4  C3  UNL d   1       1.952  -1.594  -0.851  0.00  0.00     0.006 A 
ATOM      5  C4  UNL d   1       0.928  -0.798  -1.365  0.00  0.00    -0.005 A 
ATOM      6  C5  UNL d   1       0.005  -0.193  -0.506  0.00  0.00    -0.074 A 
ATOM      7  C6  UNL d   1      -1.107   0.658  -1.044  0.00  0.00     0.077 C 
ATOM      8  C7  UNL d   1       0.120  -0.402   0.875  0.00  0.00    -0.001 A 
ENDROOT
TORSDOF 0
ENDMDL
