MODEL 1
REMARK minimizedAffinity -4.62242365
REMARK minimizedRMSD -1
REMARK  0 active torsions:
REMARK  status: ('A' for Active; 'I' for Inactive)
ROOT
ATOM      1  C   UNL d   1       1.820  -1.199  -1.461  0.00  0.00     0.077 C 
ATOM      2  C1  UNL d   1       0.840  -0.978  -0.347  0.00  0.00    -0.074 A 
ATOM      3  C2  UNL d   1      -0.468  -0.558  -0.612  0.00  0.00    -0.005 A 
ATOM      4  C3  UNL d   1      -1.370  -0.366   0.433  0.00  0.00     0.006 A 
ATOM      5  C4  UNL d   1      -0.976  -0.591   1.753  0.00  0.00    -0.005 A 
ATOM      6  C5  UNL d   1       0.327  -1.012   2.037  0.00  0.00    -0.074 A 
ATOM      7  C6  UNL d   1       0.765  -1.267   3.449  0.00  0.00     0.077 C 
ATOM      8  C7  UNL d   1       1.227  -1.209   0.980  0.00  0.00    -0.001 A 
ENDROOT
TORSDOF 0
ENDMDL
