MODEL 1
REMARK minimizedAffinity -3.51503706
REMARK minimizedRMSD -1
REMARK  0 active torsions:
REMARK  status: ('A' for Active; 'I' for Inactive)
ROOT
ATOM      1  C   UNL d   1      -2.344   0.223   2.422  0.00  0.00     0.077 C 
ATOM      2  C1  UNL d   1      -1.071  -0.099   1.697  0.00  0.00    -0.074 A 
ATOM      3  C2  UNL d   1       0.042  -0.593   2.385  0.00  0.00    -0.005 A 
ATOM      4  C3  UNL d   1       1.217  -0.897   1.696  0.00  0.00     0.006 A 
ATOM      5  C4  UNL d   1       1.290  -0.709   0.315  0.00  0.00    -0.005 A 
ATOM      6  C5  UNL d   1       0.187  -0.217  -0.389  0.00  0.00    -0.074 A 
ATOM      7  C6  UNL d   1       0.245  -0.018  -1.875  0.00  0.00     0.077 C 
ATOM      8  C7  UNL d   1      -0.992   0.080   0.309  0.00  0.00    -0.001 A 
ENDROOT
TORSDOF 0
ENDMDL
