MODEL 1
REMARK minimizedAffinity -1.8333801
REMARK minimizedRMSD -1
REMARK  0 active torsions:
REMARK  status: ('A' for Active; 'I' for Inactive)
ROOT
ATOM      1  C   UNL d   1       4.255  -0.815  -2.534  0.00  0.00     0.023 A 
ATOM      2  C1  UNL d   1       2.962  -0.877  -3.053  0.00  0.00     0.003 A 
ATOM      3  C2  UNL d   1       1.882  -0.414  -2.298  0.00  0.00     0.048 A 
ATOM      4  C3  UNL d   1       2.103   0.111  -1.025  0.00  0.00     0.023 A 
ATOM      5  C4  UNL d   1       3.395   0.175  -0.502  0.00  0.00     0.048 A 
ATOM      6  C5  UNL d   1       4.471  -0.290  -1.260  0.00  0.00     0.003 A 
ATOM      7  I   UNL d   1       0.497   0.801   0.100  0.00  0.00    -0.146 I 
ENDROOT
TORSDOF 0
ENDMDL
