MODEL 1
REMARK minimizedAffinity 1.72533202
REMARK minimizedRMSD -1
REMARK  0 active torsions:
REMARK  status: ('A' for Active; 'I' for Inactive)
ROOT
ATOM      1  C   UNL d   1      -4.238  -4.972  -5.916  0.00  0.00     0.023 A 
ATOM      2  C1  UNL d   1      -3.088  -4.183  -5.880  0.00  0.00     0.003 A 
ATOM      3  C2  UNL d   1      -3.193  -2.791  -5.905  0.00  0.00     0.048 A 
ATOM      4  C3  UNL d   1      -4.452  -2.194  -5.964  0.00  0.00     0.023 A 
ATOM      5  C4  UNL d   1      -5.605  -2.979  -5.999  0.00  0.00     0.048 A 
ATOM      6  C5  UNL d   1      -5.495  -4.370  -5.975  0.00  0.00     0.003 A 
ATOM      7  I   UNL d   1      -4.611  -0.122  -6.000  0.00  0.00    -0.146 I 
ENDROOT
TORSDOF 0
ENDMDL
