MODEL 1
REMARK minimizedAffinity 2.51480865
REMARK minimizedRMSD -1
REMARK  0 active torsions:
REMARK  status: ('A' for Active; 'I' for Inactive)
ROOT
ATOM      1  C   UNL d   1      -4.425   1.160  -5.965  0.00  0.00     0.023 A 
ATOM      2  C1  UNL d   1      -3.126   1.668  -5.955  0.00  0.00     0.003 A 
ATOM      3  C2  UNL d   1      -2.914   3.048  -5.963  0.00  0.00     0.048 A 
ATOM      4  C3  UNL d   1      -4.006   3.915  -5.980  0.00  0.00     0.023 A 
ATOM      5  C4  UNL d   1      -5.308   3.411  -5.988  0.00  0.00     0.048 A 
ATOM      6  C5  UNL d   1      -5.515   2.031  -5.981  0.00  0.00     0.003 A 
ATOM      7  I   UNL d   1      -3.694   5.969  -5.992  0.00  0.00    -0.146 I 
ENDROOT
TORSDOF 0
ENDMDL
