MODEL 1
REMARK minimizedAffinity 0.663975656
REMARK minimizedRMSD -1
REMARK  0 active torsions:
REMARK  status: ('A' for Active; 'I' for Inactive)
ROOT
ATOM      1  C   UNL d   1      -3.275  -3.021  -0.531  0.00  0.00     0.023 A 
ATOM      2  C1  UNL d   1      -2.270  -3.347   0.380  0.00  0.00     0.003 A 
ATOM      3  C2  UNL d   1      -2.464  -3.126   1.745  0.00  0.00     0.048 A 
ATOM      4  C3  UNL d   1      -3.666  -2.579   2.193  0.00  0.00     0.023 A 
ATOM      5  C4  UNL d   1      -4.675  -2.251   1.285  0.00  0.00     0.048 A 
ATOM      6  C5  UNL d   1      -4.476  -2.473  -0.079  0.00  0.00     0.003 A 
ATOM      7  I   UNL d   1      -3.957  -2.249   4.224  0.00  0.00    -0.146 I 
ENDROOT
TORSDOF 0
ENDMDL
