MODEL 1
REMARK minimizedAffinity -3.36300015
REMARK minimizedRMSD -1
REMARK  0 active torsions:
REMARK  status: ('A' for Active; 'I' for Inactive)
ROOT
ATOM      1  C   UNL d   1      -4.130  -0.746  -5.944  0.00  0.00     0.023 A 
ATOM      2  C1  UNL d   1      -5.384  -0.135  -5.921  0.00  0.00     0.003 A 
ATOM      3  C2  UNL d   1      -5.485   1.258  -5.934  0.00  0.00     0.048 A 
ATOM      4  C3  UNL d   1      -4.327   2.034  -5.971  0.00  0.00     0.023 A 
ATOM      5  C4  UNL d   1      -3.070   1.427  -5.995  0.00  0.00     0.048 A 
ATOM      6  C5  UNL d   1      -2.975   0.034  -5.981  0.00  0.00     0.003 A 
ATOM      7  I   UNL d   1      -4.473   4.107  -5.990  0.00  0.00    -0.146 I 
ENDROOT
TORSDOF 0
ENDMDL
