MODEL 1
REMARK minimizedAffinity 1.05414641
REMARK minimizedRMSD -1
REMARK  0 active torsions:
REMARK  status: ('A' for Active; 'I' for Inactive)
ROOT
ATOM      1  C   UNL d   1      -2.125   0.712  -5.917  0.00  0.00     0.023 A 
ATOM      2  C1  UNL d   1      -3.446   0.268  -5.988  0.00  0.00     0.003 A 
ATOM      3  C2  UNL d   1      -4.494   1.190  -5.998  0.00  0.00     0.048 A 
ATOM      4  C3  UNL d   1      -4.215   2.555  -5.939  0.00  0.00     0.023 A 
ATOM      5  C4  UNL d   1      -2.895   3.004  -5.870  0.00  0.00     0.048 A 
ATOM      6  C5  UNL d   1      -1.850   2.078  -5.859  0.00  0.00     0.003 A 
ATOM      7  I   UNL d   1      -5.774   3.930  -5.955  0.00  0.00    -0.146 I 
ENDROOT
TORSDOF 0
ENDMDL
