MODEL 1
REMARK minimizedAffinity -0.755317867
REMARK minimizedRMSD -1
REMARK  0 active torsions:
REMARK  status: ('A' for Active; 'I' for Inactive)
ROOT
ATOM      1  C   UNL d   1      -3.788   3.988  -5.988  0.00  0.00     0.023 A 
ATOM      2  C1  UNL d   1      -5.028   3.350  -5.996  0.00  0.00     0.003 A 
ATOM      3  C2  UNL d   1      -5.096   1.955  -5.994  0.00  0.00     0.048 A 
ATOM      4  C3  UNL d   1      -3.921   1.205  -5.982  0.00  0.00     0.023 A 
ATOM      5  C4  UNL d   1      -2.678   1.840  -5.973  0.00  0.00     0.048 A 
ATOM      6  C5  UNL d   1      -2.614   3.235  -5.976  0.00  0.00     0.003 A 
ATOM      7  I   UNL d   1      -4.020  -0.871  -5.978  0.00  0.00    -0.146 I 
ENDROOT
TORSDOF 0
ENDMDL
