MODEL 1
REMARK minimizedAffinity 3.02443409
REMARK minimizedRMSD -1
REMARK  0 active torsions:
REMARK  status: ('A' for Active; 'I' for Inactive)
ROOT
ATOM      1  C   UNL d   1       2.462  -0.567  -1.601  0.00  0.00     0.023 A 
ATOM      2  C1  UNL d   1       1.255  -0.612  -2.299  0.00  0.00     0.003 A 
ATOM      3  C2  UNL d   1       0.093  -0.094  -1.722  0.00  0.00     0.048 A 
ATOM      4  C3  UNL d   1       0.146   0.469  -0.448  0.00  0.00     0.023 A 
ATOM      5  C4  UNL d   1       1.352   0.517   0.254  0.00  0.00     0.048 A 
ATOM      6  C5  UNL d   1       2.510  -0.003  -0.326  0.00  0.00     0.003 A 
ATOM      7  I   UNL d   1      -1.581   1.241   0.413  0.00  0.00    -0.146 I 
ENDROOT
TORSDOF 0
ENDMDL
