MODEL 1
REMARK minimizedAffinity -1.14362001
REMARK minimizedRMSD -1
REMARK  0 active torsions:
REMARK  status: ('A' for Active; 'I' for Inactive)
ROOT
ATOM      1  C   UNL d   1      -3.748   3.033  -5.978  0.00  0.00     0.023 A 
ATOM      2  C1  UNL d   1      -2.697   2.117  -5.996  0.00  0.00     0.003 A 
ATOM      3  C2  UNL d   1      -2.964   0.746  -5.999  0.00  0.00     0.048 A 
ATOM      4  C3  UNL d   1      -4.284   0.299  -5.987  0.00  0.00     0.023 A 
ATOM      5  C4  UNL d   1      -5.340   1.213  -5.970  0.00  0.00     0.048 A 
ATOM      6  C5  UNL d   1      -5.068   2.582  -5.966  0.00  0.00     0.003 A 
ATOM      7  I   UNL d   1      -4.684  -1.741  -5.992  0.00  0.00    -0.146 I 
ENDROOT
TORSDOF 0
ENDMDL
