MODEL 1
REMARK minimizedAffinity -0.0480612032
REMARK minimizedRMSD -1
REMARK  0 active torsions:
REMARK  status: ('A' for Active; 'I' for Inactive)
ROOT
ATOM      1  C   UNL d   1      -3.010   4.762  -5.997  0.00  0.00     0.023 A 
ATOM      2  C1  UNL d   1      -4.345   4.357  -6.000  0.00  0.00     0.003 A 
ATOM      3  C2  UNL d   1      -4.663   2.997  -6.000  0.00  0.00     0.048 A 
ATOM      4  C3  UNL d   1      -3.641   2.048  -5.995  0.00  0.00     0.023 A 
ATOM      5  C4  UNL d   1      -2.304   2.449  -5.991  0.00  0.00     0.048 A 
ATOM      6  C5  UNL d   1      -1.991   3.809  -5.992  0.00  0.00     0.003 A 
ATOM      7  I   UNL d   1      -4.112   0.024  -5.994  0.00  0.00    -0.146 I 
ENDROOT
TORSDOF 0
ENDMDL
