MODEL 1
REMARK minimizedAffinity -1.19423664
REMARK minimizedRMSD -1
REMARK  0 active torsions:
REMARK  status: ('A' for Active; 'I' for Inactive)
ROOT
ATOM      1  C   UNL d   1      -4.222   4.130  -5.926  0.00  0.00     0.023 A 
ATOM      2  C1  UNL d   1      -5.415   3.409  -5.979  0.00  0.00     0.003 A 
ATOM      3  C2  UNL d   1      -5.388   2.013  -5.996  0.00  0.00     0.048 A 
ATOM      4  C3  UNL d   1      -4.164   1.345  -5.959  0.00  0.00     0.023 A 
ATOM      5  C4  UNL d   1      -2.968   2.063  -5.906  0.00  0.00     0.048 A 
ATOM      6  C5  UNL d   1      -3.000   3.458  -5.890  0.00  0.00     0.003 A 
ATOM      7  I   UNL d   1      -4.121  -0.733  -5.985  0.00  0.00    -0.146 I 
ENDROOT
TORSDOF 0
ENDMDL
