MODEL 1
REMARK minimizedAffinity -0.273483217
REMARK minimizedRMSD -1
REMARK  0 active torsions:
REMARK  status: ('A' for Active; 'I' for Inactive)
ROOT
ATOM      1  C   UNL d   1      -3.068   3.070  -5.997  0.00  0.00     0.023 A 
ATOM      2  C1  UNL d   1      -1.922   2.274  -5.997  0.00  0.00     0.003 A 
ATOM      3  C2  UNL d   1      -2.037   0.883  -5.997  0.00  0.00     0.048 A 
ATOM      4  C3  UNL d   1      -3.301   0.294  -5.998  0.00  0.00     0.023 A 
ATOM      5  C4  UNL d   1      -4.450   1.086  -6.000  0.00  0.00     0.048 A 
ATOM      6  C5  UNL d   1      -4.330   2.477  -5.999  0.00  0.00     0.003 A 
ATOM      7  I   UNL d   1      -3.475  -1.778  -5.999  0.00  0.00    -0.146 I 
ENDROOT
TORSDOF 0
ENDMDL
