MODEL 1
REMARK minimizedAffinity -1.68229246
REMARK minimizedRMSD -1
REMARK  0 active torsions:
REMARK  status: ('A' for Active; 'I' for Inactive)
ROOT
ATOM      1  C   UNL d   1      -2.435   2.311  -5.995  0.00  0.00     0.023 A 
ATOM      2  C1  UNL d   1      -1.545   1.237  -6.000  0.00  0.00     0.003 A 
ATOM      3  C2  UNL d   1      -2.027  -0.071  -5.919  0.00  0.00     0.048 A 
ATOM      4  C3  UNL d   1      -3.400  -0.298  -5.834  0.00  0.00     0.023 A 
ATOM      5  C4  UNL d   1      -4.294   0.773  -5.829  0.00  0.00     0.048 A 
ATOM      6  C5  UNL d   1      -3.808   2.080  -5.910  0.00  0.00     0.003 A 
ATOM      7  I   UNL d   1      -4.120  -2.244  -5.713  0.00  0.00    -0.146 I 
ENDROOT
TORSDOF 0
ENDMDL
