MODEL 1
REMARK minimizedAffinity -0.304533571
REMARK minimizedRMSD -1
REMARK  0 active torsions:
REMARK  status: ('A' for Active; 'I' for Inactive)
ROOT
ATOM      1  C   UNL d   1      -4.153   3.291  -5.992  0.00  0.00     0.023 A 
ATOM      2  C1  UNL d   1      -2.838   2.827  -5.998  0.00  0.00     0.003 A 
ATOM      3  C2  UNL d   1      -2.580   1.455  -5.999  0.00  0.00     0.048 A 
ATOM      4  C3  UNL d   1      -3.642   0.552  -5.997  0.00  0.00     0.023 A 
ATOM      5  C4  UNL d   1      -4.960   1.011  -5.992  0.00  0.00     0.048 A 
ATOM      6  C5  UNL d   1      -5.213   2.384  -5.990  0.00  0.00     0.003 A 
ATOM      7  I   UNL d   1      -3.261  -1.492  -6.000  0.00  0.00    -0.146 I 
ENDROOT
TORSDOF 0
ENDMDL
