MODEL 1
REMARK minimizedAffinity -2.55504608
REMARK minimizedRMSD -1
REMARK  0 active torsions:
REMARK  status: ('A' for Active; 'I' for Inactive)
ROOT
ATOM      1  C   UNL d   1      -4.715  -2.029  -5.999  0.00  0.00     0.023 A 
ATOM      2  C1  UNL d   1      -3.328  -1.887  -5.998  0.00  0.00     0.003 A 
ATOM      3  C2  UNL d   1      -2.509  -3.018  -5.995  0.00  0.00     0.048 A 
ATOM      4  C3  UNL d   1      -3.084  -4.288  -5.996  0.00  0.00     0.023 A 
ATOM      5  C4  UNL d   1      -4.472  -4.435  -5.998  0.00  0.00     0.048 A 
ATOM      6  C5  UNL d   1      -5.287  -3.302  -6.000  0.00  0.00     0.003 A 
ATOM      7  I   UNL d   1      -1.867  -5.973  -5.992  0.00  0.00    -0.146 I 
ENDROOT
TORSDOF 0
ENDMDL
