MODEL 1
REMARK minimizedAffinity 0.198518351
REMARK minimizedRMSD -1
REMARK  0 active torsions:
REMARK  status: ('A' for Active; 'I' for Inactive)
ROOT
ATOM      1  C   UNL d   1      -4.060  -1.092  -5.971  0.00  0.00     0.023 A 
ATOM      2  C1  UNL d   1      -5.446  -0.929  -5.991  0.00  0.00     0.003 A 
ATOM      3  C2  UNL d   1      -6.000   0.352  -5.998  0.00  0.00     0.048 A 
ATOM      4  C3  UNL d   1      -5.162   1.467  -5.986  0.00  0.00     0.023 A 
ATOM      5  C4  UNL d   1      -3.776   1.310  -5.967  0.00  0.00     0.048 A 
ATOM      6  C5  UNL d   1      -3.226   0.026  -5.959  0.00  0.00     0.003 A 
ATOM      7  I   UNL d   1      -5.984   3.376  -5.997  0.00  0.00    -0.146 I 
ENDROOT
TORSDOF 0
ENDMDL
