MODEL 1
REMARK minimizedAffinity -0.86736089
REMARK minimizedRMSD -1
REMARK  0 active torsions:
REMARK  status: ('A' for Active; 'I' for Inactive)
ROOT
ATOM      1  C   UNL d   1      -4.099   1.145   1.129  0.00  0.00     0.020 A 
ATOM      2  C1  UNL d   1      -3.764  -0.129   1.586  0.00  0.00     0.020 A 
ATOM      3  C2  UNL d   1      -2.554  -0.712   1.204  0.00  0.00     0.034 A 
ATOM      4  C3  UNL d   1      -1.674  -0.021   0.363  0.00  0.00     0.017 A 
ATOM      5  C4  UNL d   1      -2.011   1.258  -0.096  0.00  0.00     0.017 A 
ATOM      6  C5  UNL d   1      -3.224   1.837   0.290  0.00  0.00     0.034 A 
ATOM      7 Cl   UNL d   1      -0.977   2.172  -1.136  0.00  0.00    -0.070 Cl
ATOM      8 Cl1  UNL d   1      -0.195  -0.803  -0.069  0.00  0.00    -0.070 Cl
ENDROOT
TORSDOF 0
ENDMDL
