MODEL 1
REMARK minimizedAffinity -3.5707655
REMARK minimizedRMSD -1
REMARK  0 active torsions:
REMARK  status: ('A' for Active; 'I' for Inactive)
ROOT
ATOM      1  C   UNL d   1       2.555  -1.004   1.067  0.00  0.00     0.020 A 
ATOM      2  C1  UNL d   1       2.286   0.330   1.372  0.00  0.00     0.020 A 
ATOM      3  C2  UNL d   1       1.087   0.913   0.957  0.00  0.00     0.034 A 
ATOM      4  C3  UNL d   1       0.152   0.162   0.235  0.00  0.00     0.017 A 
ATOM      5  C4  UNL d   1       0.422  -1.177  -0.070  0.00  0.00     0.017 A 
ATOM      6  C5  UNL d   1       1.625  -1.756   0.347  0.00  0.00     0.034 A 
ATOM      7 Cl   UNL d   1      -0.683  -2.167  -0.957  0.00  0.00    -0.070 Cl
ATOM      8 Cl1  UNL d   1      -1.310   0.947  -0.245  0.00  0.00    -0.070 Cl
ENDROOT
TORSDOF 0
ENDMDL
