MODEL 1
REMARK minimizedAffinity -3.93914294
REMARK minimizedRMSD -1
REMARK  0 active torsions:
REMARK  status: ('A' for Active; 'I' for Inactive)
ROOT
ATOM      1  C   UNL d   1       0.936   1.783   0.145  0.00  0.00     0.020 A 
ATOM      2  C1  UNL d   1      -0.166   1.249  -0.522  0.00  0.00     0.020 A 
ATOM      3  C2  UNL d   1      -0.288  -0.134  -0.674  0.00  0.00     0.034 A 
ATOM      4  C3  UNL d   1       0.694  -0.988  -0.158  0.00  0.00     0.017 A 
ATOM      5  C4  UNL d   1       1.800  -0.451   0.512  0.00  0.00     0.017 A 
ATOM      6  C5  UNL d   1       1.917   0.935   0.661  0.00  0.00     0.034 A 
ATOM      7 Cl   UNL d   1       3.052  -1.440   1.175  0.00  0.00    -0.070 Cl
ATOM      8 Cl1  UNL d   1       0.479  -2.687  -0.381  0.00  0.00    -0.070 Cl
ENDROOT
TORSDOF 0
ENDMDL
