MODEL 1
REMARK minimizedAffinity -1.45555091
REMARK minimizedRMSD -1
REMARK  0 active torsions:
REMARK  status: ('A' for Active; 'I' for Inactive)
ROOT
ATOM      1  C   UNL d   1      -0.906  -1.277  -0.506  0.00  0.00     0.020 A 
ATOM      2  C1  UNL d   1      -1.066   0.096  -0.324  0.00  0.00     0.020 A 
ATOM      3  C2  UNL d   1       0.049   0.905  -0.092  0.00  0.00     0.034 A 
ATOM      4  C3  UNL d   1       1.329   0.341  -0.042  0.00  0.00     0.017 A 
ATOM      5  C4  UNL d   1       1.489  -1.037  -0.224  0.00  0.00     0.017 A 
ATOM      6  C5  UNL d   1       0.369  -1.842  -0.456  0.00  0.00     0.034 A 
ATOM      7 Cl   UNL d   1       3.036  -1.805  -0.175  0.00  0.00    -0.070 Cl
ATOM      8 Cl1  UNL d   1       2.662   1.400   0.249  0.00  0.00    -0.070 Cl
ENDROOT
TORSDOF 0
ENDMDL
