MODEL 1
REMARK minimizedAffinity -4.61087227
REMARK minimizedRMSD -1
REMARK  0 active torsions:
REMARK  status: ('A' for Active; 'I' for Inactive)
ROOT
ATOM      1  C   UNL d   1       3.175   0.343   0.498  0.00  0.00     0.020 A 
ATOM      2  C1  UNL d   1       3.272  -1.045   0.416  0.00  0.00     0.020 A 
ATOM      3  C2  UNL d   1       2.128  -1.812   0.184  0.00  0.00     0.034 A 
ATOM      4  C3  UNL d   1       0.883  -1.192   0.034  0.00  0.00     0.017 A 
ATOM      5  C4  UNL d   1       0.786   0.202   0.117  0.00  0.00     0.017 A 
ATOM      6  C5  UNL d   1       1.935   0.965   0.349  0.00  0.00     0.034 A 
ATOM      7 Cl   UNL d   1      -0.716   1.039  -0.057  0.00  0.00    -0.070 Cl
ATOM      8 Cl1  UNL d   1      -0.489  -2.203  -0.250  0.00  0.00    -0.070 Cl
ENDROOT
TORSDOF 0
ENDMDL
