MODEL 1
REMARK minimizedAffinity -0.940297961
REMARK minimizedRMSD -1
REMARK  0 active torsions:
REMARK  status: ('A' for Active; 'I' for Inactive)
ROOT
ATOM      1  C   UNL d   1       2.916  -1.647   1.307  0.00  0.00     0.020 A 
ATOM      2  C1  UNL d   1       3.018  -1.985  -0.042  0.00  0.00     0.020 A 
ATOM      3  C2  UNL d   1       1.956  -1.720  -0.910  0.00  0.00     0.034 A 
ATOM      4  C3  UNL d   1       0.788  -1.118  -0.430  0.00  0.00     0.017 A 
ATOM      5  C4  UNL d   1       0.686  -0.779   0.925  0.00  0.00     0.017 A 
ATOM      6  C5  UNL d   1       1.752  -1.046   1.789  0.00  0.00     0.034 A 
ATOM      7 Cl   UNL d   1      -0.723  -0.033   1.591  0.00  0.00    -0.070 Cl
ATOM      8 Cl1  UNL d   1      -0.486  -0.820  -1.559  0.00  0.00    -0.070 Cl
ENDROOT
TORSDOF 0
ENDMDL
