MODEL 1
REMARK minimizedAffinity -2.7651639
REMARK minimizedRMSD -1
REMARK  0 active torsions:
REMARK  status: ('A' for Active; 'I' for Inactive)
ROOT
ATOM      1  C   UNL d   1       2.610  -1.585   0.561  0.00  0.00     0.020 A 
ATOM      2  C1  UNL d   1       2.374  -0.308   1.067  0.00  0.00     0.020 A 
ATOM      3  C2  UNL d   1       1.149   0.321   0.832  0.00  0.00     0.034 A 
ATOM      4  C3  UNL d   1       0.156  -0.328   0.089  0.00  0.00     0.017 A 
ATOM      5  C4  UNL d   1       0.395  -1.610  -0.419  0.00  0.00     0.017 A 
ATOM      6  C5  UNL d   1       1.623  -2.235  -0.181  0.00  0.00     0.034 A 
ATOM      7 Cl   UNL d   1      -0.781  -2.473  -1.346  0.00  0.00    -0.070 Cl
ATOM      8 Cl1  UNL d   1      -1.334   0.509  -0.163  0.00  0.00    -0.070 Cl
ENDROOT
TORSDOF 0
ENDMDL
