MODEL 1
REMARK minimizedAffinity 0.498723507
REMARK minimizedRMSD -1
REMARK  0 active torsions:
REMARK  status: ('A' for Active; 'I' for Inactive)
ROOT
ATOM      1  C   UNL d   1      -0.792  -0.094  -0.380  0.00  0.00     0.020 A 
ATOM      2  C1  UNL d   1      -0.697   1.282  -0.179  0.00  0.00     0.020 A 
ATOM      3  C2  UNL d   1       0.555   1.878  -0.007  0.00  0.00     0.034 A 
ATOM      4  C3  UNL d   1       1.716   1.097  -0.034  0.00  0.00     0.017 A 
ATOM      5  C4  UNL d   1       1.619  -0.285  -0.236  0.00  0.00     0.017 A 
ATOM      6  C5  UNL d   1       0.364  -0.876  -0.409  0.00  0.00     0.034 A 
ATOM      7 Cl   UNL d   1       3.007  -1.314  -0.283  0.00  0.00    -0.070 Cl
ATOM      8 Cl1  UNL d   1       3.230   1.900   0.186  0.00  0.00    -0.070 Cl
ENDROOT
TORSDOF 0
ENDMDL
