MODEL 1
REMARK minimizedAffinity 5.61226749
REMARK minimizedRMSD -1
REMARK  0 active torsions:
REMARK  status: ('A' for Active; 'I' for Inactive)
ROOT
ATOM      1  C   UNL d   1       2.531  -1.190  -2.476  0.00  0.00     0.077 C 
ATOM      2  C1  UNL d   1       3.747  -0.931  -3.314  0.00  0.00    -0.074 A 
ATOM      3  C2  UNL d   1       4.879  -1.746  -3.210  0.00  0.00    -0.005 A 
ATOM      4  C3  UNL d   1       5.999  -1.499  -4.004  0.00  0.00     0.006 A 
ATOM      5  C4  UNL d   1       5.999  -0.436  -4.908  0.00  0.00    -0.005 A 
ATOM      6  C5  UNL d   1       4.877   0.390  -5.026  0.00  0.00    -0.074 A 
ATOM      7  C6  UNL d   1       4.856   1.531  -5.999  0.00  0.00     0.077 C 
ATOM      8  C7  UNL d   1       3.752   0.131  -4.230  0.00  0.00    -0.001 A 
ENDROOT
TORSDOF 0
ENDMDL
