MODEL 1
REMARK minimizedAffinity -0.18548201
REMARK minimizedRMSD -1
REMARK  0 active torsions:
REMARK  status: ('A' for Active; 'I' for Inactive)
ROOT
ATOM      1  C   UNL d   1      -4.311  -6.000  -1.251  0.00  0.00     0.077 C 
ATOM      2  C1  UNL d   1      -4.795  -5.240  -2.450  0.00  0.00    -0.074 A 
ATOM      3  C2  UNL d   1      -4.897  -3.845  -2.424  0.00  0.00    -0.005 A 
ATOM      4  C3  UNL d   1      -5.340  -3.151  -3.550  0.00  0.00     0.006 A 
ATOM      5  C4  UNL d   1      -5.685  -3.843  -4.711  0.00  0.00    -0.005 A 
ATOM      6  C5  UNL d   1      -5.589  -5.238  -4.756  0.00  0.00    -0.074 A 
ATOM      7  C6  UNL d   1      -5.947  -5.996  -6.000  0.00  0.00     0.077 C 
ATOM      8  C7  UNL d   1      -5.136  -5.928  -3.623  0.00  0.00    -0.001 A 
ENDROOT
TORSDOF 0
ENDMDL
