MODEL 1
REMARK minimizedAffinity -1.26075339
REMARK minimizedRMSD -1
REMARK  0 active torsions:
REMARK  status: ('A' for Active; 'I' for Inactive)
ROOT
ATOM      1  C   UNL d   1       3.750   2.576  -5.573  0.00  0.00     0.077 C 
ATOM      2  C1  UNL d   1       4.370   1.252  -5.239  0.00  0.00    -0.074 A 
ATOM      3  C2  UNL d   1       5.426   0.740  -5.999  0.00  0.00    -0.005 A 
ATOM      4  C3  UNL d   1       5.999  -0.489  -5.670  0.00  0.00     0.006 A 
ATOM      5  C4  UNL d   1       5.523  -1.217  -4.579  0.00  0.00    -0.005 A 
ATOM      6  C5  UNL d   1       4.468  -0.720  -3.807  0.00  0.00    -0.074 A 
ATOM      7  C6  UNL d   1       3.950  -1.486  -2.625  0.00  0.00     0.077 C 
ATOM      8  C7  UNL d   1       3.902   0.518  -4.139  0.00  0.00    -0.001 A 
ENDROOT
TORSDOF 0
ENDMDL
