MODEL 1
REMARK minimizedAffinity -0.716086268
REMARK minimizedRMSD -1
REMARK  0 active torsions:
REMARK  status: ('A' for Active; 'I' for Inactive)
ROOT
ATOM      1  C   UNL d   1      -5.999  -4.805  -5.999  0.00  0.00     0.077 C 
ATOM      2  C1  UNL d   1      -5.639  -4.862  -4.544  0.00  0.00    -0.074 A 
ATOM      3  C2  UNL d   1      -4.961  -5.965  -4.014  0.00  0.00    -0.005 A 
ATOM      4  C3  UNL d   1      -4.625  -6.000  -2.661  0.00  0.00     0.006 A 
ATOM      5  C4  UNL d   1      -4.962  -4.934  -1.826  0.00  0.00    -0.005 A 
ATOM      6  C5  UNL d   1      -5.639  -3.823  -2.338  0.00  0.00    -0.074 A 
ATOM      7  C6  UNL d   1      -6.000  -2.665  -1.456  0.00  0.00     0.077 C 
ATOM      8  C7  UNL d   1      -5.967  -3.792  -3.700  0.00  0.00    -0.001 A 
ENDROOT
TORSDOF 0
ENDMDL
