MODEL 1
REMARK minimizedAffinity 5.7264719
REMARK minimizedRMSD -1
REMARK  0 active torsions:
REMARK  status: ('A' for Active; 'I' for Inactive)
ROOT
ATOM      1  C   UNL d   1      -5.688  -3.170  -0.988  0.00  0.00     0.077 C 
ATOM      2  C1  UNL d   1      -5.777  -3.902  -2.294  0.00  0.00    -0.074 A 
ATOM      3  C2  UNL d   1      -5.813  -5.300  -2.333  0.00  0.00    -0.005 A 
ATOM      4  C3  UNL d   1      -5.905  -5.967  -3.555  0.00  0.00     0.006 A 
ATOM      5  C4  UNL d   1      -5.963  -5.244  -4.747  0.00  0.00    -0.005 A 
ATOM      6  C5  UNL d   1      -5.929  -3.846  -4.728  0.00  0.00    -0.074 A 
ATOM      7  C6  UNL d   1      -5.999  -3.055  -5.999  0.00  0.00     0.077 C 
ATOM      8  C7  UNL d   1      -5.843  -3.183  -3.496  0.00  0.00    -0.001 A 
ENDROOT
TORSDOF 0
ENDMDL
