MODEL 1
REMARK minimizedAffinity 3.03351808
REMARK minimizedRMSD -1
REMARK  0 active torsions:
REMARK  status: ('A' for Active; 'I' for Inactive)
ROOT
ATOM      1  C   UNL d   1       4.732   0.257  -6.000  0.00  0.00     0.077 C 
ATOM      2  C1  UNL d   1       4.650  -0.658  -4.814  0.00  0.00    -0.074 A 
ATOM      3  C2  UNL d   1       5.784  -0.945  -4.048  0.00  0.00    -0.005 A 
ATOM      4  C3  UNL d   1       5.690  -1.791  -2.943  0.00  0.00     0.006 A 
ATOM      5  C4  UNL d   1       4.464  -2.356  -2.593  0.00  0.00    -0.005 A 
ATOM      6  C5  UNL d   1       3.319  -2.079  -3.346  0.00  0.00    -0.074 A 
ATOM      7  C6  UNL d   1       1.990  -2.671  -2.978  0.00  0.00     0.077 C 
ATOM      8  C7  UNL d   1       3.419  -1.223  -4.451  0.00  0.00    -0.001 A 
ENDROOT
TORSDOF 0
ENDMDL
