MODEL 1
REMARK minimizedAffinity 8.79729557
REMARK minimizedRMSD -1
REMARK  0 active torsions:
REMARK  status: ('A' for Active; 'I' for Inactive)
ROOT
ATOM      1  C   UNL d   1      -5.279  -2.246  -1.686  0.00  0.00     0.077 C 
ATOM      2  C1  UNL d   1      -5.303  -3.558  -2.413  0.00  0.00    -0.074 A 
ATOM      3  C2  UNL d   1      -5.135  -4.764  -1.725  0.00  0.00    -0.005 A 
ATOM      4  C3  UNL d   1      -5.169  -5.977  -2.412  0.00  0.00     0.006 A 
ATOM      5  C4  UNL d   1      -5.370  -5.996  -3.793  0.00  0.00    -0.005 A 
ATOM      6  C5  UNL d   1      -5.540  -4.800  -4.498  0.00  0.00    -0.074 A 
ATOM      7  C6  UNL d   1      -5.767  -4.804  -5.981  0.00  0.00     0.077 C 
ATOM      8  C7  UNL d   1      -5.512  -3.586  -3.799  0.00  0.00    -0.001 A 
ENDROOT
TORSDOF 0
ENDMDL
