MODEL 1
REMARK minimizedAffinity 0.618021131
REMARK minimizedRMSD -1
REMARK  0 active torsions:
REMARK  status: ('A' for Active; 'I' for Inactive)
ROOT
ATOM      1  C   UNL d   1      -5.552  -4.831  -5.852  0.00  0.00     0.077 C 
ATOM      2  C1  UNL d   1      -4.857  -5.243  -4.588  0.00  0.00    -0.074 A 
ATOM      3  C2  UNL d   1      -3.504  -5.595  -4.593  0.00  0.00    -0.005 A 
ATOM      4  C3  UNL d   1      -2.869  -5.967  -3.408  0.00  0.00     0.006 A 
ATOM      5  C4  UNL d   1      -3.580  -5.990  -2.207  0.00  0.00    -0.005 A 
ATOM      6  C5  UNL d   1      -4.934  -5.640  -2.182  0.00  0.00    -0.074 A 
ATOM      7  C6  UNL d   1      -5.711  -5.649  -0.899  0.00  0.00     0.077 C 
ATOM      8  C7  UNL d   1      -5.563  -5.261  -3.376  0.00  0.00    -0.001 A 
ENDROOT
TORSDOF 0
ENDMDL
