MODEL 1
REMARK minimizedAffinity -3.90799189
REMARK minimizedRMSD -1
REMARK  0 active torsions:
REMARK  status: ('A' for Active; 'I' for Inactive)
ROOT
ATOM      1  C4' PXY d   1       2.383  -1.738  -2.051  0.00  0.00     0.077 C 
ATOM      2  C1' PXY d   1       4.820   3.402  -1.024  0.00  0.00     0.077 C 
ATOM      3  C1  PXY d   1       4.180   2.052  -1.280  0.00  0.00    -0.082 A 
ATOM      4  C2  PXY d   1       4.370   1.449  -2.443  0.00  0.00     0.003 A 
ATOM      5  C3  PXY d   1       3.772   0.242  -2.703  0.00  0.00     0.003 A 
ATOM      6  C4  PXY d   1       3.017  -0.378  -1.744  0.00  0.00    -0.082 A 
ATOM      7  C5  PXY d   1       2.828   0.226  -0.552  0.00  0.00     0.003 A 
ATOM      8  C6  PXY d   1       3.409   1.470  -0.322  0.00  0.00     0.003 A 
ENDROOT
TORSDOF 0
ENDMDL
