MODEL 1
REMARK minimizedAffinity 3.68402815
REMARK minimizedRMSD -1
REMARK  0 active torsions:
REMARK  status: ('A' for Active; 'I' for Inactive)
ROOT
ATOM      1  C4' PXY d   1       4.100   2.769  -1.042  0.00  0.00     0.077 C 
ATOM      2  C1' PXY d   1       1.688  -2.470  -1.435  0.00  0.00     0.077 C 
ATOM      3  C1  PXY d   1       2.326  -1.097  -1.343  0.00  0.00    -0.082 A 
ATOM      4  C2  PXY d   1       2.555  -0.560  -0.156  0.00  0.00     0.003 A 
ATOM      5  C3  PXY d   1       3.101   0.693  -0.056  0.00  0.00     0.003 A 
ATOM      6  C4  PXY d   1       3.467   1.382  -1.182  0.00  0.00    -0.082 A 
ATOM      7  C5  PXY d   1       3.246   0.836  -2.396  0.00  0.00     0.003 A 
ATOM      8  C6  PXY d   1       2.652  -0.420  -2.478  0.00  0.00     0.003 A 
ENDROOT
TORSDOF 0
ENDMDL
