MODEL 1
REMARK minimizedAffinity 0.997669578
REMARK minimizedRMSD -1
REMARK  0 active torsions:
REMARK  status: ('A' for Active; 'I' for Inactive)
ROOT
ATOM      1  C4' PXY d   1      -4.913   6.000   3.062  0.00  0.00     0.077 C 
ATOM      2  C1' PXY d   1      -4.995   1.050   0.077  0.00  0.00     0.077 C 
ATOM      3  C1  PXY d   1      -4.961   2.348   0.860  0.00  0.00    -0.082 A 
ATOM      4  C2  PXY d   1      -5.999   2.691   1.604  0.00  0.00     0.003 A 
ATOM      5  C3  PXY d   1      -5.998   3.877   2.293  0.00  0.00     0.003 A 
ATOM      6  C4  PXY d   1      -4.900   4.694   2.263  0.00  0.00    -0.082 A 
ATOM      7  C5  PXY d   1      -3.832   4.346   1.514  0.00  0.00     0.003 A 
ATOM      8  C6  PXY d   1      -3.870   3.158   0.789  0.00  0.00     0.003 A 
ENDROOT
TORSDOF 0
ENDMDL
