MODEL 1
REMARK minimizedAffinity 0.659729123
REMARK minimizedRMSD -1
REMARK  0 active torsions:
REMARK  status: ('A' for Active; 'I' for Inactive)
ROOT
ATOM      1  C4' PXY d   1       3.978   1.661  -0.495  0.00  0.00     0.077 C 
ATOM      2  C1' PXY d   1       0.384  -1.582   2.665  0.00  0.00     0.077 C 
ATOM      3  C1  PXY d   1       1.334  -0.742   1.834  0.00  0.00    -0.082 A 
ATOM      4  C2  PXY d   1       1.388   0.566   2.025  0.00  0.00     0.003 A 
ATOM      5  C3  PXY d   1       2.219   1.345   1.260  0.00  0.00     0.003 A 
ATOM      6  C4  PXY d   1       3.041   0.772   0.328  0.00  0.00    -0.082 A 
ATOM      7  C5  PXY d   1       3.000  -0.563   0.134  0.00  0.00     0.003 A 
ATOM      8  C6  PXY d   1       2.120  -1.331   0.892  0.00  0.00     0.003 A 
ENDROOT
TORSDOF 0
ENDMDL
