MODEL 1
REMARK minimizedAffinity -1.28790724
REMARK minimizedRMSD -1
REMARK  0 active torsions:
REMARK  status: ('A' for Active; 'I' for Inactive)
ROOT
ATOM      1  C4' PXY d   1       1.283   2.326   3.377  0.00  0.00     0.077 C 
ATOM      2  C1' PXY d   1       4.712   1.427  -1.189  0.00  0.00     0.077 C 
ATOM      3  C1  PXY d   1       3.823   1.663   0.016  0.00  0.00    -0.082 A 
ATOM      4  C2  PXY d   1       2.544   1.326  -0.038  0.00  0.00     0.003 A 
ATOM      5  C3  PXY d   1       1.719   1.561   1.031  0.00  0.00     0.003 A 
ATOM      6  C4  PXY d   1       2.219   2.098   2.187  0.00  0.00    -0.082 A 
ATOM      7  C5  PXY d   1       3.525   2.434   2.254  0.00  0.00     0.003 A 
ATOM      8  C6  PXY d   1       4.337   2.225   1.143  0.00  0.00     0.003 A 
ENDROOT
TORSDOF 0
ENDMDL
