MODEL 1
REMARK minimizedAffinity 2.4524684
REMARK minimizedRMSD -1
REMARK  0 active torsions:
REMARK  status: ('A' for Active; 'I' for Inactive)
ROOT
ATOM      1  C4' PXY d   1      -5.014   0.558   0.013  0.00  0.00     0.077 C 
ATOM      2  C1' PXY d   1      -3.591   0.965  -5.575  0.00  0.00     0.077 C 
ATOM      3  C1  PXY d   1      -3.968   0.871  -4.110  0.00  0.00    -0.082 A 
ATOM      4  C2  PXY d   1      -3.364  -0.014  -3.334  0.00  0.00     0.003 A 
ATOM      5  C3  PXY d   1      -3.716  -0.135  -2.014  0.00  0.00     0.003 A 
ATOM      6  C4  PXY d   1      -4.659   0.695  -1.470  0.00  0.00    -0.082 A 
ATOM      7  C5  PXY d   1      -5.272   1.609  -2.252  0.00  0.00     0.003 A 
ATOM      8  C6  PXY d   1      -4.930   1.687  -3.599  0.00  0.00     0.003 A 
ENDROOT
TORSDOF 0
ENDMDL
