MODEL 1
REMARK minimizedAffinity -1.05266714
REMARK minimizedRMSD -1
REMARK  0 active torsions:
REMARK  status: ('A' for Active; 'I' for Inactive)
ROOT
ATOM      1  C4' PXY d   1      -6.000  -0.679  -4.526  0.00  0.00     0.077 C 
ATOM      2  C1' PXY d   1      -2.937   4.021  -3.133  0.00  0.00     0.077 C 
ATOM      3  C1  PXY d   1      -3.748   2.791  -3.488  0.00  0.00    -0.082 A 
ATOM      4  C2  PXY d   1      -3.192   1.825  -4.201  0.00  0.00     0.003 A 
ATOM      5  C3  PXY d   1      -3.921   0.719  -4.558  0.00  0.00     0.003 A 
ATOM      6  C4  PXY d   1      -5.216   0.577  -4.136  0.00  0.00    -0.082 A 
ATOM      7  C5  PXY d   1      -5.787   1.554  -3.399  0.00  0.00     0.003 A 
ATOM      8  C6  PXY d   1      -5.043   2.687  -3.082  0.00  0.00     0.003 A 
ENDROOT
TORSDOF 0
ENDMDL
