MODEL 1
REMARK minimizedAffinity 5.29652643
REMARK minimizedRMSD -1
REMARK  0 active torsions:
REMARK  status: ('A' for Active; 'I' for Inactive)
ROOT
ATOM      1  C4' PXY d   1      -2.681   4.276  -3.863  0.00  0.00     0.077 C 
ATOM      2  C1' PXY d   1      -5.803  -0.528  -3.100  0.00  0.00     0.077 C 
ATOM      3  C1  PXY d   1      -4.995   0.739  -3.300  0.00  0.00    -0.082 A 
ATOM      4  C2  PXY d   1      -3.787   0.666  -3.835  0.00  0.00     0.003 A 
ATOM      5  C3  PXY d   1      -3.030   1.798  -3.994  0.00  0.00     0.003 A 
ATOM      6  C4  PXY d   1      -3.536   3.024  -3.651  0.00  0.00    -0.082 A 
ATOM      7  C5  PXY d   1      -4.772   3.107  -3.115  0.00  0.00     0.003 A 
ATOM      8  C6  PXY d   1      -5.508   1.941  -2.923  0.00  0.00     0.003 A 
ENDROOT
TORSDOF 0
ENDMDL
