MODEL 1
REMARK minimizedAffinity -0.591686904
REMARK minimizedRMSD -1
REMARK  0 active torsions:
REMARK  status: ('A' for Active; 'I' for Inactive)
ROOT
ATOM      1  C4' PXY d   1       2.339   2.893   3.177  0.00  0.00     0.077 C 
ATOM      2  C1' PXY d   1       0.209   4.471  -1.960  0.00  0.00     0.077 C 
ATOM      3  C1  PXY d   1       0.756   4.056  -0.608  0.00  0.00    -0.082 A 
ATOM      4  C2  PXY d   1       1.979   4.418  -0.258  0.00  0.00     0.003 A 
ATOM      5  C3  PXY d   1       2.501   4.024   0.948  0.00  0.00     0.003 A 
ATOM      6  C4  PXY d   1       1.743   3.297   1.826  0.00  0.00    -0.082 A 
ATOM      7  C5  PXY d   1       0.490   2.933   1.481  0.00  0.00     0.003 A 
ATOM      8  C6  PXY d   1      -0.006   3.308   0.235  0.00  0.00     0.003 A 
ENDROOT
TORSDOF 0
ENDMDL
