MODEL 1
REMARK minimizedAffinity 8.12254906
REMARK minimizedRMSD -1
REMARK  0 active torsions:
REMARK  status: ('A' for Active; 'I' for Inactive)
ROOT
ATOM      1  C4' PXY d   1      -0.011   2.472   1.235  0.00  0.00     0.077 C 
ATOM      2  C1' PXY d   1       0.537   5.796  -3.462  0.00  0.00     0.077 C 
ATOM      3  C1  PXY d   1       0.382   4.920  -2.234  0.00  0.00    -0.082 A 
ATOM      4  C2  PXY d   1       1.000   5.250  -1.112  0.00  0.00     0.003 A 
ATOM      5  C3  PXY d   1       0.896   4.452  -0.002  0.00  0.00     0.003 A 
ATOM      6  C4  PXY d   1       0.109   3.332  -0.026  0.00  0.00    -0.082 A 
ATOM      7  C5  PXY d   1      -0.534   2.994  -1.163  0.00  0.00     0.003 A 
ATOM      8  C6  PXY d   1      -0.382   3.796  -2.291  0.00  0.00     0.003 A 
ENDROOT
TORSDOF 0
ENDMDL
