MODEL 1
REMARK minimizedAffinity 12.9777632
REMARK minimizedRMSD -1
REMARK  0 active torsions:
REMARK  status: ('A' for Active; 'I' for Inactive)
ROOT
ATOM      1  C4' PXY d   1       5.467  -4.116  -0.961  0.00  0.00     0.077 C 
ATOM      2  C1' PXY d   1       3.280  -5.997  -5.971  0.00  0.00     0.077 C 
ATOM      3  C1  PXY d   1       3.842  -5.507  -4.651  0.00  0.00    -0.082 A 
ATOM      4  C2  PXY d   1       4.812  -4.607  -4.647  0.00  0.00     0.003 A 
ATOM      5  C3  PXY d   1       5.354  -4.176  -3.463  0.00  0.00     0.003 A 
ATOM      6  C4  PXY d   1       4.862  -4.632  -2.270  0.00  0.00    -0.082 A 
ATOM      7  C5  PXY d   1       3.865  -5.542  -2.265  0.00  0.00     0.003 A 
ATOM      8  C6  PXY d   1       3.357  -5.997  -3.478  0.00  0.00     0.003 A 
ENDROOT
TORSDOF 0
ENDMDL
