MODEL 1
REMARK minimizedAffinity 7.16927481
REMARK minimizedRMSD -1
REMARK  0 active torsions:
REMARK  status: ('A' for Active; 'I' for Inactive)
ROOT
ATOM      1  C4' PXY d   1       0.362   2.272   3.258  0.00  0.00     0.077 C 
ATOM      2  C1' PXY d   1      -0.714   3.861  -2.195  0.00  0.00     0.077 C 
ATOM      3  C1  PXY d   1      -0.440   3.434  -0.766  0.00  0.00    -0.082 A 
ATOM      4  C2  PXY d   1      -0.049   4.333   0.121  0.00  0.00     0.003 A 
ATOM      5  C3  PXY d   1       0.235   3.958   1.410  0.00  0.00     0.003 A 
ATOM      6  C4  PXY d   1       0.064   2.659   1.807  0.00  0.00    -0.082 A 
ATOM      7  C5  PXY d   1      -0.345   1.737   0.909  0.00  0.00     0.003 A 
ATOM      8  C6  PXY d   1      -0.588   2.130  -0.404  0.00  0.00     0.003 A 
ENDROOT
TORSDOF 0
ENDMDL
