MODEL 1
REMARK minimizedAffinity 11.4802589
REMARK minimizedRMSD -1
REMARK  0 active torsions:
REMARK  status: ('A' for Active; 'I' for Inactive)
ROOT
ATOM      1  C4' PXY d   1      -3.230   1.122   2.254  0.00  0.00     0.077 C 
ATOM      2  C1' PXY d   1      -6.000  -2.301   6.000  0.00  0.00     0.077 C 
ATOM      3  C1  PXY d   1      -5.263  -1.411   5.019  0.00  0.00    -0.082 A 
ATOM      4  C2  PXY d   1      -5.664  -0.163   4.838  0.00  0.00     0.003 A 
ATOM      5  C3  PXY d   1      -5.029   0.646   3.932  0.00  0.00     0.003 A 
ATOM      6  C4  PXY d   1      -3.938   0.190   3.241  0.00  0.00    -0.082 A 
ATOM      7  C5  PXY d   1      -3.516  -1.078   3.428  0.00  0.00     0.003 A 
ATOM      8  C6  PXY d   1      -4.200  -1.897   4.322  0.00  0.00     0.003 A 
ENDROOT
TORSDOF 0
ENDMDL
