MODEL 1
REMARK minimizedAffinity 1.43697202
REMARK minimizedRMSD -1
REMARK  0 active torsions:
REMARK  status: ('A' for Active; 'I' for Inactive)
ROOT
ATOM      1  C4' PXY d   1      -5.057   3.009  -1.101  0.00  0.00     0.077 C 
ATOM      2  C1' PXY d   1      -5.741   6.000  -6.000  0.00  0.00     0.077 C 
ATOM      3  C1  PXY d   1      -5.561   5.227  -4.708  0.00  0.00    -0.082 A 
ATOM      4  C2  PXY d   1      -5.114   3.982  -4.748  0.00  0.00     0.003 A 
ATOM      5  C3  PXY d   1      -4.975   3.258  -3.593  0.00  0.00     0.003 A 
ATOM      6  C4  PXY d   1      -5.246   3.831  -2.379  0.00  0.00    -0.082 A 
ATOM      7  C5  PXY d   1      -5.692   5.104  -2.329  0.00  0.00     0.003 A 
ATOM      8  C6  PXY d   1      -5.865   5.809  -3.517  0.00  0.00     0.003 A 
ENDROOT
TORSDOF 0
ENDMDL
