MODEL 1
REMARK minimizedAffinity 2.75405598
REMARK minimizedRMSD -1
REMARK  0 active torsions:
REMARK  status: ('A' for Active; 'I' for Inactive)
ROOT
ATOM      1  C4' PXY d   1      -4.133   0.795  -6.000  0.00  0.00     0.077 C 
ATOM      2  C1' PXY d   1      -5.999   3.252  -1.111  0.00  0.00     0.077 C 
ATOM      3  C1  PXY d   1      -5.506   2.619  -2.397  0.00  0.00    -0.082 A 
ATOM      4  C2  PXY d   1      -5.999   1.454  -2.784  0.00  0.00     0.003 A 
ATOM      5  C3  PXY d   1      -5.542   0.852  -3.928  0.00  0.00     0.003 A 
ATOM      6  C4  PXY d   1      -4.608   1.475  -4.713  0.00  0.00    -0.082 A 
ATOM      7  C5  PXY d   1      -4.108   2.669  -4.330  0.00  0.00     0.003 A 
ATOM      8  C6  PXY d   1      -4.556   3.244  -3.144  0.00  0.00     0.003 A 
ENDROOT
TORSDOF 0
ENDMDL
