MODEL 1
REMARK minimizedAffinity 6.44596386
REMARK minimizedRMSD -1
REMARK  1 active torsions:
REMARK  status: ('A' for Active; 'I' for Inactive)
REMARK    1  A    between atoms: C3_4  and  O_7 
ROOT
ATOM      1  C   UNL d   1       0.602  -0.378  -1.480  0.00  0.00    -0.033 A 
ATOM      2  C1  UNL d   1       1.115  -1.167  -0.449  0.00  0.00     0.039 A 
ATOM      3  C2  UNL d   1       1.682  -0.565   0.677  0.00  0.00    -0.080 A 
ATOM      4  C3  UNL d   1       1.728   0.824   0.759  0.00  0.00     0.150 A 
ATOM      5  C4  UNL d   1       1.215   1.616  -0.264  0.00  0.00    -0.007 A 
ATOM      6  C5  UNL d   1       0.651   1.013  -1.387  0.00  0.00     0.039 A 
ENDROOT
BRANCH   4   7
ATOM      7  O   UNL d   1       2.275   1.457   1.835  0.00  0.00    -0.526 OA
ATOM      8  H5  UNL d   1       2.614   0.783   2.448  0.00  0.00     0.418 HD
ENDBRANCH   4   7
TORSDOF 1
ENDMDL
