MODEL 1
REMARK minimizedAffinity 6.01078844
REMARK minimizedRMSD -1
REMARK  1 active torsions:
REMARK  status: ('A' for Active; 'I' for Inactive)
REMARK    1  A    between atoms: C3_4  and  O_7 
ROOT
ATOM      1  C   UNL d   1       1.031   0.327  -1.733  0.00  0.00    -0.033 A 
ATOM      2  C1  UNL d   1       1.754   0.750  -0.616  0.00  0.00     0.039 A 
ATOM      3  C2  UNL d   1       2.053   2.104  -0.448  0.00  0.00    -0.080 A 
ATOM      4  C3  UNL d   1       1.623   3.022  -1.401  0.00  0.00     0.150 A 
ATOM      5  C4  UNL d   1       0.898   2.608  -2.514  0.00  0.00    -0.007 A 
ATOM      6  C5  UNL d   1       0.602   1.256  -2.681  0.00  0.00     0.039 A 
ENDROOT
BRANCH   4   7
ATOM      7  O   UNL d   1       1.894   4.353  -1.282  0.00  0.00    -0.526 OA
ATOM      8  H5  UNL d   1       2.426   4.488  -0.480  0.00  0.00     0.418 HD
ENDBRANCH   4   7
TORSDOF 1
ENDMDL
