MODEL 1
REMARK minimizedAffinity 1.64425743
REMARK minimizedRMSD -1
REMARK  1 active torsions:
REMARK  status: ('A' for Active; 'I' for Inactive)
REMARK    1  A    between atoms: C3_4  and  O_7 
ROOT
ATOM      1  C   UNL d   1       0.739   0.351  -1.014  0.00  0.00    -0.033 A 
ATOM      2  C1  UNL d   1       1.611  -0.531  -0.373  0.00  0.00     0.039 A 
ATOM      3  C2  UNL d   1       2.144  -0.205   0.876  0.00  0.00    -0.080 A 
ATOM      4  C3  UNL d   1       1.796   1.003   1.473  0.00  0.00     0.150 A 
ATOM      5  C4  UNL d   1       0.925   1.886   0.842  0.00  0.00    -0.007 A 
ATOM      6  C5  UNL d   1       0.395   1.559  -0.405  0.00  0.00     0.039 A 
ENDROOT
BRANCH   4   7
ATOM      7  O   UNL d   1       2.295   1.367   2.689  0.00  0.00    -0.526 OA
ATOM      8  H5  UNL d   1       2.905   0.674   2.991  0.00  0.00     0.418 HD
ENDBRANCH   4   7
TORSDOF 1
ENDMDL
