MODEL 1
REMARK minimizedAffinity -0.736448944
REMARK minimizedRMSD -1
REMARK  1 active torsions:
REMARK  status: ('A' for Active; 'I' for Inactive)
REMARK    1  A    between atoms: C3_4  and  O_7 
ROOT
ATOM      1  C   UNL d   1       0.211  -3.813  -1.270  0.00  0.00    -0.033 A 
ATOM      2  C1  UNL d   1       1.470  -3.481  -0.766  0.00  0.00     0.039 A 
ATOM      3  C2  UNL d   1       1.856  -2.142  -0.673  0.00  0.00    -0.080 A 
ATOM      4  C3  UNL d   1       0.975  -1.147  -1.087  0.00  0.00     0.150 A 
ATOM      5  C4  UNL d   1      -0.282  -1.470  -1.587  0.00  0.00    -0.007 A 
ATOM      6  C5  UNL d   1      -0.665  -2.808  -1.680  0.00  0.00     0.039 A 
ENDROOT
BRANCH   4   7
ATOM      7  O   UNL d   1       1.309   0.173  -1.020  0.00  0.00    -0.526 OA
ATOM      8  H5  UNL d   1       2.218   0.244  -0.682  0.00  0.00     0.418 HD
ENDBRANCH   4   7
TORSDOF 1
ENDMDL
