MODEL 1
REMARK minimizedAffinity -0.528568923
REMARK minimizedRMSD -1
REMARK  1 active torsions:
REMARK  status: ('A' for Active; 'I' for Inactive)
REMARK    1  A    between atoms: C3_4  and  O_7 
ROOT
ATOM      1  C   UNL d   1       1.195   0.031   0.863  0.00  0.00    -0.033 A 
ATOM      2  C1  UNL d   1       1.276  -0.576  -0.392  0.00  0.00     0.039 A 
ATOM      3  C2  UNL d   1       1.278   0.207  -1.549  0.00  0.00    -0.080 A 
ATOM      4  C3  UNL d   1       1.201   1.592  -1.437  0.00  0.00     0.150 A 
ATOM      5  C4  UNL d   1       1.125   2.203  -0.189  0.00  0.00    -0.007 A 
ATOM      6  C5  UNL d   1       1.121   1.420   0.964  0.00  0.00     0.039 A 
ENDROOT
BRANCH   4   7
ATOM      7  O   UNL d   1       1.196   2.397  -2.537  0.00  0.00    -0.526 OA
ATOM      8  H5  UNL d   1       1.224   1.835  -3.329  0.00  0.00     0.418 HD
ENDBRANCH   4   7
TORSDOF 1
ENDMDL
