MODEL 1
REMARK minimizedAffinity -1.85955882
REMARK minimizedRMSD -1
REMARK  1 active torsions:
REMARK  status: ('A' for Active; 'I' for Inactive)
REMARK    1  A    between atoms: C3_4  and  O_7 
ROOT
ATOM      1  C   UNL d   1       0.918   0.508   0.281  0.00  0.00    -0.033 A 
ATOM      2  C1  UNL d   1       0.938   1.666   1.061  0.00  0.00     0.039 A 
ATOM      3  C2  UNL d   1       1.197   2.904   0.470  0.00  0.00    -0.080 A 
ATOM      4  C3  UNL d   1       1.434   2.970  -0.901  0.00  0.00     0.150 A 
ATOM      5  C4  UNL d   1       1.412   1.821  -1.684  0.00  0.00    -0.007 A 
ATOM      6  C5  UNL d   1       1.154   0.586  -1.091  0.00  0.00     0.039 A 
ENDROOT
BRANCH   4   7
ATOM      7  O   UNL d   1       1.697   4.155  -1.522  0.00  0.00    -0.526 OA
ATOM      8  H5  UNL d   1       1.708   4.858  -0.852  0.00  0.00     0.418 HD
ENDBRANCH   4   7
TORSDOF 1
ENDMDL
