MODEL 1
REMARK minimizedAffinity 3.35475135
REMARK minimizedRMSD -1
REMARK  1 active torsions:
REMARK  status: ('A' for Active; 'I' for Inactive)
REMARK    1  A    between atoms: C3_4  and  O_7 
ROOT
ATOM      1  C   UNL d   1       0.847  -0.150  -1.050  0.00  0.00    -0.033 A 
ATOM      2  C1  UNL d   1       0.503   0.461  -2.258  0.00  0.00     0.039 A 
ATOM      3  C2  UNL d   1       0.981   1.738  -2.558  0.00  0.00    -0.080 A 
ATOM      4  C3  UNL d   1       1.802   2.392  -1.644  0.00  0.00     0.150 A 
ATOM      5  C4  UNL d   1       2.153   1.788  -0.441  0.00  0.00    -0.007 A 
ATOM      6  C5  UNL d   1       1.674   0.513  -0.143  0.00  0.00     0.039 A 
ENDROOT
BRANCH   4   7
ATOM      7  O   UNL d   1       2.289   3.641  -1.891  0.00  0.00    -0.526 OA
ATOM      8  H5  UNL d   1       1.941   3.944  -2.746  0.00  0.00     0.418 HD
ENDBRANCH   4   7
TORSDOF 1
ENDMDL
