MODEL 1
REMARK minimizedAffinity -2.82839108
REMARK minimizedRMSD -1
REMARK  1 active torsions:
REMARK  status: ('A' for Active; 'I' for Inactive)
REMARK    1  A    between atoms: C3_4  and  O_7 
ROOT
ATOM      1  C   UNL d   1       0.954   0.454  -0.445  0.00  0.00    -0.033 A 
ATOM      2  C1  UNL d   1       1.056   0.805  -1.792  0.00  0.00     0.039 A 
ATOM      3  C2  UNL d   1       1.405   2.109  -2.152  0.00  0.00    -0.080 A 
ATOM      4  C3  UNL d   1       1.649   3.050  -1.155  0.00  0.00     0.150 A 
ATOM      5  C4  UNL d   1       1.553   2.706   0.189  0.00  0.00    -0.007 A 
ATOM      6  C5  UNL d   1       1.203   1.404   0.546  0.00  0.00     0.039 A 
ENDROOT
BRANCH   4   7
ATOM      7  O   UNL d   1       1.988   4.335  -1.457  0.00  0.00    -0.526 OA
ATOM      8  H5  UNL d   1       1.988   4.435  -2.423  0.00  0.00     0.418 HD
ENDBRANCH   4   7
TORSDOF 1
ENDMDL
