MODEL 1
REMARK minimizedAffinity 4.71440554
REMARK minimizedRMSD -1
REMARK  1 active torsions:
REMARK  status: ('A' for Active; 'I' for Inactive)
REMARK    1  A    between atoms: C3_4  and  O_7 
ROOT
ATOM      1  C   UNL d   1       1.167   1.214  -0.449  0.00  0.00    -0.033 A 
ATOM      2  C1  UNL d   1       1.359   1.721  -1.735  0.00  0.00     0.039 A 
ATOM      3  C2  UNL d   1       1.484   3.098  -1.933  0.00  0.00    -0.080 A 
ATOM      4  C3  UNL d   1       1.415   3.955  -0.838  0.00  0.00     0.150 A 
ATOM      5  C4  UNL d   1       1.228   3.456   0.447  0.00  0.00    -0.007 A 
ATOM      6  C5  UNL d   1       1.103   2.081   0.642  0.00  0.00     0.039 A 
ENDROOT
BRANCH   4   7
ATOM      7  O   UNL d   1       1.527   5.306  -0.983  0.00  0.00    -0.526 OA
ATOM      8  H5  UNL d   1       1.623   5.507  -1.928  0.00  0.00     0.418 HD
ENDBRANCH   4   7
TORSDOF 1
ENDMDL
