MODEL 1
REMARK minimizedAffinity -2.49673486
REMARK minimizedRMSD -1
REMARK  1 active torsions:
REMARK  status: ('A' for Active; 'I' for Inactive)
REMARK    1  A    between atoms: C3_4  and  O_7 
ROOT
ATOM      1  C   UNL d   1       0.980   0.318  -0.348  0.00  0.00    -0.033 A 
ATOM      2  C1  UNL d   1       0.658   0.619  -1.672  0.00  0.00     0.039 A 
ATOM      3  C2  UNL d   1       0.931   1.888  -2.188  0.00  0.00    -0.080 A 
ATOM      4  C3  UNL d   1       1.526   2.844  -1.370  0.00  0.00     0.150 A 
ATOM      5  C4  UNL d   1       1.853   2.550  -0.050  0.00  0.00    -0.007 A 
ATOM      6  C5  UNL d   1       1.579   1.283   0.463  0.00  0.00     0.039 A 
ENDROOT
BRANCH   4   7
ATOM      7  O   UNL d   1       1.807   4.098  -1.827  0.00  0.00    -0.526 OA
ATOM      8  H5  UNL d   1       1.500   4.166  -2.747  0.00  0.00     0.418 HD
ENDBRANCH   4   7
TORSDOF 1
ENDMDL
