MODEL 1
REMARK minimizedAffinity 1.85949004
REMARK minimizedRMSD -1
REMARK  1 active torsions:
REMARK  status: ('A' for Active; 'I' for Inactive)
REMARK    1  A    between atoms: C3_4  and  O_7 
ROOT
ATOM      1  C   UNL d   1       1.221   1.452  -0.822  0.00  0.00    -0.033 A 
ATOM      2  C1  UNL d   1       1.296   2.035  -2.088  0.00  0.00     0.039 A 
ATOM      3  C2  UNL d   1       1.515   3.409  -2.215  0.00  0.00    -0.080 A 
ATOM      4  C3  UNL d   1       1.658   4.186  -1.069  0.00  0.00     0.150 A 
ATOM      5  C4  UNL d   1       1.589   3.611   0.196  0.00  0.00    -0.007 A 
ATOM      6  C5  UNL d   1       1.369   2.240   0.320  0.00  0.00     0.039 A 
ENDROOT
BRANCH   4   7
ATOM      7  O   UNL d   1       1.869   5.531  -1.142  0.00  0.00    -0.526 OA
ATOM      8  H5  UNL d   1       1.865   5.793  -2.078  0.00  0.00     0.418 HD
ENDBRANCH   4   7
TORSDOF 1
ENDMDL
