MODEL 1
REMARK minimizedAffinity -2.83666039
REMARK minimizedRMSD -1
REMARK  1 active torsions:
REMARK  status: ('A' for Active; 'I' for Inactive)
REMARK    1  A    between atoms: C3_4  and  O_7 
ROOT
ATOM      1  C   UNL d   1       1.537   0.452  -1.558  0.00  0.00    -0.033 A 
ATOM      2  C1  UNL d   1       1.130   1.703  -2.025  0.00  0.00     0.039 A 
ATOM      3  C2  UNL d   1       0.925   2.752  -1.127  0.00  0.00    -0.080 A 
ATOM      4  C3  UNL d   1       1.130   2.538   0.233  0.00  0.00     0.150 A 
ATOM      5  C4  UNL d   1       1.538   1.295   0.705  0.00  0.00    -0.007 A 
ATOM      6  C5  UNL d   1       1.742   0.248  -0.193  0.00  0.00     0.039 A 
ENDROOT
BRANCH   4   7
ATOM      7  O   UNL d   1       0.937   3.530   1.148  0.00  0.00    -0.526 OA
ATOM      8  H5  UNL d   1       0.628   4.324   0.680  0.00  0.00     0.418 HD
ENDBRANCH   4   7
TORSDOF 1
ENDMDL
