MODEL 1
REMARK minimizedAffinity 1.52067316
REMARK minimizedRMSD -1
REMARK  1 active torsions:
REMARK  status: ('A' for Active; 'I' for Inactive)
REMARK    1  A    between atoms: C3_4  and  O_7 
ROOT
ATOM      1  C   UNL d   1       2.809   0.933   0.891  0.00  0.00    -0.033 A 
ATOM      2  C1  UNL d   1       2.143   2.122   1.195  0.00  0.00     0.039 A 
ATOM      3  C2  UNL d   1       1.479   2.829   0.190  0.00  0.00    -0.080 A 
ATOM      4  C3  UNL d   1       1.486   2.335  -1.112  0.00  0.00     0.150 A 
ATOM      5  C4  UNL d   1       2.144   1.149  -1.421  0.00  0.00    -0.007 A 
ATOM      6  C5  UNL d   1       2.808   0.446  -0.417  0.00  0.00     0.039 A 
ENDROOT
BRANCH   4   7
ATOM      7  O   UNL d   1       0.856   2.992  -2.126  0.00  0.00    -0.526 OA
ATOM      8  H5  UNL d   1       0.469   3.810  -1.770  0.00  0.00     0.418 HD
ENDBRANCH   4   7
TORSDOF 1
ENDMDL
