MODEL 1
REMARK minimizedAffinity 1.88977194
REMARK minimizedRMSD -1
REMARK  1 active torsions:
REMARK  status: ('A' for Active; 'I' for Inactive)
REMARK    1  A    between atoms: C3_4  and  O_7 
ROOT
ATOM      1  C   UNL d   1       1.434   0.170   0.143  0.00  0.00    -0.033 A 
ATOM      2  C1  UNL d   1       1.379   1.504   0.553  0.00  0.00     0.039 A 
ATOM      3  C2  UNL d   1       1.053   2.505  -0.364  0.00  0.00    -0.080 A 
ATOM      4  C3  UNL d   1       0.783   2.159  -1.685  0.00  0.00     0.150 A 
ATOM      5  C4  UNL d   1       0.832   0.832  -2.100  0.00  0.00    -0.007 A 
ATOM      6  C5  UNL d   1       1.160  -0.166  -1.183  0.00  0.00     0.039 A 
ENDROOT
BRANCH   4   7
ATOM      7  O   UNL d   1       0.465   3.102  -2.617  0.00  0.00    -0.526 OA
ATOM      8  H5  UNL d   1       0.497   3.976  -2.194  0.00  0.00     0.418 HD
ENDBRANCH   4   7
TORSDOF 1
ENDMDL
