MODEL 1
REMARK minimizedAffinity -1.9805609
REMARK minimizedRMSD -1
REMARK  1 active torsions:
REMARK  status: ('A' for Active; 'I' for Inactive)
REMARK    1  A    between atoms: C3_4  and  O_7 
ROOT
ATOM      1  C   UNL d   1       1.172  -0.156  -0.966  0.00  0.00    -0.033 A 
ATOM      2  C1  UNL d   1       1.580  -0.140   0.370  0.00  0.00     0.039 A 
ATOM      3  C2  UNL d   1       1.448   1.025   1.128  0.00  0.00    -0.080 A 
ATOM      4  C3  UNL d   1       0.908   2.165   0.540  0.00  0.00     0.150 A 
ATOM      5  C4  UNL d   1       0.497   2.156  -0.788  0.00  0.00    -0.007 A 
ATOM      6  C5  UNL d   1       0.630   0.992  -1.544  0.00  0.00     0.039 A 
ENDROOT
BRANCH   4   7
ATOM      7  O   UNL d   1       0.765   3.327   1.239  0.00  0.00    -0.526 OA
ATOM      8  H5  UNL d   1       1.117   3.193   2.135  0.00  0.00     0.418 HD
ENDBRANCH   4   7
TORSDOF 1
ENDMDL
