MODEL 1
REMARK minimizedAffinity 1.58884561
REMARK minimizedRMSD -1
REMARK  1 active torsions:
REMARK  status: ('A' for Active; 'I' for Inactive)
REMARK    1  A    between atoms: C3_4  and  O_7 
ROOT
ATOM      1  C   UNL d   1       0.646   0.187  -1.443  0.00  0.00    -0.033 A 
ATOM      2  C1  UNL d   1       1.463   0.552  -0.370  0.00  0.00     0.039 A 
ATOM      3  C2  UNL d   1       1.738   1.899  -0.127  0.00  0.00    -0.080 A 
ATOM      4  C3  UNL d   1       1.191   2.870  -0.961  0.00  0.00     0.150 A 
ATOM      5  C4  UNL d   1       0.374   2.514  -2.029  0.00  0.00    -0.007 A 
ATOM      6  C5  UNL d   1       0.101   1.168  -2.271  0.00  0.00     0.039 A 
ENDROOT
BRANCH   4   7
ATOM      7  O   UNL d   1       1.435   4.197  -0.766  0.00  0.00    -0.526 OA
ATOM      8  H5  UNL d   1       2.039   4.291  -0.010  0.00  0.00     0.418 HD
ENDBRANCH   4   7
TORSDOF 1
ENDMDL
