MODEL 1
REMARK minimizedAffinity -4.22642565
REMARK minimizedRMSD -1
REMARK  0 active torsions:
REMARK  status: ('A' for Active; 'I' for Inactive)
ROOT
ATOM      1  C   UNL d   1       0.883   1.316   4.232  0.00  0.00     0.077 C 
ATOM      2  C1  UNL d   1       0.157   0.556   3.161  0.00  0.00    -0.074 A 
ATOM      3  C2  UNL d   1      -0.842  -0.366   3.487  0.00  0.00    -0.005 A 
ATOM      4  C3  UNL d   1      -1.516  -1.058   2.480  0.00  0.00     0.006 A 
ATOM      5  C4  UNL d   1      -1.196  -0.836   1.140  0.00  0.00    -0.005 A 
ATOM      6  C5  UNL d   1      -0.200   0.083   0.796  0.00  0.00    -0.074 A 
ATOM      7  C6  UNL d   1       0.149   0.341  -0.640  0.00  0.00     0.077 C 
ATOM      8  C7  UNL d   1       0.467   0.780   1.813  0.00  0.00    -0.001 A 
ENDROOT
TORSDOF 0
ENDMDL
