MODEL 1
REMARK minimizedAffinity 1.45844543
REMARK minimizedRMSD -1
REMARK  0 active torsions:
REMARK  status: ('A' for Active; 'I' for Inactive)
ROOT
ATOM      1  C   UNL d   1       0.040   1.737   3.352  0.00  0.00     0.077 C 
ATOM      2  C1  UNL d   1      -0.369   0.550   2.531  0.00  0.00    -0.074 A 
ATOM      3  C2  UNL d   1      -1.115  -0.491   3.094  0.00  0.00    -0.005 A 
ATOM      4  C3  UNL d   1      -1.496  -1.583   2.315  0.00  0.00     0.006 A 
ATOM      5  C4  UNL d   1      -1.136  -1.647   0.969  0.00  0.00    -0.005 A 
ATOM      6  C5  UNL d   1      -0.391  -0.615   0.389  0.00  0.00    -0.074 A 
ATOM      7  C6  UNL d   1      -0.004  -0.663  -1.060  0.00  0.00     0.077 C 
ATOM      8  C7  UNL d   1      -0.017   0.483   1.176  0.00  0.00    -0.001 A 
ENDROOT
TORSDOF 0
ENDMDL
