MODEL 1
REMARK minimizedAffinity -4.39441872
REMARK minimizedRMSD -1
REMARK  0 active torsions:
REMARK  status: ('A' for Active; 'I' for Inactive)
ROOT
ATOM      1  C   UNL d   1      -0.016  -0.173  -1.795  0.00  0.00     0.077 C 
ATOM      2  C1  UNL d   1       0.374  -0.016  -0.355  0.00  0.00    -0.074 A 
ATOM      3  C2  UNL d   1       1.558   0.636   0.002  0.00  0.00    -0.005 A 
ATOM      4  C3  UNL d   1       1.902   0.782   1.346  0.00  0.00     0.006 A 
ATOM      5  C4  UNL d   1       1.067   0.279   2.344  0.00  0.00    -0.005 A 
ATOM      6  C5  UNL d   1      -0.122  -0.374   2.006  0.00  0.00    -0.074 A 
ATOM      7  C6  UNL d   1      -1.036  -0.912   3.067  0.00  0.00     0.077 C 
ATOM      8  C7  UNL d   1      -0.464  -0.512   0.654  0.00  0.00    -0.001 A 
ENDROOT
TORSDOF 0
ENDMDL
