MODEL 1
REMARK minimizedAffinity -4.40610552
REMARK minimizedRMSD -1
REMARK  0 active torsions:
REMARK  status: ('A' for Active; 'I' for Inactive)
ROOT
ATOM      1  C   UNL d   1      -1.748   0.530   3.329  0.00  0.00     0.077 C 
ATOM      2  C1  UNL d   1      -0.989   0.790   2.062  0.00  0.00    -0.074 A 
ATOM      3  C2  UNL d   1      -1.638   0.798   0.824  0.00  0.00    -0.005 A 
ATOM      4  C3  UNL d   1      -0.920   1.051  -0.345  0.00  0.00     0.006 A 
ATOM      5  C4  UNL d   1       0.452   1.297  -0.288  0.00  0.00    -0.005 A 
ATOM      6  C5  UNL d   1       1.119   1.293   0.942  0.00  0.00    -0.074 A 
ATOM      7  C6  UNL d   1       2.591   1.565   1.022  0.00  0.00     0.077 C 
ATOM      8  C7  UNL d   1       0.389   1.045   2.113  0.00  0.00    -0.001 A 
ENDROOT
TORSDOF 0
ENDMDL
