MODEL 1
REMARK minimizedAffinity 0.463760525
REMARK minimizedRMSD -1
REMARK  0 active torsions:
REMARK  status: ('A' for Active; 'I' for Inactive)
ROOT
ATOM      1  C   UNL d   1      -2.751   0.376   0.202  0.00  0.00     0.077 C 
ATOM      2  C1  UNL d   1      -1.435   0.150  -0.481  0.00  0.00    -0.074 A 
ATOM      3  C2  UNL d   1      -0.332   0.966  -0.203  0.00  0.00    -0.005 A 
ATOM      4  C3  UNL d   1       0.888   0.738  -0.839  0.00  0.00     0.006 A 
ATOM      5  C4  UNL d   1       1.019  -0.305  -1.757  0.00  0.00    -0.005 A 
ATOM      6  C5  UNL d   1      -0.072  -1.131  -2.046  0.00  0.00    -0.074 A 
ATOM      7  C6  UNL d   1       0.054  -2.262  -3.023  0.00  0.00     0.077 C 
ATOM      8  C7  UNL d   1      -1.293  -0.900  -1.398  0.00  0.00    -0.001 A 
ENDROOT
TORSDOF 0
ENDMDL
