MODEL 1
REMARK minimizedAffinity -3.32243371
REMARK minimizedRMSD -1
REMARK  0 active torsions:
REMARK  status: ('A' for Active; 'I' for Inactive)
ROOT
ATOM      1  C   UNL d   1       0.894  -0.028  -2.265  0.00  0.00     0.077 C 
ATOM      2  C1  UNL d   1      -0.235  -0.025  -1.278  0.00  0.00    -0.074 A 
ATOM      3  C2  UNL d   1      -1.530   0.333  -1.667  0.00  0.00    -0.005 A 
ATOM      4  C3  UNL d   1      -2.572   0.322  -0.740  0.00  0.00     0.006 A 
ATOM      5  C4  UNL d   1      -2.330  -0.046   0.584  0.00  0.00    -0.005 A 
ATOM      6  C5  UNL d   1      -1.042  -0.408   0.991  0.00  0.00    -0.074 A 
ATOM      7  C6  UNL d   1      -0.767  -0.817   2.408  0.00  0.00     0.077 C 
ATOM      8  C7  UNL d   1      -0.002  -0.402   0.052  0.00  0.00    -0.001 A 
ENDROOT
TORSDOF 0
ENDMDL
