MODEL 1
REMARK minimizedAffinity -5.05169106
REMARK minimizedRMSD -1
REMARK  0 active torsions:
REMARK  status: ('A' for Active; 'I' for Inactive)
ROOT
ATOM      1  C   UNL d   1      -0.050   0.486  -1.409  0.00  0.00     0.077 C 
ATOM      2  C1  UNL d   1      -0.211   0.174   0.050  0.00  0.00    -0.074 A 
ATOM      3  C2  UNL d   1      -1.256  -0.640   0.500  0.00  0.00    -0.005 A 
ATOM      4  C3  UNL d   1      -1.387  -0.929   1.858  0.00  0.00     0.006 A 
ATOM      5  C4  UNL d   1      -0.477  -0.407   2.778  0.00  0.00    -0.005 A 
ATOM      6  C5  UNL d   1       0.575   0.408   2.347  0.00  0.00    -0.074 A 
ATOM      7  C6  UNL d   1       1.567   0.968   3.321  0.00  0.00     0.077 C 
ATOM      8  C7  UNL d   1       0.704   0.688   0.979  0.00  0.00    -0.001 A 
ENDROOT
TORSDOF 0
ENDMDL
