MODEL 1
REMARK minimizedAffinity -4.43062592
REMARK minimizedRMSD -1
REMARK  0 active torsions:
REMARK  status: ('A' for Active; 'I' for Inactive)
ROOT
ATOM      1  C   UNL d   1       0.011   0.298  -1.403  0.00  0.00     0.077 C 
ATOM      2  C1  UNL d   1       0.050  -0.007   0.065  0.00  0.00    -0.074 A 
ATOM      3  C2  UNL d   1      -1.077  -0.508   0.725  0.00  0.00    -0.005 A 
ATOM      4  C3  UNL d   1      -1.024  -0.796   2.089  0.00  0.00     0.006 A 
ATOM      5  C4  UNL d   1       0.155  -0.587   2.805  0.00  0.00    -0.005 A 
ATOM      6  C5  UNL d   1       1.292  -0.088   2.162  0.00  0.00    -0.074 A 
ATOM      7  C6  UNL d   1       2.570   0.134   2.915  0.00  0.00     0.077 C 
ATOM      8  C7  UNL d   1       1.233   0.193   0.790  0.00  0.00    -0.001 A 
ENDROOT
TORSDOF 0
ENDMDL
