MODEL 1
REMARK minimizedAffinity -4.33197498
REMARK minimizedRMSD -1
REMARK  0 active torsions:
REMARK  status: ('A' for Active; 'I' for Inactive)
ROOT
ATOM      1  C   UNL d   1       3.237   0.281   1.521  0.00  0.00     0.077 C 
ATOM      2  C1  UNL d   1       1.745   0.370   1.648  0.00  0.00    -0.074 A 
ATOM      3  C2  UNL d   1       1.123   0.275   2.897  0.00  0.00    -0.005 A 
ATOM      4  C3  UNL d   1      -0.265   0.368   3.001  0.00  0.00     0.006 A 
ATOM      5  C4  UNL d   1      -1.044   0.557   1.858  0.00  0.00    -0.005 A 
ATOM      6  C5  UNL d   1      -0.439   0.655   0.601  0.00  0.00    -0.074 A 
ATOM      7  C6  UNL d   1      -1.261   0.868  -0.636  0.00  0.00     0.077 C 
ATOM      8  C7  UNL d   1       0.956   0.567   0.506  0.00  0.00    -0.001 A 
ENDROOT
TORSDOF 0
ENDMDL
