MODEL 1
REMARK minimizedAffinity -4.67555523
REMARK minimizedRMSD -1
REMARK  0 active torsions:
REMARK  status: ('A' for Active; 'I' for Inactive)
ROOT
ATOM      1  C   UNL d   1      -1.185  -0.931   3.453  0.00  0.00     0.077 C 
ATOM      2  C1  UNL d   1      -0.354  -0.331   2.358  0.00  0.00    -0.074 A 
ATOM      3  C2  UNL d   1       1.008  -0.076   2.548  0.00  0.00    -0.005 A 
ATOM      4  C3  UNL d   1       1.771   0.474   1.518  0.00  0.00     0.006 A 
ATOM      5  C4  UNL d   1       1.181   0.772   0.289  0.00  0.00    -0.005 A 
ATOM      6  C5  UNL d   1      -0.179   0.523   0.080  0.00  0.00    -0.074 A 
ATOM      7  C6  UNL d   1      -0.827   0.829  -1.237  0.00  0.00     0.077 C 
ATOM      8  C7  UNL d   1      -0.938  -0.036   1.118  0.00  0.00    -0.001 A 
ENDROOT
TORSDOF 0
ENDMDL
