MODEL 1
REMARK minimizedAffinity -0.782007396
REMARK minimizedRMSD -1
REMARK  0 active torsions:
REMARK  status: ('A' for Active; 'I' for Inactive)
ROOT
ATOM      1  C   UNL d   1       1.008  -0.483  -2.616  0.00  0.00     0.077 C 
ATOM      2  C1  UNL d   1       0.029  -0.087  -1.551  0.00  0.00    -0.074 A 
ATOM      3  C2  UNL d   1      -0.879   0.956  -1.762  0.00  0.00    -0.005 A 
ATOM      4  C3  UNL d   1      -1.790   1.307  -0.766  0.00  0.00     0.006 A 
ATOM      5  C4  UNL d   1      -1.803   0.621   0.449  0.00  0.00    -0.005 A 
ATOM      6  C5  UNL d   1      -0.903  -0.425   0.677  0.00  0.00    -0.074 A 
ATOM      7  C6  UNL d   1      -0.910  -1.180   1.973  0.00  0.00     0.077 C 
ATOM      8  C7  UNL d   1       0.005  -0.777  -0.331  0.00  0.00    -0.001 A 
ENDROOT
TORSDOF 0
ENDMDL
