MODEL 1
REMARK minimizedAffinity -5.01173067
REMARK minimizedRMSD -1
REMARK  0 active torsions:
REMARK  status: ('A' for Active; 'I' for Inactive)
ROOT
ATOM      1  C   UNL d   1       0.190   0.120  -1.891  0.00  0.00     0.077 C 
ATOM      2  C1  UNL d   1       0.409   0.219  -0.411  0.00  0.00    -0.074 A 
ATOM      3  C2  UNL d   1      -0.657   0.078   0.484  0.00  0.00    -0.005 A 
ATOM      4  C3  UNL d   1      -0.436   0.164   1.859  0.00  0.00     0.006 A 
ATOM      5  C4  UNL d   1       0.850   0.391   2.352  0.00  0.00    -0.005 A 
ATOM      6  C5  UNL d   1       1.927   0.534   1.472  0.00  0.00    -0.074 A 
ATOM      7  C6  UNL d   1       3.317   0.769   1.985  0.00  0.00     0.077 C 
ATOM      8  C7  UNL d   1       1.699   0.440   0.092  0.00  0.00    -0.001 A 
ENDROOT
TORSDOF 0
ENDMDL
