MODEL 1
REMARK minimizedAffinity -4.09373283
REMARK minimizedRMSD -1
REMARK  0 active torsions:
REMARK  status: ('A' for Active; 'I' for Inactive)
ROOT
ATOM      1  C   UNL d   1      -2.455   1.210  -0.723  0.00  0.00     0.077 C 
ATOM      2  C1  UNL d   1      -1.208   0.803   0.005  0.00  0.00    -0.074 A 
ATOM      3  C2  UNL d   1       0.054   1.019  -0.557  0.00  0.00    -0.005 A 
ATOM      4  C3  UNL d   1       1.206   0.645   0.135  0.00  0.00     0.006 A 
ATOM      5  C4  UNL d   1       1.107   0.052   1.394  0.00  0.00    -0.005 A 
ATOM      6  C5  UNL d   1      -0.147  -0.171   1.973  0.00  0.00    -0.074 A 
ATOM      7  C6  UNL d   1      -0.271  -0.799   3.329  0.00  0.00     0.077 C 
ATOM      8  C7  UNL d   1      -1.299   0.214   1.273  0.00  0.00    -0.001 A 
ENDROOT
TORSDOF 0
ENDMDL
