MODEL 1
REMARK minimizedAffinity -2.15215898
REMARK minimizedRMSD -1
REMARK  0 active torsions:
REMARK  status: ('A' for Active; 'I' for Inactive)
ROOT
ATOM      1  C   UNL d   1      -0.454   0.447  -0.409  0.00  0.00     0.077 C 
ATOM      2  C1  UNL d   1      -0.902   0.214   1.004  0.00  0.00    -0.074 A 
ATOM      3  C2  UNL d   1      -1.021  -1.082   1.515  0.00  0.00    -0.005 A 
ATOM      4  C3  UNL d   1      -1.430  -1.284   2.833  0.00  0.00     0.006 A 
ATOM      5  C4  UNL d   1      -1.723  -0.192   3.652  0.00  0.00    -0.005 A 
ATOM      6  C5  UNL d   1      -1.609   1.111   3.159  0.00  0.00    -0.074 A 
ATOM      7  C6  UNL d   1      -1.910   2.295   4.029  0.00  0.00     0.077 C 
ATOM      8  C7  UNL d   1      -1.191   1.305   1.835  0.00  0.00    -0.001 A 
ENDROOT
TORSDOF 0
ENDMDL
