MODEL 1
REMARK minimizedAffinity -4.00131464
REMARK minimizedRMSD -1
REMARK  0 active torsions:
REMARK  status: ('A' for Active; 'I' for Inactive)
ROOT
ATOM      1  C   UNL d   1      -1.636  -0.787  -0.716  0.00  0.00     0.077 C 
ATOM      2  C1  UNL d   1      -1.511  -0.634   0.770  0.00  0.00    -0.074 A 
ATOM      3  C2  UNL d   1      -2.435  -1.230   1.634  0.00  0.00    -0.005 A 
ATOM      4  C3  UNL d   1      -2.301  -1.087   3.015  0.00  0.00     0.006 A 
ATOM      5  C4  UNL d   1      -1.242  -0.348   3.545  0.00  0.00    -0.005 A 
ATOM      6  C5  UNL d   1      -0.308   0.254   2.697  0.00  0.00    -0.074 A 
ATOM      7  C6  UNL d   1       0.841   1.044   3.251  0.00  0.00     0.077 C 
ATOM      8  C7  UNL d   1      -0.446   0.100   1.311  0.00  0.00    -0.001 A 
ENDROOT
TORSDOF 0
ENDMDL
