MODEL 1
REMARK minimizedAffinity -4.22300148
REMARK minimizedRMSD -1
REMARK  0 active torsions:
REMARK  status: ('A' for Active; 'I' for Inactive)
ROOT
ATOM      1  C   UNL d   1       2.977   2.397   1.138  0.00  0.00     0.077 C 
ATOM      2  C1  UNL d   1       1.728   1.591   1.340  0.00  0.00    -0.074 A 
ATOM      3  C2  UNL d   1       1.247   1.322   2.625  0.00  0.00    -0.005 A 
ATOM      4  C3  UNL d   1       0.079   0.579   2.797  0.00  0.00     0.006 A 
ATOM      5  C4  UNL d   1      -0.618   0.098   1.687  0.00  0.00    -0.005 A 
ATOM      6  C5  UNL d   1      -0.152   0.358   0.395  0.00  0.00    -0.074 A 
ATOM      7  C6  UNL d   1      -0.894  -0.143  -0.809  0.00  0.00     0.077 C 
ATOM      8  C7  UNL d   1       1.019   1.111   0.230  0.00  0.00    -0.001 A 
ENDROOT
TORSDOF 0
ENDMDL
