MODEL 1
REMARK minimizedAffinity -4.2323904
REMARK minimizedRMSD -1
REMARK  0 active torsions:
REMARK  status: ('A' for Active; 'I' for Inactive)
ROOT
ATOM      1  C   UNL d   1      -0.686  -0.651   3.562  0.00  0.00     0.077 C 
ATOM      2  C1  UNL d   1      -1.206  -0.381   2.181  0.00  0.00    -0.074 A 
ATOM      3  C2  UNL d   1      -2.538  -0.010   1.974  0.00  0.00    -0.005 A 
ATOM      4  C3  UNL d   1      -3.005   0.247   0.685  0.00  0.00     0.006 A 
ATOM      5  C4  UNL d   1      -2.145   0.135  -0.408  0.00  0.00    -0.005 A 
ATOM      6  C5  UNL d   1      -0.809  -0.233  -0.221  0.00  0.00    -0.074 A 
ATOM      7  C6  UNL d   1       0.131  -0.348  -1.384  0.00  0.00     0.077 C 
ATOM      8  C7  UNL d   1      -0.346  -0.483   1.078  0.00  0.00    -0.001 A 
ENDROOT
TORSDOF 0
ENDMDL
