MODEL 1
REMARK minimizedAffinity -2.64953566
REMARK minimizedRMSD -1
REMARK  0 active torsions:
REMARK  status: ('A' for Active; 'I' for Inactive)
ROOT
ATOM      1  C   UNL d   1       0.406  -4.854  -1.043  0.00  0.00     0.077 C 
ATOM      2  C1  UNL d   1       0.459  -3.513  -1.712  0.00  0.00    -0.074 A 
ATOM      3  C2  UNL d   1      -0.711  -2.797  -1.982  0.00  0.00    -0.005 A 
ATOM      4  C3  UNL d   1      -0.645  -1.547  -2.597  0.00  0.00     0.006 A 
ATOM      5  C4  UNL d   1       0.590  -1.000  -2.946  0.00  0.00    -0.005 A 
ATOM      6  C5  UNL d   1       1.772  -1.701  -2.683  0.00  0.00    -0.074 A 
ATOM      7  C6  UNL d   1       3.108  -1.124  -3.044  0.00  0.00     0.077 C 
ATOM      8  C7  UNL d   1       1.697  -2.954  -2.059  0.00  0.00    -0.001 A 
ENDROOT
TORSDOF 0
ENDMDL
