MODEL 1
REMARK minimizedAffinity -5.99824238
REMARK minimizedRMSD -1
REMARK  0 active torsions:
REMARK  status: ('A' for Active; 'I' for Inactive)
ROOT
ATOM      1  C   UNL d   1       2.571   0.882   1.678  0.00  0.00     0.077 C 
ATOM      2  C1  UNL d   1       1.102   0.584   1.628  0.00  0.00    -0.074 A 
ATOM      3  C2  UNL d   1       0.409   0.189   2.777  0.00  0.00    -0.005 A 
ATOM      4  C3  UNL d   1      -0.959  -0.075   2.717  0.00  0.00     0.006 A 
ATOM      5  C4  UNL d   1      -1.647   0.053   1.510  0.00  0.00    -0.005 A 
ATOM      6  C5  UNL d   1      -0.971   0.448   0.351  0.00  0.00    -0.074 A 
ATOM      7  C6  UNL d   1      -1.698   0.600  -0.952  0.00  0.00     0.077 C 
ATOM      8  C7  UNL d   1       0.402   0.718   0.421  0.00  0.00    -0.001 A 
ENDROOT
TORSDOF 0
ENDMDL
