MODEL 1
REMARK minimizedAffinity 1.77052426
REMARK minimizedRMSD -1
REMARK  3 active torsions:
REMARK  status: ('A' for Active; 'I' for Inactive)
REMARK    1  A    between atoms: C3'_2  and  C2'_3 
REMARK    2  A    between atoms: C2'_3  and  C1'_4 
REMARK    3  A    between atoms: C1'_4  and  C1_5 
ROOT
ATOM      1  C1  N4B d   1      -0.308   2.288  -0.465  0.00  0.00    -0.075 A 
ATOM      2  C2  N4B d   1      -0.441   3.606   0.024  0.00  0.00     0.002 A 
ATOM      3  C3  N4B d   1      -0.294   3.859   1.366  0.00  0.00     0.002 A 
ATOM      4  C4  N4B d   1      -0.034   2.811   2.236  0.00  0.00    -0.004 A 
ATOM      5  C5  N4B d   1       0.118   1.544   1.753  0.00  0.00     0.002 A 
ATOM      6  C6  N4B d   1      -0.023   1.277   0.406  0.00  0.00     0.002 A 
ENDROOT
BRANCH   1   7
ATOM      7  C1' N4B d   1      -0.545   1.950  -1.912  0.00  0.00     0.057 C 
BRANCH   7   8
ATOM      8  C2' N4B d   1      -1.149   0.552  -2.007  0.00  0.00     0.009 C 
BRANCH   8   9
ATOM      9  C3' N4B d   1      -2.556   0.502  -1.437  0.00  0.00     0.004 C 
ATOM     10  C4' N4B d   1      -2.969  -0.882  -1.031  0.00  0.00     0.003 C 
ENDBRANCH   8   9
ENDBRANCH   7   8
ENDBRANCH   1   7
TORSDOF 3
ENDMDL
