MODEL 1
REMARK minimizedAffinity 2.91473842
REMARK minimizedRMSD -1
REMARK  3 active torsions:
REMARK  status: ('A' for Active; 'I' for Inactive)
REMARK    1  A    between atoms: C3'_2  and  C2'_3 
REMARK    2  A    between atoms: C2'_3  and  C1'_4 
REMARK    3  A    between atoms: C1'_4  and  C1_5 
ROOT
ATOM      1  C1  N4B d   1      -0.663   2.076   0.027  0.00  0.00    -0.075 A 
ATOM      2  C2  N4B d   1      -1.054   3.112  -0.850  0.00  0.00     0.002 A 
ATOM      3  C3  N4B d   1      -0.986   2.924  -2.208  0.00  0.00     0.002 A 
ATOM      4  C4  N4B d   1      -0.515   1.720  -2.711  0.00  0.00    -0.004 A 
ATOM      5  C5  N4B d   1      -0.164   0.716  -1.858  0.00  0.00     0.002 A 
ATOM      6  C6  N4B d   1      -0.231   0.889  -0.490  0.00  0.00     0.002 A 
ENDROOT
BRANCH   1   7
ATOM      7  C1' N4B d   1      -0.639   2.266   1.519  0.00  0.00     0.057 C 
BRANCH   7   8
ATOM      8  C2' N4B d   1       0.142   1.120   2.157  0.00  0.00     0.009 C 
BRANCH   8   9
ATOM      9  C3' N4B d   1      -0.578   0.544   3.363  0.00  0.00     0.004 C 
ATOM     10  C4' N4B d   1       0.208  -0.533   4.049  0.00  0.00     0.003 C 
ENDBRANCH   8   9
ENDBRANCH   7   8
ENDBRANCH   1   7
TORSDOF 3
ENDMDL
