MODEL 1
REMARK minimizedAffinity -1.92502558
REMARK minimizedRMSD -1
REMARK  0 active torsions:
REMARK  status: ('A' for Active; 'I' for Inactive)
ROOT
ATOM      1  N1  IND d   1       1.893  -1.821   0.943  0.00  0.00    -0.196 N 
ATOM      2  C2  IND d   1       0.730  -2.490   0.682  0.00  0.00     0.054 A 
ATOM      3  C3  IND d   1      -0.225  -1.629   0.265  0.00  0.00    -0.031 A 
ATOM      4  C4  IND d   1      -0.068   0.905  -0.160  0.00  0.00     0.051 A 
ATOM      5  C5  IND d   1       0.779   1.969  -0.030  0.00  0.00    -0.031 A 
ATOM      6  C6  IND d   1       2.069   1.821   0.439  0.00  0.00     0.015 A 
ATOM      7  C7  IND d   1       2.564   0.596   0.785  0.00  0.00    -0.016 A 
ATOM      8  C8  IND d   1       1.704  -0.486   0.660  0.00  0.00    -0.047 A 
ATOM      9  C9  IND d   1       0.381  -0.335   0.226  0.00  0.00    -0.096 A 
ATOM     10  HN1 IND d   1       2.621  -2.174   1.235  0.00  0.00     0.298 HD
ENDROOT
TORSDOF 0
ENDMDL
