MODEL 1
REMARK minimizedAffinity -2.98270464
REMARK minimizedRMSD -1
REMARK  0 active torsions:
REMARK  status: ('A' for Active; 'I' for Inactive)
ROOT
ATOM      1  N1  IND d   1      -0.907  -1.209   1.128  0.00  0.00    -0.196 N 
ATOM      2  C2  IND d   1      -1.773  -0.729   0.185  0.00  0.00     0.054 A 
ATOM      3  C3  IND d   1      -1.274   0.390  -0.386  0.00  0.00    -0.031 A 
ATOM      4  C4  IND d   1       0.990   1.554   0.001  0.00  0.00     0.051 A 
ATOM      5  C5  IND d   1       2.104   1.507   0.791  0.00  0.00    -0.031 A 
ATOM      6  C6  IND d   1       2.277   0.531   1.751  0.00  0.00     0.015 A 
ATOM      7  C7  IND d   1       1.342  -0.446   1.950  0.00  0.00    -0.016 A 
ATOM      8  C8  IND d   1       0.206  -0.397   1.155  0.00  0.00    -0.047 A 
ATOM      9  C9  IND d   1       0.006   0.616   0.208  0.00  0.00    -0.096 A 
ATOM     10  HN1 IND d   1      -1.035  -1.901   1.621  0.00  0.00     0.298 HD
ENDROOT
TORSDOF 0
ENDMDL
