MODEL 1
REMARK minimizedAffinity -0.926133275
REMARK minimizedRMSD -1
REMARK  0 active torsions:
REMARK  status: ('A' for Active; 'I' for Inactive)
ROOT
ATOM      1  N1  IND d   1      -0.384  -0.467  -0.084  0.00  0.00    -0.196 N 
ATOM      2  C2  IND d   1      -0.502   0.677  -0.822  0.00  0.00     0.054 A 
ATOM      3  C3  IND d   1       0.368   1.614  -0.380  0.00  0.00    -0.031 A 
ATOM      4  C4  IND d   1       2.147   1.448   1.473  0.00  0.00     0.051 A 
ATOM      5  C5  IND d   1       2.608   0.613   2.452  0.00  0.00    -0.031 A 
ATOM      6  C6  IND d   1       2.087  -0.651   2.638  0.00  0.00     0.015 A 
ATOM      7  C7  IND d   1       1.088  -1.134   1.840  0.00  0.00    -0.016 A 
ATOM      8  C8  IND d   1       0.613  -0.286   0.850  0.00  0.00    -0.047 A 
ATOM      9  C9  IND d   1       1.108   1.013   0.684  0.00  0.00    -0.096 A 
ATOM     10  HN1 IND d   1      -0.853  -1.180  -0.186  0.00  0.00     0.298 HD
ENDROOT
TORSDOF 0
ENDMDL
