MODEL 1
REMARK minimizedAffinity -4.81236124
REMARK minimizedRMSD -1
REMARK  0 active torsions:
REMARK  status: ('A' for Active; 'I' for Inactive)
ROOT
ATOM      1  N1  IND d   1      -1.193  -1.070   0.375  0.00  0.00    -0.196 N 
ATOM      2  C2  IND d   1      -1.426  -0.011  -0.457  0.00  0.00     0.054 A 
ATOM      3  C3  IND d   1      -0.352   0.810  -0.485  0.00  0.00    -0.031 A 
ATOM      4  C4  IND d   1       1.932   0.556   0.674  0.00  0.00     0.051 A 
ATOM      5  C5  IND d   1       2.606  -0.230   1.567  0.00  0.00    -0.031 A 
ATOM      6  C6  IND d   1       2.037  -1.361   2.116  0.00  0.00     0.015 A 
ATOM      7  C7  IND d   1       0.772  -1.756   1.784  0.00  0.00    -0.016 A 
ATOM      8  C8  IND d   1       0.082  -0.956   0.884  0.00  0.00    -0.047 A 
ATOM      9  C9  IND d   1       0.638   0.216   0.355  0.00  0.00    -0.096 A 
ATOM     10  HN1 IND d   1      -1.749  -1.702   0.552  0.00  0.00     0.298 HD
ENDROOT
TORSDOF 0
ENDMDL
