MODEL 1
REMARK minimizedAffinity -4.26910353
REMARK minimizedRMSD -1
REMARK  0 active torsions:
REMARK  status: ('A' for Active; 'I' for Inactive)
ROOT
ATOM      1  N1  IND d   1       0.060  -1.374  -0.787  0.00  0.00    -0.196 N 
ATOM      2  C2  IND d   1      -1.160  -0.758  -0.803  0.00  0.00     0.054 A 
ATOM      3  C3  IND d   1      -1.085   0.448  -0.198  0.00  0.00    -0.031 A 
ATOM      4  C4  IND d   1       0.959   1.654   0.801  0.00  0.00     0.051 A 
ATOM      5  C5  IND d   1       2.284   1.474   1.082  0.00  0.00    -0.031 A 
ATOM      6  C6  IND d   1       2.950   0.314   0.745  0.00  0.00     0.015 A 
ATOM      7  C7  IND d   1       2.315  -0.711   0.101  0.00  0.00    -0.016 A 
ATOM      8  C8  IND d   1       0.968  -0.535  -0.179  0.00  0.00    -0.047 A 
ATOM      9  C9  IND d   1       0.276   0.624   0.198  0.00  0.00    -0.096 A 
ATOM     10  HN1 IND d   1       0.232  -2.155  -1.103  0.00  0.00     0.298 HD
ENDROOT
TORSDOF 0
ENDMDL
