MODEL 1
REMARK minimizedAffinity -1.74036324
REMARK minimizedRMSD -1
REMARK  0 active torsions:
REMARK  status: ('A' for Active; 'I' for Inactive)
ROOT
ATOM      1  N1  IND d   1      -1.417   0.936  -0.537  0.00  0.00    -0.196 N 
ATOM      2  C2  IND d   1      -2.609   0.282  -0.393  0.00  0.00     0.054 A 
ATOM      3  C3  IND d   1      -2.417  -0.923   0.189  0.00  0.00    -0.031 A 
ATOM      4  C4  IND d   1      -0.247  -1.982   1.081  0.00  0.00     0.051 A 
ATOM      5  C5  IND d   1       1.104  -1.780   1.143  0.00  0.00    -0.031 A 
ATOM      6  C6  IND d   1       1.694  -0.639   0.640  0.00  0.00     0.015 A 
ATOM      7  C7  IND d   1       0.952   0.353   0.065  0.00  0.00    -0.016 A 
ATOM      8  C8  IND d   1      -0.419   0.149  -0.006  0.00  0.00    -0.047 A 
ATOM      9  C9  IND d   1      -1.019  -1.026   0.464  0.00  0.00    -0.096 A 
ATOM     10  HN1 IND d   1      -1.309   1.709  -0.898  0.00  0.00     0.298 HD
ENDROOT
TORSDOF 0
ENDMDL
