MODEL 1
REMARK minimizedAffinity -1.31750953
REMARK minimizedRMSD -1
REMARK  0 active torsions:
REMARK  status: ('A' for Active; 'I' for Inactive)
ROOT
ATOM      1  N1  IND d   1      -0.534   0.158   0.901  0.00  0.00    -0.196 N 
ATOM      2  C2  IND d   1      -0.874  -1.108   0.513  0.00  0.00     0.054 A 
ATOM      3  C3  IND d   1       0.226  -1.796   0.136  0.00  0.00    -0.031 A 
ATOM      4  C4  IND d   1       2.698  -1.077   0.171  0.00  0.00     0.051 A 
ATOM      5  C5  IND d   1       3.502   0.001   0.411  0.00  0.00    -0.031 A 
ATOM      6  C6  IND d   1       2.993   1.211   0.838  0.00  0.00     0.015 A 
ATOM      7  C7  IND d   1       1.655   1.384   1.053  0.00  0.00    -0.016 A 
ATOM      8  C8  IND d   1       0.834   0.293   0.803  0.00  0.00    -0.047 A 
ATOM      9  C9  IND d   1       1.340  -0.924   0.329  0.00  0.00    -0.096 A 
ATOM     10  HN1 IND d   1      -1.081   0.767   1.162  0.00  0.00     0.298 HD
ENDROOT
TORSDOF 0
ENDMDL
