MODEL 1
REMARK minimizedAffinity 0.141904786
REMARK minimizedRMSD -1
REMARK  0 active torsions:
REMARK  status: ('A' for Active; 'I' for Inactive)
ROOT
ATOM      1  N1  IND d   1      -0.138  -0.348   0.537  0.00  0.00    -0.196 N 
ATOM      2  C2  IND d   1      -0.517   0.686  -0.274  0.00  0.00     0.054 A 
ATOM      3  C3  IND d   1       0.239   1.779  -0.025  0.00  0.00    -0.031 A 
ATOM      4  C4  IND d   1       2.218   2.066   1.596  0.00  0.00     0.051 A 
ATOM      5  C5  IND d   1       2.911   1.412   2.576  0.00  0.00    -0.031 A 
ATOM      6  C6  IND d   1       2.620   0.110   2.931  0.00  0.00     0.015 A 
ATOM      7  C7  IND d   1       1.627  -0.592   2.309  0.00  0.00    -0.016 A 
ATOM      8  C8  IND d   1       0.916   0.071   1.319  0.00  0.00    -0.047 A 
ATOM      9  C9  IND d   1       1.179   1.406   0.983  0.00  0.00    -0.096 A 
ATOM     10  HN1 IND d   1      -0.498  -1.129   0.555  0.00  0.00     0.298 HD
ENDROOT
TORSDOF 0
ENDMDL
