MODEL 1
REMARK minimizedAffinity 8.404459
REMARK minimizedRMSD -1
REMARK  1 active torsions:
REMARK  status: ('A' for Active; 'I' for Inactive)
REMARK    1  A    between atoms: N_2  and  C1_3 
ROOT
ATOM      1  C1  UNL d   1       3.850   4.875  -2.646  0.00  0.00     0.143 A 
ATOM      2  C2  UNL d   1       5.019   5.429  -2.112  0.00  0.00    -0.057 A 
ATOM      3  C3  UNL d   1       5.995   5.999  -2.938  0.00  0.00     0.033 A 
ATOM      4  C4  UNL d   1       5.833   6.000  -4.320  0.00  0.00    -0.042 A 
ATOM      5  C5  UNL d   1       4.690   5.433  -4.874  0.00  0.00     0.033 A 
ATOM      6  C6  UNL d   1       3.716   4.871  -4.043  0.00  0.00    -0.057 A 
ENDROOT
BRANCH   1   7
ATOM      7  N   UNL d   1       2.889   4.206  -1.885  0.00  0.00    -0.732 N 
ATOM      8  C   UNL d   1       1.675   4.878  -1.475  0.00  0.00     0.284 C 
ATOM      9  H3  UNL d   1       2.749   3.246  -2.194  0.00  0.00     0.395 HD
ENDBRANCH   1   7
TORSDOF 1
ENDMDL
