MODEL 1
REMARK minimizedAffinity 6.74436998
REMARK minimizedRMSD -1
REMARK  1 active torsions:
REMARK  status: ('A' for Active; 'I' for Inactive)
REMARK    1  A    between atoms: N_2  and  C1_3 
ROOT
ATOM      1  C1  UNL d   1       1.703   1.162   1.872  0.00  0.00     0.143 A 
ATOM      2  C2  UNL d   1       2.691   1.184   0.883  0.00  0.00    -0.057 A 
ATOM      3  C3  UNL d   1       3.273   0.002   0.410  0.00  0.00     0.033 A 
ATOM      4  C4  UNL d   1       2.895  -1.227   0.942  0.00  0.00    -0.042 A 
ATOM      5  C5  UNL d   1       1.932  -1.271   1.944  0.00  0.00     0.033 A 
ATOM      6  C6  UNL d   1       1.350  -0.087   2.407  0.00  0.00    -0.057 A 
ENDROOT
BRANCH   1   7
ATOM      7  N   UNL d   1       1.157   2.310   2.453  0.00  0.00    -0.732 N 
ATOM      8  C   UNL d   1       1.846   2.991   3.528  0.00  0.00     0.284 C 
ATOM      9  H3  UNL d   1       0.742   2.933   1.765  0.00  0.00     0.395 HD
ENDBRANCH   1   7
TORSDOF 1
ENDMDL
