MODEL 1
REMARK minimizedAffinity 9.9001646
REMARK minimizedRMSD -1
REMARK  1 active torsions:
REMARK  status: ('A' for Active; 'I' for Inactive)
REMARK    1  A    between atoms: N_2  and  C1_3 
ROOT
ATOM      1  C1  UNL d   1      -5.320   3.398  -1.873  0.00  0.00     0.143 A 
ATOM      2  C2  UNL d   1      -5.590   3.371  -3.245  0.00  0.00    -0.057 A 
ATOM      3  C3  UNL d   1      -4.818   2.598  -4.121  0.00  0.00     0.033 A 
ATOM      4  C4  UNL d   1      -3.741   1.860  -3.643  0.00  0.00    -0.042 A 
ATOM      5  C5  UNL d   1      -3.439   1.893  -2.286  0.00  0.00     0.033 A 
ATOM      6  C6  UNL d   1      -4.217   2.660  -1.415  0.00  0.00    -0.057 A 
ENDROOT
BRANCH   1   7
ATOM      7  N   UNL d   1      -5.989   4.223  -0.965  0.00  0.00    -0.732 N 
ATOM      8  C   UNL d   1      -6.000   5.659  -1.143  0.00  0.00     0.284 C 
ATOM      9  H3  UNL d   1      -6.883   3.834  -0.672  0.00  0.00     0.395 HD
ENDBRANCH   1   7
TORSDOF 1
ENDMDL
