MODEL 1
REMARK minimizedAffinity 4.28366184
REMARK minimizedRMSD -1
REMARK  1 active torsions:
REMARK  status: ('A' for Active; 'I' for Inactive)
REMARK    1  A    between atoms: N_2  and  C1_3 
ROOT
ATOM      1  C1  UNL d   1      -4.146  -3.528  -4.952  0.00  0.00     0.143 A 
ATOM      2  C2  UNL d   1      -3.489  -4.752  -4.792  0.00  0.00    -0.057 A 
ATOM      3  C3  UNL d   1      -4.059  -5.947  -5.249  0.00  0.00     0.033 A 
ATOM      4  C4  UNL d   1      -5.312  -5.941  -5.852  0.00  0.00    -0.042 A 
ATOM      5  C5  UNL d   1      -5.995  -4.739  -5.999  0.00  0.00     0.033 A 
ATOM      6  C6  UNL d   1      -5.418  -3.548  -5.546  0.00  0.00    -0.057 A 
ENDROOT
BRANCH   1   7
ATOM      7  N   UNL d   1      -3.677  -2.319  -4.431  0.00  0.00    -0.732 N 
ATOM      8  C   UNL d   1      -4.505  -1.526  -3.548  0.00  0.00     0.284 C 
ATOM      9  H3  UNL d   1      -2.701  -2.370  -4.151  0.00  0.00     0.395 HD
ENDBRANCH   1   7
TORSDOF 1
ENDMDL
