MODEL 1
REMARK minimizedAffinity 13.0967731
REMARK minimizedRMSD -1
REMARK  1 active torsions:
REMARK  status: ('A' for Active; 'I' for Inactive)
REMARK    1  A    between atoms: N_2  and  C1_3 
ROOT
ATOM      1  C1  UNL d   1       1.529  -0.656   1.905  0.00  0.00     0.143 A 
ATOM      2  C2  UNL d   1       1.270   0.660   2.305  0.00  0.00    -0.057 A 
ATOM      3  C3  UNL d   1       2.031   1.730   1.819  0.00  0.00     0.033 A 
ATOM      4  C4  UNL d   1       3.086   1.499   0.943  0.00  0.00    -0.042 A 
ATOM      5  C5  UNL d   1       3.378   0.197   0.551  0.00  0.00     0.033 A 
ATOM      6  C6  UNL d   1       2.610  -0.866   1.035  0.00  0.00    -0.057 A 
ENDROOT
BRANCH   1   7
ATOM      7  N   UNL d   1       0.872  -1.772   2.428  0.00  0.00    -0.732 N 
ATOM      8  C   UNL d   1       1.277  -2.338   3.697  0.00  0.00     0.284 C 
ATOM      9  H3  UNL d   1      -0.136  -1.726   2.297  0.00  0.00     0.395 HD
ENDBRANCH   1   7
TORSDOF 1
ENDMDL
