MODEL 1
REMARK minimizedAffinity 10.0286312
REMARK minimizedRMSD -1
REMARK  1 active torsions:
REMARK  status: ('A' for Active; 'I' for Inactive)
REMARK    1  A    between atoms: N_2  and  C1_3 
ROOT
ATOM      1  C1  UNL d   1       5.020   5.768  -3.575  0.00  0.00     0.143 A 
ATOM      2  C2  UNL d   1       3.770   5.190  -3.820  0.00  0.00    -0.057 A 
ATOM      3  C3  UNL d   1       2.890   4.892  -2.773  0.00  0.00     0.033 A 
ATOM      4  C4  UNL d   1       3.258   5.141  -1.455  0.00  0.00    -0.042 A 
ATOM      5  C5  UNL d   1       4.506   5.693  -1.186  0.00  0.00     0.033 A 
ATOM      6  C6  UNL d   1       5.377   5.994  -2.237  0.00  0.00    -0.057 A 
ENDROOT
BRANCH   1   7
ATOM      7  N   UNL d   1       5.978   5.997  -4.566  0.00  0.00    -0.732 N 
ATOM      8  C   UNL d   1       5.614   5.967  -5.966  0.00  0.00     0.284 C 
ATOM      9  H3  UNL d   1       6.620   6.747  -4.319  0.00  0.00     0.395 HD
ENDBRANCH   1   7
TORSDOF 1
ENDMDL
