MODEL 1
REMARK minimizedAffinity 4.73172665
REMARK minimizedRMSD -1
REMARK  1 active torsions:
REMARK  status: ('A' for Active; 'I' for Inactive)
REMARK    1  A    between atoms: N_2  and  C1_3 
ROOT
ATOM      1  C1  UNL d   1      -5.318  -1.776  -3.554  0.00  0.00     0.143 A 
ATOM      2  C2  UNL d   1      -3.961  -1.800  -3.218  0.00  0.00    -0.057 A 
ATOM      3  C3  UNL d   1      -3.315  -0.661  -2.722  0.00  0.00     0.033 A 
ATOM      4  C4  UNL d   1      -4.012   0.535  -2.580  0.00  0.00    -0.042 A 
ATOM      5  C5  UNL d   1      -5.357   0.588  -2.932  0.00  0.00     0.033 A 
ATOM      6  C6  UNL d   1      -5.997  -0.555  -3.420  0.00  0.00    -0.057 A 
ENDROOT
BRANCH   1   7
ATOM      7  N   UNL d   1      -5.992  -2.848  -4.144  0.00  0.00    -0.732 N 
ATOM      8  C   UNL d   1      -5.559  -3.380  -5.418  0.00  0.00     0.284 C 
ATOM      9  H3  UNL d   1      -6.261  -3.559  -3.467  0.00  0.00     0.395 HD
ENDBRANCH   1   7
TORSDOF 1
ENDMDL
