MODEL 1
REMARK minimizedAffinity 0.796170652
REMARK minimizedRMSD -1
REMARK  1 active torsions:
REMARK  status: ('A' for Active; 'I' for Inactive)
REMARK    1  A    between atoms: N_2  and  C1_3 
ROOT
ATOM      1  C1  UNL d   1       3.516  -2.657   3.925  0.00  0.00     0.143 A 
ATOM      2  C2  UNL d   1       3.578  -2.696   5.322  0.00  0.00    -0.057 A 
ATOM      3  C3  UNL d   1       4.806  -2.716   5.995  0.00  0.00     0.033 A 
ATOM      4  C4  UNL d   1       5.998  -2.726   5.278  0.00  0.00    -0.042 A 
ATOM      5  C5  UNL d   1       5.961  -2.713   3.889  0.00  0.00     0.033 A 
ATOM      6  C6  UNL d   1       4.731  -2.687   3.223  0.00  0.00    -0.057 A 
ENDROOT
BRANCH   1   7
ATOM      7  N   UNL d   1       2.327  -2.736   3.196  0.00  0.00    -0.732 N 
ATOM      8  C   UNL d   1       1.603  -1.537   2.836  0.00  0.00     0.284 C 
ATOM      9  H3  UNL d   1       2.370  -3.434   2.457  0.00  0.00     0.395 HD
ENDBRANCH   1   7
TORSDOF 1
ENDMDL
