MODEL 1
REMARK minimizedAffinity -2.36818385
REMARK minimizedRMSD -1
REMARK  0 active torsions:
REMARK  status: ('A' for Active; 'I' for Inactive)
ROOT
ATOM      1  C1  DEN d   1      -1.845  -0.264   3.046  0.00  0.00     0.130 A 
ATOM      2  C2  DEN d   1      -2.919  -1.077   2.482  0.00  0.00    -0.031 A 
ATOM      3  C3  DEN d   1      -2.636  -1.275   1.047  0.00  0.00     0.027 A 
ATOM      4  C4  DEN d   1      -0.646  -0.411  -0.349  0.00  0.00     0.027 A 
ATOM      5  C5  DEN d   1       0.513   0.332  -0.311  0.00  0.00    -0.003 A 
ATOM      6  C6  DEN d   1       0.947   0.950   0.831  0.00  0.00     0.001 A 
ATOM      7  C7  DEN d   1       0.239   0.801   1.995  0.00  0.00     0.017 A 
ATOM      8  C8  DEN d   1      -0.935   0.060   1.963  0.00  0.00    -0.094 A 
ATOM      9  C9  DEN d   1      -1.350  -0.568   0.801  0.00  0.00    -0.072 A 
ENDROOT
TORSDOF 0
ENDMDL
