MODEL 1
REMARK minimizedAffinity -0.247781336
REMARK minimizedRMSD -1
REMARK  0 active torsions:
REMARK  status: ('A' for Active; 'I' for Inactive)
ROOT
ATOM      1  C1  DEN d   1       0.083   0.679  -3.886  0.00  0.00     0.130 A 
ATOM      2  C2  DEN d   1       1.454   0.802  -4.375  0.00  0.00    -0.031 A 
ATOM      3  C3  DEN d   1       2.362   0.330  -3.311  0.00  0.00     0.027 A 
ATOM      4  C4  DEN d   1       1.783  -0.579  -0.967  0.00  0.00     0.027 A 
ATOM      5  C5  DEN d   1       0.754  -0.861  -0.095  0.00  0.00    -0.003 A 
ATOM      6  C6  DEN d   1      -0.557  -0.620  -0.410  0.00  0.00     0.001 A 
ATOM      7  C7  DEN d   1      -0.878  -0.123  -1.646  0.00  0.00     0.017 A 
ATOM      8  C8  DEN d   1       0.154   0.171  -2.527  0.00  0.00    -0.094 A 
ATOM      9  C9  DEN d   1       1.472  -0.091  -2.195  0.00  0.00    -0.072 A 
ENDROOT
TORSDOF 0
ENDMDL
