MODEL 1
REMARK minimizedAffinity -3.86346912
REMARK minimizedRMSD -1
REMARK  0 active torsions:
REMARK  status: ('A' for Active; 'I' for Inactive)
ROOT
ATOM      1  C1  DEN d   1      -0.673   0.082  -1.009  0.00  0.00     0.130 A 
ATOM      2  C2  DEN d   1       0.164  -0.783  -1.835  0.00  0.00    -0.031 A 
ATOM      3  C3  DEN d   1       1.388  -1.098  -1.072  0.00  0.00     0.027 A 
ATOM      4  C4  DEN d   1       2.062  -0.338   1.299  0.00  0.00     0.027 A 
ATOM      5  C5  DEN d   1       1.679   0.414   2.388  0.00  0.00    -0.003 A 
ATOM      6  C6  DEN d   1       0.511   1.129   2.408  0.00  0.00     0.001 A 
ATOM      7  C7  DEN d   1      -0.338   1.072   1.334  0.00  0.00     0.017 A 
ATOM      8  C8  DEN d   1       0.045   0.322   0.230  0.00  0.00    -0.094 A 
ATOM      9  C9  DEN d   1       1.224  -0.404   0.234  0.00  0.00    -0.072 A 
ENDROOT
TORSDOF 0
ENDMDL
