MODEL 1
REMARK minimizedAffinity -4.16364908
REMARK minimizedRMSD -1
REMARK  0 active torsions:
REMARK  status: ('A' for Active; 'I' for Inactive)
ROOT
ATOM      1  C1  DEN d   1       0.101  -0.395  -1.052  0.00  0.00     0.130 A 
ATOM      2  C2  DEN d   1       1.330  -0.638  -0.302  0.00  0.00    -0.031 A 
ATOM      3  C3  DEN d   1       1.053  -0.375   1.125  0.00  0.00     0.027 A 
ATOM      4  C4  DEN d   1      -1.149   0.375   2.239  0.00  0.00     0.027 A 
ATOM      5  C5  DEN d   1      -2.462   0.720   2.010  0.00  0.00    -0.003 A 
ATOM      6  C6  DEN d   1      -3.000   0.750   0.750  0.00  0.00     0.001 A 
ATOM      7  C7  DEN d   1      -2.232   0.386  -0.324  0.00  0.00     0.017 A 
ATOM      8  C8  DEN d   1      -0.905   0.044  -0.102  0.00  0.00    -0.094 A 
ATOM      9  C9  DEN d   1      -0.384   0.007   1.180  0.00  0.00    -0.072 A 
ENDROOT
TORSDOF 0
ENDMDL
