MODEL 1
REMARK minimizedAffinity -1.9154855
REMARK minimizedRMSD -1
REMARK  0 active torsions:
REMARK  status: ('A' for Active; 'I' for Inactive)
ROOT
ATOM      1  C1  DEN d   1       0.683   0.896   2.232  0.00  0.00     0.130 A 
ATOM      2  C2  DEN d   1      -0.573   1.190   2.916  0.00  0.00    -0.031 A 
ATOM      3  C3  DEN d   1      -1.678   0.665   2.089  0.00  0.00     0.027 A 
ATOM      4  C4  DEN d   1      -1.566  -0.572  -0.171  0.00  0.00     0.027 A 
ATOM      5  C5  DEN d   1      -0.722  -1.043  -1.153  0.00  0.00    -0.003 A 
ATOM      6  C6  DEN d   1       0.635  -0.872  -1.092  0.00  0.00     0.001 A 
ATOM      7  C7  DEN d   1       1.194  -0.253  -0.005  0.00  0.00     0.017 A 
ATOM      8  C8  DEN d   1       0.349   0.231   0.985  0.00  0.00    -0.094 A 
ATOM      9  C9  DEN d   1      -1.020   0.038   0.911  0.00  0.00    -0.072 A 
ENDROOT
TORSDOF 0
ENDMDL
