MODEL 1
REMARK minimizedAffinity -5.02714109
REMARK minimizedRMSD -1
REMARK  0 active torsions:
REMARK  status: ('A' for Active; 'I' for Inactive)
ROOT
ATOM      1  C1  DEN d   1      -1.532   1.183   2.186  0.00  0.00     0.130 A 
ATOM      2  C2  DEN d   1      -0.244   1.767   2.550  0.00  0.00    -0.031 A 
ATOM      3  C3  DEN d   1       0.765   1.286   1.585  0.00  0.00     0.027 A 
ATOM      4  C4  DEN d   1       0.458  -0.296  -0.429  0.00  0.00     0.027 A 
ATOM      5  C5  DEN d   1      -0.451  -1.057  -1.130  0.00  0.00    -0.003 A 
ATOM      6  C6  DEN d   1      -1.766  -1.151  -0.759  0.00  0.00     0.001 A 
ATOM      7  C7  DEN d   1      -2.219  -0.436   0.319  0.00  0.00     0.017 A 
ATOM      8  C8  DEN d   1      -1.307   0.327   1.035  0.00  0.00    -0.094 A 
ATOM      9  C9  DEN d   1       0.016   0.419   0.636  0.00  0.00    -0.072 A 
ENDROOT
TORSDOF 0
ENDMDL
