MODEL 1
REMARK minimizedAffinity -1.55644512
REMARK minimizedRMSD -1
REMARK  0 active torsions:
REMARK  status: ('A' for Active; 'I' for Inactive)
ROOT
ATOM      1  C1  DEN d   1      -1.491  -1.112   0.568  0.00  0.00     0.130 A 
ATOM      2  C2  DEN d   1      -0.903  -0.847  -0.742  0.00  0.00    -0.031 A 
ATOM      3  C3  DEN d   1       0.018   0.299  -0.606  0.00  0.00     0.027 A 
ATOM      4  C4  DEN d   1       0.592   1.679   1.497  0.00  0.00     0.027 A 
ATOM      5  C5  DEN d   1       0.335   1.837   2.841  0.00  0.00    -0.003 A 
ATOM      6  C6  DEN d   1      -0.567   1.051   3.508  0.00  0.00     0.001 A 
ATOM      7  C7  DEN d   1      -1.212   0.042   2.843  0.00  0.00     0.017 A 
ATOM      8  C8  DEN d   1      -0.962  -0.119   1.487  0.00  0.00    -0.094 A 
ATOM      9  C9  DEN d   1      -0.038   0.677   0.832  0.00  0.00    -0.072 A 
ENDROOT
TORSDOF 0
ENDMDL
