MODEL 1
REMARK minimizedAffinity -3.59523344
REMARK minimizedRMSD -1
REMARK  0 active torsions:
REMARK  status: ('A' for Active; 'I' for Inactive)
ROOT
ATOM      1  C   UNL d   1      -2.794  -5.999  -5.044  0.00  0.00     0.020 A 
ATOM      2  C1  UNL d   1      -2.002  -5.011  -5.628  0.00  0.00     0.020 A 
ATOM      3  C2  UNL d   1      -2.437  -3.685  -5.640  0.00  0.00     0.034 A 
ATOM      4  C3  UNL d   1      -3.668  -3.342  -5.068  0.00  0.00     0.017 A 
ATOM      5  C4  UNL d   1      -4.462  -4.334  -4.483  0.00  0.00     0.017 A 
ATOM      6  C5  UNL d   1      -4.022  -5.661  -4.473  0.00  0.00     0.034 A 
ATOM      7 Cl   UNL d   1      -5.992  -3.988  -3.757  0.00  0.00    -0.070 Cl
ATOM      8 Cl1  UNL d   1      -4.143  -1.681  -5.119  0.00  0.00    -0.070 Cl
ENDROOT
TORSDOF 0
ENDMDL
