MODEL 1
REMARK minimizedAffinity -2.48281837
REMARK minimizedRMSD -1
REMARK  0 active torsions:
REMARK  status: ('A' for Active; 'I' for Inactive)
ROOT
ATOM      1  C   UNL d   1      -3.964  -5.907  -5.564  0.00  0.00     0.020 A 
ATOM      2  C1  UNL d   1      -5.213  -5.465  -5.999  0.00  0.00     0.020 A 
ATOM      3  C2  UNL d   1      -5.824  -4.375  -5.375  0.00  0.00     0.034 A 
ATOM      4  C3  UNL d   1      -5.186  -3.723  -4.314  0.00  0.00     0.017 A 
ATOM      5  C4  UNL d   1      -3.932  -4.167  -3.878  0.00  0.00     0.017 A 
ATOM      6  C5  UNL d   1      -3.325  -5.259  -4.506  0.00  0.00     0.034 A 
ATOM      7 Cl   UNL d   1      -3.083  -3.413  -2.575  0.00  0.00    -0.070 Cl
ATOM      8 Cl1  UNL d   1      -5.999  -2.381  -3.589  0.00  0.00    -0.070 Cl
ENDROOT
TORSDOF 0
ENDMDL
