MODEL 1
REMARK minimizedAffinity -3.61618209
REMARK minimizedRMSD -1
REMARK  0 active torsions:
REMARK  status: ('A' for Active; 'I' for Inactive)
ROOT
ATOM      1  C   UNL d   1      -1.704  -4.804  -5.713  0.00  0.00     0.020 A 
ATOM      2  C1  UNL d   1      -2.117  -5.913  -4.977  0.00  0.00     0.020 A 
ATOM      3  C2  UNL d   1      -3.435  -6.000  -4.524  0.00  0.00     0.034 A 
ATOM      4  C3  UNL d   1      -4.345  -4.975  -4.807  0.00  0.00     0.017 A 
ATOM      5  C4  UNL d   1      -3.930  -3.861  -5.546  0.00  0.00     0.017 A 
ATOM      6  C5  UNL d   1      -2.609  -3.780  -5.997  0.00  0.00     0.034 A 
ATOM      7 Cl   UNL d   1      -4.995  -2.557  -5.934  0.00  0.00    -0.070 Cl
ATOM      8 Cl1  UNL d   1      -5.959  -5.148  -4.215  0.00  0.00    -0.070 Cl
ENDROOT
TORSDOF 0
ENDMDL
