MODEL 1
REMARK minimizedAffinity -3.56293821
REMARK minimizedRMSD -1
REMARK  0 active torsions:
REMARK  status: ('A' for Active; 'I' for Inactive)
ROOT
ATOM      1  C   UNL d   1      -1.954  -4.107  -5.598  0.00  0.00     0.020 A 
ATOM      2  C1  UNL d   1      -2.170  -5.484  -5.624  0.00  0.00     0.020 A 
ATOM      3  C2  UNL d   1      -3.426  -6.000  -5.299  0.00  0.00     0.034 A 
ATOM      4  C3  UNL d   1      -4.472  -5.138  -4.947  0.00  0.00     0.017 A 
ATOM      5  C4  UNL d   1      -4.254  -3.756  -4.922  0.00  0.00     0.017 A 
ATOM      6  C5  UNL d   1      -2.994  -3.245  -5.248  0.00  0.00     0.034 A 
ATOM      7 Cl   UNL d   1      -5.494  -2.629  -4.499  0.00  0.00    -0.070 Cl
ATOM      8 Cl1  UNL d   1      -5.999  -5.845  -4.558  0.00  0.00    -0.070 Cl
ENDROOT
TORSDOF 0
ENDMDL
