MODEL 1
REMARK minimizedAffinity -3.80819321
REMARK minimizedRMSD -1
REMARK  0 active torsions:
REMARK  status: ('A' for Active; 'I' for Inactive)
ROOT
ATOM      1  C   UNL d   1      -5.412  -2.075  -4.424  0.00  0.00     0.020 A 
ATOM      2  C1  UNL d   1      -4.023  -1.952  -4.424  0.00  0.00     0.020 A 
ATOM      3  C2  UNL d   1      -3.221  -3.087  -4.565  0.00  0.00     0.034 A 
ATOM      4  C3  UNL d   1      -3.808  -4.350  -4.706  0.00  0.00     0.017 A 
ATOM      5  C4  UNL d   1      -5.202  -4.472  -4.706  0.00  0.00     0.017 A 
ATOM      6  C5  UNL d   1      -6.000  -3.333  -4.565  0.00  0.00     0.034 A 
ATOM      7 Cl   UNL d   1      -5.998  -5.997  -4.876  0.00  0.00    -0.070 Cl
ATOM      8 Cl1  UNL d   1      -2.756  -5.710  -4.876  0.00  0.00    -0.070 Cl
ENDROOT
TORSDOF 0
ENDMDL
