MODEL 1
REMARK minimizedAffinity -2.89296198
REMARK minimizedRMSD -1
REMARK  0 active torsions:
REMARK  status: ('A' for Active; 'I' for Inactive)
ROOT
ATOM      1  C   UNL d   1      -2.134  -4.792  -5.577  0.00  0.00     0.020 A 
ATOM      2  C1  UNL d   1      -2.153  -5.694  -4.514  0.00  0.00     0.020 A 
ATOM      3  C2  UNL d   1      -3.357  -5.991  -3.873  0.00  0.00     0.034 A 
ATOM      4  C3  UNL d   1      -4.547  -5.386  -4.293  0.00  0.00     0.017 A 
ATOM      5  C4  UNL d   1      -4.527  -4.481  -5.361  0.00  0.00     0.017 A 
ATOM      6  C5  UNL d   1      -3.319  -4.187  -6.000  0.00  0.00     0.034 A 
ATOM      7 Cl   UNL d   1      -5.955  -3.695  -5.936  0.00  0.00    -0.070 Cl
ATOM      8 Cl1  UNL d   1      -6.000  -5.801  -3.454  0.00  0.00    -0.070 Cl
ENDROOT
TORSDOF 0
ENDMDL
