MODEL 1
REMARK minimizedAffinity -1.78128672
REMARK minimizedRMSD -1
REMARK  0 active torsions:
REMARK  status: ('A' for Active; 'I' for Inactive)
ROOT
ATOM      1  C   UNL d   1      -4.836  -5.940  -3.916  0.00  0.00     0.020 A 
ATOM      2  C1  UNL d   1      -5.989  -5.156  -3.894  0.00  0.00     0.020 A 
ATOM      3  C2  UNL d   1      -6.000  -3.912  -4.529  0.00  0.00     0.034 A 
ATOM      4  C3  UNL d   1      -4.855  -3.447  -5.187  0.00  0.00     0.017 A 
ATOM      5  C4  UNL d   1      -3.698  -4.234  -5.208  0.00  0.00     0.017 A 
ATOM      6  C5  UNL d   1      -3.693  -5.480  -4.571  0.00  0.00     0.034 A 
ATOM      7 Cl   UNL d   1      -2.247  -3.729  -5.999  0.00  0.00    -0.070 Cl
ATOM      8 Cl1  UNL d   1      -4.940  -1.900  -5.950  0.00  0.00    -0.070 Cl
ENDROOT
TORSDOF 0
ENDMDL
