MODEL 1
REMARK minimizedAffinity -2.93778443
REMARK minimizedRMSD -1
REMARK  0 active torsions:
REMARK  status: ('A' for Active; 'I' for Inactive)
ROOT
ATOM      1  C   UNL d   1      -4.952  -5.987  -5.179  0.00  0.00     0.020 A 
ATOM      2  C1  UNL d   1      -6.000  -5.335  -5.827  0.00  0.00     0.020 A 
ATOM      3  C2  UNL d   1      -5.962  -3.949  -5.995  0.00  0.00     0.034 A 
ATOM      4  C3  UNL d   1      -4.874  -3.211  -5.514  0.00  0.00     0.017 A 
ATOM      5  C4  UNL d   1      -3.823  -3.867  -4.864  0.00  0.00     0.017 A 
ATOM      6  C5  UNL d   1      -3.866  -5.255  -4.698  0.00  0.00     0.034 A 
ATOM      7 Cl   UNL d   1      -2.447  -3.024  -4.244  0.00  0.00    -0.070 Cl
ATOM      8 Cl1  UNL d   1      -4.893  -1.501  -5.757  0.00  0.00    -0.070 Cl
ENDROOT
TORSDOF 0
ENDMDL
