MODEL 1
REMARK minimizedAffinity -3.70539761
REMARK minimizedRMSD -1
REMARK  0 active torsions:
REMARK  status: ('A' for Active; 'I' for Inactive)
ROOT
ATOM      1  C   UNL d   1      -4.137  -1.942  -5.242  0.00  0.00     0.020 A 
ATOM      2  C1  UNL d   1      -5.443  -2.055  -5.717  0.00  0.00     0.020 A 
ATOM      3  C2  UNL d   1      -5.999  -3.317  -5.938  0.00  0.00     0.034 A 
ATOM      4  C3  UNL d   1      -5.248  -4.470  -5.685  0.00  0.00     0.017 A 
ATOM      5  C4  UNL d   1      -3.937  -4.356  -5.208  0.00  0.00     0.017 A 
ATOM      6  C5  UNL d   1      -3.386  -3.090  -4.988  0.00  0.00     0.034 A 
ATOM      7 Cl   UNL d   1      -2.950  -5.734  -4.873  0.00  0.00    -0.070 Cl
ATOM      8 Cl1  UNL d   1      -5.999  -5.998  -5.981  0.00  0.00    -0.070 Cl
ENDROOT
TORSDOF 0
ENDMDL
