MODEL 1
REMARK minimizedAffinity -3.44182396
REMARK minimizedRMSD -1
REMARK  0 active torsions:
REMARK  status: ('A' for Active; 'I' for Inactive)
ROOT
ATOM      1  C   UNL d   1      -1.609  -4.518  -5.770  0.00  0.00     0.020 A 
ATOM      2  C1  UNL d   1      -2.210  -5.645  -5.212  0.00  0.00     0.020 A 
ATOM      3  C2  UNL d   1      -3.567  -5.622  -4.883  0.00  0.00     0.034 A 
ATOM      4  C3  UNL d   1      -4.327  -4.468  -5.111  0.00  0.00     0.017 A 
ATOM      5  C4  UNL d   1      -3.722  -3.337  -5.671  0.00  0.00     0.017 A 
ATOM      6  C5  UNL d   1      -2.363  -3.367  -5.999  0.00  0.00     0.034 A 
ATOM      7 Cl   UNL d   1      -4.594  -1.878  -5.982  0.00  0.00    -0.070 Cl
ATOM      8 Cl1  UNL d   1      -6.000  -4.510  -4.680  0.00  0.00    -0.070 Cl
ENDROOT
TORSDOF 0
ENDMDL
