MODEL 1
REMARK minimizedAffinity -2.59025431
REMARK minimizedRMSD -1
REMARK  0 active torsions:
REMARK  status: ('A' for Active; 'I' for Inactive)
ROOT
ATOM      1  C   UNL d   1      -2.050  -5.448  -5.756  0.00  0.00     0.020 A 
ATOM      2  C1  UNL d   1      -1.932  -4.145  -5.273  0.00  0.00     0.020 A 
ATOM      3  C2  UNL d   1      -3.078  -3.394  -5.005  0.00  0.00     0.034 A 
ATOM      4  C3  UNL d   1      -4.347  -3.944  -5.220  0.00  0.00     0.017 A 
ATOM      5  C4  UNL d   1      -4.464  -5.252  -5.704  0.00  0.00     0.017 A 
ATOM      6  C5  UNL d   1      -3.313  -6.000  -5.971  0.00  0.00     0.034 A 
ATOM      7 Cl   UNL d   1      -5.996  -5.999  -5.994  0.00  0.00    -0.070 Cl
ATOM      8 Cl1  UNL d   1      -5.721  -2.957  -4.866  0.00  0.00    -0.070 Cl
ENDROOT
TORSDOF 0
ENDMDL
