MODEL 1
REMARK minimizedAffinity -2.11717391
REMARK minimizedRMSD -1
REMARK  0 active torsions:
REMARK  status: ('A' for Active; 'I' for Inactive)
ROOT
ATOM      1  C   UNL d   1      -4.383  -5.702  -5.272  0.00  0.00     0.020 A 
ATOM      2  C1  UNL d   1      -5.505  -5.305  -6.000  0.00  0.00     0.020 A 
ATOM      3  C2  UNL d   1      -5.987  -4.000  -5.882  0.00  0.00     0.034 A 
ATOM      4  C3  UNL d   1      -5.349  -3.087  -5.034  0.00  0.00     0.017 A 
ATOM      5  C4  UNL d   1      -4.223  -3.487  -4.305  0.00  0.00     0.017 A 
ATOM      6  C5  UNL d   1      -3.744  -4.795  -4.427  0.00  0.00     0.034 A 
ATOM      7 Cl   UNL d   1      -3.382  -2.417  -3.239  0.00  0.00    -0.070 Cl
ATOM      8 Cl1  UNL d   1      -6.000  -1.490  -4.938  0.00  0.00    -0.070 Cl
ENDROOT
TORSDOF 0
ENDMDL
