MODEL 1
REMARK minimizedAffinity -2.66615725
REMARK minimizedRMSD -1
REMARK  0 active torsions:
REMARK  status: ('A' for Active; 'I' for Inactive)
ROOT
ATOM      1  C   UNL d   1      -2.697  -5.980  -4.845  0.00  0.00     0.020 A 
ATOM      2  C1  UNL d   1      -2.244  -5.057  -5.787  0.00  0.00     0.020 A 
ATOM      3  C2  UNL d   1      -2.953  -3.872  -6.000  0.00  0.00     0.034 A 
ATOM      4  C3  UNL d   1      -4.117  -3.607  -5.270  0.00  0.00     0.017 A 
ATOM      5  C4  UNL d   1      -4.571  -4.535  -4.325  0.00  0.00     0.017 A 
ATOM      6  C5  UNL d   1      -3.858  -5.719  -4.116  0.00  0.00     0.034 A 
ATOM      7 Cl   UNL d   1      -5.999  -4.278  -3.386  0.00  0.00    -0.070 Cl
ATOM      8 Cl1  UNL d   1      -4.943  -2.122  -5.584  0.00  0.00    -0.070 Cl
ENDROOT
TORSDOF 0
ENDMDL
