MODEL 1
REMARK minimizedAffinity 7.99517965
REMARK minimizedRMSD -1
REMARK  0 active torsions:
REMARK  status: ('A' for Active; 'I' for Inactive)
ROOT
ATOM      1  C   UNL d   1      -1.345  -5.804  -4.832  0.00  0.00     0.020 A 
ATOM      2  C1  UNL d   1      -2.083  -5.540  -5.985  0.00  0.00     0.020 A 
ATOM      3  C2  UNL d   1      -3.031  -4.514  -5.987  0.00  0.00     0.034 A 
ATOM      4  C3  UNL d   1      -3.243  -3.749  -4.835  0.00  0.00     0.017 A 
ATOM      5  C4  UNL d   1      -2.502  -4.015  -3.678  0.00  0.00     0.017 A 
ATOM      6  C5  UNL d   1      -1.554  -5.043  -3.681  0.00  0.00     0.034 A 
ATOM      7 Cl   UNL d   1      -2.707  -3.114  -2.218  0.00  0.00    -0.070 Cl
ATOM      8 Cl1  UNL d   1      -4.431  -2.496  -4.910  0.00  0.00    -0.070 Cl
ENDROOT
TORSDOF 0
ENDMDL
