MODEL 1
REMARK minimizedAffinity -3.53666019
REMARK minimizedRMSD -1
REMARK  0 active torsions:
REMARK  status: ('A' for Active; 'I' for Inactive)
ROOT
ATOM      1  C   UNL d   1      -2.049  -3.820  -5.462  0.00  0.00     0.020 A 
ATOM      2  C1  UNL d   1      -2.082  -5.166  -5.823  0.00  0.00     0.020 A 
ATOM      3  C2  UNL d   1      -3.307  -5.817  -5.984  0.00  0.00     0.034 A 
ATOM      4  C3  UNL d   1      -4.505  -5.121  -5.783  0.00  0.00     0.017 A 
ATOM      5  C4  UNL d   1      -4.471  -3.770  -5.421  0.00  0.00     0.017 A 
ATOM      6  C5  UNL d   1      -3.241  -3.123  -5.262  0.00  0.00     0.034 A 
ATOM      7 Cl   UNL d   1      -5.907  -2.845  -5.157  0.00  0.00    -0.070 Cl
ATOM      8 Cl1  UNL d   1      -5.983  -5.988  -6.000  0.00  0.00    -0.070 Cl
ENDROOT
TORSDOF 0
ENDMDL
