MODEL 1
REMARK minimizedAffinity -1.63491976
REMARK minimizedRMSD -1
REMARK  0 active torsions:
REMARK  status: ('A' for Active; 'I' for Inactive)
ROOT
ATOM      1  C   UNL d   1      -2.120  -4.953  -5.135  0.00  0.00     0.020 A 
ATOM      2  C1  UNL d   1      -2.096  -3.964  -4.152  0.00  0.00     0.020 A 
ATOM      3  C2  UNL d   1      -3.287  -3.375  -3.725  0.00  0.00     0.034 A 
ATOM      4  C3  UNL d   1      -4.508  -3.773  -4.280  0.00  0.00     0.017 A 
ATOM      5  C4  UNL d   1      -4.532  -4.766  -5.267  0.00  0.00     0.017 A 
ATOM      6  C5  UNL d   1      -3.336  -5.353  -5.691  0.00  0.00     0.034 A 
ATOM      7 Cl   UNL d   1      -6.000  -5.310  -5.999  0.00  0.00    -0.070 Cl
ATOM      8 Cl1  UNL d   1      -5.943  -3.002  -3.704  0.00  0.00    -0.070 Cl
ENDROOT
TORSDOF 0
ENDMDL
