MODEL 1
REMARK minimizedAffinity -2.85394096
REMARK minimizedRMSD -1
REMARK  0 active torsions:
REMARK  status: ('A' for Active; 'I' for Inactive)
ROOT
ATOM      1  C   UNL d   1      -2.020  -5.444  -5.828  0.00  0.00     0.020 A 
ATOM      2  C1  UNL d   1      -1.889  -4.135  -5.367  0.00  0.00     0.020 A 
ATOM      3  C2  UNL d   1      -3.027  -3.380  -5.075  0.00  0.00     0.034 A 
ATOM      4  C3  UNL d   1      -4.301  -3.934  -5.246  0.00  0.00     0.017 A 
ATOM      5  C4  UNL d   1      -4.432  -5.248  -5.709  0.00  0.00     0.017 A 
ATOM      6  C5  UNL d   1      -3.289  -5.999  -5.998  0.00  0.00     0.034 A 
ATOM      7 Cl   UNL d   1      -5.970  -5.999  -5.943  0.00  0.00    -0.070 Cl
ATOM      8 Cl1  UNL d   1      -5.665  -2.943  -4.866  0.00  0.00    -0.070 Cl
ENDROOT
TORSDOF 0
ENDMDL
