MODEL 1
REMARK minimizedAffinity 3.73024487
REMARK minimizedRMSD -1
REMARK  0 active torsions:
REMARK  status: ('A' for Active; 'I' for Inactive)
ROOT
ATOM      1  C   UNL d   1      -2.380  -4.733  -5.945  0.00  0.00     0.020 A 
ATOM      2  C1  UNL d   1      -1.592  -4.812  -4.798  0.00  0.00     0.020 A 
ATOM      3  C2  UNL d   1      -1.867  -3.989  -3.704  0.00  0.00     0.034 A 
ATOM      4  C3  UNL d   1      -2.934  -3.084  -3.754  0.00  0.00     0.017 A 
ATOM      5  C4  UNL d   1      -3.724  -3.005  -4.907  0.00  0.00     0.017 A 
ATOM      6  C5  UNL d   1      -3.444  -3.831  -6.000  0.00  0.00     0.034 A 
ATOM      7 Cl   UNL d   1      -5.057  -1.913  -5.044  0.00  0.00    -0.070 Cl
ATOM      8 Cl1  UNL d   1      -3.217  -2.098  -2.364  0.00  0.00    -0.070 Cl
ENDROOT
TORSDOF 0
ENDMDL
