MODEL 1
REMARK minimizedAffinity -0.939235032
REMARK minimizedRMSD -1
REMARK  0 active torsions:
REMARK  status: ('A' for Active; 'I' for Inactive)
ROOT
ATOM      1  C   UNL d   1      -1.910  -4.122  -5.908  0.00  0.00     0.020 A 
ATOM      2  C1  UNL d   1      -2.055  -5.470  -5.584  0.00  0.00     0.020 A 
ATOM      3  C2  UNL d   1      -3.327  -6.000  -5.352  0.00  0.00     0.034 A 
ATOM      4  C3  UNL d   1      -4.458  -5.180  -5.443  0.00  0.00     0.017 A 
ATOM      5  C4  UNL d   1      -4.311  -3.827  -5.768  0.00  0.00     0.017 A 
ATOM      6  C5  UNL d   1      -3.036  -3.302  -5.999  0.00  0.00     0.034 A 
ATOM      7 Cl   UNL d   1      -5.659  -2.753  -5.898  0.00  0.00    -0.070 Cl
ATOM      8 Cl1  UNL d   1      -5.999  -5.902  -5.144  0.00  0.00    -0.070 Cl
ENDROOT
TORSDOF 0
ENDMDL
