MODEL 1
REMARK minimizedAffinity -3.18769145
REMARK minimizedRMSD -1
REMARK  0 active torsions:
REMARK  status: ('A' for Active; 'I' for Inactive)
ROOT
ATOM      1  C   UNL d   1       0.094   0.391  -0.685  0.00  0.00     0.172 C 
ATOM      2  N   UNL d   1       0.664  -0.351   0.415  0.00  0.00    -0.070 N 
ATOM      3  C1  UNL d   1       1.737  -1.197   0.336  0.00  0.00    -0.004 A 
ATOM      4  C2  UNL d   1       1.968  -1.706   1.596  0.00  0.00    -0.047 A 
ATOM      5  C3  UNL d   1       0.999  -1.146   2.462  0.00  0.00    -0.047 A 
ATOM      6  C4  UNL d   1       0.205  -0.311   1.705  0.00  0.00    -0.004 A 
ENDROOT
TORSDOF 0
ENDMDL
