MODEL 1
REMARK minimizedAffinity -2.78556967
REMARK minimizedRMSD -1
REMARK  0 active torsions:
REMARK  status: ('A' for Active; 'I' for Inactive)
ROOT
ATOM      1  C   UNL d   1      -2.070  -0.151   0.890  0.00  0.00     0.172 C 
ATOM      2  N   UNL d   1      -0.808  -0.347   0.216  0.00  0.00    -0.070 N 
ATOM      3  C1  UNL d   1       0.397  -0.570   0.827  0.00  0.00    -0.004 A 
ATOM      4  C2  UNL d   1       1.351  -0.706  -0.158  0.00  0.00    -0.047 A 
ATOM      5  C3  UNL d   1       0.697  -0.559  -1.404  0.00  0.00    -0.047 A 
ATOM      6  C4  UNL d   1      -0.639  -0.338  -1.143  0.00  0.00    -0.004 A 
ENDROOT
TORSDOF 0
ENDMDL
