MODEL 1
REMARK minimizedAffinity -3.83454752
REMARK minimizedRMSD -1
REMARK  0 active torsions:
REMARK  status: ('A' for Active; 'I' for Inactive)
ROOT
ATOM      1  C   UNL d   1      -0.490   0.619  -1.152  0.00  0.00     0.172 C 
ATOM      2  N   UNL d   1      -0.309   0.082   0.176  0.00  0.00    -0.070 N 
ATOM      3  C1  UNL d   1       0.888  -0.039   0.831  0.00  0.00    -0.004 A 
ATOM      4  C2  UNL d   1       0.637  -0.592   2.069  0.00  0.00    -0.047 A 
ATOM      5  C3  UNL d   1      -0.758  -0.812   2.160  0.00  0.00    -0.047 A 
ATOM      6  C4  UNL d   1      -1.319  -0.385   0.974  0.00  0.00    -0.004 A 
ENDROOT
TORSDOF 0
ENDMDL
