MODEL 1
REMARK minimizedAffinity -2.73592567
REMARK minimizedRMSD -1
REMARK  0 active torsions:
REMARK  status: ('A' for Active; 'I' for Inactive)
ROOT
ATOM      1  C   UNL d   1       1.171  -1.275   2.623  0.00  0.00     0.172 C 
ATOM      2  N   UNL d   1       0.877  -0.940   1.250  0.00  0.00    -0.070 N 
ATOM      3  C1  UNL d   1      -0.192  -0.200   0.820  0.00  0.00    -0.004 A 
ATOM      4  C2  UNL d   1      -0.115  -0.105  -0.553  0.00  0.00    -0.047 A 
ATOM      5  C3  UNL d   1       1.039  -0.814  -0.962  0.00  0.00    -0.047 A 
ATOM      6  C4  UNL d   1       1.635  -1.320   0.174  0.00  0.00    -0.004 A 
ENDROOT
TORSDOF 0
ENDMDL
