MODEL 1
REMARK minimizedAffinity -2.25120163
REMARK minimizedRMSD -1
REMARK  0 active torsions:
REMARK  status: ('A' for Active; 'I' for Inactive)
ROOT
ATOM      1  C   UNL d   1       0.450  -0.319  -1.060  0.00  0.00     0.172 C 
ATOM      2  N   UNL d   1      -0.119   0.603  -2.014  0.00  0.00    -0.070 N 
ATOM      3  C1  UNL d   1       0.581   1.316  -2.951  0.00  0.00    -0.004 A 
ATOM      4  C2  UNL d   1      -0.321   2.076  -3.663  0.00  0.00    -0.047 A 
ATOM      5  C3  UNL d   1      -1.608   1.812  -3.136  0.00  0.00    -0.047 A 
ATOM      6  C4  UNL d   1      -1.453   0.897  -2.116  0.00  0.00    -0.004 A 
ENDROOT
TORSDOF 0
ENDMDL
