MODEL 1
REMARK minimizedAffinity -2.88799906
REMARK minimizedRMSD -1
REMARK  0 active torsions:
REMARK  status: ('A' for Active; 'I' for Inactive)
ROOT
ATOM      1  C   UNL d   1      -0.310   0.179  -0.950  0.00  0.00     0.172 C 
ATOM      2  N   UNL d   1      -0.352  -0.111   0.464  0.00  0.00    -0.070 N 
ATOM      3  C1  UNL d   1      -1.488  -0.283   1.210  0.00  0.00    -0.004 A 
ATOM      4  C2  UNL d   1      -1.104  -0.542   2.508  0.00  0.00    -0.047 A 
ATOM      5  C3  UNL d   1       0.311  -0.524   2.543  0.00  0.00    -0.047 A 
ATOM      6  C4  UNL d   1       0.750  -0.255   1.264  0.00  0.00    -0.004 A 
ENDROOT
TORSDOF 0
ENDMDL
