MODEL 1
REMARK minimizedAffinity -2.99083567
REMARK minimizedRMSD -1
REMARK  0 active torsions:
REMARK  status: ('A' for Active; 'I' for Inactive)
ROOT
ATOM      1  C   UNL d   1       0.312  -0.056  -0.950  0.00  0.00     0.172 C 
ATOM      2  N   UNL d   1      -0.337   1.030  -1.645  0.00  0.00    -0.070 N 
ATOM      3  C1  UNL d   1       0.288   2.131  -2.168  0.00  0.00    -0.004 A 
ATOM      4  C2  UNL d   1      -0.675   2.928  -2.747  0.00  0.00    -0.047 A 
ATOM      5  C3  UNL d   1      -1.922   2.285  -2.565  0.00  0.00    -0.047 A 
ATOM      6  C4  UNL d   1      -1.684   1.113  -1.880  0.00  0.00    -0.004 A 
ENDROOT
TORSDOF 0
ENDMDL
