MODEL 1
REMARK minimizedAffinity -4.01569557
REMARK minimizedRMSD -1
REMARK  0 active torsions:
REMARK  status: ('A' for Active; 'I' for Inactive)
ROOT
ATOM      1  C   UNL d   1       0.092  -0.639  -0.665  0.00  0.00     0.172 C 
ATOM      2  N   UNL d   1       0.479  -0.593   0.726  0.00  0.00    -0.070 N 
ATOM      3  C1  UNL d   1      -0.307  -0.963   1.785  0.00  0.00    -0.004 A 
ATOM      4  C2  UNL d   1       0.423  -0.773   2.938  0.00  0.00    -0.047 A 
ATOM      5  C3  UNL d   1       1.691  -0.270   2.559  0.00  0.00    -0.047 A 
ATOM      6  C4  UNL d   1       1.698  -0.169   1.184  0.00  0.00    -0.004 A 
ENDROOT
TORSDOF 0
ENDMDL
