MODEL 1
REMARK minimizedAffinity -3.73049998
REMARK minimizedRMSD -1
REMARK  0 active torsions:
REMARK  status: ('A' for Active; 'I' for Inactive)
ROOT
ATOM      1  C   UNL d   1      -1.611  -0.126   1.197  0.00  0.00     0.172 C 
ATOM      2  N   UNL d   1      -0.323  -0.708   1.491  0.00  0.00    -0.070 N 
ATOM      3  C1  UNL d   1       0.805  -0.578   0.726  0.00  0.00    -0.004 A 
ATOM      4  C2  UNL d   1       1.818  -1.278   1.345  0.00  0.00    -0.047 A 
ATOM      5  C3  UNL d   1       1.280  -1.848   2.523  0.00  0.00    -0.047 A 
ATOM      6  C4  UNL d   1      -0.047  -1.479   2.589  0.00  0.00    -0.004 A 
ENDROOT
TORSDOF 0
ENDMDL
