MODEL 1
REMARK minimizedAffinity 4.30660725
REMARK minimizedRMSD -1
REMARK  2 active torsions:
REMARK  status: ('A' for Active; 'I' for Inactive)
REMARK    1  A    between atoms: C1_2  and  C2_3 
REMARK    2  A    between atoms: C2_3  and  C3_4 
ROOT
ATOM      1  C3  UNL d   1       2.114   3.026   0.765  0.00  0.00    -0.075 A 
ATOM      2  C4  UNL d   1       1.151   3.704   0.005  0.00  0.00     0.002 A 
ATOM      3  C5  UNL d   1      -0.180   3.286   0.012  0.00  0.00     0.002 A 
ATOM      4  C6  UNL d   1      -0.562   2.180   0.769  0.00  0.00    -0.004 A 
ATOM      5  C7  UNL d   1       0.390   1.489   1.515  0.00  0.00     0.002 A 
ATOM      6  C8  UNL d   1       1.721   1.908   1.513  0.00  0.00     0.002 A 
ENDROOT
BRANCH   1   7
ATOM      7  C2  UNL d   1       3.551   3.491   0.785  0.00  0.00     0.056 C 
BRANCH   7   8
ATOM      8  C1  UNL d   1       3.741   4.903   1.350  0.00  0.00     0.007 C 
ATOM      9  C   UNL d   1       3.355   6.000   0.366  0.00  0.00     0.009 C 
ENDBRANCH   7   8
ENDBRANCH   1   7
TORSDOF 2
ENDMDL
