MODEL 1
REMARK minimizedAffinity 11.1921549
REMARK minimizedRMSD -1
REMARK  2 active torsions:
REMARK  status: ('A' for Active; 'I' for Inactive)
REMARK    1  A    between atoms: C1_2  and  C2_3 
REMARK    2  A    between atoms: C2_3  and  C3_4 
ROOT
ATOM      1  C3  UNL d   1       4.090   3.772   1.424  0.00  0.00    -0.075 A 
ATOM      2  C4  UNL d   1       3.389   2.560   1.503  0.00  0.00     0.002 A 
ATOM      3  C5  UNL d   1       3.557   1.580   0.524  0.00  0.00     0.002 A 
ATOM      4  C6  UNL d   1       4.417   1.803  -0.549  0.00  0.00    -0.004 A 
ATOM      5  C7  UNL d   1       5.106   3.010  -0.646  0.00  0.00     0.002 A 
ATOM      6  C8  UNL d   1       4.943   3.991   0.335  0.00  0.00     0.002 A 
ENDROOT
BRANCH   1   7
ATOM      7  C2  UNL d   1       3.936   4.824   2.496  0.00  0.00     0.056 C 
BRANCH   7   8
ATOM      8  C1  UNL d   1       5.080   4.849   3.515  0.00  0.00     0.007 C 
ATOM      9  C   UNL d   1       4.661   5.392   4.875  0.00  0.00     0.009 C 
ENDBRANCH   7   8
ENDBRANCH   1   7
TORSDOF 2
ENDMDL
