MODEL 1
REMARK minimizedAffinity 5.81019449
REMARK minimizedRMSD -1
REMARK  2 active torsions:
REMARK  status: ('A' for Active; 'I' for Inactive)
REMARK    1  A    between atoms: C1_2  and  C2_3 
REMARK    2  A    between atoms: C2_3  and  C3_4 
ROOT
ATOM      1  C3  UNL d   1       3.053   3.594   1.438  0.00  0.00    -0.075 A 
ATOM      2  C4  UNL d   1       4.062   2.685   1.088  0.00  0.00     0.002 A 
ATOM      3  C5  UNL d   1       3.738   1.428   0.579  0.00  0.00     0.002 A 
ATOM      4  C6  UNL d   1       2.403   1.059   0.422  0.00  0.00    -0.004 A 
ATOM      5  C7  UNL d   1       1.392   1.948   0.782  0.00  0.00     0.002 A 
ATOM      6  C8  UNL d   1       1.714   3.208   1.288  0.00  0.00     0.002 A 
ENDROOT
BRANCH   1   7
ATOM      7  C2  UNL d   1       3.398   4.967   1.962  0.00  0.00     0.056 C 
BRANCH   7   8
ATOM      8  C1  UNL d   1       4.846   5.107   2.441  0.00  0.00     0.007 C 
ATOM      9  C   UNL d   1       4.975   5.874   3.750  0.00  0.00     0.009 C 
ENDBRANCH   7   8
ENDBRANCH   1   7
TORSDOF 2
ENDMDL
