MODEL 1
REMARK minimizedAffinity -1.50226307
REMARK minimizedRMSD -1
REMARK  2 active torsions:
REMARK  status: ('A' for Active; 'I' for Inactive)
REMARK    1  A    between atoms: C1_2  and  C2_3 
REMARK    2  A    between atoms: C2_3  and  C3_4 
ROOT
ATOM      1  C3  UNL d   1       1.449   2.589   1.690  0.00  0.00    -0.075 A 
ATOM      2  C4  UNL d   1       2.496   3.220   2.377  0.00  0.00     0.002 A 
ATOM      3  C5  UNL d   1       3.823   2.875   2.117  0.00  0.00     0.002 A 
ATOM      4  C6  UNL d   1       4.119   1.890   1.178  0.00  0.00    -0.004 A 
ATOM      5  C7  UNL d   1       3.086   1.245   0.501  0.00  0.00     0.002 A 
ATOM      6  C8  UNL d   1       1.758   1.591   0.755  0.00  0.00     0.002 A 
ENDROOT
BRANCH   1   7
ATOM      7  C2  UNL d   1       0.012   2.978   1.945  0.00  0.00     0.056 C 
BRANCH   7   8
ATOM      8  C1  UNL d   1      -0.806   3.211   0.670  0.00  0.00     0.007 C 
ATOM      9  C   UNL d   1      -2.237   2.699   0.774  0.00  0.00     0.009 C 
ENDBRANCH   7   8
ENDBRANCH   1   7
TORSDOF 2
ENDMDL
