MODEL 1
REMARK minimizedAffinity 1.82624722
REMARK minimizedRMSD -1
REMARK  2 active torsions:
REMARK  status: ('A' for Active; 'I' for Inactive)
REMARK    1  A    between atoms: C1_2  and  C2_3 
REMARK    2  A    between atoms: C2_3  and  C3_4 
ROOT
ATOM      1  C3  UNL d   1       1.387   2.598   1.497  0.00  0.00    -0.075 A 
ATOM      2  C4  UNL d   1       0.982   2.438   2.830  0.00  0.00     0.002 A 
ATOM      3  C5  UNL d   1      -0.365   2.544   3.178  0.00  0.00     0.002 A 
ATOM      4  C6  UNL d   1      -1.320   2.821   2.203  0.00  0.00    -0.004 A 
ATOM      5  C7  UNL d   1      -0.927   2.998   0.878  0.00  0.00     0.002 A 
ATOM      6  C8  UNL d   1       0.419   2.888   0.526  0.00  0.00     0.002 A 
ENDROOT
BRANCH   1   7
ATOM      7  C2  UNL d   1       2.839   2.455   1.108  0.00  0.00     0.056 C 
BRANCH   7   8
ATOM      8  C1  UNL d   1       3.135   1.225   0.243  0.00  0.00     0.007 C 
ATOM      9  C   UNL d   1       3.663   1.577  -1.141  0.00  0.00     0.009 C 
ENDBRANCH   7   8
ENDBRANCH   1   7
TORSDOF 2
ENDMDL
