MODEL 1
REMARK minimizedAffinity 4.07212973
REMARK minimizedRMSD -1
REMARK  2 active torsions:
REMARK  status: ('A' for Active; 'I' for Inactive)
REMARK    1  A    between atoms: C1_2  and  C2_3 
REMARK    2  A    between atoms: C2_3  and  C3_4 
ROOT
ATOM      1  C3  UNL d   1       1.981  -5.836  -4.718  0.00  0.00    -0.075 A 
ATOM      2  C4  UNL d   1       2.648  -5.768  -5.950  0.00  0.00     0.002 A 
ATOM      3  C5  UNL d   1       4.041  -5.700  -5.998  0.00  0.00     0.002 A 
ATOM      4  C6  UNL d   1       4.782  -5.690  -4.819  0.00  0.00    -0.004 A 
ATOM      5  C7  UNL d   1       4.129  -5.741  -3.589  0.00  0.00     0.002 A 
ATOM      6  C8  UNL d   1       2.736  -5.813  -3.538  0.00  0.00     0.002 A 
ENDROOT
BRANCH   1   7
ATOM      7  C2  UNL d   1       0.475  -5.939  -4.660  0.00  0.00     0.056 C 
BRANCH   7   8
ATOM      8  C1  UNL d   1      -0.129  -5.487  -3.327  0.00  0.00     0.007 C 
ATOM      9  C   UNL d   1      -1.584  -5.904  -3.155  0.00  0.00     0.009 C 
ENDBRANCH   7   8
ENDBRANCH   1   7
TORSDOF 2
ENDMDL
