MODEL 1
REMARK minimizedAffinity -2.36437178
REMARK minimizedRMSD -1
REMARK  2 active torsions:
REMARK  status: ('A' for Active; 'I' for Inactive)
REMARK    1  A    between atoms: C1_2  and  C2_3 
REMARK    2  A    between atoms: C2_3  and  C3_4 
ROOT
ATOM      1  C3  UNL d   1       1.470   2.801   1.273  0.00  0.00    -0.075 A 
ATOM      2  C4  UNL d   1       1.938   1.563   0.809  0.00  0.00     0.002 A 
ATOM      3  C5  UNL d   1       3.308   1.312   0.721  0.00  0.00     0.002 A 
ATOM      4  C6  UNL d   1       4.224   2.296   1.085  0.00  0.00    -0.004 A 
ATOM      5  C7  UNL d   1       3.770   3.535   1.531  0.00  0.00     0.002 A 
ATOM      6  C8  UNL d   1       2.400   3.787   1.625  0.00  0.00     0.002 A 
ENDROOT
BRANCH   1   7
ATOM      7  C2  UNL d   1      -0.011   3.068   1.399  0.00  0.00     0.056 C 
BRANCH   7   8
ATOM      8  C1  UNL d   1      -0.478   3.331   2.835  0.00  0.00     0.007 C 
ATOM      9  C   UNL d   1       0.622   3.132   3.869  0.00  0.00     0.009 C 
ENDBRANCH   7   8
ENDBRANCH   1   7
TORSDOF 2
ENDMDL
