MODEL 1
REMARK minimizedAffinity 3.15744281
REMARK minimizedRMSD -1
REMARK  2 active torsions:
REMARK  status: ('A' for Active; 'I' for Inactive)
REMARK    1  A    between atoms: C1_2  and  C2_3 
REMARK    2  A    between atoms: C2_3  and  C3_4 
ROOT
ATOM      1  C3  UNL d   1       1.806   2.176   1.129  0.00  0.00    -0.075 A 
ATOM      2  C4  UNL d   1       2.131   3.536   1.234  0.00  0.00     0.002 A 
ATOM      3  C5  UNL d   1       3.463   3.950   1.202  0.00  0.00     0.002 A 
ATOM      4  C6  UNL d   1       4.485   3.012   1.075  0.00  0.00    -0.004 A 
ATOM      5  C7  UNL d   1       4.174   1.657   0.987  0.00  0.00     0.002 A 
ATOM      6  C8  UNL d   1       2.842   1.239   1.014  0.00  0.00     0.002 A 
ENDROOT
BRANCH   1   7
ATOM      7  C2  UNL d   1       0.365   1.723   1.133  0.00  0.00     0.056 C 
BRANCH   7   8
ATOM      8  C1  UNL d   1      -0.638   2.834   0.805  0.00  0.00     0.007 C 
ATOM      9  C   UNL d   1      -2.065   2.495   1.217  0.00  0.00     0.009 C 
ENDBRANCH   7   8
ENDBRANCH   1   7
TORSDOF 2
ENDMDL
