MODEL 1
REMARK minimizedAffinity 2.55379796
REMARK minimizedRMSD -1
REMARK  2 active torsions:
REMARK  status: ('A' for Active; 'I' for Inactive)
REMARK    1  A    between atoms: C1_2  and  C2_3 
REMARK    2  A    between atoms: C2_3  and  C3_4 
ROOT
ATOM      1  C3  UNL d   1      -1.484   2.616  -4.400  0.00  0.00    -0.075 A 
ATOM      2  C4  UNL d   1      -2.675   1.877  -4.395  0.00  0.00     0.002 A 
ATOM      3  C5  UNL d   1      -3.752   2.262  -5.194  0.00  0.00     0.002 A 
ATOM      4  C6  UNL d   1      -3.655   3.395  -5.998  0.00  0.00    -0.004 A 
ATOM      5  C7  UNL d   1      -2.482   4.147  -5.999  0.00  0.00     0.002 A 
ATOM      6  C8  UNL d   1      -1.402   3.761  -5.204  0.00  0.00     0.002 A 
ENDROOT
BRANCH   1   7
ATOM      7  C2  UNL d   1      -0.304   2.188  -3.560  0.00  0.00     0.056 C 
BRANCH   7   8
ATOM      8  C1  UNL d   1       1.051   2.354  -4.256  0.00  0.00     0.007 C 
ATOM      9  C   UNL d   1       2.163   1.542  -3.606  0.00  0.00     0.009 C 
ENDBRANCH   7   8
ENDBRANCH   1   7
TORSDOF 2
ENDMDL
