MODEL 1
REMARK minimizedAffinity 3.46690178
REMARK minimizedRMSD -1
REMARK  2 active torsions:
REMARK  status: ('A' for Active; 'I' for Inactive)
REMARK    1  A    between atoms: C1_2  and  C2_3 
REMARK    2  A    between atoms: C2_3  and  C3_4 
ROOT
ATOM      1  C3  UNL d   1       3.602   3.472   1.115  0.00  0.00    -0.075 A 
ATOM      2  C4  UNL d   1       4.606   2.546   0.800  0.00  0.00     0.002 A 
ATOM      3  C5  UNL d   1       4.276   1.247   0.413  0.00  0.00     0.002 A 
ATOM      4  C6  UNL d   1       2.941   0.855   0.346  0.00  0.00    -0.004 A 
ATOM      5  C7  UNL d   1       1.935   1.762   0.673  0.00  0.00     0.002 A 
ATOM      6  C8  UNL d   1       2.263   3.064   1.056  0.00  0.00     0.002 A 
ENDROOT
BRANCH   1   7
ATOM      7  C2  UNL d   1       3.952   4.888   1.506  0.00  0.00     0.056 C 
BRANCH   7   8
ATOM      8  C1  UNL d   1       3.546   5.940   0.467  0.00  0.00     0.007 C 
ATOM      9  C   UNL d   1       4.489   5.999  -0.727  0.00  0.00     0.009 C 
ENDBRANCH   7   8
ENDBRANCH   1   7
TORSDOF 2
ENDMDL
