MODEL 1
REMARK minimizedAffinity 6.39757252
REMARK minimizedRMSD -1
REMARK  2 active torsions:
REMARK  status: ('A' for Active; 'I' for Inactive)
REMARK    1  A    between atoms: C1_2  and  C2_3 
REMARK    2  A    between atoms: C2_3  and  C3_4 
ROOT
ATOM      1  C3  UNL d   1       4.273   2.347  -0.686  0.00  0.00    -0.075 A 
ATOM      2  C4  UNL d   1       4.337   3.569  -0.001  0.00  0.00     0.002 A 
ATOM      3  C5  UNL d   1       3.899   3.664   1.320  0.00  0.00     0.002 A 
ATOM      4  C6  UNL d   1       3.383   2.545   1.969  0.00  0.00    -0.004 A 
ATOM      5  C7  UNL d   1       3.299   1.329   1.292  0.00  0.00     0.002 A 
ATOM      6  C8  UNL d   1       3.741   1.230  -0.028  0.00  0.00     0.002 A 
ENDROOT
BRANCH   1   7
ATOM      7  C2  UNL d   1       4.772   2.230  -2.106  0.00  0.00     0.056 C 
BRANCH   7   8
ATOM      8  C1  UNL d   1       3.983   1.237  -2.965  0.00  0.00     0.007 C 
ATOM      9  C   UNL d   1       2.760   1.856  -3.629  0.00  0.00     0.009 C 
ENDBRANCH   7   8
ENDBRANCH   1   7
TORSDOF 2
ENDMDL
