MODEL 1
REMARK minimizedAffinity 4.64560127
REMARK minimizedRMSD -1
REMARK  2 active torsions:
REMARK  status: ('A' for Active; 'I' for Inactive)
REMARK    1  A    between atoms: C1_2  and  C2_3 
REMARK    2  A    between atoms: C2_3  and  C3_4 
ROOT
ATOM      1  C3  UNL d   1       4.305  -5.644  -3.119  0.00  0.00    -0.075 A 
ATOM      2  C4  UNL d   1       3.456  -5.975  -4.185  0.00  0.00     0.002 A 
ATOM      3  C5  UNL d   1       3.819  -5.674  -5.498  0.00  0.00     0.002 A 
ATOM      4  C6  UNL d   1       5.027  -5.032  -5.761  0.00  0.00    -0.004 A 
ATOM      5  C7  UNL d   1       5.870  -4.683  -4.708  0.00  0.00     0.002 A 
ATOM      6  C8  UNL d   1       5.512  -4.987  -3.393  0.00  0.00     0.002 A 
ENDROOT
BRANCH   1   7
ATOM      7  C2  UNL d   1       3.932  -5.993  -1.698  0.00  0.00     0.056 C 
BRANCH   7   8
ATOM      8  C1  UNL d   1       2.452  -5.771  -1.369  0.00  0.00     0.007 C 
ATOM      9  C   UNL d   1       1.717  -4.960  -2.427  0.00  0.00     0.009 C 
ENDBRANCH   7   8
ENDBRANCH   1   7
TORSDOF 2
ENDMDL
