MODEL 1
REMARK minimizedAffinity 3.27797794
REMARK minimizedRMSD -1
REMARK  2 active torsions:
REMARK  status: ('A' for Active; 'I' for Inactive)
REMARK    1  A    between atoms: C1_2  and  C2_3 
REMARK    2  A    between atoms: C2_3  and  C3_4 
ROOT
ATOM      1  C3  UNL d   1       3.498  -5.719  -3.257  0.00  0.00    -0.075 A 
ATOM      2  C4  UNL d   1       2.171  -5.665  -3.708  0.00  0.00     0.002 A 
ATOM      3  C5  UNL d   1       1.883  -5.753  -5.070  0.00  0.00     0.002 A 
ATOM      4  C6  UNL d   1       2.915  -5.885  -5.997  0.00  0.00    -0.004 A 
ATOM      5  C7  UNL d   1       4.237  -5.922  -5.561  0.00  0.00     0.002 A 
ATOM      6  C8  UNL d   1       4.529  -5.839  -4.198  0.00  0.00     0.002 A 
ENDROOT
BRANCH   1   7
ATOM      7  C2  UNL d   1       3.815  -5.654  -1.782  0.00  0.00     0.056 C 
BRANCH   7   8
ATOM      8  C1  UNL d   1       3.924  -4.229  -1.229  0.00  0.00     0.007 C 
ATOM      9  C   UNL d   1       4.674  -3.282  -2.155  0.00  0.00     0.009 C 
ENDBRANCH   7   8
ENDBRANCH   1   7
TORSDOF 2
ENDMDL
