MODEL 1
REMARK minimizedAffinity 12.2595825
REMARK minimizedRMSD -1
REMARK  0 active torsions:
REMARK  status: ('A' for Active; 'I' for Inactive)
ROOT
ATOM      1  C   UNL d   1      -4.467   1.618   3.642  0.00  0.00    -0.002 A 
ATOM      2  C1  UNL d   1      -4.178   2.166   4.884  0.00  0.00     0.010 A 
ATOM      3  C2  UNL d   1      -4.446   3.511   5.146  0.00  0.00     0.041 A 
ATOM      4  C3  UNL d   1      -5.015   4.303   4.130  0.00  0.00    -0.075 A 
ATOM      5  S   UNL d   1      -5.430   5.974   4.224  0.00  0.00     0.015 SA
ATOM      6  C4  UNL d   1      -6.000   6.000   2.618  0.00  0.00     0.022 A 
ATOM      7  C5  UNL d   1      -5.884   4.772   2.010  0.00  0.00     0.026 A 
ATOM      8  C6  UNL d   1      -5.315   3.774   2.871  0.00  0.00    -0.082 A 
ATOM      9  C7  UNL d   1      -5.031   2.407   2.636  0.00  0.00     0.045 A 
ENDROOT
TORSDOF 0
ENDMDL
