MODEL 1
REMARK minimizedAffinity 17.6198387
REMARK minimizedRMSD -1
REMARK  0 active torsions:
REMARK  status: ('A' for Active; 'I' for Inactive)
ROOT
ATOM      1  C   UNL d   1      -1.408  -4.161  -2.944  0.00  0.00    -0.002 A 
ATOM      2  C1  UNL d   1      -1.900  -2.884  -3.172  0.00  0.00     0.010 A 
ATOM      3  C2  UNL d   1      -3.275  -2.661  -3.276  0.00  0.00     0.041 A 
ATOM      4  C3  UNL d   1      -4.154  -3.754  -3.143  0.00  0.00    -0.075 A 
ATOM      5  S   UNL d   1      -5.876  -3.719  -3.232  0.00  0.00     0.015 SA
ATOM      6  C4  UNL d   1      -5.997  -5.399  -2.968  0.00  0.00     0.022 A 
ATOM      7  C5  UNL d   1      -4.764  -5.987  -2.814  0.00  0.00     0.026 A 
ATOM      8  C6  UNL d   1      -3.682  -5.049  -2.912  0.00  0.00    -0.082 A 
ATOM      9  C7  UNL d   1      -2.283  -5.242  -2.813  0.00  0.00     0.045 A 
ENDROOT
TORSDOF 0
ENDMDL
