MODEL 1
REMARK minimizedAffinity 17.8529015
REMARK minimizedRMSD -1
REMARK  0 active torsions:
REMARK  status: ('A' for Active; 'I' for Inactive)
ROOT
ATOM      1  C   UNL d   1       3.132   0.012   4.282  0.00  0.00    -0.002 A 
ATOM      2  C1  UNL d   1       1.886   0.595   4.468  0.00  0.00     0.010 A 
ATOM      3  C2  UNL d   1       1.220   1.203   3.402  0.00  0.00     0.041 A 
ATOM      4  C3  UNL d   1       1.832   1.214   2.133  0.00  0.00    -0.075 A 
ATOM      5  S   UNL d   1       1.203   1.900   0.682  0.00  0.00     0.015 SA
ATOM      6  C4  UNL d   1       2.573   1.435  -0.220  0.00  0.00     0.022 A 
ATOM      7  C5  UNL d   1       3.497   0.772   0.552  0.00  0.00     0.026 A 
ATOM      8  C6  UNL d   1       3.085   0.633   1.921  0.00  0.00    -0.082 A 
ATOM      9  C7  UNL d   1       3.736   0.025   3.022  0.00  0.00     0.045 A 
ENDROOT
TORSDOF 0
ENDMDL
