MODEL 1
REMARK minimizedAffinity 15.9437323
REMARK minimizedRMSD -1
REMARK  0 active torsions:
REMARK  status: ('A' for Active; 'I' for Inactive)
ROOT
ATOM      1  C   UNL d   1      -2.561  -2.773  -3.450  0.00  0.00    -0.002 A 
ATOM      2  C1  UNL d   1      -3.775  -3.259  -2.984  0.00  0.00     0.010 A 
ATOM      3  C2  UNL d   1      -4.053  -3.280  -1.616  0.00  0.00     0.041 A 
ATOM      4  C3  UNL d   1      -3.083  -2.797  -0.716  0.00  0.00    -0.075 A 
ATOM      5  S   UNL d   1      -3.205  -2.724   1.003  0.00  0.00     0.015 SA
ATOM      6  C4  UNL d   1      -1.649  -2.046   1.159  0.00  0.00     0.022 A 
ATOM      7  C5  UNL d   1      -1.038  -1.873  -0.060  0.00  0.00     0.026 A 
ATOM      8  C6  UNL d   1      -1.854  -2.302  -1.161  0.00  0.00    -0.082 A 
ATOM      9  C7  UNL d   1      -1.601  -2.295  -2.554  0.00  0.00     0.045 A 
ENDROOT
TORSDOF 0
ENDMDL
