MODEL 1
REMARK minimizedAffinity 18.2812405
REMARK minimizedRMSD -1
REMARK  0 active torsions:
REMARK  status: ('A' for Active; 'I' for Inactive)
ROOT
ATOM      1  C   UNL d   1      -3.867  -5.060  -2.384  0.00  0.00    -0.002 A 
ATOM      2  C1  UNL d   1      -4.161  -3.740  -2.695  0.00  0.00     0.010 A 
ATOM      3  C2  UNL d   1      -3.236  -2.948  -3.378  0.00  0.00     0.041 A 
ATOM      4  C3  UNL d   1      -1.998  -3.511  -3.748  0.00  0.00    -0.075 A 
ATOM      5  S   UNL d   1      -0.712  -2.731  -4.590  0.00  0.00     0.015 SA
ATOM      6  C4  UNL d   1       0.258  -4.132  -4.558  0.00  0.00     0.022 A 
ATOM      7  C5  UNL d   1      -0.368  -5.178  -3.923  0.00  0.00     0.026 A 
ATOM      8  C6  UNL d   1      -1.679  -4.838  -3.446  0.00  0.00    -0.082 A 
ATOM      9  C7  UNL d   1      -2.638  -5.615  -2.753  0.00  0.00     0.045 A 
ENDROOT
TORSDOF 0
ENDMDL
