MODEL 1
REMARK minimizedAffinity 16.5378094
REMARK minimizedRMSD -1
REMARK  0 active torsions:
REMARK  status: ('A' for Active; 'I' for Inactive)
ROOT
ATOM      1  C   UNL d   1       2.336  -0.139   3.493  0.00  0.00    -0.002 A 
ATOM      2  C1  UNL d   1       1.563   0.528   2.553  0.00  0.00     0.010 A 
ATOM      3  C2  UNL d   1       1.989   0.629   1.227  0.00  0.00     0.041 A 
ATOM      4  C3  UNL d   1       3.215   0.042   0.858  0.00  0.00    -0.075 A 
ATOM      5  S   UNL d   1       3.937   0.039  -0.708  0.00  0.00     0.015 SA
ATOM      6  C4  UNL d   1       5.287  -0.848  -0.166  0.00  0.00     0.022 A 
ATOM      7  C5  UNL d   1       5.206  -1.142   1.175  0.00  0.00     0.026 A 
ATOM      8  C6  UNL d   1       4.010  -0.635   1.787  0.00  0.00    -0.082 A 
ATOM      9  C7  UNL d   1       3.552  -0.720   3.123  0.00  0.00     0.045 A 
ENDROOT
TORSDOF 0
ENDMDL
