MODEL 1
REMARK minimizedAffinity 17.7753925
REMARK minimizedRMSD -1
REMARK  0 active torsions:
REMARK  status: ('A' for Active; 'I' for Inactive)
ROOT
ATOM      1  C   UNL d   1      -6.000   5.721   2.971  0.00  0.00    -0.002 A 
ATOM      2  C1  UNL d   1      -5.813   6.000   4.318  0.00  0.00     0.010 A 
ATOM      3  C2  UNL d   1      -5.253   5.046   5.170  0.00  0.00     0.041 A 
ATOM      4  C3  UNL d   1      -4.878   3.796   4.640  0.00  0.00    -0.075 A 
ATOM      5  S   UNL d   1      -4.173   2.475   5.494  0.00  0.00     0.015 SA
ATOM      6  C4  UNL d   1      -4.101   1.509   4.092  0.00  0.00     0.022 A 
ATOM      7  C5  UNL d   1      -4.599   2.163   2.990  0.00  0.00     0.026 A 
ATOM      8  C6  UNL d   1      -5.055   3.491   3.287  0.00  0.00    -0.082 A 
ATOM      9  C7  UNL d   1      -5.626   4.479   2.449  0.00  0.00     0.045 A 
ENDROOT
TORSDOF 0
ENDMDL
