MODEL 1
REMARK minimizedAffinity 29.5835476
REMARK minimizedRMSD -1
REMARK  0 active torsions:
REMARK  status: ('A' for Active; 'I' for Inactive)
ROOT
ATOM      1  C   UNL d   1      -3.252  -2.380  -3.436  0.00  0.00    -0.002 A 
ATOM      2  C1  UNL d   1      -2.336  -2.856  -2.509  0.00  0.00     0.010 A 
ATOM      3  C2  UNL d   1      -2.632  -3.974  -1.727  0.00  0.00     0.041 A 
ATOM      4  C3  UNL d   1      -3.876  -4.613  -1.896  0.00  0.00    -0.075 A 
ATOM      5  S   UNL d   1      -4.456  -5.999  -1.050  0.00  0.00     0.015 SA
ATOM      6  C4  UNL d   1      -5.933  -5.993  -1.900  0.00  0.00     0.022 A 
ATOM      7  C5  UNL d   1      -5.999  -4.965  -2.811  0.00  0.00     0.026 A 
ATOM      8  C6  UNL d   1      -4.815  -4.153  -2.824  0.00  0.00    -0.082 A 
ATOM      9  C7  UNL d   1      -4.485  -3.017  -3.601  0.00  0.00     0.045 A 
ENDROOT
TORSDOF 0
ENDMDL
