MODEL 1
REMARK minimizedAffinity 21.1240692
REMARK minimizedRMSD -1
REMARK  0 active torsions:
REMARK  status: ('A' for Active; 'I' for Inactive)
ROOT
ATOM      1  C   UNL d   1      -3.875  -4.941  -1.813  0.00  0.00    -0.002 A 
ATOM      2  C1  UNL d   1      -3.853  -3.582  -2.096  0.00  0.00     0.010 A 
ATOM      3  C2  UNL d   1      -2.767  -3.013  -2.764  0.00  0.00     0.041 A 
ATOM      4  C3  UNL d   1      -1.693  -3.840  -3.148  0.00  0.00    -0.075 A 
ATOM      5  S   UNL d   1      -0.258  -3.364  -3.976  0.00  0.00     0.015 SA
ATOM      6  C4  UNL d   1       0.360  -4.952  -3.974  0.00  0.00     0.022 A 
ATOM      7  C5  UNL d   1      -0.494  -5.837  -3.360  0.00  0.00     0.026 A 
ATOM      8  C6  UNL d   1      -1.692  -5.211  -2.874  0.00  0.00    -0.082 A 
ATOM      9  C7  UNL d   1      -2.807  -5.758  -2.195  0.00  0.00     0.045 A 
ENDROOT
TORSDOF 0
ENDMDL
