MODEL 1
REMARK minimizedAffinity 14.190691
REMARK minimizedRMSD -1
REMARK  0 active torsions:
REMARK  status: ('A' for Active; 'I' for Inactive)
ROOT
ATOM      1  O1  BZF d   1      -0.873   3.278   4.746  0.00  0.00    -0.204 OA
ATOM      2  C2  BZF d   1      -0.329   3.062   5.997  0.00  0.00     0.174 A 
ATOM      3  C3  BZF d   1       0.449   1.960   5.996  0.00  0.00    -0.012 A 
ATOM      4  C3A BZF d   1       0.461   1.509   4.639  0.00  0.00    -0.107 A 
ATOM      5  C4  BZF d   1       1.071   0.467   4.001  0.00  0.00     0.055 A 
ATOM      6  C5  BZF d   1       0.819   0.261   2.682  0.00  0.00    -0.016 A 
ATOM      7  C6  BZF d   1      -0.040   1.073   1.971  0.00  0.00     0.022 A 
ATOM      8  C7  BZF d   1      -0.665   2.122   2.559  0.00  0.00     0.029 A 
ATOM      9  C7A BZF d   1      -0.387   2.353   3.885  0.00  0.00     0.058 A 
ENDROOT
TORSDOF 0
ENDMDL
