MODEL 1
REMARK minimizedAffinity 9.14485168
REMARK minimizedRMSD -1
REMARK  0 active torsions:
REMARK  status: ('A' for Active; 'I' for Inactive)
ROOT
ATOM      1  O1  BZF d   1       0.948  -1.519   3.099  0.00  0.00    -0.204 OA
ATOM      2  C2  BZF d   1       0.466  -0.374   2.495  0.00  0.00     0.174 A 
ATOM      3  C3  BZF d   1       0.991   0.727   3.069  0.00  0.00    -0.012 A 
ATOM      4  C3A BZF d   1       1.927   0.238   4.035  0.00  0.00    -0.107 A 
ATOM      5  C4  BZF d   1       2.775   0.849   4.913  0.00  0.00     0.055 A 
ATOM      6  C5  BZF d   1       3.502   0.084   5.770  0.00  0.00    -0.016 A 
ATOM      7  C6  BZF d   1       3.401  -1.292   5.779  0.00  0.00     0.022 A 
ATOM      8  C7  BZF d   1       2.577  -1.943   4.923  0.00  0.00     0.029 A 
ATOM      9  C7A BZF d   1       1.866  -1.175   4.033  0.00  0.00     0.058 A 
ENDROOT
TORSDOF 0
ENDMDL
