MODEL 1
REMARK minimizedAffinity 13.7672148
REMARK minimizedRMSD -1
REMARK  0 active torsions:
REMARK  status: ('A' for Active; 'I' for Inactive)
ROOT
ATOM      1  O1  BZF d   1      -5.582   4.407  -2.231  0.00  0.00    -0.204 OA
ATOM      2  C2  BZF d   1      -5.801   5.607  -1.582  0.00  0.00     0.174 A 
ATOM      3  C3  BZF d   1      -5.999   5.409  -0.263  0.00  0.00    -0.012 A 
ATOM      4  C3A BZF d   1      -5.805   4.006  -0.060  0.00  0.00    -0.107 A 
ATOM      5  C4  BZF d   1      -5.851   3.202   1.043  0.00  0.00     0.055 A 
ATOM      6  C5  BZF d   1      -5.687   1.861   0.890  0.00  0.00    -0.016 A 
ATOM      7  C6  BZF d   1      -5.481   1.292  -0.349  0.00  0.00     0.022 A 
ATOM      8  C7  BZF d   1      -5.423   2.049  -1.471  0.00  0.00     0.029 A 
ATOM      9  C7A BZF d   1      -5.555   3.407  -1.316  0.00  0.00     0.058 A 
ENDROOT
TORSDOF 0
ENDMDL
