MODEL 1
REMARK minimizedAffinity 8.45119476
REMARK minimizedRMSD -1
REMARK  0 active torsions:
REMARK  status: ('A' for Active; 'I' for Inactive)
ROOT
ATOM      1  O1  BZF d   1      -4.636   0.511  -1.345  0.00  0.00    -0.204 OA
ATOM      2  C2  BZF d   1      -4.995   1.835  -1.180  0.00  0.00     0.174 A 
ATOM      3  C3  BZF d   1      -4.504   2.323  -0.023  0.00  0.00    -0.012 A 
ATOM      4  C3A BZF d   1      -3.715   1.263   0.528  0.00  0.00    -0.107 A 
ATOM      5  C4  BZF d   1      -2.960   1.145   1.659  0.00  0.00     0.055 A 
ATOM      6  C5  BZF d   1      -2.375  -0.048   1.942  0.00  0.00    -0.016 A 
ATOM      7  C6  BZF d   1      -2.529  -1.145   1.119  0.00  0.00     0.022 A 
ATOM      8  C7  BZF d   1      -3.264  -1.075  -0.018  0.00  0.00     0.029 A 
ATOM      9  C7A BZF d   1      -3.829   0.139  -0.323  0.00  0.00     0.058 A 
ENDROOT
TORSDOF 0
ENDMDL
