MODEL 1
REMARK minimizedAffinity 10.6336088
REMARK minimizedRMSD -1
REMARK  0 active torsions:
REMARK  status: ('A' for Active; 'I' for Inactive)
ROOT
ATOM      1  O1  BZF d   1      -2.254  -5.950  -4.710  0.00  0.00    -0.204 OA
ATOM      2  C2  BZF d   1      -2.101  -5.475  -5.998  0.00  0.00     0.174 A 
ATOM      3  C3  BZF d   1      -1.961  -4.134  -6.000  0.00  0.00    -0.012 A 
ATOM      4  C3A BZF d   1      -1.937  -3.756  -4.620  0.00  0.00    -0.107 A 
ATOM      5  C4  BZF d   1      -1.804  -2.559  -3.977  0.00  0.00     0.055 A 
ATOM      6  C5  BZF d   1      -1.896  -2.524  -2.622  0.00  0.00    -0.016 A 
ATOM      7  C6  BZF d   1      -2.125  -3.664  -1.879  0.00  0.00     0.022 A 
ATOM      8  C7  BZF d   1      -2.259  -4.875  -2.473  0.00  0.00     0.029 A 
ATOM      9  C7A BZF d   1      -2.134  -4.919  -3.840  0.00  0.00     0.058 A 
ENDROOT
TORSDOF 0
ENDMDL
