MODEL 1
REMARK minimizedAffinity 7.64621258
REMARK minimizedRMSD -1
REMARK  0 active torsions:
REMARK  status: ('A' for Active; 'I' for Inactive)
ROOT
ATOM      1  O1  BZF d   1       5.261  -2.059   5.550  0.00  0.00    -0.204 OA
ATOM      2  C2  BZF d   1       5.196  -3.364   5.999  0.00  0.00     0.174 A 
ATOM      3  C3  BZF d   1       4.079  -3.970   5.548  0.00  0.00    -0.012 A 
ATOM      4  C3A BZF d   1       3.450  -3.012   4.692  0.00  0.00    -0.107 A 
ATOM      5  C4  BZF d   1       2.312  -3.031   3.938  0.00  0.00     0.055 A 
ATOM      6  C5  BZF d   1       1.939  -1.905   3.275  0.00  0.00    -0.016 A 
ATOM      7  C6  BZF d   1       2.677  -0.741   3.349  0.00  0.00     0.022 A 
ATOM      8  C7  BZF d   1       3.815  -0.675   4.081  0.00  0.00     0.029 A 
ATOM      9  C7A BZF d   1       4.212  -1.821   4.725  0.00  0.00     0.058 A 
ENDROOT
TORSDOF 0
ENDMDL
