MODEL 1
REMARK minimizedAffinity 13.3483467
REMARK minimizedRMSD -1
REMARK  0 active torsions:
REMARK  status: ('A' for Active; 'I' for Inactive)
ROOT
ATOM      1  O1  BZF d   1       1.050  -0.898  -5.116  0.00  0.00    -0.204 OA
ATOM      2  C2  BZF d   1       1.739  -0.165  -4.169  0.00  0.00     0.174 A 
ATOM      3  C3  BZF d   1       1.176  -0.308  -2.952  0.00  0.00    -0.012 A 
ATOM      4  C3A BZF d   1       0.121  -1.258  -3.134  0.00  0.00    -0.107 A 
ATOM      5  C4  BZF d   1      -0.792  -1.821  -2.289  0.00  0.00     0.055 A 
ATOM      6  C5  BZF d   1      -1.734  -2.658  -2.797  0.00  0.00    -0.016 A 
ATOM      7  C6  BZF d   1      -1.796  -2.950  -4.143  0.00  0.00     0.022 A 
ATOM      8  C7  BZF d   1      -0.909  -2.419  -5.020  0.00  0.00     0.029 A 
ATOM      9  C7A BZF d   1       0.065  -1.598  -4.505  0.00  0.00     0.058 A 
ENDROOT
TORSDOF 0
ENDMDL
