MODEL 1
REMARK minimizedAffinity 2.53615665
REMARK minimizedRMSD -1
REMARK  0 active torsions:
REMARK  status: ('A' for Active; 'I' for Inactive)
ROOT
ATOM      1  N1  IND d   1       2.755  -0.323  -4.937  0.00  0.00    -0.196 N 
ATOM      2  C2  IND d   1       1.945  -0.033  -6.000  0.00  0.00     0.054 A 
ATOM      3  C3  IND d   1       0.814  -0.771  -5.943  0.00  0.00    -0.031 A 
ATOM      4  C4  IND d   1       0.037  -2.439  -4.143  0.00  0.00     0.051 A 
ATOM      5  C5  IND d   1       0.453  -3.061  -2.999  0.00  0.00    -0.031 A 
ATOM      6  C6  IND d   1       1.681  -2.794  -2.430  0.00  0.00     0.015 A 
ATOM      7  C7  IND d   1       2.539  -1.884  -2.980  0.00  0.00    -0.016 A 
ATOM      8  C8  IND d   1       2.122  -1.255  -4.145  0.00  0.00    -0.047 A 
ATOM      9  C9  IND d   1       0.895  -1.553  -4.751  0.00  0.00    -0.096 A 
ATOM     10  HN1 IND d   1       3.530   0.020  -4.788  0.00  0.00     0.298 HD
ENDROOT
TORSDOF 0
ENDMDL
