MODEL 1
REMARK minimizedAffinity 2.99176812
REMARK minimizedRMSD -1
REMARK  0 active torsions:
REMARK  status: ('A' for Active; 'I' for Inactive)
ROOT
ATOM      1  N1  IND d   1       0.283  -0.594  -6.000  0.00  0.00    -0.196 N 
ATOM      2  C2  IND d   1      -0.626  -1.083  -5.105  0.00  0.00     0.054 A 
ATOM      3  C3  IND d   1       0.004  -1.579  -4.016  0.00  0.00    -0.031 A 
ATOM      4  C4  IND d   1       2.515  -1.599  -3.449  0.00  0.00     0.051 A 
ATOM      5  C5  IND d   1       3.741  -1.297  -3.974  0.00  0.00    -0.031 A 
ATOM      6  C6  IND d   1       3.879  -0.731  -5.225  0.00  0.00     0.015 A 
ATOM      7  C7  IND d   1       2.791  -0.435  -5.997  0.00  0.00    -0.016 A 
ATOM      8  C8  IND d   1       1.546  -0.746  -5.470  0.00  0.00    -0.047 A 
ATOM      9  C9  IND d   1       1.401  -1.359  -4.219  0.00  0.00    -0.096 A 
ATOM     10  HN1 IND d   1       0.098  -0.249  -6.765  0.00  0.00     0.298 HD
ENDROOT
TORSDOF 0
ENDMDL
