MODEL 1
REMARK minimizedAffinity -0.507430851
REMARK minimizedRMSD -1
REMARK  0 active torsions:
REMARK  status: ('A' for Active; 'I' for Inactive)
ROOT
ATOM      1  N1  IND d   1       2.755  -0.020  -5.999  0.00  0.00    -0.196 N 
ATOM      2  C2  IND d   1       3.726  -0.446  -5.137  0.00  0.00     0.054 A 
ATOM      3  C3  IND d   1       3.171  -1.081  -4.080  0.00  0.00    -0.031 A 
ATOM      4  C4  IND d   1       0.698  -1.623  -3.613  0.00  0.00     0.051 A 
ATOM      5  C5  IND d   1      -0.562  -1.407  -4.095  0.00  0.00    -0.031 A 
ATOM      6  C6  IND d   1      -0.785  -0.705  -5.262  0.00  0.00     0.015 A 
ATOM      7  C7  IND d   1       0.249  -0.201  -5.999  0.00  0.00    -0.016 A 
ATOM      8  C8  IND d   1       1.530  -0.413  -5.509  0.00  0.00    -0.047 A 
ATOM      9  C9  IND d   1       1.760  -1.088  -4.303  0.00  0.00    -0.096 A 
ATOM     10  HN1 IND d   1       2.888   0.419  -6.727  0.00  0.00     0.298 HD
ENDROOT
TORSDOF 0
ENDMDL
