MODEL 1
REMARK minimizedAffinity 6.78793097
REMARK minimizedRMSD -1
REMARK  0 active torsions:
REMARK  status: ('A' for Active; 'I' for Inactive)
ROOT
ATOM      1  N1  IND d   1       1.523  -2.020   2.114  0.00  0.00    -0.196 N 
ATOM      2  C2  IND d   1       0.180  -1.778   2.047  0.00  0.00     0.054 A 
ATOM      3  C3  IND d   1      -0.284  -1.366   3.248  0.00  0.00    -0.031 A 
ATOM      4  C4  IND d   1       1.002  -0.920   5.433  0.00  0.00     0.051 A 
ATOM      5  C5  IND d   1       2.243  -1.033   5.995  0.00  0.00    -0.031 A 
ATOM      6  C6  IND d   1       3.330  -1.487   5.277  0.00  0.00     0.015 A 
ATOM      7  C7  IND d   1       3.218  -1.836   3.960  0.00  0.00    -0.016 A 
ATOM      8  C8  IND d   1       1.958  -1.730   3.389  0.00  0.00    -0.047 A 
ATOM      9  C9  IND d   1       0.842  -1.310   4.125  0.00  0.00    -0.096 A 
ATOM     10  HN1 IND d   1       2.014  -2.306   1.469  0.00  0.00     0.298 HD
ENDROOT
TORSDOF 0
ENDMDL
