MODEL 1
REMARK minimizedAffinity 4.86170387
REMARK minimizedRMSD -1
REMARK  0 active torsions:
REMARK  status: ('A' for Active; 'I' for Inactive)
ROOT
ATOM      1  N1  IND d   1      -0.128  -0.764  -5.998  0.00  0.00    -0.196 N 
ATOM      2  C2  IND d   1      -1.005  -1.210  -5.049  0.00  0.00     0.054 A 
ATOM      3  C3  IND d   1      -0.353  -1.485  -3.897  0.00  0.00    -0.031 A 
ATOM      4  C4  IND d   1       2.137  -1.182  -3.316  0.00  0.00     0.051 A 
ATOM      5  C5  IND d   1       3.338  -0.839  -3.869  0.00  0.00    -0.031 A 
ATOM      6  C6  IND d   1       3.447  -0.443  -5.187  0.00  0.00     0.015 A 
ATOM      7  C7  IND d   1       2.352  -0.363  -6.000  0.00  0.00    -0.016 A 
ATOM      8  C8  IND d   1       1.132  -0.718  -5.443  0.00  0.00    -0.047 A 
ATOM      9  C9  IND d   1       1.021  -1.162  -4.119  0.00  0.00    -0.096 A 
ATOM     10  HN1 IND d   1      -0.330  -0.548  -6.806  0.00  0.00     0.298 HD
ENDROOT
TORSDOF 0
ENDMDL
