MODEL 1
REMARK minimizedAffinity 6.6579895
REMARK minimizedRMSD -1
REMARK  0 active torsions:
REMARK  status: ('A' for Active; 'I' for Inactive)
ROOT
ATOM      1  N1  IND d   1       0.837  -0.278  -6.000  0.00  0.00    -0.196 N 
ATOM      2  C2  IND d   1       0.030  -1.009  -5.173  0.00  0.00     0.054 A 
ATOM      3  C3  IND d   1       0.756  -1.556  -4.172  0.00  0.00    -0.031 A 
ATOM      4  C4  IND d   1       3.261  -1.299  -3.638  0.00  0.00     0.051 A 
ATOM      5  C5  IND d   1       4.417  -0.758  -4.128  0.00  0.00    -0.031 A 
ATOM      6  C6  IND d   1       4.438  -0.012  -5.288  0.00  0.00     0.015 A 
ATOM      7  C7  IND d   1       3.297   0.231  -6.000  0.00  0.00    -0.016 A 
ATOM      8  C8  IND d   1       2.123  -0.322  -5.509  0.00  0.00    -0.047 A 
ATOM      9  C9  IND d   1       2.102  -1.116  -4.355  0.00  0.00    -0.096 A 
ATOM     10  HN1 IND d   1       0.583   0.139  -6.708  0.00  0.00     0.298 HD
ENDROOT
TORSDOF 0
ENDMDL
