MODEL 1
REMARK minimizedAffinity 8.07028866
REMARK minimizedRMSD -1
REMARK  0 active torsions:
REMARK  status: ('A' for Active; 'I' for Inactive)
ROOT
ATOM      1  N1  IND d   1      -1.185  -2.158   1.585  0.00  0.00    -0.196 N 
ATOM      2  C2  IND d   1      -2.216  -1.977   2.465  0.00  0.00     0.054 A 
ATOM      3  C3  IND d   1      -1.740  -1.624   3.680  0.00  0.00    -0.031 A 
ATOM      4  C4  IND d   1       0.686  -1.187   4.423  0.00  0.00     0.051 A 
ATOM      5  C5  IND d   1       1.977  -1.259   3.982  0.00  0.00    -0.031 A 
ATOM      6  C6  IND d   1       2.287  -1.640   2.692  0.00  0.00     0.015 A 
ATOM      7  C7  IND d   1       1.311  -1.953   1.788  0.00  0.00    -0.016 A 
ATOM      8  C8  IND d   1      -0.001  -1.888   2.235  0.00  0.00    -0.047 A 
ATOM      9  C9  IND d   1      -0.319  -1.543   3.555  0.00  0.00    -0.096 A 
ATOM     10  HN1 IND d   1      -1.264  -2.401   0.764  0.00  0.00     0.298 HD
ENDROOT
TORSDOF 0
ENDMDL
