MODEL 1
REMARK minimizedAffinity 7.23569584
REMARK minimizedRMSD -1
REMARK  0 active torsions:
REMARK  status: ('A' for Active; 'I' for Inactive)
ROOT
ATOM      1  N1  IND d   1      -0.179  -0.527  -5.981  0.00  0.00    -0.196 N 
ATOM      2  C2  IND d   1      -1.099  -1.090  -5.141  0.00  0.00     0.054 A 
ATOM      3  C3  IND d   1      -0.478  -1.751  -4.138  0.00  0.00    -0.031 A 
ATOM      4  C4  IND d   1       2.036  -1.950  -3.622  0.00  0.00     0.051 A 
ATOM      5  C5  IND d   1       3.267  -1.634  -4.123  0.00  0.00    -0.031 A 
ATOM      6  C6  IND d   1       3.415  -0.916  -5.292  0.00  0.00     0.015 A 
ATOM      7  C7  IND d   1       2.333  -0.475  -6.000  0.00  0.00    -0.016 A 
ATOM      8  C8  IND d   1       1.081  -0.800  -5.497  0.00  0.00    -0.047 A 
ATOM      9  C9  IND d   1       0.925  -1.566  -4.334  0.00  0.00    -0.096 A 
ATOM     10  HN1 IND d   1      -0.358  -0.077  -6.691  0.00  0.00     0.298 HD
ENDROOT
TORSDOF 0
ENDMDL
