MODEL 1
REMARK minimizedAffinity 11.8977404
REMARK minimizedRMSD -1
REMARK  0 active torsions:
REMARK  status: ('A' for Active; 'I' for Inactive)
ROOT
ATOM      1  N1  IND d   1      -1.432  -3.116   2.494  0.00  0.00    -0.196 N 
ATOM      2  C2  IND d   1      -2.445  -2.324   2.030  0.00  0.00     0.054 A 
ATOM      3  C3  IND d   1      -2.107  -1.019   2.135  0.00  0.00    -0.031 A 
ATOM      4  C4  IND d   1       0.095   0.040   2.945  0.00  0.00     0.051 A 
ATOM      5  C5  IND d   1       1.301  -0.277   3.503  0.00  0.00    -0.031 A 
ATOM      6  C6  IND d   1       1.667  -1.583   3.755  0.00  0.00     0.015 A 
ATOM      7  C7  IND d   1       0.841  -2.626   3.447  0.00  0.00    -0.016 A 
ATOM      8  C8  IND d   1      -0.388  -2.308   2.888  0.00  0.00    -0.047 A 
ATOM      9  C9  IND d   1      -0.783  -0.982   2.669  0.00  0.00    -0.096 A 
ATOM     10  HN1 IND d   1      -1.445  -3.975   2.533  0.00  0.00     0.298 HD
ENDROOT
TORSDOF 0
ENDMDL
