MODEL 1
REMARK minimizedAffinity 2.1726687
REMARK minimizedRMSD -1
REMARK  0 active torsions:
REMARK  status: ('A' for Active; 'I' for Inactive)
ROOT
ATOM      1  N1  IND d   1      -0.118  -0.646  -6.000  0.00  0.00    -0.196 N 
ATOM      2  C2  IND d   1      -1.006  -1.111  -5.070  0.00  0.00     0.054 A 
ATOM      3  C3  IND d   1      -0.357  -1.475  -3.941  0.00  0.00    -0.031 A 
ATOM      4  C4  IND d   1       2.145  -1.300  -3.363  0.00  0.00     0.051 A 
ATOM      5  C5  IND d   1       3.356  -0.972  -3.907  0.00  0.00    -0.031 A 
ATOM      6  C6  IND d   1       3.472  -0.506  -5.200  0.00  0.00     0.015 A 
ATOM      7  C7  IND d   1       2.376  -0.340  -5.999  0.00  0.00    -0.016 A 
ATOM      8  C8  IND d   1       1.146  -0.679  -5.453  0.00  0.00    -0.047 A 
ATOM      9  C9  IND d   1       1.026  -1.192  -4.155  0.00  0.00    -0.096 A 
ATOM     10  HN1 IND d   1      -0.316  -0.378  -6.793  0.00  0.00     0.298 HD
ENDROOT
TORSDOF 0
ENDMDL
