MODEL 1
REMARK minimizedAffinity 1.54590225
REMARK minimizedRMSD -1
REMARK  0 active torsions:
REMARK  status: ('A' for Active; 'I' for Inactive)
ROOT
ATOM      1  N1  IND d   1      -0.965  -2.771   2.811  0.00  0.00    -0.196 N 
ATOM      2  C2  IND d   1      -2.178  -2.268   2.432  0.00  0.00     0.054 A 
ATOM      3  C3  IND d   1      -2.095  -0.932   2.241  0.00  0.00    -0.031 A 
ATOM      4  C4  IND d   1      -0.045   0.617   2.394  0.00  0.00     0.051 A 
ATOM      5  C5  IND d   1       1.277   0.623   2.742  0.00  0.00    -0.031 A 
ATOM      6  C6  IND d   1       1.933  -0.526   3.135  0.00  0.00     0.015 A 
ATOM      7  C7  IND d   1       1.291  -1.731   3.185  0.00  0.00    -0.016 A 
ATOM      8  C8  IND d   1      -0.052  -1.740   2.840  0.00  0.00    -0.047 A 
ATOM      9  C9  IND d   1      -0.734  -0.570   2.481  0.00  0.00    -0.096 A 
ATOM     10  HN1 IND d   1      -0.799  -3.594   2.999  0.00  0.00     0.298 HD
ENDROOT
TORSDOF 0
ENDMDL
