MODEL 1
REMARK minimizedAffinity 6.4016242
REMARK minimizedRMSD -1
REMARK  0 active torsions:
REMARK  status: ('A' for Active; 'I' for Inactive)
ROOT
ATOM      1  N1  IND d   1       2.267  -5.993  -2.433  0.00  0.00    -0.196 N 
ATOM      2  C2  IND d   1       3.554  -5.990  -2.895  0.00  0.00     0.054 A 
ATOM      3  C3  IND d   1       3.568  -5.994  -4.247  0.00  0.00    -0.031 A 
ATOM      4  C4  IND d   1       1.600  -5.903  -5.904  0.00  0.00     0.051 A 
ATOM      5  C5  IND d   1       0.235  -5.929  -5.957  0.00  0.00    -0.031 A 
ATOM      6  C6  IND d   1      -0.539  -5.976  -4.815  0.00  0.00     0.015 A 
ATOM      7  C7  IND d   1       0.027  -5.988  -3.571  0.00  0.00    -0.016 A 
ATOM      8  C8  IND d   1       1.413  -5.968  -3.514  0.00  0.00    -0.047 A 
ATOM      9  C9  IND d   1       2.204  -5.963  -4.670  0.00  0.00    -0.096 A 
ATOM     10  HN1 IND d   1       2.031  -6.008  -1.606  0.00  0.00     0.298 HD
ENDROOT
TORSDOF 0
ENDMDL
