MODEL 1
REMARK minimizedAffinity -5.40205097
REMARK minimizedRMSD -1
REMARK  0 active torsions:
REMARK  status: ('A' for Active; 'I' for Inactive)
ROOT
ATOM      1  C   UNL d   1      -6.000   1.262   0.582  0.00  0.00     0.078 C 
ATOM      2  C1  UNL d   1      -5.229   1.143   1.863  0.00  0.00    -0.077 A 
ATOM      3  C2  UNL d   1      -5.865   1.279   3.103  0.00  0.00    -0.001 A 
ATOM      4  C3  UNL d   1      -5.133   1.175   4.287  0.00  0.00     0.003 A 
ATOM      5  C4  UNL d   1      -3.761   0.936   4.243  0.00  0.00    -0.005 A 
ATOM      6  C5  UNL d   1      -3.119   0.801   3.014  0.00  0.00     0.003 A 
ATOM      7  C6  UNL d   1      -3.849   0.905   1.829  0.00  0.00    -0.001 A 
ENDROOT
TORSDOF 0
ENDMDL
