MODEL 1
REMARK minimizedAffinity 0.768552125
REMARK minimizedRMSD -1
REMARK  0 active torsions:
REMARK  status: ('A' for Active; 'I' for Inactive)
ROOT
ATOM      1  C   UNL d   1       0.335  -1.956   3.008  0.00  0.00     0.078 C 
ATOM      2  C1  UNL d   1      -0.894  -1.196   2.606  0.00  0.00    -0.077 A 
ATOM      3  C2  UNL d   1      -1.710  -1.645   1.560  0.00  0.00    -0.001 A 
ATOM      4  C3  UNL d   1      -2.845  -0.922   1.190  0.00  0.00     0.003 A 
ATOM      5  C4  UNL d   1      -3.175   0.254   1.860  0.00  0.00    -0.005 A 
ATOM      6  C5  UNL d   1      -2.368   0.710   2.901  0.00  0.00     0.003 A 
ATOM      7  C6  UNL d   1      -1.232  -0.011   3.272  0.00  0.00    -0.001 A 
ENDROOT
TORSDOF 0
ENDMDL
