MODEL 1
REMARK minimizedAffinity 5.23336506
REMARK minimizedRMSD -1
REMARK  0 active torsions:
REMARK  status: ('A' for Active; 'I' for Inactive)
ROOT
ATOM      1  C   UNL d   1      -2.850   0.448   2.630  0.00  0.00     0.078 C 
ATOM      2  C1  UNL d   1      -3.423   0.254   1.258  0.00  0.00    -0.077 A 
ATOM      3  C2  UNL d   1      -2.754  -0.515   0.298  0.00  0.00    -0.001 A 
ATOM      4  C3  UNL d   1      -3.295  -0.679  -0.978  0.00  0.00     0.003 A 
ATOM      5  C4  UNL d   1      -4.508  -0.077  -1.306  0.00  0.00    -0.005 A 
ATOM      6  C5  UNL d   1      -5.180   0.692  -0.359  0.00  0.00     0.003 A 
ATOM      7  C6  UNL d   1      -4.641   0.857   0.918  0.00  0.00    -0.001 A 
ENDROOT
TORSDOF 0
ENDMDL
