MODEL 1
REMARK minimizedAffinity 1.09521902
REMARK minimizedRMSD -1
REMARK  0 active torsions:
REMARK  status: ('A' for Active; 'I' for Inactive)
ROOT
ATOM      1  C   UNL d   1      -0.685  -1.768   1.849  0.00  0.00     0.078 C 
ATOM      2  C1  UNL d   1      -1.828  -0.799   1.911  0.00  0.00    -0.077 A 
ATOM      3  C2  UNL d   1      -1.798   0.295   2.785  0.00  0.00    -0.001 A 
ATOM      4  C3  UNL d   1      -2.873   1.184   2.839  0.00  0.00     0.003 A 
ATOM      5  C4  UNL d   1      -3.985   0.988   2.024  0.00  0.00    -0.005 A 
ATOM      6  C5  UNL d   1      -4.025  -0.099   1.153  0.00  0.00     0.003 A 
ATOM      7  C6  UNL d   1      -2.951  -0.989   1.097  0.00  0.00    -0.001 A 
ENDROOT
TORSDOF 0
ENDMDL
