MODEL 1
REMARK minimizedAffinity -3.56461477
REMARK minimizedRMSD -1
REMARK  0 active torsions:
REMARK  status: ('A' for Active; 'I' for Inactive)
ROOT
ATOM      1  C   UNL d   1       1.502  -5.260  -4.890  0.00  0.00     0.078 C 
ATOM      2  C1  UNL d   1       0.003  -5.253  -4.946  0.00  0.00    -0.077 A 
ATOM      3  C2  UNL d   1      -0.750  -4.528  -4.014  0.00  0.00    -0.001 A 
ATOM      4  C3  UNL d   1      -2.144  -4.539  -4.072  0.00  0.00     0.003 A 
ATOM      5  C4  UNL d   1      -2.798  -5.273  -5.059  0.00  0.00    -0.005 A 
ATOM      6  C5  UNL d   1      -2.057  -6.000  -5.989  0.00  0.00     0.003 A 
ATOM      7  C6  UNL d   1      -0.662  -5.990  -5.933  0.00  0.00    -0.001 A 
ENDROOT
TORSDOF 0
ENDMDL
