MODEL 1
REMARK minimizedAffinity 4.73706865
REMARK minimizedRMSD -1
REMARK  0 active torsions:
REMARK  status: ('A' for Active; 'I' for Inactive)
ROOT
ATOM      1  C   UNL d   1       1.847   4.422  -2.683  0.00  0.00     0.078 C 
ATOM      2  C1  UNL d   1       3.297   4.452  -3.063  0.00  0.00    -0.077 A 
ATOM      3  C2  UNL d   1       4.226   5.177  -2.308  0.00  0.00    -0.001 A 
ATOM      4  C3  UNL d   1       5.571   5.204  -2.679  0.00  0.00     0.003 A 
ATOM      5  C4  UNL d   1       6.000   4.508  -3.808  0.00  0.00    -0.005 A 
ATOM      6  C5  UNL d   1       5.082   3.785  -4.567  0.00  0.00     0.003 A 
ATOM      7  C6  UNL d   1       3.737   3.757  -4.197  0.00  0.00    -0.001 A 
ENDROOT
TORSDOF 0
ENDMDL
