MODEL 1
REMARK minimizedAffinity 0.644497931
REMARK minimizedRMSD -1
REMARK  0 active torsions:
REMARK  status: ('A' for Active; 'I' for Inactive)
ROOT
ATOM      1  C   UNL d   1      -4.390   0.952  -0.354  0.00  0.00     0.078 C 
ATOM      2  C1  UNL d   1      -3.549   0.699   0.862  0.00  0.00    -0.077 A 
ATOM      3  C2  UNL d   1      -3.706   1.469   2.020  0.00  0.00    -0.001 A 
ATOM      4  C3  UNL d   1      -2.910   1.229   3.141  0.00  0.00     0.003 A 
ATOM      5  C4  UNL d   1      -1.950   0.219   3.114  0.00  0.00    -0.005 A 
ATOM      6  C5  UNL d   1      -1.785  -0.551   1.965  0.00  0.00     0.003 A 
ATOM      7  C6  UNL d   1      -2.580  -0.312   0.843  0.00  0.00    -0.001 A 
ENDROOT
TORSDOF 0
ENDMDL
