MODEL 1
REMARK minimizedAffinity 10.1292343
REMARK minimizedRMSD -1
REMARK  0 active torsions:
REMARK  status: ('A' for Active; 'I' for Inactive)
ROOT
ATOM      1  C   UNL d   1       1.978   2.939  -2.815  0.00  0.00     0.078 C 
ATOM      2  C1  UNL d   1       3.309   3.259  -3.426  0.00  0.00    -0.077 A 
ATOM      3  C2  UNL d   1       3.645   2.799  -4.705  0.00  0.00    -0.001 A 
ATOM      4  C3  UNL d   1       4.892   3.096  -5.257  0.00  0.00     0.003 A 
ATOM      5  C4  UNL d   1       5.813   3.855  -4.538  0.00  0.00    -0.005 A 
ATOM      6  C5  UNL d   1       5.488   4.316  -3.263  0.00  0.00     0.003 A 
ATOM      7  C6  UNL d   1       4.242   4.019  -2.709  0.00  0.00    -0.001 A 
ENDROOT
TORSDOF 0
ENDMDL
