MODEL 1
REMARK minimizedAffinity 4.93170166
REMARK minimizedRMSD -1
REMARK  0 active torsions:
REMARK  status: ('A' for Active; 'I' for Inactive)
ROOT
ATOM      1  C   UNL d   1      -4.613   2.365   5.967  0.00  0.00     0.078 C 
ATOM      2  C1  UNL d   1      -4.047   1.690   4.754  0.00  0.00    -0.077 A 
ATOM      3  C2  UNL d   1      -2.719   1.247   4.729  0.00  0.00    -0.001 A 
ATOM      4  C3  UNL d   1      -2.203   0.629   3.589  0.00  0.00     0.003 A 
ATOM      5  C4  UNL d   1      -3.007   0.449   2.465  0.00  0.00    -0.005 A 
ATOM      6  C5  UNL d   1      -4.329   0.888   2.480  0.00  0.00     0.003 A 
ATOM      7  C6  UNL d   1      -4.847   1.507   3.619  0.00  0.00    -0.001 A 
ENDROOT
TORSDOF 0
ENDMDL
