MODEL 1
REMARK minimizedAffinity 4.4989233
REMARK minimizedRMSD -1
REMARK  0 active torsions:
REMARK  status: ('A' for Active; 'I' for Inactive)
ROOT
ATOM      1  C   UNL d   1      -2.468   0.773   4.770  0.00  0.00     0.078 C 
ATOM      2  C1  UNL d   1      -2.039   0.071   3.516  0.00  0.00    -0.077 A 
ATOM      3  C2  UNL d   1      -2.931  -0.734   2.798  0.00  0.00    -0.001 A 
ATOM      4  C3  UNL d   1      -2.515  -1.390   1.638  0.00  0.00     0.003 A 
ATOM      5  C4  UNL d   1      -1.204  -1.247   1.186  0.00  0.00    -0.005 A 
ATOM      6  C5  UNL d   1      -0.308  -0.450   1.895  0.00  0.00     0.003 A 
ATOM      7  C6  UNL d   1      -0.723   0.206   3.055  0.00  0.00    -0.001 A 
ENDROOT
TORSDOF 0
ENDMDL
