MODEL 1
REMARK minimizedAffinity 5.01829052
REMARK minimizedRMSD -1
REMARK  0 active torsions:
REMARK  status: ('A' for Active; 'I' for Inactive)
ROOT
ATOM      1  C   UNL d   1      -4.040  -2.498   3.352  0.00  0.00     0.078 C 
ATOM      2  C1  UNL d   1      -4.607  -3.724   4.003  0.00  0.00    -0.077 A 
ATOM      3  C2  UNL d   1      -4.913  -4.865   3.251  0.00  0.00    -0.001 A 
ATOM      4  C3  UNL d   1      -5.449  -5.995   3.870  0.00  0.00     0.003 A 
ATOM      5  C4  UNL d   1      -5.684  -5.996   5.244  0.00  0.00    -0.005 A 
ATOM      6  C5  UNL d   1      -5.384  -4.865   6.000  0.00  0.00     0.003 A 
ATOM      7  C6  UNL d   1      -4.848  -3.733   5.383  0.00  0.00    -0.001 A 
ENDROOT
TORSDOF 0
ENDMDL
