MODEL 1
REMARK minimizedAffinity 4.06961823
REMARK minimizedRMSD -1
REMARK  0 active torsions:
REMARK  status: ('A' for Active; 'I' for Inactive)
ROOT
ATOM      1  C   UNL d   1      -2.701   1.263   2.956  0.00  0.00     0.078 C 
ATOM      2  C1  UNL d   1      -1.892   0.062   2.566  0.00  0.00    -0.077 A 
ATOM      3  C2  UNL d   1      -0.835  -0.386   3.367  0.00  0.00    -0.001 A 
ATOM      4  C3  UNL d   1      -0.084  -1.500   2.986  0.00  0.00     0.003 A 
ATOM      5  C4  UNL d   1      -0.381  -2.173   1.803  0.00  0.00    -0.005 A 
ATOM      6  C5  UNL d   1      -1.430  -1.733   0.999  0.00  0.00     0.003 A 
ATOM      7  C6  UNL d   1      -2.182  -0.620   1.377  0.00  0.00    -0.001 A 
ENDROOT
TORSDOF 0
ENDMDL
