MODEL 1
REMARK minimizedAffinity 2.21854448
REMARK minimizedRMSD -1
REMARK  0 active torsions:
REMARK  status: ('A' for Active; 'I' for Inactive)
ROOT
ATOM      1  C   UNL d   1      -3.019  -5.267  -5.954  0.00  0.00     0.078 C 
ATOM      2  C1  UNL d   1      -1.606  -5.164  -5.463  0.00  0.00    -0.077 A 
ATOM      3  C2  UNL d   1      -1.250  -4.232  -4.480  0.00  0.00    -0.001 A 
ATOM      4  C3  UNL d   1       0.071  -4.141  -4.038  0.00  0.00     0.003 A 
ATOM      5  C4  UNL d   1       1.047  -4.978  -4.575  0.00  0.00    -0.005 A 
ATOM      6  C5  UNL d   1       0.703  -5.907  -5.555  0.00  0.00     0.003 A 
ATOM      7  C6  UNL d   1      -0.617  -6.000  -5.998  0.00  0.00    -0.001 A 
ENDROOT
TORSDOF 0
ENDMDL
