MODEL 1
REMARK minimizedAffinity 4.52883005
REMARK minimizedRMSD -1
REMARK  0 active torsions:
REMARK  status: ('A' for Active; 'I' for Inactive)
ROOT
ATOM      1  C   UNL d   1      -4.373   5.624  -4.893  0.00  0.00     0.078 C 
ATOM      2  C1  UNL d   1      -4.681   5.173  -3.497  0.00  0.00    -0.077 A 
ATOM      3  C2  UNL d   1      -5.717   4.265  -3.245  0.00  0.00    -0.001 A 
ATOM      4  C3  UNL d   1      -6.000   3.861  -1.939  0.00  0.00     0.003 A 
ATOM      5  C4  UNL d   1      -5.252   4.360  -0.875  0.00  0.00    -0.005 A 
ATOM      6  C5  UNL d   1      -4.220   5.265  -1.116  0.00  0.00     0.003 A 
ATOM      7  C6  UNL d   1      -3.936   5.670  -2.421  0.00  0.00    -0.001 A 
ENDROOT
TORSDOF 0
ENDMDL
