MODEL 1
REMARK minimizedAffinity 3.31342983
REMARK minimizedRMSD -1
REMARK  0 active torsions:
REMARK  status: ('A' for Active; 'I' for Inactive)
ROOT
ATOM      1  C   UNL d   1      -5.023  -1.194   6.000  0.00  0.00     0.078 C 
ATOM      2  C1  UNL d   1      -4.366   0.071   5.536  0.00  0.00    -0.077 A 
ATOM      3  C2  UNL d   1      -3.281   0.039   4.651  0.00  0.00    -0.001 A 
ATOM      4  C3  UNL d   1      -2.673   1.224   4.235  0.00  0.00     0.003 A 
ATOM      5  C4  UNL d   1      -3.142   2.451   4.701  0.00  0.00    -0.005 A 
ATOM      6  C5  UNL d   1      -4.219   2.494   5.583  0.00  0.00     0.003 A 
ATOM      7  C6  UNL d   1      -4.828   1.309   6.000  0.00  0.00    -0.001 A 
ENDROOT
TORSDOF 0
ENDMDL
