MODEL 1
REMARK minimizedAffinity 3.76139069
REMARK minimizedRMSD -1
REMARK  0 active torsions:
REMARK  status: ('A' for Active; 'I' for Inactive)
ROOT
ATOM      1  C   UNL d   1      -4.306   1.868   6.000  0.00  0.00     0.078 C 
ATOM      2  C1  UNL d   1      -3.613   1.245   4.825  0.00  0.00    -0.077 A 
ATOM      3  C2  UNL d   1      -4.313   0.948   3.649  0.00  0.00    -0.001 A 
ATOM      4  C3  UNL d   1      -3.657   0.359   2.567  0.00  0.00     0.003 A 
ATOM      5  C4  UNL d   1      -2.298   0.062   2.650  0.00  0.00    -0.005 A 
ATOM      6  C5  UNL d   1      -1.594   0.352   3.817  0.00  0.00     0.003 A 
ATOM      7  C6  UNL d   1      -2.248   0.940   4.900  0.00  0.00    -0.001 A 
ENDROOT
TORSDOF 0
ENDMDL
