MODEL 1
REMARK minimizedAffinity -2.27868867
REMARK minimizedRMSD -1
REMARK  0 active torsions:
REMARK  status: ('A' for Active; 'I' for Inactive)
ROOT
ATOM      1  N1  IND d   1       0.665   1.385   2.379  0.00  0.00    -0.196 N 
ATOM      2  C2  IND d   1      -0.252   1.691   1.412  0.00  0.00     0.054 A 
ATOM      3  C3  IND d   1       0.102   1.132   0.233  0.00  0.00    -0.031 A 
ATOM      4  C4  IND d   1       2.091  -0.407  -0.314  0.00  0.00     0.051 A 
ATOM      5  C5  IND d   1       3.223  -0.941   0.234  0.00  0.00    -0.031 A 
ATOM      6  C6  IND d   1       3.566  -0.725   1.554  0.00  0.00     0.015 A 
ATOM      7  C7  IND d   1       2.780   0.027   2.380  0.00  0.00    -0.016 A 
ATOM      8  C8  IND d   1       1.633   0.577   1.824  0.00  0.00    -0.047 A 
ATOM      9  C9  IND d   1       1.302   0.396   0.475  0.00  0.00    -0.096 A 
ATOM     10  HN1 IND d   1       0.641   1.652   3.196  0.00  0.00     0.298 HD
ENDROOT
TORSDOF 0
ENDMDL
