MODEL 1
REMARK minimizedAffinity -0.478185475
REMARK minimizedRMSD -1
REMARK  0 active torsions:
REMARK  status: ('A' for Active; 'I' for Inactive)
ROOT
ATOM      1  N1  IND d   1      -0.154   2.978   1.423  0.00  0.00    -0.196 N 
ATOM      2  C2  IND d   1       0.939   2.272   1.001  0.00  0.00     0.054 A 
ATOM      3  C3  IND d   1       0.774   0.954   1.254  0.00  0.00    -0.031 A 
ATOM      4  C4  IND d   1      -1.251  -0.278   2.259  0.00  0.00     0.051 A 
ATOM      5  C5  IND d   1      -2.472  -0.055   2.831  0.00  0.00    -0.031 A 
ATOM      6  C6  IND d   1      -2.995   1.215   2.963  0.00  0.00     0.015 A 
ATOM      7  C7  IND d   1      -2.317   2.314   2.515  0.00  0.00    -0.016 A 
ATOM      8  C8  IND d   1      -1.074   2.092   1.941  0.00  0.00    -0.047 A 
ATOM      9  C9  IND d   1      -0.520   0.810   1.843  0.00  0.00    -0.096 A 
ATOM     10  HN1 IND d   1      -0.250   3.831   1.374  0.00  0.00     0.298 HD
ENDROOT
TORSDOF 0
ENDMDL
