MODEL 1
REMARK minimizedAffinity 8.09591103
REMARK minimizedRMSD -1
REMARK  0 active torsions:
REMARK  status: ('A' for Active; 'I' for Inactive)
ROOT
ATOM      1  N1  IND d   1      -2.730   3.213   3.039  0.00  0.00    -0.196 N 
ATOM      2  C2  IND d   1      -3.329   2.505   4.042  0.00  0.00     0.054 A 
ATOM      3  C3  IND d   1      -2.977   1.201   3.974  0.00  0.00    -0.031 A 
ATOM      4  C4  IND d   1      -1.348   0.031   2.360  0.00  0.00     0.051 A 
ATOM      5  C5  IND d   1      -0.584   0.256   1.249  0.00  0.00    -0.031 A 
ATOM      6  C6  IND d   1      -0.492   1.504   0.669  0.00  0.00     0.015 A 
ATOM      7  C7  IND d   1      -1.154   2.581   1.186  0.00  0.00    -0.016 A 
ATOM      8  C8  IND d   1      -1.937   2.355   2.309  0.00  0.00    -0.047 A 
ATOM      9  C9  IND d   1      -2.068   1.081   2.878  0.00  0.00    -0.096 A 
ATOM     10  HN1 IND d   1      -2.830   4.054   2.889  0.00  0.00     0.298 HD
ENDROOT
TORSDOF 0
ENDMDL
