MODEL 1
REMARK minimizedAffinity 4.86787176
REMARK minimizedRMSD -1
REMARK  0 active torsions:
REMARK  status: ('A' for Active; 'I' for Inactive)
ROOT
ATOM      1  N1  IND d   1      -2.666   0.953   2.983  0.00  0.00    -0.196 N 
ATOM      2  C2  IND d   1      -2.912   2.249   3.342  0.00  0.00     0.054 A 
ATOM      3  C3  IND d   1      -1.992   3.073   2.790  0.00  0.00    -0.031 A 
ATOM      4  C4  IND d   1      -0.058   2.522   1.184  0.00  0.00     0.051 A 
ATOM      5  C5  IND d   1       0.589   1.470   0.597  0.00  0.00    -0.031 A 
ATOM      6  C6  IND d   1       0.173   0.167   0.777  0.00  0.00     0.015 A 
ATOM      7  C7  IND d   1      -0.916  -0.134   1.545  0.00  0.00    -0.016 A 
ATOM      8  C8  IND d   1      -1.570   0.930   2.148  0.00  0.00    -0.047 A 
ATOM      9  C9  IND d   1      -1.128   2.251   2.004  0.00  0.00    -0.096 A 
ATOM     10  HN1 IND d   1      -3.119   0.268   3.237  0.00  0.00     0.298 HD
ENDROOT
TORSDOF 0
ENDMDL
