MODEL 1
REMARK minimizedAffinity 4.98121452
REMARK minimizedRMSD -1
REMARK  0 active torsions:
REMARK  status: ('A' for Active; 'I' for Inactive)
ROOT
ATOM      1  N1  IND d   1      -3.668   2.158   3.150  0.00  0.00    -0.196 N 
ATOM      2  C2  IND d   1      -4.208   1.049   3.740  0.00  0.00     0.054 A 
ATOM      3  C3  IND d   1      -3.391  -0.016   3.575  0.00  0.00    -0.031 A 
ATOM      4  C4  IND d   1      -1.075  -0.143   2.460  0.00  0.00     0.051 A 
ATOM      5  C5  IND d   1      -0.180   0.604   1.746  0.00  0.00    -0.031 A 
ATOM      6  C6  IND d   1      -0.406   1.935   1.460  0.00  0.00     0.015 A 
ATOM      7  C7  IND d   1      -1.534   2.574   1.890  0.00  0.00    -0.016 A 
ATOM      8  C8  IND d   1      -2.448   1.817   2.609  0.00  0.00    -0.047 A 
ATOM      9  C9  IND d   1      -2.244   0.455   2.865  0.00  0.00    -0.096 A 
ATOM     10  HN1 IND d   1      -4.030   2.938   3.122  0.00  0.00     0.298 HD
ENDROOT
TORSDOF 0
ENDMDL
