MODEL 1
REMARK minimizedAffinity 10.7972202
REMARK minimizedRMSD -1
REMARK  0 active torsions:
REMARK  status: ('A' for Active; 'I' for Inactive)
ROOT
ATOM      1  N1  IND d   1      -2.871   3.422   2.194  0.00  0.00    -0.196 N 
ATOM      2  C2  IND d   1      -1.696   3.056   1.599  0.00  0.00     0.054 A 
ATOM      3  C3  IND d   1      -1.433   1.752   1.840  0.00  0.00    -0.031 A 
ATOM      4  C4  IND d   1      -2.843   0.004   3.099  0.00  0.00     0.051 A 
ATOM      5  C5  IND d   1      -3.979  -0.127   3.848  0.00  0.00    -0.031 A 
ATOM      6  C6  IND d   1      -4.822   0.940   4.087  0.00  0.00     0.015 A 
ATOM      7  C7  IND d   1      -4.565   2.179   3.573  0.00  0.00    -0.016 A 
ATOM      8  C8  IND d   1      -3.409   2.318   2.818  0.00  0.00    -0.047 A 
ATOM      9  C9  IND d   1      -2.528   1.249   2.608  0.00  0.00    -0.096 A 
ATOM     10  HN1 IND d   1      -3.217   4.209   2.181  0.00  0.00     0.298 HD
ENDROOT
TORSDOF 0
ENDMDL
