MODEL 1
REMARK minimizedAffinity 8.50919151
REMARK minimizedRMSD -1
REMARK  0 active torsions:
REMARK  status: ('A' for Active; 'I' for Inactive)
ROOT
ATOM      1  N1  IND d   1      -5.872   5.254   3.786  0.00  0.00    -0.196 N 
ATOM      2  C2  IND d   1      -5.997   5.938   4.963  0.00  0.00     0.054 A 
ATOM      3  C3  IND d   1      -5.592   5.170   5.999  0.00  0.00    -0.031 A 
ATOM      4  C4  IND d   1      -4.593   2.798   5.984  0.00  0.00     0.051 A 
ATOM      5  C5  IND d   1      -4.317   1.750   5.151  0.00  0.00    -0.031 A 
ATOM      6  C6  IND d   1      -4.547   1.819   3.792  0.00  0.00     0.015 A 
ATOM      7  C7  IND d   1      -5.054   2.948   3.212  0.00  0.00    -0.016 A 
ATOM      8  C8  IND d   1      -5.342   4.011   4.056  0.00  0.00    -0.047 A 
ATOM      9  C9  IND d   1      -5.150   3.931   5.442  0.00  0.00    -0.096 A 
ATOM     10  HN1 IND d   1      -6.088   5.549   3.009  0.00  0.00     0.298 HD
ENDROOT
TORSDOF 0
ENDMDL
