MODEL 1
REMARK minimizedAffinity -0.0319805332
REMARK minimizedRMSD -1
REMARK  0 active torsions:
REMARK  status: ('A' for Active; 'I' for Inactive)
ROOT
ATOM      1  N1  IND d   1      -1.912   2.386   2.721  0.00  0.00    -0.196 N 
ATOM      2  C2  IND d   1      -2.924   1.506   2.984  0.00  0.00     0.054 A 
ATOM      3  C3  IND d   1      -2.656   0.302   2.431  0.00  0.00    -0.031 A 
ATOM      4  C4  IND d   1      -0.569  -0.477   1.140  0.00  0.00     0.051 A 
ATOM      5  C5  IND d   1       0.607  -0.018   0.618  0.00  0.00    -0.031 A 
ATOM      6  C6  IND d   1       1.014   1.291   0.775  0.00  0.00     0.015 A 
ATOM      7  C7  IND d   1       0.261   2.191   1.474  0.00  0.00    -0.016 A 
ATOM      8  C8  IND d   1      -0.938   1.731   2.000  0.00  0.00    -0.047 A 
ATOM      9  C9  IND d   1      -1.376   0.415   1.807  0.00  0.00    -0.096 A 
ATOM     10  HN1 IND d   1      -1.887   3.211   2.964  0.00  0.00     0.298 HD
ENDROOT
TORSDOF 0
ENDMDL
