MODEL 1
REMARK minimizedAffinity 8.28982449
REMARK minimizedRMSD -1
REMARK  0 active torsions:
REMARK  status: ('A' for Active; 'I' for Inactive)
ROOT
ATOM      1  N1  IND d   1      -3.687  -0.765  -4.114  0.00  0.00    -0.196 N 
ATOM      2  C2  IND d   1      -3.154  -1.858  -4.740  0.00  0.00     0.054 A 
ATOM      3  C3  IND d   1      -3.120  -2.913  -3.896  0.00  0.00    -0.031 A 
ATOM      4  C4  IND d   1      -3.980  -3.101  -1.477  0.00  0.00     0.051 A 
ATOM      5  C5  IND d   1      -4.514  -2.357  -0.462  0.00  0.00    -0.031 A 
ATOM      6  C6  IND d   1      -4.809  -1.017  -0.618  0.00  0.00     0.015 A 
ATOM      7  C7  IND d   1      -4.589  -0.373  -1.802  0.00  0.00    -0.016 A 
ATOM      8  C8  IND d   1      -4.040  -1.124  -2.832  0.00  0.00    -0.047 A 
ATOM      9  C9  IND d   1      -3.700  -2.472  -2.667  0.00  0.00    -0.096 A 
ATOM     10  HN1 IND d   1      -3.785   0.014  -4.463  0.00  0.00     0.298 HD
ENDROOT
TORSDOF 0
ENDMDL
