MODEL 1
REMARK minimizedAffinity -4.84509325
REMARK minimizedRMSD -1
REMARK  0 active torsions:
REMARK  status: ('A' for Active; 'I' for Inactive)
ROOT
ATOM      1  N1  IND d   1      -3.304   1.258   2.892  0.00  0.00    -0.196 N 
ATOM      2  C2  IND d   1      -2.911  -0.026   3.148  0.00  0.00     0.054 A 
ATOM      3  C3  IND d   1      -1.668  -0.243   2.661  0.00  0.00    -0.031 A 
ATOM      4  C4  IND d   1      -0.057   1.396   1.501  0.00  0.00     0.051 A 
ATOM      5  C5  IND d   1       0.017   2.670   1.013  0.00  0.00    -0.031 A 
ATOM      6  C6  IND d   1      -1.033   3.558   1.131  0.00  0.00     0.015 A 
ATOM      7  C7  IND d   1      -2.197   3.206   1.755  0.00  0.00    -0.016 A 
ATOM      8  C8  IND d   1      -2.278   1.911   2.245  0.00  0.00    -0.047 A 
ATOM      9  C9  IND d   1      -1.231   0.992   2.091  0.00  0.00    -0.096 A 
ATOM     10  HN1 IND d   1      -4.065   1.601   3.100  0.00  0.00     0.298 HD
ENDROOT
TORSDOF 0
ENDMDL
