MODEL 1
REMARK minimizedAffinity -0.353974462
REMARK minimizedRMSD -1
REMARK  0 active torsions:
REMARK  status: ('A' for Active; 'I' for Inactive)
ROOT
ATOM      1  N1  IND d   1      -2.611   2.428   2.712  0.00  0.00    -0.196 N 
ATOM      2  C2  IND d   1      -3.505   1.412   2.909  0.00  0.00     0.054 A 
ATOM      3  C3  IND d   1      -2.966   0.231   2.532  0.00  0.00    -0.031 A 
ATOM      4  C4  IND d   1      -0.598  -0.282   1.662  0.00  0.00     0.051 A 
ATOM      5  C5  IND d   1       0.565   0.326   1.280  0.00  0.00    -0.031 A 
ATOM      6  C6  IND d   1       0.732   1.693   1.360  0.00  0.00     0.015 A 
ATOM      7  C7  IND d   1      -0.257   2.506   1.838  0.00  0.00    -0.016 A 
ATOM      8  C8  IND d   1      -1.441   1.892   2.220  0.00  0.00    -0.047 A 
ATOM      9  C9  IND d   1      -1.633   0.510   2.101  0.00  0.00    -0.096 A 
ATOM     10  HN1 IND d   1      -2.756   3.261   2.869  0.00  0.00     0.298 HD
ENDROOT
TORSDOF 0
ENDMDL
