MODEL 1
REMARK minimizedAffinity 2.91867971
REMARK minimizedRMSD -1
REMARK  0 active torsions:
REMARK  status: ('A' for Active; 'I' for Inactive)
ROOT
ATOM      1  N1  IND d   1      -1.494   2.607   1.931  0.00  0.00    -0.196 N 
ATOM      2  C2  IND d   1      -2.632   1.899   2.198  0.00  0.00     0.054 A 
ATOM      3  C3  IND d   1      -2.442   0.586   1.937  0.00  0.00    -0.031 A 
ATOM      4  C4  IND d   1      -0.312  -0.635   1.162  0.00  0.00     0.051 A 
ATOM      5  C5  IND d   1       0.972  -0.407   0.752  0.00  0.00    -0.031 A 
ATOM      6  C6  IND d   1       1.511   0.863   0.716  0.00  0.00     0.015 A 
ATOM      7  C7  IND d   1       0.787   1.956   1.101  0.00  0.00    -0.016 A 
ATOM      8  C8  IND d   1      -0.519   1.729   1.512  0.00  0.00    -0.047 A 
ATOM      9  C9  IND d   1      -1.085   0.447   1.510  0.00  0.00    -0.096 A 
ATOM     10  HN1 IND d   1      -1.402   3.458   2.012  0.00  0.00     0.298 HD
ENDROOT
TORSDOF 0
ENDMDL
