MODEL 1
REMARK minimizedAffinity -2.08586216
REMARK minimizedRMSD -1
REMARK  0 active torsions:
REMARK  status: ('A' for Active; 'I' for Inactive)
ROOT
ATOM      1  N1  IND d   1      -2.997   2.157   3.347  0.00  0.00    -0.196 N 
ATOM      2  C2  IND d   1      -3.783   1.083   3.663  0.00  0.00     0.054 A 
ATOM      3  C3  IND d   1      -3.217  -0.061   3.217  0.00  0.00    -0.031 A 
ATOM      4  C4  IND d   1      -0.960  -0.415   2.031  0.00  0.00     0.051 A 
ATOM      5  C5  IND d   1       0.094   0.269   1.495  0.00  0.00    -0.031 A 
ATOM      6  C6  IND d   1       0.175   1.646   1.552  0.00  0.00     0.015 A 
ATOM      7  C7  IND d   1      -0.795   2.391   2.160  0.00  0.00    -0.016 A 
ATOM      8  C8  IND d   1      -1.870   1.700   2.700  0.00  0.00    -0.047 A 
ATOM      9  C9  IND d   1      -1.978   0.306   2.608  0.00  0.00    -0.096 A 
ATOM     10  HN1 IND d   1      -3.177   2.979   3.523  0.00  0.00     0.298 HD
ENDROOT
TORSDOF 0
ENDMDL
