MODEL 1
REMARK minimizedAffinity 7.9656601
REMARK minimizedRMSD -1
REMARK  0 active torsions:
REMARK  status: ('A' for Active; 'I' for Inactive)
ROOT
ATOM      1  N1  IND d   1      -0.533  -1.698   2.973  0.00  0.00    -0.196 N 
ATOM      2  C2  IND d   1      -1.895  -1.687   3.081  0.00  0.00     0.054 A 
ATOM      3  C3  IND d   1      -2.391  -0.503   2.656  0.00  0.00    -0.031 A 
ATOM      4  C4  IND d   1      -1.158   1.520   1.649  0.00  0.00     0.051 A 
ATOM      5  C5  IND d   1       0.095   1.994   1.382  0.00  0.00    -0.031 A 
ATOM      6  C6  IND d   1       1.227   1.246   1.636  0.00  0.00     0.015 A 
ATOM      7  C7  IND d   1       1.145  -0.015   2.156  0.00  0.00    -0.016 A 
ATOM      8  C8  IND d   1      -0.126  -0.497   2.434  0.00  0.00    -0.047 A 
ATOM      9  C9  IND d   1      -1.275   0.274   2.219  0.00  0.00    -0.096 A 
ATOM     10  HN1 IND d   1      -0.016  -2.346   3.203  0.00  0.00     0.298 HD
ENDROOT
TORSDOF 0
ENDMDL
