MODEL 1
REMARK minimizedAffinity 2.55444407
REMARK minimizedRMSD -1
REMARK  0 active torsions:
REMARK  status: ('A' for Active; 'I' for Inactive)
ROOT
ATOM      1  N1  IND d   1       1.636   1.788   1.233  0.00  0.00    -0.196 N 
ATOM      2  C2  IND d   1       2.308   0.639   0.921  0.00  0.00     0.054 A 
ATOM      3  C3  IND d   1       1.454  -0.408   0.872  0.00  0.00    -0.031 A 
ATOM      4  C4  IND d   1      -1.102  -0.448   1.171  0.00  0.00     0.051 A 
ATOM      5  C5  IND d   1      -2.160   0.350   1.506  0.00  0.00    -0.031 A 
ATOM      6  C6  IND d   1      -2.004   1.695   1.769  0.00  0.00     0.015 A 
ATOM      7  C7  IND d   1      -0.781   2.298   1.696  0.00  0.00    -0.016 A 
ATOM      8  C8  IND d   1       0.297   1.490   1.364  0.00  0.00    -0.047 A 
ATOM      9  C9  IND d   1       0.151   0.115   1.137  0.00  0.00    -0.096 A 
ATOM     10  HN1 IND d   1       1.989   2.565   1.331  0.00  0.00     0.298 HD
ENDROOT
TORSDOF 0
ENDMDL
