MODEL 1
REMARK minimizedAffinity 5.9166503
REMARK minimizedRMSD -1
REMARK  0 active torsions:
REMARK  status: ('A' for Active; 'I' for Inactive)
ROOT
ATOM      1  N1  IND d   1      -2.265   0.914   2.508  0.00  0.00    -0.196 N 
ATOM      2  C2  IND d   1      -2.529   2.218   2.195  0.00  0.00     0.054 A 
ATOM      3  C3  IND d   1      -1.442   2.796   1.635  0.00  0.00    -0.031 A 
ATOM      4  C4  IND d   1       0.840   1.761   1.047  0.00  0.00     0.051 A 
ATOM      5  C5  IND d   1       1.567   0.610   1.175  0.00  0.00    -0.031 A 
ATOM      6  C6  IND d   1       1.041  -0.522   1.764  0.00  0.00     0.015 A 
ATOM      7  C7  IND d   1      -0.240  -0.549   2.239  0.00  0.00    -0.016 A 
ATOM      8  C8  IND d   1      -0.978   0.620   2.116  0.00  0.00    -0.047 A 
ATOM      9  C9  IND d   1      -0.436   1.785   1.558  0.00  0.00    -0.096 A 
ATOM     10  HN1 IND d   1      -2.812   0.369   2.887  0.00  0.00     0.298 HD
ENDROOT
TORSDOF 0
ENDMDL
