MODEL 1
REMARK minimizedAffinity 3.54394341
REMARK minimizedRMSD -1
REMARK  0 active torsions:
REMARK  status: ('A' for Active; 'I' for Inactive)
ROOT
ATOM      1  N1  IND d   1      -3.809   2.610   2.820  0.00  0.00    -0.196 N 
ATOM      2  C2  IND d   1      -3.926   1.712   3.845  0.00  0.00     0.054 A 
ATOM      3  C3  IND d   1      -2.724   1.160   4.126  0.00  0.00    -0.031 A 
ATOM      4  C4  IND d   1      -0.416   1.657   3.100  0.00  0.00     0.051 A 
ATOM      5  C5  IND d   1       0.190   2.375   2.108  0.00  0.00    -0.031 A 
ATOM      6  C6  IND d   1      -0.520   3.227   1.287  0.00  0.00     0.015 A 
ATOM      7  C7  IND d   1      -1.867   3.403   1.437  0.00  0.00    -0.016 A 
ATOM      8  C8  IND d   1      -2.486   2.670   2.439  0.00  0.00    -0.047 A 
ATOM      9  C9  IND d   1      -1.778   1.772   3.247  0.00  0.00    -0.096 A 
ATOM     10  HN1 IND d   1      -4.453   3.061   2.473  0.00  0.00     0.298 HD
ENDROOT
TORSDOF 0
ENDMDL
