MODEL 1
REMARK minimizedAffinity 0.515348673
REMARK minimizedRMSD -1
REMARK  0 active torsions:
REMARK  status: ('A' for Active; 'I' for Inactive)
ROOT
ATOM      1  C1  DEN d   1      -3.082   2.637   1.109  0.00  0.00     0.130 A 
ATOM      2  C2  DEN d   1      -2.554   1.464   1.800  0.00  0.00    -0.031 A 
ATOM      3  C3  DEN d   1      -1.140   1.300   1.406  0.00  0.00     0.027 A 
ATOM      4  C4  DEN d   1       0.277   2.744  -0.193  0.00  0.00     0.027 A 
ATOM      5  C5  DEN d   1       0.261   3.840  -1.028  0.00  0.00    -0.003 A 
ATOM      6  C6  DEN d   1      -0.870   4.586  -1.233  0.00  0.00     0.001 A 
ATOM      7  C7  DEN d   1      -2.021   4.271  -0.560  0.00  0.00     0.017 A 
ATOM      8  C8  DEN d   1      -2.015   3.163   0.277  0.00  0.00    -0.094 A 
ATOM      9  C9  DEN d   1      -0.859   2.430   0.480  0.00  0.00    -0.072 A 
ENDROOT
TORSDOF 0
ENDMDL
