MODEL 1
REMARK minimizedAffinity 5.8010273
REMARK minimizedRMSD -1
REMARK  0 active torsions:
REMARK  status: ('A' for Active; 'I' for Inactive)
ROOT
ATOM      1  C1  DEN d   1       0.347   0.183  -2.041  0.00  0.00     0.130 A 
ATOM      2  C2  DEN d   1       1.148  -0.886  -1.452  0.00  0.00    -0.031 A 
ATOM      3  C3  DEN d   1       1.207  -0.662   0.007  0.00  0.00     0.027 A 
ATOM      4  C4  DEN d   1       0.138   1.225   1.402  0.00  0.00     0.027 A 
ATOM      5  C5  DEN d   1      -0.624   2.371   1.344  0.00  0.00    -0.003 A 
ATOM      6  C6  DEN d   1      -1.084   2.883   0.159  0.00  0.00     0.001 A 
ATOM      7  C7  DEN d   1      -0.823   2.222  -1.012  0.00  0.00     0.017 A 
ATOM      8  C8  DEN d   1      -0.049   1.070  -0.962  0.00  0.00    -0.094 A 
ATOM      9  C9  DEN d   1       0.396   0.562   0.247  0.00  0.00    -0.072 A 
ENDROOT
TORSDOF 0
ENDMDL
