MODEL 1
REMARK minimizedAffinity 2.31550336
REMARK minimizedRMSD -1
REMARK  0 active torsions:
REMARK  status: ('A' for Active; 'I' for Inactive)
ROOT
ATOM      1  C1  DEN d   1      -1.429   2.926   2.449  0.00  0.00     0.130 A 
ATOM      2  C2  DEN d   1      -1.952   1.563   2.463  0.00  0.00    -0.031 A 
ATOM      3  C3  DEN d   1      -1.561   0.912   1.196  0.00  0.00     0.027 A 
ATOM      4  C4  DEN d   1      -0.199   1.875  -0.771  0.00  0.00     0.027 A 
ATOM      5  C5  DEN d   1       0.451   2.993  -1.245  0.00  0.00    -0.003 A 
ATOM      6  C6  DEN d   1       0.490   4.168  -0.542  0.00  0.00     0.001 A 
ATOM      7  C7  DEN d   1      -0.093   4.239   0.695  0.00  0.00     0.017 A 
ATOM      8  C8  DEN d   1      -0.757   3.118   1.177  0.00  0.00    -0.094 A 
ATOM      9  C9  DEN d   1      -0.775   1.935   0.457  0.00  0.00    -0.072 A 
ENDROOT
TORSDOF 0
ENDMDL
