MODEL 1
REMARK minimizedAffinity 1.63408077
REMARK minimizedRMSD -1
REMARK  0 active torsions:
REMARK  status: ('A' for Active; 'I' for Inactive)
ROOT
ATOM      1  C1  DEN d   1       1.004   2.881  -1.628  0.00  0.00     0.130 A 
ATOM      2  C2  DEN d   1       1.232   1.478  -1.965  0.00  0.00    -0.031 A 
ATOM      3  C3  DEN d   1       0.605   0.649  -0.916  0.00  0.00     0.027 A 
ATOM      4  C4  DEN d   1      -0.694   1.397   1.184  0.00  0.00     0.027 A 
ATOM      5  C5  DEN d   1      -1.136   2.486   1.901  0.00  0.00    -0.003 A 
ATOM      6  C6  DEN d   1      -0.869   3.773   1.514  0.00  0.00     0.001 A 
ATOM      7  C7  DEN d   1      -0.178   4.003   0.354  0.00  0.00     0.017 A 
ATOM      8  C8  DEN d   1       0.278   2.910  -0.371  0.00  0.00    -0.094 A 
ATOM      9  C9  DEN d   1      -0.013   1.617   0.030  0.00  0.00    -0.072 A 
ENDROOT
TORSDOF 0
ENDMDL
