MODEL 1
REMARK minimizedAffinity -1.78231812
REMARK minimizedRMSD -1
REMARK  0 active torsions:
REMARK  status: ('A' for Active; 'I' for Inactive)
ROOT
ATOM      1  C1  DEN d   1       0.298   0.690  -0.232  0.00  0.00     0.130 A 
ATOM      2  C2  DEN d   1       0.864   0.592  -1.575  0.00  0.00    -0.031 A 
ATOM      3  C3  DEN d   1       0.462   1.795  -2.330  0.00  0.00     0.027 A 
ATOM      4  C4  DEN d   1      -0.971   3.794  -1.553  0.00  0.00     0.027 A 
ATOM      5  C5  DEN d   1      -1.686   4.321  -0.500  0.00  0.00    -0.003 A 
ATOM      6  C6  DEN d   1      -1.817   3.664   0.695  0.00  0.00     0.001 A 
ATOM      7  C7  DEN d   1      -1.186   2.463   0.881  0.00  0.00     0.017 A 
ATOM      8  C8  DEN d   1      -0.470   1.922  -0.178  0.00  0.00    -0.094 A 
ATOM      9  C9  DEN d   1      -0.339   2.607  -1.374  0.00  0.00    -0.072 A 
ENDROOT
TORSDOF 0
ENDMDL
