MODEL 1
REMARK minimizedAffinity 1.36630619
REMARK minimizedRMSD -1
REMARK  0 active torsions:
REMARK  status: ('A' for Active; 'I' for Inactive)
ROOT
ATOM      1  C1  DEN d   1       0.582   0.697  -0.821  0.00  0.00     0.130 A 
ATOM      2  C2  DEN d   1       0.934   1.660  -1.860  0.00  0.00    -0.031 A 
ATOM      3  C3  DEN d   1       0.313   2.954  -1.512  0.00  0.00     0.027 A 
ATOM      4  C4  DEN d   1      -1.146   3.557   0.528  0.00  0.00     0.027 A 
ATOM      5  C5  DEN d   1      -1.727   3.067   1.677  0.00  0.00    -0.003 A 
ATOM      6  C6  DEN d   1      -1.608   1.756   2.053  0.00  0.00     0.001 A 
ATOM      7  C7  DEN d   1      -0.854   0.898   1.296  0.00  0.00     0.017 A 
ATOM      8  C8  DEN d   1      -0.271   1.383   0.133  0.00  0.00    -0.094 A 
ATOM      9  C9  DEN d   1      -0.393   2.715  -0.224  0.00  0.00    -0.072 A 
ENDROOT
TORSDOF 0
ENDMDL
