MODEL 1
REMARK minimizedAffinity -2.56061959
REMARK minimizedRMSD -1
REMARK  0 active torsions:
REMARK  status: ('A' for Active; 'I' for Inactive)
ROOT
ATOM      1  C1  DEN d   1       1.504   2.644  -2.056  0.00  0.00     0.130 A 
ATOM      2  C2  DEN d   1       1.556   1.187  -2.131  0.00  0.00    -0.031 A 
ATOM      3  C3  DEN d   1       0.790   0.643  -0.991  0.00  0.00     0.027 A 
ATOM      4  C4  DEN d   1      -0.468   1.910   0.870  0.00  0.00     0.027 A 
ATOM      5  C5  DEN d   1      -0.786   3.157   1.362  0.00  0.00    -0.003 A 
ATOM      6  C6  DEN d   1      -0.339   4.310   0.773  0.00  0.00     0.001 A 
ATOM      7  C7  DEN d   1       0.415   4.241  -0.368  0.00  0.00     0.017 A 
ATOM      8  C8  DEN d   1       0.746   2.988  -0.866  0.00  0.00    -0.094 A 
ATOM      9  C9  DEN d   1       0.274   1.834  -0.263  0.00  0.00    -0.072 A 
ENDROOT
TORSDOF 0
ENDMDL
