MODEL 1
REMARK minimizedAffinity -0.907938719
REMARK minimizedRMSD -1
REMARK  0 active torsions:
REMARK  status: ('A' for Active; 'I' for Inactive)
ROOT
ATOM      1  C1  DEN d   1       0.118   1.448  -1.549  0.00  0.00     0.130 A 
ATOM      2  C2  DEN d   1       0.485   2.590  -2.383  0.00  0.00    -0.031 A 
ATOM      3  C3  DEN d   1       0.056   3.820  -1.687  0.00  0.00     0.027 A 
ATOM      4  C4  DEN d   1      -1.132   4.066   0.589  0.00  0.00     0.027 A 
ATOM      5  C5  DEN d   1      -1.660   3.379   1.660  0.00  0.00    -0.003 A 
ATOM      6  C6  DEN d   1      -1.663   2.011   1.720  0.00  0.00     0.001 A 
ATOM      7  C7  DEN d   1      -1.087   1.286   0.710  0.00  0.00     0.017 A 
ATOM      8  C8  DEN d   1      -0.559   1.971  -0.376  0.00  0.00    -0.094 A 
ATOM      9  C9  DEN d   1      -0.554   3.355  -0.412  0.00  0.00    -0.072 A 
ENDROOT
TORSDOF 0
ENDMDL
