MODEL 1
REMARK minimizedAffinity 3.97385311
REMARK minimizedRMSD -1
REMARK  0 active torsions:
REMARK  status: ('A' for Active; 'I' for Inactive)
ROOT
ATOM      1  C1  DEN d   1      -0.498   3.270   2.099  0.00  0.00     0.130 A 
ATOM      2  C2  DEN d   1      -0.942   1.885   1.965  0.00  0.00    -0.031 A 
ATOM      3  C3  DEN d   1      -0.829   1.506   0.543  0.00  0.00     0.027 A 
ATOM      4  C4  DEN d   1      -0.011   2.918  -1.454  0.00  0.00     0.027 A 
ATOM      5  C5  DEN d   1       0.459   4.155  -1.836  0.00  0.00    -0.003 A 
ATOM      6  C6  DEN d   1       0.609   5.186  -0.947  0.00  0.00     0.001 A 
ATOM      7  C7  DEN d   1       0.330   4.985   0.379  0.00  0.00     0.017 A 
ATOM      8  C8  DEN d   1      -0.151   3.742   0.771  0.00  0.00    -0.094 A 
ATOM      9  C9  DEN d   1      -0.285   2.709  -0.141  0.00  0.00    -0.072 A 
ENDROOT
TORSDOF 0
ENDMDL
