MODEL 1
REMARK minimizedAffinity 5.43221998
REMARK minimizedRMSD -1
REMARK  0 active torsions:
REMARK  status: ('A' for Active; 'I' for Inactive)
ROOT
ATOM      1  C1  DEN d   1       1.008   2.129  -2.184  0.00  0.00     0.130 A 
ATOM      2  C2  DEN d   1       1.367   0.723  -2.020  0.00  0.00    -0.031 A 
ATOM      3  C3  DEN d   1       0.753   0.237  -0.768  0.00  0.00     0.027 A 
ATOM      4  C4  DEN d   1      -0.716   1.518   0.922  0.00  0.00     0.027 A 
ATOM      5  C5  DEN d   1      -1.284   2.737   1.217  0.00  0.00    -0.003 A 
ATOM      6  C6  DEN d   1      -1.102   3.839   0.424  0.00  0.00     0.001 A 
ATOM      7  C7  DEN d   1      -0.369   3.732  -0.729  0.00  0.00     0.017 A 
ATOM      8  C8  DEN d   1       0.213   2.508  -1.029  0.00  0.00    -0.094 A 
ATOM      9  C9  DEN d   1       0.007   1.403  -0.221  0.00  0.00    -0.072 A 
ENDROOT
TORSDOF 0
ENDMDL
