MODEL 1
REMARK minimizedAffinity 10.0837631
REMARK minimizedRMSD -1
REMARK  0 active torsions:
REMARK  status: ('A' for Active; 'I' for Inactive)
ROOT
ATOM      1  C1  DEN d   1      -1.568   0.701   0.463  0.00  0.00     0.130 A 
ATOM      2  C2  DEN d   1      -1.728   0.805   1.910  0.00  0.00    -0.031 A 
ATOM      3  C3  DEN d   1      -1.254   2.140   2.327  0.00  0.00     0.027 A 
ATOM      4  C4  DEN d   1      -0.298   4.048   0.878  0.00  0.00     0.027 A 
ATOM      5  C5  DEN d   1       0.041   4.422  -0.404  0.00  0.00    -0.003 A 
ATOM      6  C6  DEN d   1      -0.100   3.577  -1.472  0.00  0.00     0.001 A 
ATOM      7  C7  DEN d   1      -0.634   2.330  -1.286  0.00  0.00     0.017 A 
ATOM      8  C8  DEN d   1      -0.972   1.942   0.004  0.00  0.00    -0.094 A 
ATOM      9  C9  DEN d   1      -0.834   2.816   1.070  0.00  0.00    -0.072 A 
ENDROOT
TORSDOF 0
ENDMDL
