MODEL 1
REMARK minimizedAffinity 1.26658356
REMARK minimizedRMSD -1
REMARK  0 active torsions:
REMARK  status: ('A' for Active; 'I' for Inactive)
ROOT
ATOM      1  C1  DEN d   1       0.940   0.396  -0.516  0.00  0.00     0.130 A 
ATOM      2  C2  DEN d   1       1.524   0.991  -1.715  0.00  0.00    -0.031 A 
ATOM      3  C3  DEN d   1       0.969   2.351  -1.866  0.00  0.00     0.027 A 
ATOM      4  C4  DEN d   1      -0.726   3.588  -0.366  0.00  0.00     0.027 A 
ATOM      5  C5  DEN d   1      -1.512   3.486   0.760  0.00  0.00    -0.003 A 
ATOM      6  C6  DEN d   1      -1.562   2.343   1.514  0.00  0.00     0.001 A 
ATOM      7  C7  DEN d   1      -0.777   1.273   1.177  0.00  0.00     0.017 A 
ATOM      8  C8  DEN d   1       0.013   1.366   0.039  0.00  0.00    -0.094 A 
ATOM      9  C9  DEN d   1       0.059   2.534  -0.703  0.00  0.00    -0.072 A 
ENDROOT
TORSDOF 0
ENDMDL
