MODEL 1
REMARK minimizedAffinity 9.88054371
REMARK minimizedRMSD -1
REMARK  0 active torsions:
REMARK  status: ('A' for Active; 'I' for Inactive)
ROOT
ATOM      1  C1  DEN d   1      -2.526  -1.375   3.504  0.00  0.00     0.130 A 
ATOM      2  C2  DEN d   1      -1.598  -2.439   3.875  0.00  0.00    -0.031 A 
ATOM      3  C3  DEN d   1      -0.254  -2.062   3.392  0.00  0.00     0.027 A 
ATOM      4  C4  DEN d   1       0.476   0.059   2.119  0.00  0.00     0.027 A 
ATOM      5  C5  DEN d   1       0.040   1.244   1.569  0.00  0.00    -0.003 A 
ATOM      6  C6  DEN d   1      -1.277   1.620   1.595  0.00  0.00     0.001 A 
ATOM      7  C7  DEN d   1      -2.198   0.824   2.224  0.00  0.00     0.017 A 
ATOM      8  C8  DEN d   1      -1.767  -0.375   2.774  0.00  0.00    -0.094 A 
ATOM      9  C9  DEN d   1      -0.430  -0.732   2.748  0.00  0.00    -0.072 A 
ENDROOT
TORSDOF 0
ENDMDL
