MODEL 1
REMARK minimizedAffinity 9.66700363
REMARK minimizedRMSD -1
REMARK  1 active torsions:
REMARK  status: ('A' for Active; 'I' for Inactive)
REMARK    1  A    between atoms: C1_2  and  C2_3 
ROOT
ATOM      1  C2  UNL d   1      -1.124  -2.718  -4.947  0.00  0.00    -0.077 A 
ATOM      2  C3  UNL d   1      -1.336  -2.981  -3.586  0.00  0.00     0.002 A 
ATOM      3  C4  UNL d   1      -0.811  -2.129  -2.612  0.00  0.00     0.002 A 
ATOM      4  C5  UNL d   1      -0.075  -1.008  -2.989  0.00  0.00    -0.004 A 
ATOM      5  C6  UNL d   1       0.142  -0.739  -4.339  0.00  0.00     0.002 A 
ATOM      6  C7  UNL d   1      -0.380  -1.590  -5.314  0.00  0.00     0.002 A 
ENDROOT
BRANCH   1   7
ATOM      7  C1  UNL d   1      -1.731  -3.609  -6.000  0.00  0.00     0.055 C 
ATOM      8  C   UNL d   1      -2.228  -4.916  -5.400  0.00  0.00     0.019 C 
ENDBRANCH   1   7
TORSDOF 1
ENDMDL
