MODEL 1
REMARK minimizedAffinity 9.1146946
REMARK minimizedRMSD -1
REMARK  1 active torsions:
REMARK  status: ('A' for Active; 'I' for Inactive)
REMARK    1  A    between atoms: C1_2  and  C2_3 
ROOT
ATOM      1  C2  UNL d   1       1.088   0.307   3.082  0.00  0.00    -0.077 A 
ATOM      2  C3  UNL d   1       0.052   1.237   2.922  0.00  0.00     0.002 A 
ATOM      3  C4  UNL d   1      -1.095   0.901   2.201  0.00  0.00     0.002 A 
ATOM      4  C5  UNL d   1      -1.218  -0.368   1.637  0.00  0.00    -0.004 A 
ATOM      5  C6  UNL d   1      -0.192  -1.300   1.788  0.00  0.00     0.002 A 
ATOM      6  C7  UNL d   1       0.956  -0.964   2.508  0.00  0.00     0.002 A 
ENDROOT
BRANCH   1   7
ATOM      7  C1  UNL d   1       2.304   0.652   3.901  0.00  0.00     0.055 C 
ATOM      8  C   UNL d   1       3.457   1.106   3.017  0.00  0.00     0.019 C 
ENDBRANCH   1   7
TORSDOF 1
ENDMDL
