MODEL 1
REMARK minimizedAffinity 4.4088254
REMARK minimizedRMSD -1
REMARK  1 active torsions:
REMARK  status: ('A' for Active; 'I' for Inactive)
REMARK    1  A    between atoms: C1_2  and  C2_3 
ROOT
ATOM      1  C2  UNL d   1       1.165   0.298   4.668  0.00  0.00    -0.077 A 
ATOM      2  C3  UNL d   1       0.598   0.769   3.475  0.00  0.00     0.002 A 
ATOM      3  C4  UNL d   1       0.501  -0.067   2.361  0.00  0.00     0.002 A 
ATOM      4  C5  UNL d   1       0.965  -1.379   2.430  0.00  0.00    -0.004 A 
ATOM      5  C6  UNL d   1       1.532  -1.856   3.612  0.00  0.00     0.002 A 
ATOM      6  C7  UNL d   1       1.631  -1.021   4.725  0.00  0.00     0.002 A 
ENDROOT
BRANCH   1   7
ATOM      7  C1  UNL d   1       1.226   1.183   5.885  0.00  0.00     0.055 C 
ATOM      8  C   UNL d   1      -0.017   2.055   5.999  0.00  0.00     0.019 C 
ENDBRANCH   1   7
TORSDOF 1
ENDMDL
