MODEL 1
REMARK minimizedAffinity 12.8774223
REMARK minimizedRMSD -1
REMARK  1 active torsions:
REMARK  status: ('A' for Active; 'I' for Inactive)
REMARK    1  A    between atoms: C1_2  and  C2_3 
ROOT
ATOM      1  C2  UNL d   1      -0.032  -2.875  -5.368  0.00  0.00    -0.077 A 
ATOM      2  C3  UNL d   1       1.351  -2.706  -5.212  0.00  0.00     0.002 A 
ATOM      3  C4  UNL d   1       1.858  -1.566  -4.585  0.00  0.00     0.002 A 
ATOM      4  C5  UNL d   1       0.989  -0.588  -4.106  0.00  0.00    -0.004 A 
ATOM      5  C6  UNL d   1      -0.388  -0.745  -4.258  0.00  0.00     0.002 A 
ATOM      6  C7  UNL d   1      -0.896  -1.884  -4.885  0.00  0.00     0.002 A 
ENDROOT
BRANCH   1   7
ATOM      7  C1  UNL d   1      -0.582  -4.127  -5.999  0.00  0.00     0.055 C 
ATOM      8  C   UNL d   1      -2.104  -4.125  -5.997  0.00  0.00     0.019 C 
ENDBRANCH   1   7
TORSDOF 1
ENDMDL
