MODEL 1
REMARK minimizedAffinity 3.69357824
REMARK minimizedRMSD -1
REMARK  1 active torsions:
REMARK  status: ('A' for Active; 'I' for Inactive)
REMARK    1  A    between atoms: C1_2  and  C2_3 
ROOT
ATOM      1  C2  UNL d   1      -1.511  -3.491  -5.029  0.00  0.00    -0.077 A 
ATOM      2  C3  UNL d   1      -1.748  -2.744  -3.866  0.00  0.00     0.002 A 
ATOM      3  C4  UNL d   1      -1.124  -1.508  -3.681  0.00  0.00     0.002 A 
ATOM      4  C5  UNL d   1      -0.262  -1.008  -4.655  0.00  0.00    -0.004 A 
ATOM      5  C6  UNL d   1      -0.018  -1.745  -5.813  0.00  0.00     0.002 A 
ATOM      6  C7  UNL d   1      -0.640  -2.980  -6.000  0.00  0.00     0.002 A 
ENDROOT
BRANCH   1   7
ATOM      7  C1  UNL d   1      -2.221  -4.800  -5.253  0.00  0.00     0.055 C 
ATOM      8  C   UNL d   1      -2.181  -5.672  -4.006  0.00  0.00     0.019 C 
ENDBRANCH   1   7
TORSDOF 1
ENDMDL
