MODEL 1
REMARK minimizedAffinity 12.6937714
REMARK minimizedRMSD -1
REMARK  1 active torsions:
REMARK  status: ('A' for Active; 'I' for Inactive)
REMARK    1  A    between atoms: C1_2  and  C2_3 
ROOT
ATOM      1  C2  UNL d   1       0.486  -3.776   5.118  0.00  0.00    -0.077 A 
ATOM      2  C3  UNL d   1       1.747  -3.480   5.655  0.00  0.00     0.002 A 
ATOM      3  C4  UNL d   1       2.682  -2.762   4.907  0.00  0.00     0.002 A 
ATOM      4  C5  UNL d   1       2.365  -2.331   3.620  0.00  0.00    -0.004 A 
ATOM      5  C6  UNL d   1       1.115  -2.623   3.077  0.00  0.00     0.002 A 
ATOM      6  C7  UNL d   1       0.179  -3.341   3.822  0.00  0.00     0.002 A 
ENDROOT
BRANCH   1   7
ATOM      7  C1  UNL d   1      -0.542  -4.507   5.942  0.00  0.00     0.055 C 
ATOM      8  C   UNL d   1      -0.246  -5.999   5.999  0.00  0.00     0.019 C 
ENDBRANCH   1   7
TORSDOF 1
ENDMDL
