MODEL 1
REMARK minimizedAffinity 8.73044109
REMARK minimizedRMSD -1
REMARK  1 active torsions:
REMARK  status: ('A' for Active; 'I' for Inactive)
REMARK    1  A    between atoms: C1_2  and  C2_3 
ROOT
ATOM      1  C2  UNL d   1       4.426  -3.425   4.741  0.00  0.00    -0.077 A 
ATOM      2  C3  UNL d   1       3.535  -3.431   5.824  0.00  0.00     0.002 A 
ATOM      3  C4  UNL d   1       2.196  -3.084   5.638  0.00  0.00     0.002 A 
ATOM      4  C5  UNL d   1       1.734  -2.733   4.371  0.00  0.00    -0.004 A 
ATOM      5  C6  UNL d   1       2.613  -2.723   3.288  0.00  0.00     0.002 A 
ATOM      6  C7  UNL d   1       3.953  -3.068   3.472  0.00  0.00     0.002 A 
ENDROOT
BRANCH   1   7
ATOM      7  C1  UNL d   1       5.860  -3.847   4.931  0.00  0.00     0.055 C 
ATOM      8  C   UNL d   1       5.993  -5.362   4.952  0.00  0.00     0.019 C 
ENDBRANCH   1   7
TORSDOF 1
ENDMDL
