MODEL 1
REMARK minimizedAffinity -0.729027927
REMARK minimizedRMSD -1
REMARK  1 active torsions:
REMARK  status: ('A' for Active; 'I' for Inactive)
REMARK    1  A    between atoms: C1_2  and  C2_3 
ROOT
ATOM      1  C2  UNL d   1       3.302  -2.450   5.068  0.00  0.00    -0.077 A 
ATOM      2  C3  UNL d   1       2.217  -3.181   4.565  0.00  0.00     0.002 A 
ATOM      3  C4  UNL d   1       1.306  -2.583   3.692  0.00  0.00     0.002 A 
ATOM      4  C5  UNL d   1       1.474  -1.253   3.310  0.00  0.00    -0.004 A 
ATOM      5  C6  UNL d   1       2.549  -0.517   3.807  0.00  0.00     0.002 A 
ATOM      6  C7  UNL d   1       3.459  -1.113   4.681  0.00  0.00     0.002 A 
ENDROOT
BRANCH   1   7
ATOM      7  C1  UNL d   1       4.312  -3.107   5.972  0.00  0.00     0.055 C 
ATOM      8  C   UNL d   1       4.863  -4.383   5.351  0.00  0.00     0.019 C 
ENDBRANCH   1   7
TORSDOF 1
ENDMDL
