MODEL 1
REMARK minimizedAffinity 7.70585299
REMARK minimizedRMSD -1
REMARK  1 active torsions:
REMARK  status: ('A' for Active; 'I' for Inactive)
REMARK    1  A    between atoms: C1_2  and  C2_3 
ROOT
ATOM      1  C2  UNL d   1       4.206  -2.906   5.195  0.00  0.00    -0.077 A 
ATOM      2  C3  UNL d   1       2.907  -3.063   4.691  0.00  0.00     0.002 A 
ATOM      3  C4  UNL d   1       2.223  -1.973   4.150  0.00  0.00     0.002 A 
ATOM      4  C5  UNL d   1       2.830  -0.719   4.105  0.00  0.00    -0.004 A 
ATOM      5  C6  UNL d   1       4.121  -0.553   4.606  0.00  0.00     0.002 A 
ATOM      6  C7  UNL d   1       4.806  -1.641   5.148  0.00  0.00     0.002 A 
ENDROOT
BRANCH   1   7
ATOM      7  C1  UNL d   1       4.964  -4.091   5.734  0.00  0.00     0.055 C 
ATOM      8  C   UNL d   1       5.999  -4.587   4.734  0.00  0.00     0.019 C 
ENDBRANCH   1   7
TORSDOF 1
ENDMDL
