MODEL 1
REMARK minimizedAffinity 11.6123209
REMARK minimizedRMSD -1
REMARK  1 active torsions:
REMARK  status: ('A' for Active; 'I' for Inactive)
REMARK    1  A    between atoms: C1_2  and  C2_3 
ROOT
ATOM      1  C2  UNL d   1       2.687  -0.490  -1.347  0.00  0.00    -0.076 A 
ATOM      2  C3  UNL d   1       3.608   0.013  -2.282  0.00  0.00     0.004 A 
ATOM      3  C4  UNL d   1       4.108   1.309  -2.171  0.00  0.00    -0.003 A 
ATOM      4  C5  UNL d   1       3.697   2.123  -1.121  0.00  0.00     0.000 A 
ATOM      5  C6  UNL d   1       2.797   1.634  -0.174  0.00  0.00     0.000 A 
ATOM      6  C7  UNL d   1       2.296   0.324  -0.263  0.00  0.00    -0.073 A 
ATOM      7  C8  UNL d   1       1.324  -0.149   0.783  0.00  0.00     0.078 C 
ENDROOT
BRANCH   1   8
ATOM      8  C1  UNL d   1       2.158  -1.894  -1.534  0.00  0.00     0.053 C 
ATOM      9  C   UNL d   1       2.424  -2.436  -2.930  0.00  0.00     0.018 C 
ENDBRANCH   1   8
TORSDOF 1
ENDMDL
