MODEL 1
REMARK minimizedAffinity 12.5035486
REMARK minimizedRMSD -1
REMARK  1 active torsions:
REMARK  status: ('A' for Active; 'I' for Inactive)
REMARK    1  A    between atoms: C1_2  and  C2_3 
ROOT
ATOM      1  C2  UNL d   1       2.976   0.590  -0.563  0.00  0.00    -0.076 A 
ATOM      2  C3  UNL d   1       1.743   0.245  -1.144  0.00  0.00     0.004 A 
ATOM      3  C4  UNL d   1       1.236  -1.049  -1.037  0.00  0.00    -0.003 A 
ATOM      4  C5  UNL d   1       1.953  -2.019  -0.346  0.00  0.00     0.000 A 
ATOM      5  C6  UNL d   1       3.169  -1.690   0.252  0.00  0.00     0.000 A 
ATOM      6  C7  UNL d   1       3.687  -0.387   0.167  0.00  0.00    -0.073 A 
ATOM      7  C8  UNL d   1       5.006  -0.089   0.826  0.00  0.00     0.078 C 
ENDROOT
BRANCH   1   8
ATOM      8  C1  UNL d   1       3.488   2.002  -0.736  0.00  0.00     0.053 C 
ATOM      9  C   UNL d   1       4.456   2.132  -1.901  0.00  0.00     0.018 C 
ENDBRANCH   1   8
TORSDOF 1
ENDMDL
