MODEL 1
REMARK minimizedAffinity 15.5746365
REMARK minimizedRMSD -1
REMARK  1 active torsions:
REMARK  status: ('A' for Active; 'I' for Inactive)
REMARK    1  A    between atoms: C1_2  and  C2_3 
ROOT
ATOM      1  C2  UNL d   1       3.944   0.517  -0.439  0.00  0.00    -0.076 A 
ATOM      2  C3  UNL d   1       4.958   0.075   0.428  0.00  0.00     0.004 A 
ATOM      3  C4  UNL d   1       4.689  -0.855   1.431  0.00  0.00    -0.003 A 
ATOM      4  C5  UNL d   1       3.402  -1.358   1.584  0.00  0.00     0.000 A 
ATOM      5  C6  UNL d   1       2.387  -0.943   0.721  0.00  0.00     0.000 A 
ATOM      6  C7  UNL d   1       2.645  -0.019  -0.306  0.00  0.00    -0.073 A 
ATOM      7  C8  UNL d   1       1.512   0.398  -1.203  0.00  0.00     0.078 C 
ENDROOT
BRANCH   1   8
ATOM      8  C1  UNL d   1       4.288   1.547  -1.491  0.00  0.00     0.053 C 
ATOM      9  C   UNL d   1       5.772   1.564  -1.825  0.00  0.00     0.018 C 
ENDBRANCH   1   8
TORSDOF 1
ENDMDL
