MODEL 1
REMARK minimizedAffinity 18.4236031
REMARK minimizedRMSD -1
REMARK  1 active torsions:
REMARK  status: ('A' for Active; 'I' for Inactive)
REMARK    1  A    between atoms: C1_2  and  C2_3 
ROOT
ATOM      1  C2  UNL d   1       3.232  -0.858   0.983  0.00  0.00    -0.076 A 
ATOM      2  C3  UNL d   1       4.462  -1.103   1.619  0.00  0.00     0.004 A 
ATOM      3  C4  UNL d   1       5.530  -0.219   1.479  0.00  0.00    -0.003 A 
ATOM      4  C5  UNL d   1       5.386   0.925   0.702  0.00  0.00     0.000 A 
ATOM      5  C6  UNL d   1       4.168   1.193   0.079  0.00  0.00     0.000 A 
ATOM      6  C7  UNL d   1       3.076   0.321   0.223  0.00  0.00    -0.073 A 
ATOM      7  C8  UNL d   1       1.787   0.656  -0.476  0.00  0.00     0.078 C 
ENDROOT
BRANCH   1   8
ATOM      8  C1  UNL d   1       2.118  -1.866   1.149  0.00  0.00     0.053 C 
ATOM      9  C   UNL d   1       1.718  -2.059   2.604  0.00  0.00     0.018 C 
ENDBRANCH   1   8
TORSDOF 1
ENDMDL
