MODEL 1
REMARK minimizedAffinity 26.4501305
REMARK minimizedRMSD -1
REMARK  1 active torsions:
REMARK  status: ('A' for Active; 'I' for Inactive)
REMARK    1  A    between atoms: C1_2  and  C2_3 
ROOT
ATOM      1  C2  UNL d   1       3.502   3.746   3.304  0.00  0.00    -0.076 A 
ATOM      2  C3  UNL d   1       3.670   5.123   3.528  0.00  0.00     0.004 A 
ATOM      3  C4  UNL d   1       2.589   6.000   3.451  0.00  0.00    -0.003 A 
ATOM      4  C5  UNL d   1       1.322   5.513   3.148  0.00  0.00     0.000 A 
ATOM      5  C6  UNL d   1       1.134   4.147   2.940  0.00  0.00     0.000 A 
ATOM      6  C7  UNL d   1       2.210   3.247   3.031  0.00  0.00    -0.073 A 
ATOM      7  C8  UNL d   1       1.951   1.785   2.791  0.00  0.00     0.078 C 
ENDROOT
BRANCH   1   8
ATOM      8  C1  UNL d   1       4.716   2.847   3.375  0.00  0.00     0.053 C 
ATOM      9  C   UNL d   1       5.100   2.499   4.805  0.00  0.00     0.018 C 
ENDBRANCH   1   8
TORSDOF 1
ENDMDL
