MODEL 1
REMARK minimizedAffinity 12.6990976
REMARK minimizedRMSD -1
REMARK  1 active torsions:
REMARK  status: ('A' for Active; 'I' for Inactive)
REMARK    1  A    between atoms: C1_2  and  C2_3 
ROOT
ATOM      1  C2  UNL d   1      -3.890   5.115   4.487  0.00  0.00    -0.076 A 
ATOM      2  C3  UNL d   1      -3.329   4.561   3.323  0.00  0.00     0.004 A 
ATOM      3  C4  UNL d   1      -4.085   3.750   2.478  0.00  0.00    -0.003 A 
ATOM      4  C5  UNL d   1      -5.415   3.480   2.784  0.00  0.00     0.000 A 
ATOM      5  C6  UNL d   1      -5.992   4.035   3.926  0.00  0.00     0.000 A 
ATOM      6  C7  UNL d   1      -5.248   4.868   4.779  0.00  0.00    -0.073 A 
ATOM      7  C8  UNL d   1      -5.920   5.435   5.999  0.00  0.00     0.078 C 
ENDROOT
BRANCH   1   8
ATOM      8  C1  UNL d   1      -3.013   5.965   5.379  0.00  0.00     0.053 C 
ATOM      9  C   UNL d   1      -1.539   5.855   5.023  0.00  0.00     0.018 C 
ENDBRANCH   1   8
TORSDOF 1
ENDMDL
