MODEL 1
REMARK minimizedAffinity 11.894825
REMARK minimizedRMSD -1
REMARK  1 active torsions:
REMARK  status: ('A' for Active; 'I' for Inactive)
REMARK    1  A    between atoms: C1_2  and  C2_3 
ROOT
ATOM      1  C2  UNL d   1       3.524   1.052   0.238  0.00  0.00    -0.076 A 
ATOM      2  C3  UNL d   1       2.917   1.794  -0.790  0.00  0.00     0.004 A 
ATOM      3  C4  UNL d   1       1.946   1.222  -1.610  0.00  0.00    -0.003 A 
ATOM      4  C5  UNL d   1       1.565  -0.101  -1.415  0.00  0.00     0.000 A 
ATOM      5  C6  UNL d   1       2.145  -0.846  -0.388  0.00  0.00     0.000 A 
ATOM      6  C7  UNL d   1       3.114  -0.280   0.457  0.00  0.00    -0.073 A 
ATOM      7  C8  UNL d   1       3.710  -1.132   1.545  0.00  0.00     0.078 C 
ENDROOT
BRANCH   1   8
ATOM      8  C1  UNL d   1       4.591   1.718   1.077  0.00  0.00     0.053 C 
ATOM      9  C   UNL d   1       4.200   3.122   1.511  0.00  0.00     0.018 C 
ENDBRANCH   1   8
TORSDOF 1
ENDMDL
