MODEL 1
REMARK minimizedAffinity 8.28703594
REMARK minimizedRMSD -1
REMARK  1 active torsions:
REMARK  status: ('A' for Active; 'I' for Inactive)
REMARK    1  A    between atoms: C1_2  and  C2_3 
ROOT
ATOM      1  C2  UNL d   1      -3.760   5.247   4.467  0.00  0.00    -0.076 A 
ATOM      2  C3  UNL d   1      -3.260   4.649   3.296  0.00  0.00     0.004 A 
ATOM      3  C4  UNL d   1      -4.095   3.923   2.449  0.00  0.00    -0.003 A 
ATOM      4  C5  UNL d   1      -5.444   3.784   2.757  0.00  0.00     0.000 A 
ATOM      5  C6  UNL d   1      -5.960   4.385   3.905  0.00  0.00     0.000 A 
ATOM      6  C7  UNL d   1      -5.135   5.134   4.761  0.00  0.00    -0.073 A 
ATOM      7  C8  UNL d   1      -5.744   5.755   5.989  0.00  0.00     0.078 C 
ENDROOT
BRANCH   1   8
ATOM      8  C1  UNL d   1      -2.801   5.999   5.362  0.00  0.00     0.053 C 
ATOM      9  C   UNL d   1      -1.376   5.984   4.832  0.00  0.00     0.018 C 
ENDBRANCH   1   8
TORSDOF 1
ENDMDL
