MODEL 1
REMARK minimizedAffinity 2.97279596
REMARK minimizedRMSD -1
REMARK  0 active torsions:
REMARK  status: ('A' for Active; 'I' for Inactive)
ROOT
ATOM      1  C   UNL d   1       2.026   0.532   0.922  0.00  0.00     0.020 A 
ATOM      2  C1  UNL d   1       3.403   0.322   0.888  0.00  0.00     0.020 A 
ATOM      3  C2  UNL d   1       4.121   0.199   2.080  0.00  0.00     0.034 A 
ATOM      4  C3  UNL d   1       3.461   0.285   3.311  0.00  0.00     0.017 A 
ATOM      5  C4  UNL d   1       2.077   0.496   3.344  0.00  0.00     0.017 A 
ATOM      6  C5  UNL d   1       1.364   0.619   2.148  0.00  0.00     0.034 A 
ATOM      7 Cl   UNL d   1       1.193   0.614   4.824  0.00  0.00    -0.070 Cl
ATOM      8 Cl1  UNL d   1       4.410   0.123   4.745  0.00  0.00    -0.070 Cl
ENDROOT
TORSDOF 0
ENDMDL
