MODEL 1
REMARK minimizedAffinity 4.08234024
REMARK minimizedRMSD -1
REMARK  0 active torsions:
REMARK  status: ('A' for Active; 'I' for Inactive)
ROOT
ATOM      1  C   UNL d   1       3.620   0.533   0.970  0.00  0.00     0.020 A 
ATOM      2  C1  UNL d   1       2.235   0.693   0.982  0.00  0.00     0.020 A 
ATOM      3  C2  UNL d   1       1.544   0.712   2.196  0.00  0.00     0.034 A 
ATOM      4  C3  UNL d   1       2.239   0.570   3.403  0.00  0.00     0.017 A 
ATOM      5  C4  UNL d   1       3.629   0.409   3.390  0.00  0.00     0.017 A 
ATOM      6  C5  UNL d   1       4.315   0.391   2.172  0.00  0.00     0.034 A 
ATOM      7 Cl   UNL d   1       4.554   0.229   4.838  0.00  0.00    -0.070 Cl
ATOM      8 Cl1  UNL d   1       1.320   0.604   4.866  0.00  0.00    -0.070 Cl
ENDROOT
TORSDOF 0
ENDMDL
