MODEL 1
REMARK minimizedAffinity 2.12970901
REMARK minimizedRMSD -1
REMARK  0 active torsions:
REMARK  status: ('A' for Active; 'I' for Inactive)
ROOT
ATOM      1  C   UNL d   1      -1.390  -0.627   2.323  0.00  0.00     0.020 A 
ATOM      2  C1  UNL d   1      -1.412   0.733   2.630  0.00  0.00     0.020 A 
ATOM      3  C2  UNL d   1      -0.640   1.629   1.888  0.00  0.00     0.034 A 
ATOM      4  C3  UNL d   1       0.158   1.166   0.835  0.00  0.00     0.017 A 
ATOM      5  C4  UNL d   1       0.179  -0.200   0.528  0.00  0.00     0.017 A 
ATOM      6  C5  UNL d   1      -0.596  -1.092   1.275  0.00  0.00     0.034 A 
ATOM      7 Cl   UNL d   1       1.139  -0.846  -0.756  0.00  0.00    -0.070 Cl
ATOM      8 Cl1  UNL d   1       1.088   2.330  -0.041  0.00  0.00    -0.070 Cl
ENDROOT
TORSDOF 0
ENDMDL
