MODEL 1
REMARK minimizedAffinity -0.528441191
REMARK minimizedRMSD -1
REMARK  0 active torsions:
REMARK  status: ('A' for Active; 'I' for Inactive)
ROOT
ATOM      1  C   UNL d   1       0.016   5.986  -5.195  0.00  0.00     0.020 A 
ATOM      2  C1  UNL d   1      -1.130   5.997  -5.990  0.00  0.00     0.020 A 
ATOM      3  C2  UNL d   1      -2.393   6.000  -5.394  0.00  0.00     0.034 A 
ATOM      4  C3  UNL d   1      -2.513   5.992  -3.999  0.00  0.00     0.017 A 
ATOM      5  C4  UNL d   1      -1.363   5.981  -3.202  0.00  0.00     0.017 A 
ATOM      6  C5  UNL d   1      -0.101   5.978  -3.804  0.00  0.00     0.034 A 
ATOM      7 Cl   UNL d   1      -1.431   5.971  -1.475  0.00  0.00    -0.070 Cl
ATOM      8 Cl1  UNL d   1      -4.106   5.997  -3.330  0.00  0.00    -0.070 Cl
ENDROOT
TORSDOF 0
ENDMDL
