MODEL 1
REMARK minimizedAffinity 4.0517211
REMARK minimizedRMSD -1
REMARK  0 active torsions:
REMARK  status: ('A' for Active; 'I' for Inactive)
ROOT
ATOM      1  C   UNL d   1       1.099   1.407  -0.963  0.00  0.00     0.020 A 
ATOM      2  C1  UNL d   1       0.581   0.289  -0.310  0.00  0.00     0.020 A 
ATOM      3  C2  UNL d   1       0.301   0.346   1.057  0.00  0.00     0.034 A 
ATOM      4  C3  UNL d   1       0.538   1.523   1.775  0.00  0.00     0.017 A 
ATOM      5  C4  UNL d   1       1.057   2.645   1.119  0.00  0.00     0.017 A 
ATOM      6  C5  UNL d   1       1.336   2.583  -0.249  0.00  0.00     0.034 A 
ATOM      7 Cl   UNL d   1       1.376   4.133   1.939  0.00  0.00    -0.070 Cl
ATOM      8 Cl1  UNL d   1       0.167   1.523   3.463  0.00  0.00    -0.070 Cl
ENDROOT
TORSDOF 0
ENDMDL
