MODEL 1
REMARK minimizedAffinity 6.41551161
REMARK minimizedRMSD -1
REMARK  0 active torsions:
REMARK  status: ('A' for Active; 'I' for Inactive)
ROOT
ATOM      1  C   UNL d   1       1.512   0.477  -0.028  0.00  0.00     0.020 A 
ATOM      2  C1  UNL d   1       1.051   1.420   0.890  0.00  0.00     0.020 A 
ATOM      3  C2  UNL d   1       0.076   1.066   1.825  0.00  0.00     0.034 A 
ATOM      4  C3  UNL d   1      -0.442  -0.235   1.843  0.00  0.00     0.017 A 
ATOM      5  C4  UNL d   1       0.021  -1.180   0.921  0.00  0.00     0.017 A 
ATOM      6  C5  UNL d   1       0.998  -0.820  -0.012  0.00  0.00     0.034 A 
ATOM      7 Cl   UNL d   1      -0.570  -2.804   0.882  0.00  0.00    -0.070 Cl
ATOM      8 Cl1  UNL d   1      -1.646  -0.603   3.026  0.00  0.00    -0.070 Cl
ENDROOT
TORSDOF 0
ENDMDL
