MODEL 1
REMARK minimizedAffinity -0.381901115
REMARK minimizedRMSD -1
REMARK  0 active torsions:
REMARK  status: ('A' for Active; 'I' for Inactive)
ROOT
ATOM      1  C   UNL d   1       1.982   1.009  -0.925  0.00  0.00     0.020 A 
ATOM      2  C1  UNL d   1       1.716   2.072  -0.063  0.00  0.00     0.020 A 
ATOM      3  C2  UNL d   1       0.720   1.952   0.907  0.00  0.00     0.034 A 
ATOM      4  C3  UNL d   1      -0.015   0.766   1.019  0.00  0.00     0.017 A 
ATOM      5  C4  UNL d   1       0.253  -0.301   0.154  0.00  0.00     0.017 A 
ATOM      6  C5  UNL d   1       1.252  -0.175  -0.816  0.00  0.00     0.034 A 
ATOM      7 Cl   UNL d   1      -0.612  -1.796   0.231  0.00  0.00    -0.070 Cl
ATOM      8 Cl1  UNL d   1      -1.232   0.687   2.242  0.00  0.00    -0.070 Cl
ENDROOT
TORSDOF 0
ENDMDL
