MODEL 1
REMARK minimizedAffinity 4.72674513
REMARK minimizedRMSD -1
REMARK  0 active torsions:
REMARK  status: ('A' for Active; 'I' for Inactive)
ROOT
ATOM      1  C   UNL d   1      -4.073   5.983  -3.442  0.00  0.00     0.020 A 
ATOM      2  C1  UNL d   1      -2.699   5.991  -3.680  0.00  0.00     0.020 A 
ATOM      3  C2  UNL d   1      -1.805   5.990  -2.608  0.00  0.00     0.034 A 
ATOM      4  C3  UNL d   1      -2.282   5.981  -1.293  0.00  0.00     0.017 A 
ATOM      5  C4  UNL d   1      -3.661   5.973  -1.054  0.00  0.00     0.017 A 
ATOM      6  C5  UNL d   1      -4.553   5.974  -2.132  0.00  0.00     0.034 A 
ATOM      7 Cl   UNL d   1      -4.326   5.961   0.541  0.00  0.00    -0.070 Cl
ATOM      8 Cl1  UNL d   1      -1.119   5.980  -0.015  0.00  0.00    -0.070 Cl
ENDROOT
TORSDOF 0
ENDMDL
