MODEL 1
REMARK minimizedAffinity 0.925039768
REMARK minimizedRMSD -1
REMARK  0 active torsions:
REMARK  status: ('A' for Active; 'I' for Inactive)
ROOT
ATOM      1  C   UNL d   1       1.713   2.371   0.350  0.00  0.00     0.020 A 
ATOM      2  C1  UNL d   1       1.115   3.041   1.416  0.00  0.00     0.020 A 
ATOM      3  C2  UNL d   1       0.149   2.397   2.192  0.00  0.00     0.034 A 
ATOM      4  C3  UNL d   1      -0.223   1.079   1.902  0.00  0.00     0.017 A 
ATOM      5  C4  UNL d   1       0.378   0.407   0.832  0.00  0.00     0.017 A 
ATOM      6  C5  UNL d   1       1.345   1.057   0.058  0.00  0.00     0.034 A 
ATOM      7 Cl   UNL d   1      -0.029  -1.220   0.413  0.00  0.00    -0.070 Cl
ATOM      8 Cl1  UNL d   1      -1.424   0.345   2.904  0.00  0.00    -0.070 Cl
ENDROOT
TORSDOF 0
ENDMDL
