MODEL 1
REMARK minimizedAffinity -0.869648337
REMARK minimizedRMSD -1
REMARK  0 active torsions:
REMARK  status: ('A' for Active; 'I' for Inactive)
ROOT
ATOM      1  C   UNL d   1      -1.566   5.999  -2.103  0.00  0.00     0.020 A 
ATOM      2  C1  UNL d   1      -1.694   5.998  -3.491  0.00  0.00     0.020 A 
ATOM      3  C2  UNL d   1      -2.962   5.998  -4.076  0.00  0.00     0.034 A 
ATOM      4  C3  UNL d   1      -4.108   5.998  -3.272  0.00  0.00     0.017 A 
ATOM      5  C4  UNL d   1      -3.978   5.999  -1.878  0.00  0.00     0.017 A 
ATOM      6  C5  UNL d   1      -2.706   6.000  -1.298  0.00  0.00     0.034 A 
ATOM      7 Cl   UNL d   1      -5.346   6.000  -0.821  0.00  0.00    -0.070 Cl
ATOM      8 Cl1  UNL d   1      -5.644   5.998  -4.062  0.00  0.00    -0.070 Cl
ENDROOT
TORSDOF 0
ENDMDL
