MODEL 1
REMARK minimizedAffinity -2.05166078
REMARK minimizedRMSD -1
REMARK  0 active torsions:
REMARK  status: ('A' for Active; 'I' for Inactive)
ROOT
ATOM      1  C   UNL d   1       2.556   0.888   0.080  0.00  0.00     0.020 A 
ATOM      2  C1  UNL d   1       1.853   2.088  -0.029  0.00  0.00     0.020 A 
ATOM      3  C2  UNL d   1       0.458   2.086   0.018  0.00  0.00     0.034 A 
ATOM      4  C3  UNL d   1      -0.240   0.882   0.175  0.00  0.00     0.017 A 
ATOM      5  C4  UNL d   1       0.467  -0.321   0.285  0.00  0.00     0.017 A 
ATOM      6  C5  UNL d   1       1.864  -0.313   0.237  0.00  0.00     0.034 A 
ATOM      7 Cl   UNL d   1      -0.324  -1.845   0.480  0.00  0.00    -0.070 Cl
ATOM      8 Cl1  UNL d   1      -1.965   0.954   0.226  0.00  0.00    -0.070 Cl
ENDROOT
TORSDOF 0
ENDMDL
