MODEL 1
REMARK minimizedAffinity 0.679144323
REMARK minimizedRMSD -1
REMARK  0 active torsions:
REMARK  status: ('A' for Active; 'I' for Inactive)
ROOT
ATOM      1  C   UNL d   1      -3.928   6.000  -3.062  0.00  0.00     0.020 A 
ATOM      2  C1  UNL d   1      -3.150   5.998  -1.905  0.00  0.00     0.020 A 
ATOM      3  C2  UNL d   1      -1.757   5.992  -2.000  0.00  0.00     0.034 A 
ATOM      4  C3  UNL d   1      -1.137   5.987  -3.255  0.00  0.00     0.017 A 
ATOM      5  C4  UNL d   1      -1.919   5.989  -4.416  0.00  0.00     0.017 A 
ATOM      6  C5  UNL d   1      -3.313   5.996  -4.315  0.00  0.00     0.034 A 
ATOM      7 Cl   UNL d   1      -1.226   5.984  -6.000  0.00  0.00    -0.070 Cl
ATOM      8 Cl1  UNL d   1       0.590   5.980  -3.298  0.00  0.00    -0.070 Cl
ENDROOT
TORSDOF 0
ENDMDL
