MODEL 1
REMARK minimizedAffinity 5.70952129
REMARK minimizedRMSD -1
REMARK  0 active torsions:
REMARK  status: ('A' for Active; 'I' for Inactive)
ROOT
ATOM      1  C   UNL d   1      -0.845   0.383   1.551  0.00  0.00     0.020 A 
ATOM      2  C1  UNL d   1      -0.222  -0.496   0.665  0.00  0.00     0.020 A 
ATOM      3  C2  UNL d   1       0.694  -0.011  -0.271  0.00  0.00     0.034 A 
ATOM      4  C3  UNL d   1       0.989   1.357  -0.324  0.00  0.00     0.017 A 
ATOM      5  C4  UNL d   1       0.363   2.238   0.565  0.00  0.00     0.017 A 
ATOM      6  C5  UNL d   1      -0.553   1.746   1.501  0.00  0.00     0.034 A 
ATOM      7 Cl   UNL d   1       0.676   3.937   0.560  0.00  0.00    -0.070 Cl
ATOM      8 Cl1  UNL d   1       2.131   1.887  -1.507  0.00  0.00    -0.070 Cl
ENDROOT
TORSDOF 0
ENDMDL
