MODEL 1
REMARK minimizedAffinity 1.37548506
REMARK minimizedRMSD -1
REMARK  0 active torsions:
REMARK  status: ('A' for Active; 'I' for Inactive)
ROOT
ATOM      1  C   UNL d   1       1.654   2.636  -0.090  0.00  0.00     0.020 A 
ATOM      2  C1  UNL d   1       1.163   1.644  -0.937  0.00  0.00     0.020 A 
ATOM      3  C2  UNL d   1       0.300   0.665  -0.440  0.00  0.00     0.034 A 
ATOM      4  C3  UNL d   1      -0.075   0.676   0.909  0.00  0.00     0.017 A 
ATOM      5  C4  UNL d   1       0.419   1.673   1.759  0.00  0.00     0.017 A 
ATOM      6  C5  UNL d   1       1.283   2.650   1.255  0.00  0.00     0.034 A 
ATOM      7 Cl   UNL d   1       0.002   1.752   3.434  0.00  0.00    -0.070 Cl
ATOM      8 Cl1  UNL d   1      -1.146  -0.564   1.455  0.00  0.00    -0.070 Cl
ENDROOT
TORSDOF 0
ENDMDL
