MODEL 1
REMARK minimizedAffinity 3.16143537
REMARK minimizedRMSD -1
REMARK  0 active torsions:
REMARK  status: ('A' for Active; 'I' for Inactive)
ROOT
ATOM      1  C   UNL d   1       5.992   4.644  -4.852  0.00  0.00     0.020 A 
ATOM      2  C1  UNL d   1       5.682   5.630  -5.788  0.00  0.00     0.020 A 
ATOM      3  C2  UNL d   1       4.352   6.000  -5.999  0.00  0.00     0.034 A 
ATOM      4  C3  UNL d   1       3.327   5.383  -5.274  0.00  0.00     0.017 A 
ATOM      5  C4  UNL d   1       3.638   4.393  -4.334  0.00  0.00     0.017 A 
ATOM      6  C5  UNL d   1       4.971   4.027  -4.127  0.00  0.00     0.034 A 
ATOM      7 Cl   UNL d   1       2.427   3.587  -3.401  0.00  0.00    -0.070 Cl
ATOM      8 Cl1  UNL d   1       1.704   5.890  -5.586  0.00  0.00    -0.070 Cl
ENDROOT
TORSDOF 0
ENDMDL
