MODEL 1
REMARK minimizedAffinity 2.40193462
REMARK minimizedRMSD -1
REMARK  0 active torsions:
REMARK  status: ('A' for Active; 'I' for Inactive)
ROOT
ATOM      1  C   UNL d   1       1.479   1.346   0.639  0.00  0.00     0.020 A 
ATOM      2  C1  UNL d   1       0.902   2.439   1.285  0.00  0.00     0.020 A 
ATOM      3  C2  UNL d   1      -0.292   2.283   1.992  0.00  0.00     0.034 A 
ATOM      4  C3  UNL d   1      -0.913   1.030   2.055  0.00  0.00     0.017 A 
ATOM      5  C4  UNL d   1      -0.334  -0.067   1.407  0.00  0.00     0.017 A 
ATOM      6  C5  UNL d   1       0.862   0.096   0.701  0.00  0.00     0.034 A 
ATOM      7 Cl   UNL d   1      -1.042  -1.643   1.441  0.00  0.00    -0.070 Cl
ATOM      8 Cl1  UNL d   1      -2.388   0.910   2.947  0.00  0.00    -0.070 Cl
ENDROOT
TORSDOF 0
ENDMDL
