MODEL 1
REMARK minimizedAffinity 5.74730444
REMARK minimizedRMSD -1
REMARK  0 active torsions:
REMARK  status: ('A' for Active; 'I' for Inactive)
ROOT
ATOM      1  C   UNL d   1      -4.299  -2.782  -2.189  0.00  0.00     0.020 A 
ATOM      2  C1  UNL d   1      -3.988  -3.550  -1.067  0.00  0.00     0.020 A 
ATOM      3  C2  UNL d   1      -3.658  -2.924   0.137  0.00  0.00     0.034 A 
ATOM      4  C3  UNL d   1      -3.638  -1.528   0.223  0.00  0.00     0.017 A 
ATOM      5  C4  UNL d   1      -3.949  -0.758  -0.904  0.00  0.00     0.017 A 
ATOM      6  C5  UNL d   1      -4.279  -1.389  -2.107  0.00  0.00     0.034 A 
ATOM      7 Cl   UNL d   1      -3.945   0.970  -0.876  0.00  0.00    -0.070 Cl
ATOM      8 Cl1  UNL d   1      -3.221  -0.822   1.744  0.00  0.00    -0.070 Cl
ENDROOT
TORSDOF 0
ENDMDL
