MODEL 1
REMARK minimizedAffinity 1.71267915
REMARK minimizedRMSD -1
REMARK  0 active torsions:
REMARK  status: ('A' for Active; 'I' for Inactive)
ROOT
ATOM      1  C4' PXY d   1       5.943  -5.309  -0.697  0.00  0.00     0.077 C 
ATOM      2  C1' PXY d   1       1.827  -1.904   1.513  0.00  0.00     0.077 C 
ATOM      3  C1  PXY d   1       2.915  -2.787   0.933  0.00  0.00    -0.082 A 
ATOM      4  C2  PXY d   1       2.583  -3.868   0.247  0.00  0.00     0.003 A 
ATOM      5  C3  PXY d   1       3.554  -4.695  -0.256  0.00  0.00     0.003 A 
ATOM      6  C4  PXY d   1       4.878  -4.383  -0.102  0.00  0.00    -0.082 A 
ATOM      7  C5  PXY d   1       5.225  -3.276   0.588  0.00  0.00     0.003 A 
ATOM      8  C6  PXY d   1       4.224  -2.472   1.127  0.00  0.00     0.003 A 
ENDROOT
TORSDOF 0
ENDMDL
