MODEL 1
REMARK minimizedAffinity -1.20479667
REMARK minimizedRMSD -1
REMARK  0 active torsions:
REMARK  status: ('A' for Active; 'I' for Inactive)
ROOT
ATOM      1  C4' PXY d   1      -5.250  -2.567  -3.428  0.00  0.00     0.077 C 
ATOM      2  C1' PXY d   1      -1.977   1.444  -6.000  0.00  0.00     0.077 C 
ATOM      3  C1  PXY d   1      -2.846   0.400  -5.326  0.00  0.00    -0.082 A 
ATOM      4  C2  PXY d   1      -2.285  -0.524  -4.562  0.00  0.00     0.003 A 
ATOM      5  C3  PXY d   1      -3.052  -1.494  -3.971  0.00  0.00     0.003 A 
ATOM      6  C4  PXY d   1      -4.414  -1.488  -4.120  0.00  0.00    -0.082 A 
ATOM      7  C5  PXY d   1      -4.994  -0.542  -4.889  0.00  0.00     0.003 A 
ATOM      8  C6  PXY d   1      -4.194   0.409  -5.514  0.00  0.00     0.003 A 
ENDROOT
TORSDOF 0
ENDMDL
