MODEL 1
REMARK minimizedAffinity 11.9610176
REMARK minimizedRMSD -1
REMARK  0 active torsions:
REMARK  status: ('A' for Active; 'I' for Inactive)
ROOT
ATOM      1  C4' PXY d   1       5.972   0.753  -5.275  0.00  0.00     0.077 C 
ATOM      2  C1' PXY d   1       3.498   5.976  -5.414  0.00  0.00     0.077 C 
ATOM      3  C1  PXY d   1       4.140   4.603  -5.367  0.00  0.00    -0.082 A 
ATOM      4  C2  PXY d   1       5.291   4.398  -5.986  0.00  0.00     0.003 A 
ATOM      5  C3  PXY d   1       5.870   3.155  -5.980  0.00  0.00     0.003 A 
ATOM      6  C4  PXY d   1       5.291   2.125  -5.289  0.00  0.00    -0.082 A 
ATOM      7  C5  PXY d   1       4.122   2.329  -4.645  0.00  0.00     0.003 A 
ATOM      8  C6  PXY d   1       3.530   3.587  -4.698  0.00  0.00     0.003 A 
ENDROOT
TORSDOF 0
ENDMDL
