MODEL 1
REMARK minimizedAffinity 11.6820869
REMARK minimizedRMSD -1
REMARK  0 active torsions:
REMARK  status: ('A' for Active; 'I' for Inactive)
ROOT
ATOM      1  C4' PXY d   1       2.296  -2.740  -0.137  0.00  0.00     0.077 C 
ATOM      2  C1' PXY d   1       4.000   2.237   2.259  0.00  0.00     0.077 C 
ATOM      3  C1  PXY d   1       3.546   0.929   1.641  0.00  0.00    -0.082 A 
ATOM      4  C2  PXY d   1       4.286   0.356   0.706  0.00  0.00     0.003 A 
ATOM      5  C3  PXY d   1       3.874  -0.810   0.114  0.00  0.00     0.003 A 
ATOM      6  C4  PXY d   1       2.720  -1.424   0.521  0.00  0.00    -0.082 A 
ATOM      7  C5  PXY d   1       1.965  -0.851   1.483  0.00  0.00     0.003 A 
ATOM      8  C6  PXY d   1       2.380   0.354   2.042  0.00  0.00     0.003 A 
ENDROOT
TORSDOF 0
ENDMDL
