MODEL 1
REMARK minimizedAffinity 15.8207874
REMARK minimizedRMSD -1
REMARK  0 active torsions:
REMARK  status: ('A' for Active; 'I' for Inactive)
ROOT
ATOM      1  C4' PXY d   1      -0.028   3.795  -4.784  0.00  0.00     0.077 C 
ATOM      2  C1' PXY d   1       5.319   5.772  -5.745  0.00  0.00     0.077 C 
ATOM      3  C1  PXY d   1       3.912   5.266  -5.494  0.00  0.00    -0.082 A 
ATOM      4  C2  PXY d   1       3.734   4.105  -4.884  0.00  0.00     0.003 A 
ATOM      5  C3  PXY d   1       2.469   3.617  -4.677  0.00  0.00     0.003 A 
ATOM      6  C4  PXY d   1       1.374   4.350  -5.050  0.00  0.00    -0.082 A 
ATOM      7  C5  PXY d   1       1.548   5.540  -5.663  0.00  0.00     0.003 A 
ATOM      8  C6  PXY d   1       2.840   5.999  -5.901  0.00  0.00     0.003 A 
ENDROOT
TORSDOF 0
ENDMDL
