MODEL 1
REMARK minimizedAffinity 14.2725449
REMARK minimizedRMSD -1
REMARK  0 active torsions:
REMARK  status: ('A' for Active; 'I' for Inactive)
ROOT
ATOM      1  C4' PXY d   1       5.988  -3.856   6.000  0.00  0.00     0.077 C 
ATOM      2  C1' PXY d   1       4.509  -5.146   0.563  0.00  0.00     0.077 C 
ATOM      3  C1  PXY d   1       4.886  -4.815   1.993  0.00  0.00    -0.082 A 
ATOM      4  C2  PXY d   1       5.622  -3.744   2.244  0.00  0.00     0.003 A 
ATOM      5  C3  PXY d   1       5.999  -3.447   3.528  0.00  0.00     0.003 A 
ATOM      6  C4  PXY d   1       5.575  -4.224   4.572  0.00  0.00    -0.082 A 
ATOM      7  C5  PXY d   1       4.815  -5.312   4.326  0.00  0.00     0.003 A 
ATOM      8  C6  PXY d   1       4.477  -5.620   3.011  0.00  0.00     0.003 A 
ENDROOT
TORSDOF 0
ENDMDL
