MODEL 1
REMARK minimizedAffinity 5.79009008
REMARK minimizedRMSD -1
REMARK  0 active torsions:
REMARK  status: ('A' for Active; 'I' for Inactive)
ROOT
ATOM      1  C4' PXY d   1       5.984   1.171  -5.201  0.00  0.00     0.077 C 
ATOM      2  C1' PXY d   1       2.894   5.999  -5.948  0.00  0.00     0.077 C 
ATOM      3  C1  PXY d   1       3.713   4.737  -5.760  0.00  0.00    -0.082 A 
ATOM      4  C2  PXY d   1       3.120   3.626  -5.356  0.00  0.00     0.003 A 
ATOM      5  C3  PXY d   1       3.851   2.485  -5.150  0.00  0.00     0.003 A 
ATOM      6  C4  PXY d   1       5.194   2.466  -5.413  0.00  0.00    -0.082 A 
ATOM      7  C5  PXY d   1       5.805   3.593  -5.836  0.00  0.00     0.003 A 
ATOM      8  C6  PXY d   1       5.053   4.752  -5.999  0.00  0.00     0.003 A 
ENDROOT
TORSDOF 0
ENDMDL
