MODEL 1
REMARK minimizedAffinity 10.5351543
REMARK minimizedRMSD -1
REMARK  0 active torsions:
REMARK  status: ('A' for Active; 'I' for Inactive)
ROOT
ATOM      1  C4' PXY d   1       4.873  -4.696   3.940  0.00  0.00     0.077 C 
ATOM      2  C1' PXY d   1       5.033  -5.508  -1.781  0.00  0.00     0.077 C 
ATOM      3  C1  PXY d   1       4.986  -5.283  -0.282  0.00  0.00    -0.082 A 
ATOM      4  C2  PXY d   1       5.766  -6.000   0.511  0.00  0.00     0.003 A 
ATOM      5  C3  PXY d   1       5.713  -5.832   1.871  0.00  0.00     0.003 A 
ATOM      6  C4  PXY d   1       4.894  -4.883   2.421  0.00  0.00    -0.082 A 
ATOM      7  C5  PXY d   1       4.103  -4.140   1.617  0.00  0.00     0.003 A 
ATOM      8  C6  PXY d   1       4.141  -4.355   0.242  0.00  0.00     0.003 A 
ENDROOT
TORSDOF 0
ENDMDL
