MODEL 1
REMARK minimizedAffinity 7.2794013
REMARK minimizedRMSD -1
REMARK  0 active torsions:
REMARK  status: ('A' for Active; 'I' for Inactive)
ROOT
ATOM      1  C4' PXY d   1      -5.999   3.385  -5.795  0.00  0.00     0.077 C 
ATOM      2  C1' PXY d   1      -2.685   0.594  -1.968  0.00  0.00     0.077 C 
ATOM      3  C1  PXY d   1      -3.557   1.314  -2.978  0.00  0.00    -0.082 A 
ATOM      4  C2  PXY d   1      -3.338   2.593  -3.237  0.00  0.00     0.003 A 
ATOM      5  C3  PXY d   1      -4.137   3.268  -4.123  0.00  0.00     0.003 A 
ATOM      6  C4  PXY d   1      -5.138   2.615  -4.791  0.00  0.00    -0.082 A 
ATOM      7  C5  PXY d   1      -5.361   1.307  -4.540  0.00  0.00     0.003 A 
ATOM      8  C6  PXY d   1      -4.565   0.650  -3.606  0.00  0.00     0.003 A 
ENDROOT
TORSDOF 0
ENDMDL
