MODEL 1
REMARK minimizedAffinity 13.8331213
REMARK minimizedRMSD -1
REMARK  0 active torsions:
REMARK  status: ('A' for Active; 'I' for Inactive)
ROOT
ATOM      1  C4' PXY d   1       5.781   5.069  -5.668  0.00  0.00     0.077 C 
ATOM      2  C1' PXY d   1       0.029   4.506  -5.556  0.00  0.00     0.077 C 
ATOM      3  C1  PXY d   1       1.536   4.663  -5.594  0.00  0.00    -0.082 A 
ATOM      4  C2  PXY d   1       2.309   3.638  -5.274  0.00  0.00     0.003 A 
ATOM      5  C3  PXY d   1       3.674   3.773  -5.272  0.00  0.00     0.003 A 
ATOM      6  C4  PXY d   1       4.254   4.953  -5.653  0.00  0.00    -0.082 A 
ATOM      7  C5  PXY d   1       3.473   6.000  -5.991  0.00  0.00     0.003 A 
ATOM      8  C6  PXY d   1       2.089   5.855  -5.947  0.00  0.00     0.003 A 
ENDROOT
TORSDOF 0
ENDMDL
