MODEL 1
REMARK minimizedAffinity 8.33282852
REMARK minimizedRMSD -1
REMARK  0 active torsions:
REMARK  status: ('A' for Active; 'I' for Inactive)
ROOT
ATOM      1  C4' PXY d   1       5.961   1.512  -5.543  0.00  0.00     0.077 C 
ATOM      2  C1' PXY d   1       2.323   6.000  -5.361  0.00  0.00     0.077 C 
ATOM      3  C1  PXY d   1       3.271   4.817  -5.399  0.00  0.00    -0.082 A 
ATOM      4  C2  PXY d   1       4.475   4.961  -5.928  0.00  0.00     0.003 A 
ATOM      5  C3  PXY d   1       5.333   3.894  -5.999  0.00  0.00     0.003 A 
ATOM      6  C4  PXY d   1       4.975   2.680  -5.475  0.00  0.00    -0.082 A 
ATOM      7  C5  PXY d   1       3.752   2.529  -4.924  0.00  0.00     0.003 A 
ATOM      8  C6  PXY d   1       2.880   3.614  -4.899  0.00  0.00     0.003 A 
ENDROOT
TORSDOF 0
ENDMDL
