MODEL 1
REMARK minimizedAffinity 7.58535576
REMARK minimizedRMSD -1
REMARK  0 active torsions:
REMARK  status: ('A' for Active; 'I' for Inactive)
ROOT
ATOM      1  C4' PXY d   1       5.073   5.914  -5.996  0.00  0.00     0.077 C 
ATOM      2  C1' PXY d   1      -0.070   3.743  -4.496  0.00  0.00     0.077 C 
ATOM      3  C1  PXY d   1       1.273   4.319  -4.899  0.00  0.00    -0.082 A 
ATOM      4  C2  PXY d   1       2.385   3.698  -4.540  0.00  0.00     0.003 A 
ATOM      5  C3  PXY d   1       3.609   4.222  -4.869  0.00  0.00     0.003 A 
ATOM      6  C4  PXY d   1       3.695   5.364  -5.619  0.00  0.00    -0.082 A 
ATOM      7  C5  PXY d   1       2.565   5.997  -5.998  0.00  0.00     0.003 A 
ATOM      8  C6  PXY d   1       1.333   5.472  -5.619  0.00  0.00     0.003 A 
ENDROOT
TORSDOF 0
ENDMDL
