MODEL 1
REMARK minimizedAffinity 0.893934429
REMARK minimizedRMSD -1
REMARK  1 active torsions:
REMARK  status: ('A' for Active; 'I' for Inactive)
REMARK    1  A    between atoms: C1_2  and  C2_3 
ROOT
ATOM      1  C2  UNL d   1       1.375   1.201  -0.553  0.00  0.00    -0.081 A 
ATOM      2  C3  UNL d   1       0.259   1.196   0.293  0.00  0.00     0.006 A 
ATOM      3  C4  UNL d   1       0.119   2.167   1.286  0.00  0.00     0.002 A 
ATOM      4  C5  UNL d   1       1.087   3.164   1.446  0.00  0.00    -0.080 A 
ATOM      5  C6  UNL d   1       0.934   4.231   2.489  0.00  0.00     0.076 C 
ATOM      6  C7  UNL d   1       2.211   3.159   0.613  0.00  0.00     0.002 A 
ATOM      7  C8  UNL d   1       2.352   2.187  -0.381  0.00  0.00     0.006 A 
ENDROOT
BRANCH   1   8
ATOM      8  C1  UNL d   1       1.496   0.193  -1.667  0.00  0.00     0.054 C 
ATOM      9  C   UNL d   1       0.178   0.026  -2.409  0.00  0.00     0.018 C 
ENDBRANCH   1   8
TORSDOF 1
ENDMDL
