MODEL 1
REMARK minimizedAffinity 4.4069562
REMARK minimizedRMSD -1
REMARK  1 active torsions:
REMARK  status: ('A' for Active; 'I' for Inactive)
REMARK    1  A    between atoms: C1_2  and  C2_3 
ROOT
ATOM      1  C2  UNL d   1      -0.553  -0.312   0.558  0.00  0.00    -0.081 A 
ATOM      2  C3  UNL d   1      -0.901  -1.345  -0.321  0.00  0.00     0.006 A 
ATOM      3  C4  UNL d   1      -0.496  -1.304  -1.657  0.00  0.00     0.002 A 
ATOM      4  C5  UNL d   1       0.270  -0.235  -2.134  0.00  0.00    -0.080 A 
ATOM      5  C6  UNL d   1       0.737  -0.194  -3.559  0.00  0.00     0.076 C 
ATOM      6  C7  UNL d   1       0.603   0.805  -1.261  0.00  0.00     0.002 A 
ATOM      7  C8  UNL d   1       0.198   0.766   0.075  0.00  0.00     0.006 A 
ENDROOT
BRANCH   1   8
ATOM      8  C1  UNL d   1      -0.933  -0.385   2.015  0.00  0.00     0.054 C 
ATOM      9  C   UNL d   1      -1.037  -1.827   2.489  0.00  0.00     0.018 C 
ENDBRANCH   1   8
TORSDOF 1
ENDMDL
