MODEL 1
REMARK minimizedAffinity -0.0916491225
REMARK minimizedRMSD -1
REMARK  1 active torsions:
REMARK  status: ('A' for Active; 'I' for Inactive)
REMARK    1  A    between atoms: C1_2  and  C2_3 
ROOT
ATOM      1  C2  UNL d   1       0.821   1.999   0.480  0.00  0.00    -0.081 A 
ATOM      2  C3  UNL d   1       1.943   2.557   1.104  0.00  0.00     0.006 A 
ATOM      3  C4  UNL d   1       1.839   3.762   1.803  0.00  0.00     0.002 A 
ATOM      4  C5  UNL d   1       0.611   4.424   1.896  0.00  0.00    -0.080 A 
ATOM      5  C6  UNL d   1       0.479   5.703   2.669  0.00  0.00     0.076 C 
ATOM      6  C7  UNL d   1      -0.507   3.876   1.258  0.00  0.00     0.002 A 
ATOM      7  C8  UNL d   1      -0.404   2.672   0.558  0.00  0.00     0.006 A 
ENDROOT
BRANCH   1   8
ATOM      8  C1  UNL d   1       0.915   0.667  -0.220  0.00  0.00     0.054 C 
ATOM      9  C   UNL d   1      -0.445  -0.009  -0.308  0.00  0.00     0.018 C 
ENDBRANCH   1   8
TORSDOF 1
ENDMDL
