MODEL 1
REMARK minimizedAffinity 6.75604916
REMARK minimizedRMSD -1
REMARK  1 active torsions:
REMARK  status: ('A' for Active; 'I' for Inactive)
REMARK    1  A    between atoms: C1_2  and  C2_3 
ROOT
ATOM      1  C2  UNL d   1       0.198   0.789   0.500  0.00  0.00    -0.081 A 
ATOM      2  C3  UNL d   1       1.522   0.773   0.045  0.00  0.00     0.006 A 
ATOM      3  C4  UNL d   1       2.395   1.815   0.370  0.00  0.00     0.002 A 
ATOM      4  C5  UNL d   1       1.960   2.884   1.160  0.00  0.00    -0.080 A 
ATOM      5  C6  UNL d   1       2.895   3.994   1.541  0.00  0.00     0.076 C 
ATOM      6  C7  UNL d   1       0.633   2.909   1.601  0.00  0.00     0.002 A 
ATOM      7  C8  UNL d   1      -0.240   1.868   1.276  0.00  0.00     0.006 A 
ENDROOT
BRANCH   1   8
ATOM      8  C1  UNL d   1      -0.727  -0.365   0.207  0.00  0.00     0.054 C 
ATOM      9  C   UNL d   1      -1.671  -0.628   1.371  0.00  0.00     0.018 C 
ENDBRANCH   1   8
TORSDOF 1
ENDMDL
