MODEL 1
REMARK minimizedAffinity 0.343914509
REMARK minimizedRMSD -1
REMARK  1 active torsions:
REMARK  status: ('A' for Active; 'I' for Inactive)
REMARK    1  A    between atoms: C1_2  and  C2_3 
ROOT
ATOM      1  C2  UNL d   1       0.963   0.920  -0.515  0.00  0.00    -0.081 A 
ATOM      2  C3  UNL d   1       2.358   1.029  -0.570  0.00  0.00     0.006 A 
ATOM      3  C4  UNL d   1       3.013   2.069   0.095  0.00  0.00     0.002 A 
ATOM      4  C5  UNL d   1       2.286   3.011   0.830  0.00  0.00    -0.080 A 
ATOM      5  C6  UNL d   1       2.980   4.114   1.573  0.00  0.00     0.076 C 
ATOM      6  C7  UNL d   1       0.891   2.912   0.870  0.00  0.00     0.002 A 
ATOM      7  C8  UNL d   1       0.235   1.873   0.206  0.00  0.00     0.006 A 
ENDROOT
BRANCH   1   8
ATOM      8  C1  UNL d   1       0.258  -0.236  -1.177  0.00  0.00     0.054 C 
ATOM      9  C   UNL d   1       0.616  -0.331  -2.653  0.00  0.00     0.018 C 
ENDBRANCH   1   8
TORSDOF 1
ENDMDL
