MODEL 1
REMARK minimizedAffinity -4.75923347
REMARK minimizedRMSD -1
REMARK  1 active torsions:
REMARK  status: ('A' for Active; 'I' for Inactive)
REMARK    1  A    between atoms: C1_2  and  C2_3 
ROOT
ATOM      1  C2  UNL d   1       1.978   0.771  -0.941  0.00  0.00    -0.081 A 
ATOM      2  C3  UNL d   1       0.744   1.026  -0.331  0.00  0.00     0.006 A 
ATOM      3  C4  UNL d   1       0.601   2.097   0.555  0.00  0.00     0.002 A 
ATOM      4  C5  UNL d   1       1.686   2.933   0.839  0.00  0.00    -0.080 A 
ATOM      5  C6  UNL d   1       1.537   4.104   1.765  0.00  0.00     0.076 C 
ATOM      6  C7  UNL d   1       2.923   2.667   0.243  0.00  0.00     0.002 A 
ATOM      7  C8  UNL d   1       3.067   1.597  -0.643  0.00  0.00     0.006 A 
ENDROOT
BRANCH   1   8
ATOM      8  C1  UNL d   1       2.120  -0.344  -1.947  0.00  0.00     0.054 C 
ATOM      9  C   UNL d   1       0.999  -0.305  -2.976  0.00  0.00     0.018 C 
ENDBRANCH   1   8
TORSDOF 1
ENDMDL
