MODEL 1
REMARK minimizedAffinity -4.38089943
REMARK minimizedRMSD -1
REMARK  1 active torsions:
REMARK  status: ('A' for Active; 'I' for Inactive)
REMARK    1  A    between atoms: C1_2  and  C2_3 
ROOT
ATOM      1  C2  UNL d   1      -0.929  -1.994  -0.167  0.00  0.00    -0.081 A 
ATOM      2  C3  UNL d   1      -0.420  -1.601  -1.411  0.00  0.00     0.006 A 
ATOM      3  C4  UNL d   1       0.052  -0.301  -1.604  0.00  0.00     0.002 A 
ATOM      4  C5  UNL d   1       0.030   0.625  -0.555  0.00  0.00    -0.080 A 
ATOM      5  C6  UNL d   1       0.562   2.016  -0.741  0.00  0.00     0.076 C 
ATOM      6  C7  UNL d   1      -0.494   0.238   0.682  0.00  0.00     0.002 A 
ATOM      7  C8  UNL d   1      -0.966  -1.062   0.876  0.00  0.00     0.006 A 
ENDROOT
BRANCH   1   8
ATOM      8  C1  UNL d   1      -1.378  -3.415   0.063  0.00  0.00     0.054 C 
ATOM      9  C   UNL d   1      -0.206  -4.383  -0.002  0.00  0.00     0.018 C 
ENDBRANCH   1   8
TORSDOF 1
ENDMDL
