MODEL 1
REMARK minimizedAffinity -5.49928284
REMARK minimizedRMSD -1
REMARK  1 active torsions:
REMARK  status: ('A' for Active; 'I' for Inactive)
REMARK    1  A    between atoms: C1_2  and  C2_3 
ROOT
ATOM      1  C2  UNL d   1      -0.084   0.923   0.454  0.00  0.00    -0.081 A 
ATOM      2  C3  UNL d   1      -0.224   0.114   1.588  0.00  0.00     0.006 A 
ATOM      3  C4  UNL d   1      -0.223  -1.278   1.469  0.00  0.00     0.002 A 
ATOM      4  C5  UNL d   1      -0.073  -1.884   0.217  0.00  0.00    -0.080 A 
ATOM      5  C6  UNL d   1      -0.039  -3.377   0.080  0.00  0.00     0.076 C 
ATOM      6  C7  UNL d   1       0.050  -1.075  -0.918  0.00  0.00     0.002 A 
ATOM      7  C8  UNL d   1       0.047   0.317  -0.800  0.00  0.00     0.006 A 
ENDROOT
BRANCH   1   8
ATOM      8  C1  UNL d   1      -0.020   2.423   0.586  0.00  0.00     0.054 C 
ATOM      9  C   UNL d   1       1.363   2.882   1.022  0.00  0.00     0.018 C 
ENDBRANCH   1   8
TORSDOF 1
ENDMDL
