MODEL 1
REMARK minimizedAffinity -4.51106167
REMARK minimizedRMSD -1
REMARK  1 active torsions:
REMARK  status: ('A' for Active; 'I' for Inactive)
REMARK    1  A    between atoms: C1_2  and  C2_3 
ROOT
ATOM      1  C2  UNL d   1      -0.266   0.476  -0.727  0.00  0.00    -0.081 A 
ATOM      2  C3  UNL d   1      -0.727  -0.239   0.385  0.00  0.00     0.006 A 
ATOM      3  C4  UNL d   1      -0.729  -1.636   0.377  0.00  0.00     0.002 A 
ATOM      4  C5  UNL d   1      -0.263  -2.340  -0.738  0.00  0.00    -0.080 A 
ATOM      5  C6  UNL d   1      -0.231  -3.840  -0.748  0.00  0.00     0.076 C 
ATOM      6  C7  UNL d   1       0.181  -1.626  -1.856  0.00  0.00     0.002 A 
ATOM      7  C8  UNL d   1       0.183  -0.229  -1.849  0.00  0.00     0.006 A 
ENDROOT
BRANCH   1   8
ATOM      8  C1  UNL d   1      -0.202   1.982  -0.697  0.00  0.00     0.054 C 
ATOM      9  C   UNL d   1       1.089   2.468  -0.054  0.00  0.00     0.018 C 
ENDBRANCH   1   8
TORSDOF 1
ENDMDL
