MODEL 1
REMARK minimizedAffinity -2.51025915
REMARK minimizedRMSD -1
REMARK  1 active torsions:
REMARK  status: ('A' for Active; 'I' for Inactive)
REMARK    1  A    between atoms: C1_2  and  C2_3 
ROOT
ATOM      1  C2  UNL d   1       0.058   1.368   0.194  0.00  0.00    -0.081 A 
ATOM      2  C3  UNL d   1      -0.299   0.681   1.361  0.00  0.00     0.006 A 
ATOM      3  C4  UNL d   1      -0.723  -0.649   1.298  0.00  0.00     0.002 A 
ATOM      4  C5  UNL d   1      -0.789  -1.315   0.069  0.00  0.00    -0.080 A 
ATOM      5  C6  UNL d   1      -1.213  -2.751  -0.009  0.00  0.00     0.076 C 
ATOM      6  C7  UNL d   1      -0.449  -0.623  -1.098  0.00  0.00     0.002 A 
ATOM      7  C8  UNL d   1      -0.026   0.707  -1.036  0.00  0.00     0.006 A 
ENDROOT
BRANCH   1   8
ATOM      8  C1  UNL d   1       0.577   2.782   0.266  0.00  0.00     0.054 C 
ATOM      9  C   UNL d   1       2.042   2.813   0.677  0.00  0.00     0.018 C 
ENDBRANCH   1   8
TORSDOF 1
ENDMDL
