MODEL 1
REMARK minimizedAffinity -3.01243949
REMARK minimizedRMSD -1
REMARK  0 active torsions:
REMARK  status: ('A' for Active; 'I' for Inactive)
ROOT
ATOM      1  C1  DEN d   1       1.013   0.725  -0.736  0.00  0.00     0.130 A 
ATOM      2  C2  DEN d   1       2.470   0.638  -0.767  0.00  0.00    -0.031 A 
ATOM      3  C3  DEN d   1       2.871  -0.577  -0.030  0.00  0.00     0.027 A 
ATOM      4  C4  DEN d   1       1.384  -2.327   1.144  0.00  0.00     0.027 A 
ATOM      5  C5  DEN d   1       0.087  -2.674   1.450  0.00  0.00    -0.003 A 
ATOM      6  C6  DEN d   1      -0.982  -1.902   1.080  0.00  0.00     0.001 A 
ATOM      7  C7  DEN d   1      -0.776  -0.765   0.344  0.00  0.00     0.017 A 
ATOM      8  C8  DEN d   1       0.530  -0.404   0.039  0.00  0.00    -0.094 A 
ATOM      9  C9  DEN d   1       1.597  -1.205   0.411  0.00  0.00    -0.072 A 
ENDROOT
TORSDOF 0
ENDMDL
