MODEL 1
REMARK minimizedAffinity -1.22128713
REMARK minimizedRMSD -1
REMARK  0 active torsions:
REMARK  status: ('A' for Active; 'I' for Inactive)
ROOT
ATOM      1  C1  DEN d   1      -1.022   4.301  -5.370  0.00  0.00     0.130 A 
ATOM      2  C2  DEN d   1      -0.148   5.277  -4.724  0.00  0.00    -0.031 A 
ATOM      3  C3  DEN d   1      -0.248   5.082  -3.263  0.00  0.00     0.027 A 
ATOM      4  C4  DEN d   1      -1.660   3.372  -1.946  0.00  0.00     0.027 A 
ATOM      5  C5  DEN d   1      -2.569   2.343  -2.059  0.00  0.00    -0.003 A 
ATOM      6  C6  DEN d   1      -3.048   1.921  -3.270  0.00  0.00     0.001 A 
ATOM      7  C7  DEN d   1      -2.586   2.501  -4.422  0.00  0.00     0.017 A 
ATOM      8  C8  DEN d   1      -1.675   3.543  -4.317  0.00  0.00    -0.094 A 
ATOM      9  C9  DEN d   1      -1.193   3.947  -3.083  0.00  0.00    -0.072 A 
ENDROOT
TORSDOF 0
ENDMDL
