MODEL 1
REMARK minimizedAffinity -3.56000853
REMARK minimizedRMSD -1
REMARK  0 active torsions:
REMARK  status: ('A' for Active; 'I' for Inactive)
ROOT
ATOM      1  C1  DEN d   1      -0.997   0.469   0.677  0.00  0.00     0.130 A 
ATOM      2  C2  DEN d   1      -0.695   1.562  -0.244  0.00  0.00    -0.031 A 
ATOM      3  C3  DEN d   1       0.571   1.241  -0.933  0.00  0.00     0.027 A 
ATOM      4  C4  DEN d   1       2.082  -0.832  -0.669  0.00  0.00     0.027 A 
ATOM      5  C5  DEN d   1       2.245  -2.024   0.002  0.00  0.00    -0.003 A 
ATOM      6  C6  DEN d   1       1.364  -2.449   0.961  0.00  0.00     0.001 A 
ATOM      7  C7  DEN d   1       0.255  -1.697   1.245  0.00  0.00     0.017 A 
ATOM      8  C8  DEN d   1       0.088  -0.490   0.578  0.00  0.00    -0.094 A 
ATOM      9  C9  DEN d   1       0.983  -0.084  -0.397  0.00  0.00    -0.072 A 
ENDROOT
TORSDOF 0
ENDMDL
