MODEL 1
REMARK minimizedAffinity -5.61967039
REMARK minimizedRMSD -1
REMARK  0 active torsions:
REMARK  status: ('A' for Active; 'I' for Inactive)
ROOT
ATOM      1  C1  DEN d   1       1.166   0.746  -0.585  0.00  0.00     0.130 A 
ATOM      2  C2  DEN d   1      -0.137   1.378  -0.774  0.00  0.00    -0.031 A 
ATOM      3  C3  DEN d   1      -1.139   0.592  -0.027  0.00  0.00     0.027 A 
ATOM      4  C4  DEN d   1      -0.800  -1.530   1.401  0.00  0.00     0.027 A 
ATOM      5  C5  DEN d   1       0.126  -2.445   1.849  0.00  0.00    -0.003 A 
ATOM      6  C6  DEN d   1       1.447  -2.382   1.492  0.00  0.00     0.001 A 
ATOM      7  C7  DEN d   1       1.888  -1.355   0.700  0.00  0.00     0.017 A 
ATOM      8  C8  DEN d   1       0.958  -0.432   0.238  0.00  0.00    -0.094 A 
ATOM      9  C9  DEN d   1      -0.371  -0.506   0.620  0.00  0.00    -0.072 A 
ENDROOT
TORSDOF 0
ENDMDL
