MODEL 1
REMARK minimizedAffinity -5.08127308
REMARK minimizedRMSD -1
REMARK  0 active torsions:
REMARK  status: ('A' for Active; 'I' for Inactive)
ROOT
ATOM      1  C1  DEN d   1      -0.930   0.712  -0.162  0.00  0.00     0.130 A 
ATOM      2  C2  DEN d   1       0.075   1.647  -0.660  0.00  0.00    -0.031 A 
ATOM      3  C3  DEN d   1       1.408   1.101  -0.333  0.00  0.00     0.027 A 
ATOM      4  C4  DEN d   1       2.010  -1.091   0.885  0.00  0.00     0.027 A 
ATOM      5  C5  DEN d   1       1.495  -2.208   1.506  0.00  0.00    -0.003 A 
ATOM      6  C6  DEN d   1       0.148  -2.412   1.643  0.00  0.00     0.001 A 
ATOM      7  C7  DEN d   1      -0.733  -1.506   1.113  0.00  0.00     0.017 A 
ATOM      8  C8  DEN d   1      -0.222  -0.374   0.492  0.00  0.00    -0.094 A 
ATOM      9  C9  DEN d   1       1.143  -0.192   0.353  0.00  0.00    -0.072 A 
ENDROOT
TORSDOF 0
ENDMDL
