MODEL 1
REMARK minimizedAffinity 1.03825486
REMARK minimizedRMSD -1
REMARK  0 active torsions:
REMARK  status: ('A' for Active; 'I' for Inactive)
ROOT
ATOM      1  C1  DEN d   1       2.897  -1.273   1.347  0.00  0.00     0.130 A 
ATOM      2  C2  DEN d   1       2.560  -2.623   1.791  0.00  0.00    -0.031 A 
ATOM      3  C3  DEN d   1       1.127  -2.849   1.515  0.00  0.00     0.027 A 
ATOM      4  C4  DEN d   1      -0.592  -1.251   0.446  0.00  0.00     0.027 A 
ATOM      5  C5  DEN d   1      -0.777   0.007  -0.083  0.00  0.00    -0.003 A 
ATOM      6  C6  DEN d   1       0.232   0.931  -0.141  0.00  0.00     0.001 A 
ATOM      7  C7  DEN d   1       1.486   0.595   0.297  0.00  0.00     0.017 A 
ATOM      8  C8  DEN d   1       1.679  -0.670   0.839  0.00  0.00    -0.094 A 
ATOM      9  C9  DEN d   1       0.648  -1.594   0.877  0.00  0.00    -0.072 A 
ENDROOT
TORSDOF 0
ENDMDL
