MODEL 1
REMARK minimizedAffinity -0.246646613
REMARK minimizedRMSD -1
REMARK  0 active torsions:
REMARK  status: ('A' for Active; 'I' for Inactive)
ROOT
ATOM      1  C1  DEN d   1       0.298  -2.526   0.814  0.00  0.00     0.130 A 
ATOM      2  C2  DEN d   1       1.700  -2.841   1.075  0.00  0.00    -0.031 A 
ATOM      3  C3  DEN d   1       2.497  -1.627   0.812  0.00  0.00     0.027 A 
ATOM      4  C4  DEN d   1       1.701   0.700   0.033  0.00  0.00     0.027 A 
ATOM      5  C5  DEN d   1       0.602   1.446  -0.331  0.00  0.00    -0.003 A 
ATOM      6  C6  DEN d   1      -0.660   0.916  -0.372  0.00  0.00     0.001 A 
ATOM      7  C7  DEN d   1      -0.861  -0.387   0.001  0.00  0.00     0.017 A 
ATOM      8  C8  DEN d   1       0.243  -1.148   0.362  0.00  0.00    -0.094 A 
ATOM      9  C9  DEN d   1       1.509  -0.590   0.409  0.00  0.00    -0.072 A 
ENDROOT
TORSDOF 0
ENDMDL
