MODEL 1
REMARK minimizedAffinity -3.02361059
REMARK minimizedRMSD -1
REMARK  0 active torsions:
REMARK  status: ('A' for Active; 'I' for Inactive)
ROOT
ATOM      1  C1  DEN d   1      -0.191   4.010  -2.843  0.00  0.00     0.130 A 
ATOM      2  C2  DEN d   1      -0.520   4.747  -4.060  0.00  0.00    -0.031 A 
ATOM      3  C3  DEN d   1      -1.721   4.129  -4.657  0.00  0.00     0.027 A 
ATOM      4  C4  DEN d   1      -3.098   2.116  -3.817  0.00  0.00     0.027 A 
ATOM      5  C5  DEN d   1      -3.198   1.157  -2.834  0.00  0.00    -0.003 A 
ATOM      6  C6  DEN d   1      -2.291   1.061  -1.812  0.00  0.00     0.001 A 
ATOM      7  C7  DEN d   1      -1.269   1.968  -1.725  0.00  0.00     0.017 A 
ATOM      8  C8  DEN d   1      -1.156   2.934  -2.717  0.00  0.00    -0.094 A 
ATOM      9  C9  DEN d   1      -2.090   3.022  -3.735  0.00  0.00    -0.072 A 
ENDROOT
TORSDOF 0
ENDMDL
