MODEL 1
REMARK minimizedAffinity -4.44408226
REMARK minimizedRMSD -1
REMARK  0 active torsions:
REMARK  status: ('A' for Active; 'I' for Inactive)
ROOT
ATOM      1  C1  DEN d   1      -0.480  -1.656   0.618  0.00  0.00     0.130 A 
ATOM      2  C2  DEN d   1       0.717  -2.444   0.898  0.00  0.00    -0.031 A 
ATOM      3  C3  DEN d   1       1.895  -1.588   0.653  0.00  0.00     0.027 A 
ATOM      4  C4  DEN d   1       1.982   0.870  -0.124  0.00  0.00     0.027 A 
ATOM      5  C5  DEN d   1       1.222   1.955  -0.500  0.00  0.00    -0.003 A 
ATOM      6  C6  DEN d   1      -0.145   1.904  -0.562  0.00  0.00     0.001 A 
ATOM      7  C7  DEN d   1      -0.798   0.755  -0.199  0.00  0.00     0.017 A 
ATOM      8  C8  DEN d   1      -0.039  -0.346   0.174  0.00  0.00    -0.094 A 
ATOM      9  C9  DEN d   1       1.342  -0.270   0.242  0.00  0.00    -0.072 A 
ENDROOT
TORSDOF 0
ENDMDL
