MODEL 1
REMARK minimizedAffinity -4.86453819
REMARK minimizedRMSD -1
REMARK  0 active torsions:
REMARK  status: ('A' for Active; 'I' for Inactive)
ROOT
ATOM      1  C1  DEN d   1       1.510   0.541  -0.809  0.00  0.00     0.130 A 
ATOM      2  C2  DEN d   1       0.353   1.428  -0.882  0.00  0.00    -0.031 A 
ATOM      3  C3  DEN d   1      -0.731   0.832  -0.075  0.00  0.00     0.027 A 
ATOM      4  C4  DEN d   1      -0.728  -1.365   1.276  0.00  0.00     0.027 A 
ATOM      5  C5  DEN d   1       0.023  -2.464   1.630  0.00  0.00    -0.003 A 
ATOM      6  C6  DEN d   1       1.300  -2.654   1.172  0.00  0.00     0.001 A 
ATOM      7  C7  DEN d   1       1.881  -1.708   0.370  0.00  0.00     0.017 A 
ATOM      8  C8  DEN d   1       1.128  -0.601   0.003  0.00  0.00    -0.094 A 
ATOM      9  C9  DEN d   1      -0.158  -0.421   0.486  0.00  0.00    -0.072 A 
ENDROOT
TORSDOF 0
ENDMDL
