MODEL 1
REMARK minimizedAffinity -3.86420941
REMARK minimizedRMSD -1
REMARK  0 active torsions:
REMARK  status: ('A' for Active; 'I' for Inactive)
ROOT
ATOM      1  C1  DEN d   1       0.365   1.241  -1.246  0.00  0.00     0.130 A 
ATOM      2  C2  DEN d   1      -1.095   1.283  -1.272  0.00  0.00    -0.031 A 
ATOM      3  C3  DEN d   1      -1.598   0.210  -0.391  0.00  0.00     0.027 A 
ATOM      4  C4  DEN d   1      -0.267  -1.501   1.006  0.00  0.00     0.027 A 
ATOM      5  C5  DEN d   1       0.996  -1.937   1.341  0.00  0.00    -0.003 A 
ATOM      6  C6  DEN d   1       2.127  -1.371   0.815  0.00  0.00     0.001 A 
ATOM      7  C7  DEN d   1       2.019  -0.306  -0.040  0.00  0.00     0.017 A 
ATOM      8  C8  DEN d   1       0.749   0.134  -0.388  0.00  0.00    -0.094 A 
ATOM      9  C9  DEN d   1      -0.382  -0.443   0.164  0.00  0.00    -0.072 A 
ENDROOT
TORSDOF 0
ENDMDL
