MODEL 1
REMARK minimizedAffinity -3.13969779
REMARK minimizedRMSD -1
REMARK  0 active torsions:
REMARK  status: ('A' for Active; 'I' for Inactive)
ROOT
ATOM      1  C1  DEN d   1      -1.398   0.265  -0.589  0.00  0.00     0.130 A 
ATOM      2  C2  DEN d   1      -0.564   1.453  -0.752  0.00  0.00    -0.031 A 
ATOM      3  C3  DEN d   1       0.815   1.099  -0.362  0.00  0.00     0.027 A 
ATOM      4  C4  DEN d   1       1.738  -1.162   0.469  0.00  0.00     0.027 A 
ATOM      5  C5  DEN d   1       1.408  -2.462   0.782  0.00  0.00    -0.003 A 
ATOM      6  C6  DEN d   1       0.124  -2.931   0.692  0.00  0.00     0.001 A 
ATOM      7  C7  DEN d   1      -0.870  -2.106   0.237  0.00  0.00     0.017 A 
ATOM      8  C8  DEN d   1      -0.547  -0.792  -0.073  0.00  0.00    -0.094 A 
ATOM      9  C9  DEN d   1       0.759  -0.340   0.012  0.00  0.00    -0.072 A 
ENDROOT
TORSDOF 0
ENDMDL
