MODEL 1
REMARK minimizedAffinity -1.28830373
REMARK minimizedRMSD -1
REMARK  0 active torsions:
REMARK  status: ('A' for Active; 'I' for Inactive)
ROOT
ATOM      1  C1  DEN d   1       1.224   0.981   0.091  0.00  0.00     0.130 A 
ATOM      2  C2  DEN d   1      -0.067   1.502  -0.352  0.00  0.00    -0.031 A 
ATOM      3  C3  DEN d   1      -1.097   0.490  -0.046  0.00  0.00     0.027 A 
ATOM      4  C4  DEN d   1      -0.823  -1.820   1.069  0.00  0.00     0.027 A 
ATOM      5  C5  DEN d   1       0.084  -2.705   1.608  0.00  0.00    -0.003 A 
ATOM      6  C6  DEN d   1       1.428  -2.441   1.648  0.00  0.00     0.001 A 
ATOM      7  C7  DEN d   1       1.898  -1.242   1.180  0.00  0.00     0.017 A 
ATOM      8  C8  DEN d   1       0.990  -0.347   0.629  0.00  0.00    -0.094 A 
ATOM      9  C9  DEN d   1      -0.365  -0.628   0.609  0.00  0.00    -0.072 A 
ENDROOT
TORSDOF 0
ENDMDL
