MODEL 1
REMARK minimizedAffinity -3.09650779
REMARK minimizedRMSD -1
REMARK  0 active torsions:
REMARK  status: ('A' for Active; 'I' for Inactive)
ROOT
ATOM      1  C1  DEN d   1       0.311  -2.891   0.768  0.00  0.00     0.130 A 
ATOM      2  C2  DEN d   1       1.725  -3.078   1.083  0.00  0.00    -0.031 A 
ATOM      3  C3  DEN d   1       2.429  -1.813   0.790  0.00  0.00     0.027 A 
ATOM      4  C4  DEN d   1       1.471   0.405  -0.112  0.00  0.00     0.027 A 
ATOM      5  C5  DEN d   1       0.327   1.042  -0.540  0.00  0.00    -0.003 A 
ATOM      6  C6  DEN d   1      -0.886   0.408  -0.594  0.00  0.00     0.001 A 
ATOM      7  C7  DEN d   1      -0.992  -0.890  -0.170  0.00  0.00     0.017 A 
ATOM      8  C8  DEN d   1       0.158  -1.542   0.256  0.00  0.00    -0.094 A 
ATOM      9  C9  DEN d   1       1.373  -0.879   0.314  0.00  0.00    -0.072 A 
ENDROOT
TORSDOF 0
ENDMDL
