MODEL 1
REMARK minimizedAffinity -1.98503041
REMARK minimizedRMSD -1
REMARK  0 active torsions:
REMARK  status: ('A' for Active; 'I' for Inactive)
ROOT
ATOM      1  C1  DEN d   1       0.377  -2.649   1.195  0.00  0.00     0.130 A 
ATOM      2  C2  DEN d   1       1.837  -2.659   1.180  0.00  0.00    -0.031 A 
ATOM      3  C3  DEN d   1       2.297  -1.366   0.635  0.00  0.00     0.027 A 
ATOM      4  C4  DEN d   1       0.897   0.643  -0.177  0.00  0.00     0.027 A 
ATOM      5  C5  DEN d   1      -0.383   1.115  -0.368  0.00  0.00    -0.003 A 
ATOM      6  C6  DEN d   1      -1.490   0.359  -0.086  0.00  0.00     0.001 A 
ATOM      7  C7  DEN d   1      -1.339  -0.894   0.446  0.00  0.00     0.017 A 
ATOM      8  C8  DEN d   1      -0.051  -1.380   0.635  0.00  0.00    -0.094 A 
ATOM      9  C9  DEN d   1       1.055  -0.596   0.355  0.00  0.00    -0.072 A 
ENDROOT
TORSDOF 0
ENDMDL
