MODEL 1
REMARK minimizedAffinity -4.93408394
REMARK minimizedRMSD -1
REMARK  0 active torsions:
REMARK  status: ('A' for Active; 'I' for Inactive)
ROOT
ATOM      1  C1  DEN d   1       0.434  -2.399   0.969  0.00  0.00     0.130 A 
ATOM      2  C2  DEN d   1       1.857  -2.717   0.884  0.00  0.00    -0.031 A 
ATOM      3  C3  DEN d   1       2.555  -1.544   0.321  0.00  0.00     0.027 A 
ATOM      4  C4  DEN d   1       1.576   0.725  -0.418  0.00  0.00     0.027 A 
ATOM      5  C5  DEN d   1       0.417   1.459  -0.547  0.00  0.00    -0.003 A 
ATOM      6  C6  DEN d   1      -0.810   0.951  -0.214  0.00  0.00     0.001 A 
ATOM      7  C7  DEN d   1      -0.903  -0.312   0.307  0.00  0.00     0.017 A 
ATOM      8  C8  DEN d   1       0.259  -1.061   0.433  0.00  0.00    -0.094 A 
ATOM      9  C9  DEN d   1       1.492  -0.526   0.102  0.00  0.00    -0.072 A 
ENDROOT
TORSDOF 0
ENDMDL
