MODEL 1
REMARK minimizedAffinity -5.48551655
REMARK minimizedRMSD -1
REMARK  0 active torsions:
REMARK  status: ('A' for Active; 'I' for Inactive)
ROOT
ATOM      1  C1  DEN d   1       1.101   0.800  -0.624  0.00  0.00     0.130 A 
ATOM      2  C2  DEN d   1      -0.158   1.494  -0.369  0.00  0.00    -0.031 A 
ATOM      3  C3  DEN d   1      -0.993   0.625   0.485  0.00  0.00     0.027 A 
ATOM      4  C4  DEN d   1      -0.459  -1.713   1.435  0.00  0.00     0.027 A 
ATOM      5  C5  DEN d   1       0.482  -2.717   1.481  0.00  0.00    -0.003 A 
ATOM      6  C6  DEN d   1       1.672  -2.635   0.806  0.00  0.00     0.001 A 
ATOM      7  C7  DEN d   1       1.971  -1.505   0.093  0.00  0.00     0.017 A 
ATOM      8  C8  DEN d   1       1.024  -0.491   0.035  0.00  0.00    -0.094 A 
ATOM      9  C9  DEN d   1      -0.168  -0.588   0.734  0.00  0.00    -0.072 A 
ENDROOT
TORSDOF 0
ENDMDL
