MODEL 1
REMARK minimizedAffinity 6.15063715
REMARK minimizedRMSD -1
REMARK  0 active torsions:
REMARK  status: ('A' for Active; 'I' for Inactive)
ROOT
ATOM      1  C   UNL d   1      -4.210  -1.068   0.049  0.00  0.00    -0.002 A 
ATOM      2  C1  UNL d   1      -5.148  -1.517   0.968  0.00  0.00     0.010 A 
ATOM      3  C2  UNL d   1      -4.895  -1.434   2.338  0.00  0.00     0.041 A 
ATOM      4  C3  UNL d   1      -3.674  -0.883   2.774  0.00  0.00    -0.075 A 
ATOM      5  S   UNL d   1      -3.148  -0.680   4.404  0.00  0.00     0.015 SA
ATOM      6  C4  UNL d   1      -1.667   0.010   3.918  0.00  0.00     0.022 A 
ATOM      7  C5  UNL d   1      -1.560   0.090   2.550  0.00  0.00     0.026 A 
ATOM      8  C6  UNL d   1      -2.714  -0.423   1.868  0.00  0.00    -0.082 A 
ATOM      9  C7  UNL d   1      -2.999  -0.522   0.485  0.00  0.00     0.045 A 
ENDROOT
TORSDOF 0
ENDMDL
