MODEL 1
REMARK minimizedAffinity 0.717327833
REMARK minimizedRMSD -1
REMARK  0 active torsions:
REMARK  status: ('A' for Active; 'I' for Inactive)
ROOT
ATOM      1  C   UNL d   1      -2.929  -1.368   2.972  0.00  0.00    -0.002 A 
ATOM      2  C1  UNL d   1      -3.554  -0.382   3.723  0.00  0.00     0.010 A 
ATOM      3  C2  UNL d   1      -3.669   0.920   3.232  0.00  0.00     0.041 A 
ATOM      4  C3  UNL d   1      -3.141   1.217   1.960  0.00  0.00    -0.075 A 
ATOM      5  S   UNL d   1      -3.167   2.741   1.154  0.00  0.00     0.015 SA
ATOM      6  C4  UNL d   1      -2.349   2.120  -0.206  0.00  0.00     0.022 A 
ATOM      7  C5  UNL d   1      -2.056   0.785  -0.066  0.00  0.00     0.026 A 
ATOM      8  C6  UNL d   1      -2.508   0.242   1.184  0.00  0.00    -0.082 A 
ATOM      9  C7  UNL d   1      -2.406  -1.069   1.710  0.00  0.00     0.045 A 
ENDROOT
TORSDOF 0
ENDMDL
