MODEL 1
REMARK minimizedAffinity 6.91669464
REMARK minimizedRMSD -1
REMARK  0 active torsions:
REMARK  status: ('A' for Active; 'I' for Inactive)
ROOT
ATOM      1  C   UNL d   1       3.025   1.374   1.148  0.00  0.00    -0.002 A 
ATOM      2  C1  UNL d   1       3.574   2.568   1.595  0.00  0.00     0.010 A 
ATOM      3  C2  UNL d   1       4.503   2.576   2.637  0.00  0.00     0.041 A 
ATOM      4  C3  UNL d   1       4.878   1.352   3.225  0.00  0.00    -0.075 A 
ATOM      5  S   UNL d   1       6.000   1.118   4.514  0.00  0.00     0.015 SA
ATOM      6  C4  UNL d   1       5.779  -0.572   4.499  0.00  0.00     0.022 A 
ATOM      7  C5  UNL d   1       4.874  -0.965   3.541  0.00  0.00     0.026 A 
ATOM      8  C6  UNL d   1       4.341   0.137   2.791  0.00  0.00    -0.082 A 
ATOM      9  C7  UNL d   1       3.400   0.162   1.734  0.00  0.00     0.045 A 
ENDROOT
TORSDOF 0
ENDMDL
