MODEL 1
REMARK minimizedAffinity 5.88613081
REMARK minimizedRMSD -1
REMARK  0 active torsions:
REMARK  status: ('A' for Active; 'I' for Inactive)
ROOT
ATOM      1  C   UNL d   1      -2.464  -0.032  -0.569  0.00  0.00    -0.002 A 
ATOM      2  C1  UNL d   1      -2.329   1.282  -0.143  0.00  0.00     0.010 A 
ATOM      3  C2  UNL d   1      -2.427   1.603   1.212  0.00  0.00     0.041 A 
ATOM      4  C3  UNL d   1      -2.663   0.572   2.142  0.00  0.00    -0.075 A 
ATOM      5  S   UNL d   1      -2.820   0.729   3.851  0.00  0.00     0.015 SA
ATOM      6  C4  UNL d   1      -3.069  -0.944   4.057  0.00  0.00     0.022 A 
ATOM      7  C5  UNL d   1      -3.037  -1.622   2.861  0.00  0.00     0.026 A 
ATOM      8  C6  UNL d   1      -2.802  -0.759   1.738  0.00  0.00    -0.082 A 
ATOM      9  C7  UNL d   1      -2.699  -1.052   0.356  0.00  0.00     0.045 A 
ENDROOT
TORSDOF 0
ENDMDL
