MODEL 1
REMARK minimizedAffinity 1.84566891
REMARK minimizedRMSD -1
REMARK  0 active torsions:
REMARK  status: ('A' for Active; 'I' for Inactive)
ROOT
ATOM      1  C   UNL d   1       1.259   1.272  -3.268  0.00  0.00    -0.002 A 
ATOM      2  C1  UNL d   1       2.052   0.754  -2.254  0.00  0.00     0.010 A 
ATOM      3  C2  UNL d   1       3.398   0.462  -2.483  0.00  0.00     0.041 A 
ATOM      4  C3  UNL d   1       3.939   0.702  -3.761  0.00  0.00    -0.075 A 
ATOM      5  S   UNL d   1       5.562   0.421  -4.272  0.00  0.00     0.015 SA
ATOM      6  C4  UNL d   1       5.241   0.982  -5.849  0.00  0.00     0.022 A 
ATOM      7  C5  UNL d   1       3.933   1.377  -6.000  0.00  0.00     0.026 A 
ATOM      8  C6  UNL d   1       3.162   1.223  -4.799  0.00  0.00    -0.082 A 
ATOM      9  C7  UNL d   1       1.800   1.508  -4.535  0.00  0.00     0.045 A 
ENDROOT
TORSDOF 0
ENDMDL
