MODEL 1
REMARK minimizedAffinity 5.32333612
REMARK minimizedRMSD -1
REMARK  0 active torsions:
REMARK  status: ('A' for Active; 'I' for Inactive)
ROOT
ATOM      1  C   UNL d   1      -3.304  -1.750   1.489  0.00  0.00    -0.002 A 
ATOM      2  C1  UNL d   1      -2.820  -1.042   0.397  0.00  0.00     0.010 A 
ATOM      3  C2  UNL d   1      -2.468   0.303   0.522  0.00  0.00     0.041 A 
ATOM      4  C3  UNL d   1      -2.609   0.931   1.775  0.00  0.00    -0.075 A 
ATOM      5  S   UNL d   1      -2.240   2.570   2.164  0.00  0.00     0.015 SA
ATOM      6  C4  UNL d   1      -2.714   2.370   3.788  0.00  0.00     0.022 A 
ATOM      7  C5  UNL d   1      -3.147   1.090   4.045  0.00  0.00     0.026 A 
ATOM      8  C6  UNL d   1      -3.093   0.240   2.889  0.00  0.00    -0.082 A 
ATOM      9  C7  UNL d   1      -3.442  -1.123   2.730  0.00  0.00     0.045 A 
ENDROOT
TORSDOF 0
ENDMDL
