MODEL 1
REMARK minimizedAffinity 9.14195442
REMARK minimizedRMSD -1
REMARK  0 active torsions:
REMARK  status: ('A' for Active; 'I' for Inactive)
ROOT
ATOM      1  C   UNL d   1      -2.503   0.332  -0.723  0.00  0.00    -0.002 A 
ATOM      2  C1  UNL d   1      -2.386   1.637  -0.266  0.00  0.00     0.010 A 
ATOM      3  C2  UNL d   1      -2.551   1.931   1.089  0.00  0.00     0.041 A 
ATOM      4  C3  UNL d   1      -2.837   0.882   1.985  0.00  0.00    -0.075 A 
ATOM      5  S   UNL d   1      -3.079   1.006   3.688  0.00  0.00     0.015 SA
ATOM      6  C4  UNL d   1      -3.341  -0.670   3.848  0.00  0.00     0.022 A 
ATOM      7  C5  UNL d   1      -3.251  -1.324   2.641  0.00  0.00     0.026 A 
ATOM      8  C6  UNL d   1      -2.958  -0.440   1.548  0.00  0.00    -0.082 A 
ATOM      9  C7  UNL d   1      -2.786  -0.706   0.168  0.00  0.00     0.045 A 
ENDROOT
TORSDOF 0
ENDMDL
