MODEL 1
REMARK minimizedAffinity 1.66355896
REMARK minimizedRMSD -1
REMARK  0 active torsions:
REMARK  status: ('A' for Active; 'I' for Inactive)
ROOT
ATOM      1  C   UNL d   1      -1.416   1.614  -0.533  0.00  0.00    -0.002 A 
ATOM      2  C1  UNL d   1      -2.286   0.988   0.349  0.00  0.00     0.010 A 
ATOM      3  C2  UNL d   1      -3.347   1.693   0.920  0.00  0.00     0.041 A 
ATOM      4  C3  UNL d   1      -3.522   3.050   0.586  0.00  0.00    -0.075 A 
ATOM      5  S   UNL d   1      -4.752   4.112   1.162  0.00  0.00     0.015 SA
ATOM      6  C4  UNL d   1      -4.152   5.422   0.250  0.00  0.00     0.022 A 
ATOM      7  C5  UNL d   1      -3.041   5.075  -0.481  0.00  0.00     0.026 A 
ATOM      8  C6  UNL d   1      -2.660   3.702  -0.301  0.00  0.00    -0.082 A 
ATOM      9  C7  UNL d   1      -1.593   2.960  -0.862  0.00  0.00     0.045 A 
ENDROOT
TORSDOF 0
ENDMDL
