MODEL 1
REMARK minimizedAffinity 5.36491919
REMARK minimizedRMSD -1
REMARK  0 active torsions:
REMARK  status: ('A' for Active; 'I' for Inactive)
ROOT
ATOM      1  C   UNL d   1      -2.703   0.009   0.645  0.00  0.00    -0.002 A 
ATOM      2  C1  UNL d   1      -2.781   0.493   1.943  0.00  0.00     0.010 A 
ATOM      3  C2  UNL d   1      -2.991   1.852   2.184  0.00  0.00     0.041 A 
ATOM      4  C3  UNL d   1      -3.125   2.726   1.087  0.00  0.00    -0.075 A 
ATOM      5  S   UNL d   1      -3.388   4.429   1.140  0.00  0.00     0.015 SA
ATOM      6  C4  UNL d   1      -3.405   4.554  -0.560  0.00  0.00     0.022 A 
ATOM      7  C5  UNL d   1      -3.216   3.336  -1.169  0.00  0.00     0.026 A 
ATOM      8  C6  UNL d   1      -3.051   2.262  -0.230  0.00  0.00    -0.082 A 
ATOM      9  C7  UNL d   1      -2.837   0.879  -0.441  0.00  0.00     0.045 A 
ENDROOT
TORSDOF 0
ENDMDL
