MODEL 1
REMARK minimizedAffinity 11.5546989
REMARK minimizedRMSD -1
REMARK  0 active torsions:
REMARK  status: ('A' for Active; 'I' for Inactive)
ROOT
ATOM      1  C   UNL d   1      -3.529  -0.997   4.035  0.00  0.00    -0.002 A 
ATOM      2  C1  UNL d   1      -3.339   0.274   4.557  0.00  0.00     0.010 A 
ATOM      3  C2  UNL d   1      -3.005   1.342   3.722  0.00  0.00     0.041 A 
ATOM      4  C3  UNL d   1      -2.867   1.110   2.340  0.00  0.00    -0.075 A 
ATOM      5  S   UNL d   1      -2.465   2.266   1.126  0.00  0.00     0.015 SA
ATOM      6  C4  UNL d   1      -2.538   1.100  -0.115  0.00  0.00     0.022 A 
ATOM      7  C5  UNL d   1      -2.859  -0.146   0.367  0.00  0.00     0.026 A 
ATOM      8  C6  UNL d   1      -3.055  -0.162   1.790  0.00  0.00    -0.082 A 
ATOM      9  C7  UNL d   1      -3.392  -1.224   2.663  0.00  0.00     0.045 A 
ENDROOT
TORSDOF 0
ENDMDL
