MODEL 1
REMARK minimizedAffinity -3.88639021
REMARK minimizedRMSD -1
REMARK  0 active torsions:
REMARK  status: ('A' for Active; 'I' for Inactive)
ROOT
ATOM      1  C4' PXY d   1      -2.186   0.510   1.672  0.00  0.00     0.077 C 
ATOM      2  C1' PXY d   1       2.118  -0.972  -1.891  0.00  0.00     0.077 C 
ATOM      3  C1  PXY d   1       0.991  -0.571  -0.960  0.00  0.00    -0.082 A 
ATOM      4  C2  PXY d   1       0.715  -1.321   0.094  0.00  0.00     0.003 A 
ATOM      5  C3  PXY d   1      -0.322  -0.990   0.928  0.00  0.00     0.003 A 
ATOM      6  C4  PXY d   1      -1.050   0.149   0.710  0.00  0.00    -0.082 A 
ATOM      7  C5  PXY d   1      -0.768   0.925  -0.357  0.00  0.00     0.003 A 
ATOM      8  C6  PXY d   1       0.262   0.550  -1.215  0.00  0.00     0.003 A 
ENDROOT
TORSDOF 0
ENDMDL
