MODEL 1
REMARK minimizedAffinity -3.43254423
REMARK minimizedRMSD -1
REMARK  0 active torsions:
REMARK  status: ('A' for Active; 'I' for Inactive)
ROOT
ATOM      1  C4' PXY d   1      -2.364   0.349   1.197  0.00  0.00     0.077 C 
ATOM      2  C1' PXY d   1       2.191  -1.328  -1.943  0.00  0.00     0.077 C 
ATOM      3  C1  PXY d   1       1.001  -0.876  -1.120  0.00  0.00    -0.082 A 
ATOM      4  C2  PXY d   1       0.354  -1.753  -0.369  0.00  0.00     0.003 A 
ATOM      5  C3  PXY d   1      -0.744  -1.368   0.357  0.00  0.00     0.003 A 
ATOM      6  C4  PXY d   1      -1.151  -0.060   0.356  0.00  0.00    -0.082 A 
ATOM      7  C5  PXY d   1      -0.489   0.842  -0.398  0.00  0.00     0.003 A 
ATOM      8  C6  PXY d   1       0.597   0.423  -1.160  0.00  0.00     0.003 A 
ENDROOT
TORSDOF 0
ENDMDL
