MODEL 1
REMARK minimizedAffinity -4.21489668
REMARK minimizedRMSD -1
REMARK  0 active torsions:
REMARK  status: ('A' for Active; 'I' for Inactive)
ROOT
ATOM      1  C4' PXY d   1      -5.966  -2.988   3.402  0.00  0.00     0.077 C 
ATOM      2  C1' PXY d   1      -1.819   1.039   3.354  0.00  0.00     0.077 C 
ATOM      3  C1  PXY d   1      -2.901  -0.023   3.377  0.00  0.00    -0.082 A 
ATOM      4  C2  PXY d   1      -3.599  -0.269   2.280  0.00  0.00     0.003 A 
ATOM      5  C3  PXY d   1      -4.602  -1.203   2.292  0.00  0.00     0.003 A 
ATOM      6  C4  PXY d   1      -4.858  -1.931   3.423  0.00  0.00    -0.082 A 
ATOM      7  C5  PXY d   1      -4.143  -1.694   4.543  0.00  0.00     0.003 A 
ATOM      8  C6  PXY d   1      -3.156  -0.712   4.522  0.00  0.00     0.003 A 
ENDROOT
TORSDOF 0
ENDMDL
