MODEL 1
REMARK minimizedAffinity -2.69458961
REMARK minimizedRMSD -1
REMARK  0 active torsions:
REMARK  status: ('A' for Active; 'I' for Inactive)
ROOT
ATOM      1  C4' PXY d   1      -2.602   0.265   2.044  0.00  0.00     0.077 C 
ATOM      2  C1' PXY d   1       1.718  -1.431  -1.402  0.00  0.00     0.077 C 
ATOM      3  C1  PXY d   1       0.589  -0.974  -0.499  0.00  0.00    -0.082 A 
ATOM      4  C2  PXY d   1       0.031  -1.834   0.337  0.00  0.00     0.003 A 
ATOM      5  C3  PXY d   1      -1.012  -1.446   1.138  0.00  0.00     0.003 A 
ATOM      6  C4  PXY d   1      -1.453  -0.150   1.121  0.00  0.00    -0.082 A 
ATOM      7  C5  PXY d   1      -0.882   0.737   0.278  0.00  0.00     0.003 A 
ATOM      8  C6  PXY d   1       0.148   0.312  -0.556  0.00  0.00     0.003 A 
ENDROOT
TORSDOF 0
ENDMDL
