MODEL 1
REMARK minimizedAffinity -2.03546238
REMARK minimizedRMSD -1
REMARK  0 active torsions:
REMARK  status: ('A' for Active; 'I' for Inactive)
ROOT
ATOM      1  C4' PXY d   1      -1.959   1.035   2.369  0.00  0.00     0.077 C 
ATOM      2  C1' PXY d   1       1.624  -1.584  -1.334  0.00  0.00     0.077 C 
ATOM      3  C1  PXY d   1       0.675  -0.898  -0.371  0.00  0.00    -0.082 A 
ATOM      4  C2  PXY d   1       1.159  -0.110   0.574  0.00  0.00     0.003 A 
ATOM      5  C3  PXY d   1       0.317   0.493   1.473  0.00  0.00     0.003 A 
ATOM      6  C4  PXY d   1      -1.039   0.330   1.370  0.00  0.00    -0.082 A 
ATOM      7  C5  PXY d   1      -1.541  -0.465   0.401  0.00  0.00     0.003 A 
ATOM      8  C6  PXY d   1      -0.667  -1.101  -0.476  0.00  0.00     0.003 A 
ENDROOT
TORSDOF 0
ENDMDL
