MODEL 1
REMARK minimizedAffinity -4.45210505
REMARK minimizedRMSD -1
REMARK  0 active torsions:
REMARK  status: ('A' for Active; 'I' for Inactive)
ROOT
ATOM      1  C4' PXY d   1      -2.590   0.736   1.107  0.00  0.00     0.077 C 
ATOM      2  C1' PXY d   1       2.372  -1.244  -1.099  0.00  0.00     0.077 C 
ATOM      3  C1  PXY d   1       1.065  -0.735  -0.524  0.00  0.00    -0.082 A 
ATOM      4  C2  PXY d   1       0.886   0.565  -0.357  0.00  0.00     0.003 A 
ATOM      5  C3  PXY d   1      -0.278   1.040   0.191  0.00  0.00     0.003 A 
ATOM      6  C4  PXY d   1      -1.290   0.179   0.522  0.00  0.00    -0.082 A 
ATOM      7  C5  PXY d   1      -1.119  -1.149   0.344  0.00  0.00     0.003 A 
ATOM      8  C6  PXY d   1       0.086  -1.613  -0.175  0.00  0.00     0.003 A 
ENDROOT
TORSDOF 0
ENDMDL
