MODEL 1
REMARK minimizedAffinity -4.53776026
REMARK minimizedRMSD -1
REMARK  0 active torsions:
REMARK  status: ('A' for Active; 'I' for Inactive)
ROOT
ATOM      1  C4' PXY d   1      -1.917   0.841   1.392  0.00  0.00     0.077 C 
ATOM      2  C1' PXY d   1       2.339  -1.411  -1.807  0.00  0.00     0.077 C 
ATOM      3  C1  PXY d   1       1.215  -0.830  -0.972  0.00  0.00    -0.082 A 
ATOM      4  C2  PXY d   1       1.210   0.463  -0.689  0.00  0.00     0.003 A 
ATOM      5  C3  PXY d   1       0.219   0.999   0.092  0.00  0.00     0.003 A 
ATOM      6  C4  PXY d   1      -0.807   0.213   0.544  0.00  0.00    -0.082 A 
ATOM      7  C5  PXY d   1      -0.816  -1.104   0.251  0.00  0.00     0.003 A 
ATOM      8  C6  PXY d   1       0.222  -1.637  -0.508  0.00  0.00     0.003 A 
ENDROOT
TORSDOF 0
ENDMDL
