MODEL 1
REMARK minimizedAffinity -4.85515022
REMARK minimizedRMSD -1
REMARK  0 active torsions:
REMARK  status: ('A' for Active; 'I' for Inactive)
ROOT
ATOM      1  C4' PXY d   1      -1.505   0.337   0.611  0.00  0.00     0.077 C 
ATOM      2  C1' PXY d   1       3.801   0.042  -1.661  0.00  0.00     0.077 C 
ATOM      3  C1  PXY d   1       2.412   0.131  -1.061  0.00  0.00    -0.082 A 
ATOM      4  C2  PXY d   1       1.779  -0.976  -0.709  0.00  0.00     0.003 A 
ATOM      5  C3  PXY d   1       0.509  -0.915  -0.195  0.00  0.00     0.003 A 
ATOM      6  C4  PXY d   1      -0.098   0.295   0.011  0.00  0.00    -0.082 A 
ATOM      7  C5  PXY d   1       0.546   1.430  -0.336  0.00  0.00     0.003 A 
ATOM      8  C6  PXY d   1       1.818   1.344  -0.895  0.00  0.00     0.003 A 
ENDROOT
TORSDOF 0
ENDMDL
