MODEL 1
REMARK minimizedAffinity -3.00895667
REMARK minimizedRMSD -1
REMARK  0 active torsions:
REMARK  status: ('A' for Active; 'I' for Inactive)
ROOT
ATOM      1  C4' PXY d   1       1.494   2.245  -2.612  0.00  0.00     0.077 C 
ATOM      2  C1' PXY d   1      -0.243  -2.605   0.011  0.00  0.00     0.077 C 
ATOM      3  C1  PXY d   1       0.225  -1.337  -0.677  0.00  0.00    -0.082 A 
ATOM      4  C2  PXY d   1      -0.476  -0.223  -0.542  0.00  0.00     0.003 A 
ATOM      5  C3  PXY d   1      -0.085   0.924  -1.184  0.00  0.00     0.003 A 
ATOM      6  C4  PXY d   1       1.065   0.944  -1.928  0.00  0.00    -0.082 A 
ATOM      7  C5  PXY d   1       1.790  -0.186  -2.062  0.00  0.00     0.003 A 
ATOM      8  C6  PXY d   1       1.354  -1.350  -1.436  0.00  0.00     0.003 A 
ENDROOT
TORSDOF 0
ENDMDL
