MODEL 1
REMARK minimizedAffinity -5.00126219
REMARK minimizedRMSD -1
REMARK  0 active torsions:
REMARK  status: ('A' for Active; 'I' for Inactive)
ROOT
ATOM      1  C4' PXY d   1       0.262  -2.532   0.736  0.00  0.00     0.077 C 
ATOM      2  C1' PXY d   1       2.001   1.951  -2.472  0.00  0.00     0.077 C 
ATOM      3  C1  PXY d   1       1.537   0.783  -1.624  0.00  0.00    -0.082 A 
ATOM      4  C2  PXY d   1       2.318  -0.276  -1.487  0.00  0.00     0.003 A 
ATOM      5  C3  PXY d   1       1.900  -1.354  -0.750  0.00  0.00     0.003 A 
ATOM      6  C4  PXY d   1       0.694  -1.326  -0.103  0.00  0.00    -0.082 A 
ATOM      7  C5  PXY d   1      -0.103  -0.244  -0.229  0.00  0.00     0.003 A 
ATOM      8  C6  PXY d   1       0.321   0.823  -1.016  0.00  0.00     0.003 A 
ENDROOT
TORSDOF 0
ENDMDL
