MODEL 1
REMARK minimizedAffinity -5.03589916
REMARK minimizedRMSD -1
REMARK  0 active torsions:
REMARK  status: ('A' for Active; 'I' for Inactive)
ROOT
ATOM      1  C4' PXY d   1       2.022  -1.008  -1.704  0.00  0.00     0.077 C 
ATOM      2  C1' PXY d   1      -2.171   0.753   1.865  0.00  0.00     0.077 C 
ATOM      3  C1  PXY d   1      -1.071   0.303   0.924  0.00  0.00    -0.082 A 
ATOM      4  C2  PXY d   1      -0.948  -0.981   0.627  0.00  0.00     0.003 A 
ATOM      5  C3  PXY d   1       0.060  -1.409  -0.197  0.00  0.00     0.003 A 
ATOM      6  C4  PXY d   1       0.920  -0.507  -0.766  0.00  0.00    -0.082 A 
ATOM      7  C5  PXY d   1       0.795   0.805  -0.477  0.00  0.00     0.003 A 
ATOM      8  C6  PXY d   1      -0.210   1.215   0.395  0.00  0.00     0.003 A 
ENDROOT
TORSDOF 0
ENDMDL
