MODEL 1
REMARK minimizedAffinity -4.08922768
REMARK minimizedRMSD -1
REMARK  0 active torsions:
REMARK  status: ('A' for Active; 'I' for Inactive)
ROOT
ATOM      1  C4' PXY d   1       3.526  -0.694  -1.199  0.00  0.00     0.077 C 
ATOM      2  C1' PXY d   1      -1.873   0.416   0.543  0.00  0.00     0.077 C 
ATOM      3  C1  PXY d   1      -0.457   0.114   0.094  0.00  0.00    -0.082 A 
ATOM      4  C2  PXY d   1       0.305   1.092  -0.368  0.00  0.00     0.003 A 
ATOM      5  C3  PXY d   1       1.577   0.832  -0.808  0.00  0.00     0.003 A 
ATOM      6  C4  PXY d   1       2.093  -0.434  -0.725  0.00  0.00    -0.082 A 
ATOM      7  C5  PXY d   1       1.326  -1.435  -0.245  0.00  0.00     0.003 A 
ATOM      8  C6  PXY d   1       0.023  -1.157   0.158  0.00  0.00     0.003 A 
ENDROOT
TORSDOF 0
ENDMDL
