MODEL 1
REMARK minimizedAffinity -0.937946022
REMARK minimizedRMSD -1
REMARK  0 active torsions:
REMARK  status: ('A' for Active; 'I' for Inactive)
ROOT
ATOM      1  C4' PXY d   1      -1.197  -1.732   0.009  0.00  0.00     0.077 C 
ATOM      2  C1' PXY d   1       1.549   3.086  -1.620  0.00  0.00     0.077 C 
ATOM      3  C1  PXY d   1       0.819   1.830  -1.188  0.00  0.00    -0.082 A 
ATOM      4  C2  PXY d   1       1.505   0.723  -0.951  0.00  0.00     0.003 A 
ATOM      5  C3  PXY d   1       0.857  -0.430  -0.591  0.00  0.00     0.003 A 
ATOM      6  C4  PXY d   1      -0.501  -0.438  -0.420  0.00  0.00    -0.082 A 
ATOM      7  C5  PXY d   1      -1.207   0.690  -0.650  0.00  0.00     0.003 A 
ATOM      8  C6  PXY d   1      -0.535   1.839  -1.055  0.00  0.00     0.003 A 
ENDROOT
TORSDOF 0
ENDMDL
