MODEL 1
REMARK minimizedAffinity -5.72601175
REMARK minimizedRMSD -1
REMARK  0 active torsions:
REMARK  status: ('A' for Active; 'I' for Inactive)
ROOT
ATOM      1  C4' PXY d   1      -1.046  -0.243   0.499  0.00  0.00     0.077 C 
ATOM      2  C1' PXY d   1       3.458   0.698  -3.001  0.00  0.00     0.077 C 
ATOM      3  C1  PXY d   1       2.279   0.438  -2.084  0.00  0.00    -0.082 A 
ATOM      4  C2  PXY d   1       1.330   1.353  -1.964  0.00  0.00     0.003 A 
ATOM      5  C3  PXY d   1       0.273   1.148  -1.115  0.00  0.00     0.003 A 
ATOM      6  C4  PXY d   1       0.158  -0.028  -0.422  0.00  0.00    -0.082 A 
ATOM      7  C5  PXY d   1       1.116  -0.970  -0.548  0.00  0.00     0.003 A 
ATOM      8  C6  PXY d   1       2.203  -0.726  -1.383  0.00  0.00     0.003 A 
ENDROOT
TORSDOF 0
ENDMDL
