MODEL 1
REMARK minimizedAffinity -3.95875192
REMARK minimizedRMSD -1
REMARK  0 active torsions:
REMARK  status: ('A' for Active; 'I' for Inactive)
ROOT
ATOM      1  C4' PXY d   1      -1.544   0.366   1.231  0.00  0.00     0.077 C 
ATOM      2  C1' PXY d   1       3.157  -0.673  -1.968  0.00  0.00     0.077 C 
ATOM      3  C1  PXY d   1       1.919  -0.412  -1.133  0.00  0.00    -0.082 A 
ATOM      4  C2  PXY d   1       1.558   0.833  -0.869  0.00  0.00     0.003 A 
ATOM      5  C3  PXY d   1       0.460   1.087  -0.088  0.00  0.00     0.003 A 
ATOM      6  C4  PXY d   1      -0.307   0.056   0.384  0.00  0.00    -0.082 A 
ATOM      7  C5  PXY d   1       0.048  -1.217   0.110  0.00  0.00     0.003 A 
ATOM      8  C6  PXY d   1       1.190  -1.454  -0.650  0.00  0.00     0.003 A 
ENDROOT
TORSDOF 0
ENDMDL
