MODEL 1
REMARK minimizedAffinity -3.32240009
REMARK minimizedRMSD -1
REMARK  0 active torsions:
REMARK  status: ('A' for Active; 'I' for Inactive)
ROOT
ATOM      1  C4' PXY d   1      -1.376  -0.018   1.487  0.00  0.00     0.077 C 
ATOM      2  C1' PXY d   1       3.419  -0.111  -1.740  0.00  0.00     0.077 C 
ATOM      3  C1  PXY d   1       2.159  -0.074  -0.898  0.00  0.00    -0.082 A 
ATOM      4  C2  PXY d   1       2.062  -0.852   0.168  0.00  0.00     0.003 A 
ATOM      5  C3  PXY d   1       0.917  -0.855   0.923  0.00  0.00     0.003 A 
ATOM      6  C4  PXY d   1      -0.119  -0.015   0.613  0.00  0.00    -0.082 A 
ATOM      7  C5  PXY d   1      -0.024   0.789  -0.467  0.00  0.00     0.003 A 
ATOM      8  C6  PXY d   1       1.131   0.747  -1.244  0.00  0.00     0.003 A 
ENDROOT
TORSDOF 0
ENDMDL
