MODEL 1
REMARK minimizedAffinity -5.66822672
REMARK minimizedRMSD -1
REMARK  0 active torsions:
REMARK  status: ('A' for Active; 'I' for Inactive)
ROOT
ATOM      1  C4' PXY d   1      -1.772   0.087   0.891  0.00  0.00     0.077 C 
ATOM      2  C1' PXY d   1       3.079   0.282  -2.247  0.00  0.00     0.077 C 
ATOM      3  C1  PXY d   1       1.807   0.218  -1.426  0.00  0.00    -0.082 A 
ATOM      4  C2  PXY d   1       1.022   1.281  -1.351  0.00  0.00     0.003 A 
ATOM      5  C3  PXY d   1      -0.116   1.250  -0.587  0.00  0.00     0.003 A 
ATOM      6  C4  PXY d   1      -0.482   0.103   0.065  0.00  0.00    -0.082 A 
ATOM      7  C5  PXY d   1       0.307  -0.989  -0.015  0.00  0.00     0.003 A 
ATOM      8  C6  PXY d   1       1.479  -0.924  -0.763  0.00  0.00     0.003 A 
ENDROOT
TORSDOF 0
ENDMDL
