MODEL 1
REMARK minimizedAffinity -4.50757837
REMARK minimizedRMSD -1
REMARK  0 active torsions:
REMARK  status: ('A' for Active; 'I' for Inactive)
ROOT
ATOM      1  C4' PXY d   1      -2.335   0.630   1.934  0.00  0.00     0.077 C 
ATOM      2  C1' PXY d   1       1.787  -1.396  -1.576  0.00  0.00     0.077 C 
ATOM      3  C1  PXY d   1       0.712  -0.853  -0.656  0.00  0.00    -0.082 A 
ATOM      4  C2  PXY d   1       0.090  -1.671   0.178  0.00  0.00     0.003 A 
ATOM      5  C3  PXY d   1      -0.907  -1.202   0.994  0.00  0.00     0.003 A 
ATOM      6  C4  PXY d   1      -1.235   0.127   0.994  0.00  0.00    -0.082 A 
ATOM      7  C5  PXY d   1      -0.599   0.970   0.153  0.00  0.00     0.003 A 
ATOM      8  C6  PXY d   1       0.382   0.467  -0.697  0.00  0.00     0.003 A 
ENDROOT
TORSDOF 0
ENDMDL
