MODEL 1
REMARK minimizedAffinity 20.7288628
REMARK minimizedRMSD -1
REMARK  1 active torsions:
REMARK  status: ('A' for Active; 'I' for Inactive)
REMARK    1  A    between atoms: C1_2  and  C2_3 
ROOT
ATOM      1  C2  UNL d   1       0.730  -2.049   3.048  0.00  0.00    -0.073 A 
ATOM      2  C3  UNL d   1       0.026  -0.842   3.140  0.00  0.00    -0.002 A 
ATOM      3  C4  UNL d   1      -1.154  -0.658   2.418  0.00  0.00     0.004 A 
ATOM      4  C5  UNL d   1      -1.645  -1.678   1.603  0.00  0.00    -0.004 A 
ATOM      5  C6  UNL d   1      -0.963  -2.895   1.508  0.00  0.00    -0.075 A 
ATOM      6  C7  UNL d   1      -1.477  -4.001   0.634  0.00  0.00     0.076 C 
ATOM      7  C8  UNL d   1       0.223  -3.072   2.234  0.00  0.00     0.001 A 
ENDROOT
BRANCH   1   8
ATOM      8  C1  UNL d   1       2.001  -2.255   3.831  0.00  0.00     0.053 C 
ATOM      9  C   UNL d   1       3.222  -1.750   3.079  0.00  0.00     0.018 C 
ENDBRANCH   1   8
TORSDOF 1
ENDMDL
