MODEL 1
REMARK minimizedAffinity 6.54829025
REMARK minimizedRMSD -1
REMARK  1 active torsions:
REMARK  status: ('A' for Active; 'I' for Inactive)
REMARK    1  A    between atoms: C1_2  and  C2_3 
ROOT
ATOM      1  C2  UNL d   1       3.788   2.821   1.077  0.00  0.00    -0.073 A 
ATOM      2  C3  UNL d   1       4.361   3.292   2.263  0.00  0.00    -0.002 A 
ATOM      3  C4  UNL d   1       5.464   4.146   2.223  0.00  0.00     0.004 A 
ATOM      4  C5  UNL d   1       6.000   4.543   0.998  0.00  0.00    -0.004 A 
ATOM      5  C6  UNL d   1       5.434   4.092  -0.199  0.00  0.00    -0.075 A 
ATOM      6  C7  UNL d   1       6.000   4.508  -1.525  0.00  0.00     0.076 C 
ATOM      7  C8  UNL d   1       4.328   3.233  -0.150  0.00  0.00     0.001 A 
ENDROOT
BRANCH   1   8
ATOM      8  C1  UNL d   1       2.593   1.904   1.116  0.00  0.00     0.053 C 
ATOM      9  C   UNL d   1       2.592   0.919  -0.043  0.00  0.00     0.018 C 
ENDBRANCH   1   8
TORSDOF 1
ENDMDL
