MODEL 1
REMARK minimizedAffinity 11.4630318
REMARK minimizedRMSD -1
REMARK  1 active torsions:
REMARK  status: ('A' for Active; 'I' for Inactive)
REMARK    1  A    between atoms: C1_2  and  C2_3 
ROOT
ATOM      1  C2  UNL d   1       1.671   3.349  -3.096  0.00  0.00    -0.073 A 
ATOM      2  C3  UNL d   1       1.802   4.449  -2.241  0.00  0.00    -0.002 A 
ATOM      3  C4  UNL d   1       0.940   5.541  -2.360  0.00  0.00     0.004 A 
ATOM      4  C5  UNL d   1      -0.064   5.540  -3.328  0.00  0.00    -0.004 A 
ATOM      5  C6  UNL d   1      -0.218   4.445  -4.184  0.00  0.00    -0.075 A 
ATOM      6  C7  UNL d   1      -1.292   4.430  -5.232  0.00  0.00     0.076 C 
ATOM      7  C8  UNL d   1       0.653   3.354  -4.060  0.00  0.00     0.001 A 
ENDROOT
BRANCH   1   8
ATOM      8  C1  UNL d   1       2.595   2.166  -2.968  0.00  0.00     0.053 C 
ATOM      9  C   UNL d   1       2.398   1.429  -1.652  0.00  0.00     0.018 C 
ENDBRANCH   1   8
TORSDOF 1
ENDMDL
