MODEL 1
REMARK minimizedAffinity 13.9322262
REMARK minimizedRMSD -1
REMARK  1 active torsions:
REMARK  status: ('A' for Active; 'I' for Inactive)
REMARK    1  A    between atoms: C1_2  and  C2_3 
ROOT
ATOM      1  C2  UNL d   1       4.133   4.469  -3.220  0.00  0.00    -0.073 A 
ATOM      2  C3  UNL d   1       3.747   3.341  -3.954  0.00  0.00    -0.002 A 
ATOM      3  C4  UNL d   1       2.414   2.929  -3.964  0.00  0.00     0.004 A 
ATOM      4  C5  UNL d   1       1.453   3.643  -3.249  0.00  0.00    -0.004 A 
ATOM      5  C6  UNL d   1       1.816   4.780  -2.520  0.00  0.00    -0.075 A 
ATOM      6  C7  UNL d   1       0.795   5.557  -1.743  0.00  0.00     0.076 C 
ATOM      7  C8  UNL d   1       3.158   5.185  -2.512  0.00  0.00     0.001 A 
ENDROOT
BRANCH   1   8
ATOM      8  C1  UNL d   1       5.570   4.921  -3.211  0.00  0.00     0.053 C 
ATOM      9  C   UNL d   1       5.949   5.644  -4.494  0.00  0.00     0.018 C 
ENDBRANCH   1   8
TORSDOF 1
ENDMDL
