MODEL 1
REMARK minimizedAffinity 16.7724838
REMARK minimizedRMSD -1
REMARK  1 active torsions:
REMARK  status: ('A' for Active; 'I' for Inactive)
REMARK    1  A    between atoms: C1_2  and  C2_3 
ROOT
ATOM      1  C2  UNL d   1       3.316   3.083  -3.383  0.00  0.00    -0.073 A 
ATOM      2  C3  UNL d   1       3.875   2.895  -4.652  0.00  0.00    -0.002 A 
ATOM      3  C4  UNL d   1       4.983   3.642  -5.052  0.00  0.00     0.004 A 
ATOM      4  C5  UNL d   1       5.548   4.579  -4.186  0.00  0.00    -0.004 A 
ATOM      5  C6  UNL d   1       5.011   4.773  -2.909  0.00  0.00    -0.075 A 
ATOM      6  C7  UNL d   1       5.605   5.778  -1.966  0.00  0.00     0.076 C 
ATOM      7  C8  UNL d   1       3.896   4.020  -2.516  0.00  0.00     0.001 A 
ENDROOT
BRANCH   1   8
ATOM      8  C1  UNL d   1       2.123   2.273  -2.944  0.00  0.00     0.053 C 
ATOM      9  C   UNL d   1       2.471   1.306  -1.824  0.00  0.00     0.018 C 
ENDBRANCH   1   8
TORSDOF 1
ENDMDL
