MODEL 1
REMARK minimizedAffinity 10.7644167
REMARK minimizedRMSD -1
REMARK  1 active torsions:
REMARK  status: ('A' for Active; 'I' for Inactive)
REMARK    1  A    between atoms: C1_2  and  C2_3 
ROOT
ATOM      1  C2  UNL d   1       4.586   4.458  -4.217  0.00  0.00    -0.073 A 
ATOM      2  C3  UNL d   1       3.945   3.399  -4.870  0.00  0.00    -0.002 A 
ATOM      3  C4  UNL d   1       2.645   3.036  -4.516  0.00  0.00     0.004 A 
ATOM      4  C5  UNL d   1       1.970   3.731  -3.512  0.00  0.00    -0.004 A 
ATOM      5  C6  UNL d   1       2.589   4.799  -2.856  0.00  0.00    -0.075 A 
ATOM      6  C7  UNL d   1       1.878   5.556  -1.773  0.00  0.00     0.076 C 
ATOM      7  C8  UNL d   1       3.896   5.156  -3.215  0.00  0.00     0.001 A 
ENDROOT
BRANCH   1   8
ATOM      8  C1  UNL d   1       5.987   4.858  -4.599  0.00  0.00     0.053 C 
ATOM      9  C   UNL d   1       6.000   5.998  -5.605  0.00  0.00     0.018 C 
ENDBRANCH   1   8
TORSDOF 1
ENDMDL
