MODEL 1
REMARK minimizedAffinity 15.502532
REMARK minimizedRMSD -1
REMARK  1 active torsions:
REMARK  status: ('A' for Active; 'I' for Inactive)
REMARK    1  A    between atoms: C1_2  and  C2_3 
ROOT
ATOM      1  C2  UNL d   1      -1.671  -1.397   1.968  0.00  0.00    -0.073 A 
ATOM      2  C3  UNL d   1      -1.240  -0.327   2.761  0.00  0.00    -0.002 A 
ATOM      3  C4  UNL d   1      -2.068   0.779   2.962  0.00  0.00     0.004 A 
ATOM      4  C5  UNL d   1      -3.334   0.823   2.379  0.00  0.00    -0.004 A 
ATOM      5  C6  UNL d   1      -3.787  -0.242   1.593  0.00  0.00    -0.075 A 
ATOM      6  C7  UNL d   1      -5.145  -0.208   0.957  0.00  0.00     0.076 C 
ATOM      7  C8  UNL d   1      -2.949  -1.347   1.394  0.00  0.00     0.001 A 
ENDROOT
BRANCH   1   8
ATOM      8  C1  UNL d   1      -0.784  -2.596   1.754  0.00  0.00     0.053 C 
ATOM      9  C   UNL d   1       0.601  -2.394   2.347  0.00  0.00     0.018 C 
ENDBRANCH   1   8
TORSDOF 1
ENDMDL
