MODEL 1
REMARK minimizedAffinity 20.9790115
REMARK minimizedRMSD -1
REMARK  1 active torsions:
REMARK  status: ('A' for Active; 'I' for Inactive)
REMARK    1  A    between atoms: C1_2  and  C2_3 
ROOT
ATOM      1  C2  UNL d   1      -4.697   3.920   5.183  0.00  0.00    -0.073 A 
ATOM      2  C3  UNL d   1      -5.885   3.453   4.608  0.00  0.00    -0.002 A 
ATOM      3  C4  UNL d   1      -5.890   2.276   3.858  0.00  0.00     0.004 A 
ATOM      4  C5  UNL d   1      -4.711   1.551   3.681  0.00  0.00    -0.004 A 
ATOM      5  C6  UNL d   1      -3.517   1.995   4.258  0.00  0.00    -0.075 A 
ATOM      6  C7  UNL d   1      -2.241   1.228   4.076  0.00  0.00     0.076 C 
ATOM      7  C8  UNL d   1      -3.520   3.179   5.008  0.00  0.00     0.001 A 
ENDROOT
BRANCH   1   8
ATOM      8  C1  UNL d   1      -4.688   5.186   5.999  0.00  0.00     0.053 C 
ATOM      9  C   UNL d   1      -5.966   5.991   5.817  0.00  0.00     0.018 C 
ENDBRANCH   1   8
TORSDOF 1
ENDMDL
