MODEL 1
REMARK minimizedAffinity 17.6438713
REMARK minimizedRMSD -1
REMARK  1 active torsions:
REMARK  status: ('A' for Active; 'I' for Inactive)
REMARK    1  A    between atoms: C1_2  and  C2_3 
ROOT
ATOM      1  C2  UNL d   1       2.408   2.062  -2.245  0.00  0.00    -0.073 A 
ATOM      2  C3  UNL d   1       1.284   2.880  -2.079  0.00  0.00    -0.002 A 
ATOM      3  C4  UNL d   1       0.987   3.869  -3.018  0.00  0.00     0.004 A 
ATOM      4  C5  UNL d   1       1.805   4.045  -4.134  0.00  0.00    -0.004 A 
ATOM      5  C6  UNL d   1       2.926   3.230  -4.323  0.00  0.00    -0.075 A 
ATOM      6  C7  UNL d   1       3.818   3.409  -5.517  0.00  0.00     0.076 C 
ATOM      7  C8  UNL d   1       3.219   2.241  -3.374  0.00  0.00     0.001 A 
ENDROOT
BRANCH   1   8
ATOM      8  C1  UNL d   1       2.729   0.989  -1.237  0.00  0.00     0.053 C 
ATOM      9  C   UNL d   1       2.970   1.564   0.150  0.00  0.00     0.018 C 
ENDBRANCH   1   8
TORSDOF 1
ENDMDL
