MODEL 1
REMARK minimizedAffinity 18.8336353
REMARK minimizedRMSD -1
REMARK  1 active torsions:
REMARK  status: ('A' for Active; 'I' for Inactive)
REMARK    1  A    between atoms: C1_2  and  C2_3 
ROOT
ATOM      1  C2  UNL d   1       2.874   1.824  -1.449  0.00  0.00    -0.073 A 
ATOM      2  C3  UNL d   1       2.061   1.596  -2.565  0.00  0.00    -0.002 A 
ATOM      3  C4  UNL d   1       2.094   2.471  -3.651  0.00  0.00     0.004 A 
ATOM      4  C5  UNL d   1       2.944   3.577  -3.637  0.00  0.00    -0.004 A 
ATOM      5  C6  UNL d   1       3.773   3.815  -2.536  0.00  0.00    -0.075 A 
ATOM      6  C7  UNL d   1       4.691   5.001  -2.504  0.00  0.00     0.076 C 
ATOM      7  C8  UNL d   1       3.732   2.933  -1.447  0.00  0.00     0.001 A 
ENDROOT
BRANCH   1   8
ATOM      8  C1  UNL d   1       2.846   0.879  -0.275  0.00  0.00     0.053 C 
ATOM      9  C   UNL d   1       3.004   1.609   1.049  0.00  0.00     0.018 C 
ENDBRANCH   1   8
TORSDOF 1
ENDMDL
