MODEL 1
REMARK minimizedAffinity 12.4506502
REMARK minimizedRMSD -1
REMARK  1 active torsions:
REMARK  status: ('A' for Active; 'I' for Inactive)
REMARK    1  A    between atoms: C1_2  and  C2_3 
ROOT
ATOM      1  C2  UNL d   1      -1.789   0.321   3.464  0.00  0.00    -0.073 A 
ATOM      2  C3  UNL d   1      -0.847  -0.552   2.907  0.00  0.00    -0.002 A 
ATOM      3  C4  UNL d   1      -1.117  -1.206   1.704  0.00  0.00     0.004 A 
ATOM      4  C5  UNL d   1      -2.325  -0.988   1.042  0.00  0.00    -0.004 A 
ATOM      5  C6  UNL d   1      -3.274  -0.109   1.576  0.00  0.00    -0.075 A 
ATOM      6  C7  UNL d   1      -4.579   0.135   0.878  0.00  0.00     0.076 C 
ATOM      7  C8  UNL d   1      -2.997   0.541   2.786  0.00  0.00     0.001 A 
ENDROOT
BRANCH   1   8
ATOM      8  C1  UNL d   1      -1.499   1.034   4.759  0.00  0.00     0.053 C 
ATOM      9  C   UNL d   1      -1.034   0.076   5.845  0.00  0.00     0.018 C 
ENDBRANCH   1   8
TORSDOF 1
ENDMDL
