MODEL 1
REMARK minimizedAffinity 12.3268976
REMARK minimizedRMSD -1
REMARK  1 active torsions:
REMARK  status: ('A' for Active; 'I' for Inactive)
REMARK    1  A    between atoms: C1_2  and  C2_3 
ROOT
ATOM      1  C2  UNL d   1      -1.785  -0.656   1.918  0.00  0.00    -0.073 A 
ATOM      2  C3  UNL d   1      -2.043   0.336   2.872  0.00  0.00    -0.002 A 
ATOM      3  C4  UNL d   1      -1.287   0.401   4.043  0.00  0.00     0.004 A 
ATOM      4  C5  UNL d   1      -0.262  -0.518   4.269  0.00  0.00    -0.004 A 
ATOM      5  C6  UNL d   1       0.018  -1.509   3.322  0.00  0.00    -0.075 A 
ATOM      6  C7  UNL d   1       1.116  -2.506   3.551  0.00  0.00     0.076 C 
ATOM      7  C8  UNL d   1      -0.747  -1.570   2.150  0.00  0.00     0.001 A 
ENDROOT
BRANCH   1   8
ATOM      8  C1  UNL d   1      -2.595  -0.726   0.649  0.00  0.00     0.053 C 
ATOM      9  C   UNL d   1      -4.004  -0.186   0.841  0.00  0.00     0.018 C 
ENDBRANCH   1   8
TORSDOF 1
ENDMDL
