MODEL 1
REMARK minimizedAffinity 13.7748194
REMARK minimizedRMSD -1
REMARK  1 active torsions:
REMARK  status: ('A' for Active; 'I' for Inactive)
REMARK    1  A    between atoms: C1_2  and  C2_3 
ROOT
ATOM      1  C2  UNL d   1       3.924   4.750  -2.559  0.00  0.00    -0.073 A 
ATOM      2  C3  UNL d   1       3.663   3.471  -3.064  0.00  0.00    -0.002 A 
ATOM      3  C4  UNL d   1       2.350   3.011  -3.174  0.00  0.00     0.004 A 
ATOM      4  C5  UNL d   1       1.286   3.825  -2.787  0.00  0.00    -0.004 A 
ATOM      5  C6  UNL d   1       1.526   5.111  -2.291  0.00  0.00    -0.075 A 
ATOM      6  C7  UNL d   1       0.392   5.999  -1.869  0.00  0.00     0.076 C 
ATOM      7  C8  UNL d   1       2.847   5.565  -2.181  0.00  0.00     0.001 A 
ENDROOT
BRANCH   1   8
ATOM      8  C1  UNL d   1       5.339   5.253  -2.444  0.00  0.00     0.053 C 
ATOM      9  C   UNL d   1       5.998   4.812  -1.147  0.00  0.00     0.018 C 
ENDBRANCH   1   8
TORSDOF 1
ENDMDL
