MODEL 1
REMARK minimizedAffinity -0.913373768
REMARK minimizedRMSD -1
REMARK  2 active torsions:
REMARK  status: ('A' for Active; 'I' for Inactive)
REMARK    1  A    between atoms: C1_2  and  C2_3 
REMARK    2  A    between atoms: C2_3  and  C3_4 
ROOT
ATOM      1  C3  UNL d   1       2.390  -3.326   0.045  0.00  0.00    -0.075 A 
ATOM      2  C4  UNL d   1       2.524  -1.960   0.330  0.00  0.00     0.002 A 
ATOM      3  C5  UNL d   1       1.440  -1.228   0.815  0.00  0.00     0.002 A 
ATOM      4  C6  UNL d   1       0.208  -1.848   1.009  0.00  0.00    -0.004 A 
ATOM      5  C7  UNL d   1       0.059  -3.202   0.713  0.00  0.00     0.002 A 
ATOM      6  C8  UNL d   1       1.143  -3.938   0.232  0.00  0.00     0.002 A 
ENDROOT
BRANCH   1   7
ATOM      7  C2  UNL d   1       3.568  -4.131  -0.452  0.00  0.00     0.056 C 
BRANCH   7   8
ATOM      8  C1  UNL d   1       3.905  -5.346   0.420  0.00  0.00     0.007 C 
ATOM      9  C   UNL d   1       5.231  -5.998   0.053  0.00  0.00     0.009 C 
ENDBRANCH   7   8
ENDBRANCH   1   7
TORSDOF 2
ENDMDL
