MODEL 1
REMARK minimizedAffinity 7.13152504
REMARK minimizedRMSD -1
REMARK  2 active torsions:
REMARK  status: ('A' for Active; 'I' for Inactive)
REMARK    1  A    between atoms: C1_2  and  C2_3 
REMARK    2  A    between atoms: C2_3  and  C3_4 
ROOT
ATOM      1  C3  UNL d   1       1.208  -3.180   0.455  0.00  0.00    -0.075 A 
ATOM      2  C4  UNL d   1       1.878  -2.097   1.042  0.00  0.00     0.002 A 
ATOM      3  C5  UNL d   1       1.223  -0.880   1.236  0.00  0.00     0.002 A 
ATOM      4  C6  UNL d   1      -0.103  -0.728   0.837  0.00  0.00    -0.004 A 
ATOM      5  C7  UNL d   1      -0.773  -1.792   0.237  0.00  0.00     0.002 A 
ATOM      6  C8  UNL d   1      -0.122  -3.012   0.046  0.00  0.00     0.002 A 
ENDROOT
BRANCH   1   7
ATOM      7  C2  UNL d   1       1.901  -4.509   0.270  0.00  0.00     0.056 C 
BRANCH   7   8
ATOM      8  C1  UNL d   1       3.429  -4.411   0.208  0.00  0.00     0.007 C 
ATOM      9  C   UNL d   1       4.116  -5.770   0.169  0.00  0.00     0.009 C 
ENDBRANCH   7   8
ENDBRANCH   1   7
TORSDOF 2
ENDMDL
