MODEL 1
REMARK minimizedAffinity 2.4487524
REMARK minimizedRMSD -1
REMARK  2 active torsions:
REMARK  status: ('A' for Active; 'I' for Inactive)
REMARK    1  A    between atoms: C1_2  and  C2_3 
REMARK    2  A    between atoms: C2_3  and  C3_4 
ROOT
ATOM      1  C3  UNL d   1       1.431  -1.259   0.560  0.00  0.00    -0.075 A 
ATOM      2  C4  UNL d   1       1.592  -2.638   0.361  0.00  0.00     0.002 A 
ATOM      3  C5  UNL d   1       0.485  -3.456   0.132  0.00  0.00     0.002 A 
ATOM      4  C6  UNL d   1      -0.796  -2.908   0.110  0.00  0.00    -0.004 A 
ATOM      5  C7  UNL d   1      -0.970  -1.542   0.323  0.00  0.00     0.002 A 
ATOM      6  C8  UNL d   1       0.137  -0.721   0.548  0.00  0.00     0.002 A 
ENDROOT
BRANCH   1   7
ATOM      7  C2  UNL d   1       2.628  -0.365   0.778  0.00  0.00     0.056 C 
BRANCH   7   8
ATOM      8  C1  UNL d   1       3.886  -0.813   0.027  0.00  0.00     0.007 C 
ATOM      9  C   UNL d   1       5.134  -0.825   0.901  0.00  0.00     0.009 C 
ENDBRANCH   7   8
ENDBRANCH   1   7
TORSDOF 2
ENDMDL
