MODEL 1
REMARK minimizedAffinity -1.38752711
REMARK minimizedRMSD -1
REMARK  2 active torsions:
REMARK  status: ('A' for Active; 'I' for Inactive)
REMARK    1  A    between atoms: C1_2  and  C2_3 
REMARK    2  A    between atoms: C2_3  and  C3_4 
ROOT
ATOM      1  C3  UNL d   1       2.526  -3.202   0.091  0.00  0.00    -0.075 A 
ATOM      2  C4  UNL d   1       2.472  -1.813   0.275  0.00  0.00     0.002 A 
ATOM      3  C5  UNL d   1       1.255  -1.179   0.531  0.00  0.00     0.002 A 
ATOM      4  C6  UNL d   1       0.079  -1.923   0.596  0.00  0.00    -0.004 A 
ATOM      5  C7  UNL d   1       0.119  -3.301   0.398  0.00  0.00     0.002 A 
ATOM      6  C8  UNL d   1       1.335  -3.939   0.146  0.00  0.00     0.002 A 
ENDROOT
BRANCH   1   7
ATOM      7  C2  UNL d   1       3.843  -3.898  -0.157  0.00  0.00     0.056 C 
BRANCH   7   8
ATOM      8  C1  UNL d   1       3.877  -5.356   0.313  0.00  0.00     0.007 C 
ATOM      9  C   UNL d   1       5.267  -5.974   0.254  0.00  0.00     0.009 C 
ENDBRANCH   7   8
ENDBRANCH   1   7
TORSDOF 2
ENDMDL
