MODEL 1
REMARK minimizedAffinity -3.35962057
REMARK minimizedRMSD -1
REMARK  2 active torsions:
REMARK  status: ('A' for Active; 'I' for Inactive)
REMARK    1  A    between atoms: C1_2  and  C2_3 
REMARK    2  A    between atoms: C2_3  and  C3_4 
ROOT
ATOM      1  C3  UNL d   1       1.934  -2.414   0.263  0.00  0.00    -0.075 A 
ATOM      2  C4  UNL d   1       1.770  -1.027   0.131  0.00  0.00     0.002 A 
ATOM      3  C5  UNL d   1       0.525  -0.437   0.351  0.00  0.00     0.002 A 
ATOM      4  C6  UNL d   1      -0.572  -1.224   0.694  0.00  0.00    -0.004 A 
ATOM      5  C7  UNL d   1      -0.424  -2.604   0.812  0.00  0.00     0.002 A 
ATOM      6  C8  UNL d   1       0.821  -3.197   0.597  0.00  0.00     0.002 A 
ENDROOT
BRANCH   1   7
ATOM      7  C2  UNL d   1       3.285  -3.056   0.055  0.00  0.00     0.056 C 
BRANCH   7   8
ATOM      8  C1  UNL d   1       3.361  -4.513   0.522  0.00  0.00     0.007 C 
ATOM      9  C   UNL d   1       4.498  -5.292  -0.126  0.00  0.00     0.009 C 
ENDBRANCH   7   8
ENDBRANCH   1   7
TORSDOF 2
ENDMDL
