MODEL 1
REMARK minimizedAffinity -4.00261736
REMARK minimizedRMSD -1
REMARK  2 active torsions:
REMARK  status: ('A' for Active; 'I' for Inactive)
REMARK    1  A    between atoms: C1_2  and  C2_3 
REMARK    2  A    between atoms: C2_3  and  C3_4 
ROOT
ATOM      1  C3  UNL d   1       0.986  -2.443   0.418  0.00  0.00    -0.075 A 
ATOM      2  C4  UNL d   1       1.643  -1.434   1.138  0.00  0.00     0.002 A 
ATOM      3  C5  UNL d   1       0.956  -0.288   1.538  0.00  0.00     0.002 A 
ATOM      4  C6  UNL d   1      -0.391  -0.131   1.217  0.00  0.00    -0.004 A 
ATOM      5  C7  UNL d   1      -1.049  -1.119   0.488  0.00  0.00     0.002 A 
ATOM      6  C8  UNL d   1      -0.365  -2.269   0.089  0.00  0.00     0.002 A 
ENDROOT
BRANCH   1   7
ATOM      7  C2  UNL d   1       1.717  -3.699   0.007  0.00  0.00     0.056 C 
BRANCH   7   8
ATOM      8  C1  UNL d   1       3.217  -3.678   0.317  0.00  0.00     0.007 C 
ATOM      9  C   UNL d   1       3.855  -5.060   0.290  0.00  0.00     0.009 C 
ENDBRANCH   7   8
ENDBRANCH   1   7
TORSDOF 2
ENDMDL
