MODEL 1
REMARK minimizedAffinity -1.31481075
REMARK minimizedRMSD -1
REMARK  2 active torsions:
REMARK  status: ('A' for Active; 'I' for Inactive)
REMARK    1  A    between atoms: C1_2  and  C2_3 
REMARK    2  A    between atoms: C2_3  and  C3_4 
ROOT
ATOM      1  C3  UNL d   1       1.384  -2.910   0.496  0.00  0.00    -0.075 A 
ATOM      2  C4  UNL d   1       2.136  -1.749   0.729  0.00  0.00     0.002 A 
ATOM      3  C5  UNL d   1       1.509  -0.507   0.828  0.00  0.00     0.002 A 
ATOM      4  C6  UNL d   1       0.126  -0.408   0.686  0.00  0.00    -0.004 A 
ATOM      5  C7  UNL d   1      -0.629  -1.552   0.439  0.00  0.00     0.002 A 
ATOM      6  C8  UNL d   1      -0.005  -2.797   0.344  0.00  0.00     0.002 A 
ENDROOT
BRANCH   1   7
ATOM      7  C2  UNL d   1       2.053  -4.261   0.418  0.00  0.00     0.056 C 
BRANCH   7   8
ATOM      8  C1  UNL d   1       3.582  -4.197   0.343  0.00  0.00     0.007 C 
ATOM      9  C   UNL d   1       4.241  -5.570   0.319  0.00  0.00     0.009 C 
ENDBRANCH   7   8
ENDBRANCH   1   7
TORSDOF 2
ENDMDL
