MODEL 1
REMARK minimizedAffinity -3.74698853
REMARK minimizedRMSD -1
REMARK  2 active torsions:
REMARK  status: ('A' for Active; 'I' for Inactive)
REMARK    1  A    between atoms: C1_2  and  C2_3 
REMARK    2  A    between atoms: C2_3  and  C3_4 
ROOT
ATOM      1  C3  UNL d   1       0.980  -1.517   0.407  0.00  0.00    -0.075 A 
ATOM      2  C4  UNL d   1       0.319  -2.739   0.217  0.00  0.00     0.002 A 
ATOM      3  C5  UNL d   1       1.025  -3.870  -0.196  0.00  0.00     0.002 A 
ATOM      4  C6  UNL d   1       2.395  -3.791  -0.432  0.00  0.00    -0.004 A 
ATOM      5  C7  UNL d   1       3.059  -2.578  -0.262  0.00  0.00     0.002 A 
ATOM      6  C8  UNL d   1       2.356  -1.446   0.155  0.00  0.00     0.002 A 
ENDROOT
BRANCH   1   7
ATOM      7  C2  UNL d   1       0.227  -0.297   0.882  0.00  0.00     0.056 C 
BRANCH   7   8
ATOM      8  C1  UNL d   1      -1.260  -0.549   1.155  0.00  0.00     0.007 C 
ATOM      9  C   UNL d   1      -1.917   0.558   1.968  0.00  0.00     0.009 C 
ENDBRANCH   7   8
ENDBRANCH   1   7
TORSDOF 2
ENDMDL
