MODEL 1
REMARK minimizedAffinity -2.19558406
REMARK minimizedRMSD -1
REMARK  2 active torsions:
REMARK  status: ('A' for Active; 'I' for Inactive)
REMARK    1  A    between atoms: C1_2  and  C2_3 
REMARK    2  A    between atoms: C2_3  and  C3_4 
ROOT
ATOM      1  C3  UNL d   1       2.578  -3.169   0.081  0.00  0.00    -0.075 A 
ATOM      2  C4  UNL d   1       1.379  -3.874   0.260  0.00  0.00     0.002 A 
ATOM      3  C5  UNL d   1       0.229  -3.216   0.698  0.00  0.00     0.002 A 
ATOM      4  C6  UNL d   1       0.266  -1.850   0.970  0.00  0.00    -0.004 A 
ATOM      5  C7  UNL d   1       1.456  -1.143   0.811  0.00  0.00     0.002 A 
ATOM      6  C8  UNL d   1       2.607  -1.798   0.370  0.00  0.00     0.002 A 
ENDROOT
BRANCH   1   7
ATOM      7  C2  UNL d   1       3.818  -3.870  -0.420  0.00  0.00     0.056 C 
BRANCH   7   8
ATOM      8  C1  UNL d   1       3.753  -5.398  -0.325  0.00  0.00     0.007 C 
ATOM      9  C   UNL d   1       4.803  -5.987   0.607  0.00  0.00     0.009 C 
ENDBRANCH   7   8
ENDBRANCH   1   7
TORSDOF 2
ENDMDL
