MODEL 1
REMARK minimizedAffinity -3.87409616
REMARK minimizedRMSD -1
REMARK  2 active torsions:
REMARK  status: ('A' for Active; 'I' for Inactive)
REMARK    1  A    between atoms: C1_2  and  C2_3 
REMARK    2  A    between atoms: C2_3  and  C3_4 
ROOT
ATOM      1  C3  UNL d   1       2.032  -2.085   0.077  0.00  0.00    -0.075 A 
ATOM      2  C4  UNL d   1       1.964  -0.761   0.534  0.00  0.00     0.002 A 
ATOM      3  C5  UNL d   1       0.736  -0.189   0.869  0.00  0.00     0.002 A 
ATOM      4  C6  UNL d   1      -0.438  -0.928   0.742  0.00  0.00    -0.004 A 
ATOM      5  C7  UNL d   1      -0.384  -2.239   0.273  0.00  0.00     0.002 A 
ATOM      6  C8  UNL d   1       0.843  -2.815  -0.059  0.00  0.00     0.002 A 
ENDROOT
BRANCH   1   7
ATOM      7  C2  UNL d   1       3.360  -2.719  -0.259  0.00  0.00     0.056 C 
BRANCH   7   8
ATOM      8  C1  UNL d   1       3.306  -4.244  -0.399  0.00  0.00     0.007 C 
ATOM      9  C   UNL d   1       4.682  -4.897  -0.395  0.00  0.00     0.009 C 
ENDBRANCH   7   8
ENDBRANCH   1   7
TORSDOF 2
ENDMDL
