MODEL 1
REMARK minimizedAffinity 1.9452486
REMARK minimizedRMSD -1
REMARK  2 active torsions:
REMARK  status: ('A' for Active; 'I' for Inactive)
REMARK    1  A    between atoms: C1_2  and  C2_3 
REMARK    2  A    between atoms: C2_3  and  C3_4 
ROOT
ATOM      1  C3  UNL d   1      -1.871  -0.839   1.139  0.00  0.00    -0.075 A 
ATOM      2  C4  UNL d   1      -2.964  -0.328   0.426  0.00  0.00     0.002 A 
ATOM      3  C5  UNL d   1      -3.428   0.965   0.670  0.00  0.00     0.002 A 
ATOM      4  C6  UNL d   1      -2.812   1.758   1.636  0.00  0.00    -0.004 A 
ATOM      5  C7  UNL d   1      -1.736   1.255   2.363  0.00  0.00     0.002 A 
ATOM      6  C8  UNL d   1      -1.267  -0.037   2.117  0.00  0.00     0.002 A 
ENDROOT
BRANCH   1   7
ATOM      7  C2  UNL d   1      -1.346  -2.227   0.859  0.00  0.00     0.056 C 
BRANCH   7   8
ATOM      8  C1  UNL d   1      -0.109  -2.255  -0.046  0.00  0.00     0.007 C 
ATOM      9  C   UNL d   1       1.197  -2.377   0.727  0.00  0.00     0.009 C 
ENDBRANCH   7   8
ENDBRANCH   1   7
TORSDOF 2
ENDMDL
