MODEL 1
REMARK minimizedAffinity -2.9937551
REMARK minimizedRMSD -1
REMARK  2 active torsions:
REMARK  status: ('A' for Active; 'I' for Inactive)
REMARK    1  A    between atoms: C1_2  and  C2_3 
REMARK    2  A    between atoms: C2_3  and  C3_4 
ROOT
ATOM      1  C3  UNL d   1       1.678  -1.876   0.527  0.00  0.00    -0.075 A 
ATOM      2  C4  UNL d   1       1.741  -0.747   1.357  0.00  0.00     0.002 A 
ATOM      3  C5  UNL d   1       0.593  -0.005   1.633  0.00  0.00     0.002 A 
ATOM      4  C6  UNL d   1      -0.630  -0.376   1.077  0.00  0.00    -0.004 A 
ATOM      5  C7  UNL d   1      -0.702  -1.485   0.238  0.00  0.00     0.002 A 
ATOM      6  C8  UNL d   1       0.445  -2.232  -0.037  0.00  0.00     0.002 A 
ENDROOT
BRANCH   1   7
ATOM      7  C2  UNL d   1       2.912  -2.700   0.248  0.00  0.00     0.056 C 
BRANCH   7   8
ATOM      8  C1  UNL d   1       2.705  -4.209   0.413  0.00  0.00     0.007 C 
ATOM      9  C   UNL d   1       4.000  -4.967   0.675  0.00  0.00     0.009 C 
ENDBRANCH   7   8
ENDBRANCH   1   7
TORSDOF 2
ENDMDL
