MODEL 1
REMARK minimizedAffinity 1.60400879
REMARK minimizedRMSD -1
REMARK  2 active torsions:
REMARK  status: ('A' for Active; 'I' for Inactive)
REMARK    1  A    between atoms: C1_2  and  C2_3 
REMARK    2  A    between atoms: C2_3  and  C3_4 
ROOT
ATOM      1  C3  UNL d   1       1.282  -2.866   0.264  0.00  0.00    -0.075 A 
ATOM      2  C4  UNL d   1       2.017  -1.682   0.107  0.00  0.00     0.002 A 
ATOM      3  C5  UNL d   1       1.448  -0.448   0.423  0.00  0.00     0.002 A 
ATOM      4  C6  UNL d   1       0.137  -0.381   0.890  0.00  0.00    -0.004 A 
ATOM      5  C7  UNL d   1      -0.608  -1.549   1.035  0.00  0.00     0.002 A 
ATOM      6  C8  UNL d   1      -0.040  -2.786   0.723  0.00  0.00     0.002 A 
ENDROOT
BRANCH   1   7
ATOM      7  C2  UNL d   1       1.901  -4.207  -0.049  0.00  0.00     0.056 C 
BRANCH   7   8
ATOM      8  C1  UNL d   1       3.430  -4.228   0.056  0.00  0.00     0.007 C 
ATOM      9  C   UNL d   1       4.038  -5.576  -0.305  0.00  0.00     0.009 C 
ENDBRANCH   7   8
ENDBRANCH   1   7
TORSDOF 2
ENDMDL
