MODEL 1
REMARK minimizedAffinity -4.21563292
REMARK minimizedRMSD -1
REMARK  2 active torsions:
REMARK  status: ('A' for Active; 'I' for Inactive)
REMARK    1  A    between atoms: C1_2  and  C2_3 
REMARK    2  A    between atoms: C2_3  and  C3_4 
ROOT
ATOM      1  C3  UNL d   1       1.414  -2.463   0.122  0.00  0.00    -0.075 A 
ATOM      2  C4  UNL d   1       2.071  -1.323   0.607  0.00  0.00     0.002 A 
ATOM      3  C5  UNL d   1       1.354  -0.307   1.238  0.00  0.00     0.002 A 
ATOM      4  C6  UNL d   1      -0.028  -0.412   1.384  0.00  0.00    -0.004 A 
ATOM      5  C7  UNL d   1      -0.693  -1.532   0.891  0.00  0.00     0.002 A 
ATOM      6  C8  UNL d   1       0.023  -2.553   0.262  0.00  0.00     0.002 A 
ENDROOT
BRANCH   1   7
ATOM      7  C2  UNL d   1       2.189  -3.579  -0.537  0.00  0.00     0.056 C 
BRANCH   7   8
ATOM      8  C1  UNL d   1       3.599  -3.777   0.028  0.00  0.00     0.007 C 
ATOM      9  C   UNL d   1       4.213  -5.120  -0.346  0.00  0.00     0.009 C 
ENDBRANCH   7   8
ENDBRANCH   1   7
TORSDOF 2
ENDMDL
