MODEL 1
REMARK minimizedAffinity -4.13091516
REMARK minimizedRMSD -1
REMARK  2 active torsions:
REMARK  status: ('A' for Active; 'I' for Inactive)
REMARK    1  A    between atoms: C1_2  and  C2_3 
REMARK    2  A    between atoms: C2_3  and  C3_4 
ROOT
ATOM      1  C3  UNL d   1       0.983  -1.463   0.722  0.00  0.00    -0.075 A 
ATOM      2  C4  UNL d   1       0.459  -2.764   0.723  0.00  0.00     0.002 A 
ATOM      3  C5  UNL d   1       1.274  -3.856   0.421  0.00  0.00     0.002 A 
ATOM      4  C6  UNL d   1       2.617  -3.661   0.106  0.00  0.00    -0.004 A 
ATOM      5  C7  UNL d   1       3.144  -2.371   0.085  0.00  0.00     0.002 A 
ATOM      6  C8  UNL d   1       2.332  -1.277   0.391  0.00  0.00     0.002 A 
ENDROOT
BRANCH   1   7
ATOM      7  C2  UNL d   1       0.114  -0.280   1.076  0.00  0.00     0.056 C 
BRANCH   7   8
ATOM      8  C1  UNL d   1      -1.389  -0.567   1.006  0.00  0.00     0.007 C 
ATOM      9  C   UNL d   1      -2.239   0.522   1.647  0.00  0.00     0.009 C 
ENDBRANCH   7   8
ENDBRANCH   1   7
TORSDOF 2
ENDMDL
