MODEL 1
REMARK minimizedAffinity 0.844175041
REMARK minimizedRMSD -1
REMARK  2 active torsions:
REMARK  status: ('A' for Active; 'I' for Inactive)
REMARK    1  A    between atoms: C1_2  and  C2_3 
REMARK    2  A    between atoms: C2_3  and  C3_4 
ROOT
ATOM      1  C3  UNL d   1      -0.516  -2.320   0.727  0.00  0.00    -0.075 A 
ATOM      2  C4  UNL d   1       0.500  -2.391  -0.237  0.00  0.00     0.002 A 
ATOM      3  C5  UNL d   1       1.599  -1.533  -0.173  0.00  0.00     0.002 A 
ATOM      4  C6  UNL d   1       1.691  -0.590   0.848  0.00  0.00    -0.004 A 
ATOM      5  C7  UNL d   1       0.679  -0.499   1.802  0.00  0.00     0.002 A 
ATOM      6  C8  UNL d   1      -0.419  -1.359   1.742  0.00  0.00     0.002 A 
ENDROOT
BRANCH   1   7
ATOM      7  C2  UNL d   1      -1.693  -3.264   0.680  0.00  0.00     0.056 C 
BRANCH   7   8
ATOM      8  C1  UNL d   1      -2.956  -2.722   1.358  0.00  0.00     0.007 C 
ATOM      9  C   UNL d   1      -4.122  -3.701   1.327  0.00  0.00     0.009 C 
ENDBRANCH   7   8
ENDBRANCH   1   7
TORSDOF 2
ENDMDL
