MODEL 1
REMARK minimizedAffinity -1.28594434
REMARK minimizedRMSD -1
REMARK  2 active torsions:
REMARK  status: ('A' for Active; 'I' for Inactive)
REMARK    1  A    between atoms: C1_2  and  C2_3 
REMARK    2  A    between atoms: C2_3  and  C3_4 
ROOT
ATOM      1  C3  UNL d   1       0.892  -1.630   0.316  0.00  0.00    -0.075 A 
ATOM      2  C4  UNL d   1       0.488  -2.968   0.435  0.00  0.00     0.002 A 
ATOM      3  C5  UNL d   1       1.367  -4.004   0.119  0.00  0.00     0.002 A 
ATOM      4  C6  UNL d   1       2.655  -3.717  -0.327  0.00  0.00    -0.004 A 
ATOM      5  C7  UNL d   1       3.061  -2.392  -0.465  0.00  0.00     0.002 A 
ATOM      6  C8  UNL d   1       2.185  -1.353  -0.146  0.00  0.00     0.002 A 
ENDROOT
BRANCH   1   7
ATOM      7  C2  UNL d   1      -0.045  -0.504   0.684  0.00  0.00     0.056 C 
BRANCH   7   8
ATOM      8  C1  UNL d   1       0.485   0.412   1.792  0.00  0.00     0.007 C 
ATOM      9  C   UNL d   1       1.290  -0.330   2.850  0.00  0.00     0.009 C 
ENDBRANCH   7   8
ENDBRANCH   1   7
TORSDOF 2
ENDMDL
