MODEL 1
REMARK minimizedAffinity 16.6449318
REMARK minimizedRMSD -1
REMARK  0 active torsions:
REMARK  status: ('A' for Active; 'I' for Inactive)
ROOT
ATOM      1  C   UNL d   1      -3.989   0.771  -2.895  0.00  0.00    -0.002 A 
ATOM      2  C1  UNL d   1      -5.206   0.514  -3.510  0.00  0.00     0.010 A 
ATOM      3  C2  UNL d   1      -5.894   1.530  -4.175  0.00  0.00     0.041 A 
ATOM      4  C3  UNL d   1      -5.333   2.821  -4.214  0.00  0.00    -0.075 A 
ATOM      5  S   UNL d   1      -5.997   4.221  -4.971  0.00  0.00     0.015 SA
ATOM      6  C4  UNL d   1      -4.680   5.194  -4.496  0.00  0.00     0.022 A 
ATOM      7  C5  UNL d   1      -3.748   4.484  -3.777  0.00  0.00     0.026 A 
ATOM      8  C6  UNL d   1      -4.108   3.105  -3.603  0.00  0.00    -0.082 A 
ATOM      9  C7  UNL d   1      -3.435   2.054  -2.936  0.00  0.00     0.045 A 
ENDROOT
TORSDOF 0
ENDMDL
