MODEL 1
REMARK minimizedAffinity 15.2182493
REMARK minimizedRMSD -1
REMARK  0 active torsions:
REMARK  status: ('A' for Active; 'I' for Inactive)
ROOT
ATOM      1  C   UNL d   1       5.988  -5.028  -0.659  0.00  0.00    -0.002 A 
ATOM      2  C1  UNL d   1       4.921  -4.807  -1.518  0.00  0.00     0.010 A 
ATOM      3  C2  UNL d   1       3.721  -4.278  -1.038  0.00  0.00     0.041 A 
ATOM      4  C3  UNL d   1       3.612  -3.970   0.332  0.00  0.00    -0.075 A 
ATOM      5  S   UNL d   1       2.240  -3.313   1.143  0.00  0.00     0.015 SA
ATOM      6  C4  UNL d   1       3.038  -3.310   2.649  0.00  0.00     0.022 A 
ATOM      7  C5  UNL d   1       4.321  -3.795   2.554  0.00  0.00     0.026 A 
ATOM      8  C6  UNL d   1       4.673  -4.183   1.217  0.00  0.00    -0.082 A 
ATOM      9  C7  UNL d   1       5.876  -4.722   0.700  0.00  0.00     0.045 A 
ENDROOT
TORSDOF 0
ENDMDL
