MODEL 1
REMARK minimizedAffinity 12.6370611
REMARK minimizedRMSD -1
REMARK  0 active torsions:
REMARK  status: ('A' for Active; 'I' for Inactive)
ROOT
ATOM      1  C   UNL d   1       1.329  -4.107   1.869  0.00  0.00    -0.002 A 
ATOM      2  C1  UNL d   1       1.386  -2.722   1.797  0.00  0.00     0.010 A 
ATOM      3  C2  UNL d   1       2.597  -2.074   1.548  0.00  0.00     0.041 A 
ATOM      4  C3  UNL d   1       3.760  -2.847   1.369  0.00  0.00    -0.075 A 
ATOM      5  S   UNL d   1       5.354  -2.271   1.052  0.00  0.00     0.015 SA
ATOM      6  C4  UNL d   1       5.996  -3.849   1.004  0.00  0.00     0.022 A 
ATOM      7  C5  UNL d   1       5.032  -4.804   1.223  0.00  0.00     0.026 A 
ATOM      8  C6  UNL d   1       3.728  -4.243   1.436  0.00  0.00    -0.082 A 
ATOM      9  C7  UNL d   1       2.485  -4.871   1.691  0.00  0.00     0.045 A 
ENDROOT
TORSDOF 0
ENDMDL
