MODEL 1
REMARK minimizedAffinity 12.6404667
REMARK minimizedRMSD -1
REMARK  0 active torsions:
REMARK  status: ('A' for Active; 'I' for Inactive)
ROOT
ATOM      1  C   UNL d   1      -5.573  -2.681  -3.560  0.00  0.00    -0.002 A 
ATOM      2  C1  UNL d   1      -4.449  -2.276  -4.266  0.00  0.00     0.010 A 
ATOM      3  C2  UNL d   1      -3.361  -1.707  -3.602  0.00  0.00     0.041 A 
ATOM      4  C3  UNL d   1      -3.421  -1.551  -2.203  0.00  0.00    -0.075 A 
ATOM      5  S   UNL d   1      -2.208  -0.881  -1.178  0.00  0.00     0.015 SA
ATOM      6  C4  UNL d   1      -3.152  -1.117   0.221  0.00  0.00     0.022 A 
ATOM      7  C5  UNL d   1      -4.367  -1.692  -0.069  0.00  0.00     0.026 A 
ATOM      8  C6  UNL d   1      -4.542  -1.952  -1.470  0.00  0.00    -0.082 A 
ATOM      9  C7  UNL d   1      -5.629  -2.525  -2.172  0.00  0.00     0.045 A 
ENDROOT
TORSDOF 0
ENDMDL
