MODEL 1
REMARK minimizedAffinity 15.8254261
REMARK minimizedRMSD -1
REMARK  0 active torsions:
REMARK  status: ('A' for Active; 'I' for Inactive)
ROOT
ATOM      1  C   UNL d   1       5.443   0.046  -3.216  0.00  0.00    -0.002 A 
ATOM      2  C1  UNL d   1       5.690  -0.061  -1.854  0.00  0.00     0.010 A 
ATOM      3  C2  UNL d   1       4.671   0.168  -0.928  0.00  0.00     0.041 A 
ATOM      4  C3  UNL d   1       3.387   0.508  -1.397  0.00  0.00    -0.075 A 
ATOM      5  S   UNL d   1       1.985   0.833  -0.447  0.00  0.00     0.015 SA
ATOM      6  C4  UNL d   1       1.026   1.121  -1.826  0.00  0.00     0.022 A 
ATOM      7  C5  UNL d   1       1.741   0.978  -2.991  0.00  0.00     0.026 A 
ATOM      8  C6  UNL d   1       3.114   0.622  -2.763  0.00  0.00    -0.082 A 
ATOM      9  C7  UNL d   1       4.168   0.384  -3.677  0.00  0.00     0.045 A 
ENDROOT
TORSDOF 0
ENDMDL
