MODEL 1
REMARK minimizedAffinity 12.6266022
REMARK minimizedRMSD -1
REMARK  0 active torsions:
REMARK  status: ('A' for Active; 'I' for Inactive)
ROOT
ATOM      1  C   UNL d   1       1.690  -1.163   3.336  0.00  0.00    -0.002 A 
ATOM      2  C1  UNL d   1       1.602  -2.338   2.605  0.00  0.00     0.010 A 
ATOM      3  C2  UNL d   1       0.359  -2.839   2.213  0.00  0.00     0.041 A 
ATOM      4  C3  UNL d   1      -0.805  -2.130   2.571  0.00  0.00    -0.075 A 
ATOM      5  S   UNL d   1      -2.435  -2.553   2.200  0.00  0.00     0.015 SA
ATOM      6  C4  UNL d   1      -3.052  -1.182   3.003  0.00  0.00     0.022 A 
ATOM      7  C5  UNL d   1      -2.053  -0.410   3.547  0.00  0.00     0.026 A 
ATOM      8  C6  UNL d   1      -0.742  -0.944   3.306  0.00  0.00    -0.082 A 
ATOM      9  C7  UNL d   1       0.534  -0.462   3.689  0.00  0.00     0.045 A 
ENDROOT
TORSDOF 0
ENDMDL
