MODEL 1
REMARK minimizedAffinity 6.75004387
REMARK minimizedRMSD -1
REMARK  0 active torsions:
REMARK  status: ('A' for Active; 'I' for Inactive)
ROOT
ATOM      1  C   UNL d   1       2.537  -2.946   1.550  0.00  0.00    -0.002 A 
ATOM      2  C1  UNL d   1       2.139  -4.272   1.454  0.00  0.00     0.010 A 
ATOM      3  C2  UNL d   1       0.885  -4.674   1.918  0.00  0.00     0.041 A 
ATOM      4  C3  UNL d   1       0.028  -3.710   2.485  0.00  0.00    -0.075 A 
ATOM      5  S   UNL d   1      -1.554  -3.970   3.120  0.00  0.00     0.015 SA
ATOM      6  C4  UNL d   1      -1.740  -2.327   3.533  0.00  0.00     0.022 A 
ATOM      7  C5  UNL d   1      -0.632  -1.584   3.202  0.00  0.00     0.026 A 
ATOM      8  C6  UNL d   1       0.405  -2.368   2.593  0.00  0.00    -0.082 A 
ATOM      9  C7  UNL d   1       1.684  -1.993   2.113  0.00  0.00     0.045 A 
ENDROOT
TORSDOF 0
ENDMDL
