MODEL 1
REMARK minimizedAffinity 6.43032074
REMARK minimizedRMSD -1
REMARK  0 active torsions:
REMARK  status: ('A' for Active; 'I' for Inactive)
ROOT
ATOM      1  C   UNL d   1       1.884  -4.192   1.998  0.00  0.00    -0.002 A 
ATOM      2  C1  UNL d   1       1.860  -2.832   2.271  0.00  0.00     0.010 A 
ATOM      3  C2  UNL d   1       2.500  -2.323   3.402  0.00  0.00     0.041 A 
ATOM      4  C3  UNL d   1       3.173  -3.213   4.262  0.00  0.00    -0.075 A 
ATOM      5  S   UNL d   1       4.028  -2.817   5.706  0.00  0.00     0.015 SA
ATOM      6  C4  UNL d   1       4.446  -4.444   5.994  0.00  0.00     0.022 A 
ATOM      7  C5  UNL d   1       3.953  -5.283   5.022  0.00  0.00     0.026 A 
ATOM      8  C6  UNL d   1       3.212  -4.587   4.008  0.00  0.00    -0.082 A 
ATOM      9  C7  UNL d   1       2.553  -5.072   2.853  0.00  0.00     0.045 A 
ENDROOT
TORSDOF 0
ENDMDL
