MODEL 1
REMARK minimizedAffinity 12.255003
REMARK minimizedRMSD -1
REMARK  1 active torsions:
REMARK  status: ('A' for Active; 'I' for Inactive)
REMARK    1  A    between atoms: C1_2  and  C2_3 
ROOT
ATOM      1  C2  UNL d   1      -4.135   5.085   1.482  0.00  0.00    -0.081 A 
ATOM      2  C3  UNL d   1      -4.252   3.695   1.607  0.00  0.00     0.006 A 
ATOM      3  C4  UNL d   1      -3.237   2.855   1.143  0.00  0.00     0.002 A 
ATOM      4  C5  UNL d   1      -2.086   3.389   0.555  0.00  0.00    -0.080 A 
ATOM      5  C6  UNL d   1      -0.976   2.499   0.081  0.00  0.00     0.076 C 
ATOM      6  C7  UNL d   1      -1.977   4.777   0.414  0.00  0.00     0.002 A 
ATOM      7  C8  UNL d   1      -2.991   5.618   0.877  0.00  0.00     0.006 A 
ENDROOT
BRANCH   1   8
ATOM      8  C1  UNL d   1      -5.198   5.997   2.039  0.00  0.00     0.054 C 
ATOM      9  C   UNL d   1      -5.182   6.000   3.561  0.00  0.00     0.018 C 
ENDBRANCH   1   8
TORSDOF 1
ENDMDL
