MODEL 1
REMARK minimizedAffinity 20.3540077
REMARK minimizedRMSD -1
REMARK  1 active torsions:
REMARK  status: ('A' for Active; 'I' for Inactive)
REMARK    1  A    between atoms: C1_2  and  C2_3 
ROOT
ATOM      1  C2  UNL d   1       4.662  -5.240  -1.637  0.00  0.00    -0.081 A 
ATOM      2  C3  UNL d   1       5.537  -4.931  -2.686  0.00  0.00     0.006 A 
ATOM      3  C4  UNL d   1       5.081  -4.236  -3.808  0.00  0.00     0.002 A 
ATOM      4  C5  UNL d   1       3.744  -3.831  -3.897  0.00  0.00    -0.080 A 
ATOM      5  C6  UNL d   1       3.248  -3.057  -5.082  0.00  0.00     0.076 C 
ATOM      6  C7  UNL d   1       2.866  -4.155  -2.858  0.00  0.00     0.002 A 
ATOM      7  C8  UNL d   1       3.321  -4.851  -1.736  0.00  0.00     0.006 A 
ENDROOT
BRANCH   1   8
ATOM      8  C1  UNL d   1       5.166  -5.933  -0.397  0.00  0.00     0.054 C 
ATOM      9  C   UNL d   1       5.756  -4.938   0.591  0.00  0.00     0.018 C 
ENDBRANCH   1   8
TORSDOF 1
ENDMDL
