MODEL 1
REMARK minimizedAffinity 16.1308537
REMARK minimizedRMSD -1
REMARK  1 active torsions:
REMARK  status: ('A' for Active; 'I' for Inactive)
REMARK    1  A    between atoms: C1_2  and  C2_3 
ROOT
ATOM      1  C2  UNL d   1      -5.024   5.951   1.945  0.00  0.00    -0.081 A 
ATOM      2  C3  UNL d   1      -5.978   5.870   0.924  0.00  0.00     0.006 A 
ATOM      3  C4  UNL d   1      -5.580   5.764  -0.411  0.00  0.00     0.002 A 
ATOM      4  C5  UNL d   1      -4.222   5.730  -0.745  0.00  0.00    -0.080 A 
ATOM      5  C6  UNL d   1      -3.781   5.587  -2.172  0.00  0.00     0.076 C 
ATOM      6  C7  UNL d   1      -3.269   5.829   0.273  0.00  0.00     0.002 A 
ATOM      7  C8  UNL d   1      -3.666   5.935   1.608  0.00  0.00     0.006 A 
ENDROOT
BRANCH   1   8
ATOM      8  C1  UNL d   1      -5.450   5.999   3.391  0.00  0.00     0.054 C 
ATOM      9  C   UNL d   1      -5.969   4.648   3.860  0.00  0.00     0.018 C 
ENDBRANCH   1   8
TORSDOF 1
ENDMDL
