MODEL 1
REMARK minimizedAffinity 4.52320337
REMARK minimizedRMSD -1
REMARK  1 active torsions:
REMARK  status: ('A' for Active; 'I' for Inactive)
REMARK    1  A    between atoms: C1_2  and  C2_3 
ROOT
ATOM      1  C2  UNL d   1      -4.110   2.968  -4.415  0.00  0.00    -0.081 A 
ATOM      2  C3  UNL d   1      -2.775   2.668  -4.117  0.00  0.00     0.006 A 
ATOM      3  C4  UNL d   1      -1.784   3.643  -4.249  0.00  0.00     0.002 A 
ATOM      4  C5  UNL d   1      -2.111   4.935  -4.673  0.00  0.00    -0.080 A 
ATOM      5  C6  UNL d   1      -1.061   6.000  -4.790  0.00  0.00     0.076 C 
ATOM      6  C7  UNL d   1      -3.442   5.230  -4.988  0.00  0.00     0.002 A 
ATOM      7  C8  UNL d   1      -4.434   4.256  -4.856  0.00  0.00     0.006 A 
ENDROOT
BRANCH   1   8
ATOM      8  C1  UNL d   1      -5.191   1.938  -4.211  0.00  0.00     0.054 C 
ATOM      9  C   UNL d   1      -5.996   1.721  -5.485  0.00  0.00     0.018 C 
ENDBRANCH   1   8
TORSDOF 1
ENDMDL
