MODEL 1
REMARK minimizedAffinity 22.117239
REMARK minimizedRMSD -1
REMARK  1 active torsions:
REMARK  status: ('A' for Active; 'I' for Inactive)
REMARK    1  A    between atoms: C1_2  and  C2_3 
ROOT
ATOM      1  C2  UNL d   1       0.903   2.314   2.531  0.00  0.00    -0.081 A 
ATOM      2  C3  UNL d   1       0.239   1.601   1.526  0.00  0.00     0.006 A 
ATOM      3  C4  UNL d   1       0.299   2.028   0.197  0.00  0.00     0.002 A 
ATOM      4  C5  UNL d   1       1.030   3.169  -0.150  0.00  0.00    -0.080 A 
ATOM      5  C6  UNL d   1       1.127   3.621  -1.577  0.00  0.00     0.076 C 
ATOM      6  C7  UNL d   1       1.680   3.891   0.857  0.00  0.00     0.002 A 
ATOM      7  C8  UNL d   1       1.620   3.466   2.186  0.00  0.00     0.006 A 
ENDROOT
BRANCH   1   8
ATOM      8  C1  UNL d   1       0.894   1.821   3.955  0.00  0.00     0.054 C 
ATOM      9  C   UNL d   1       1.453   0.408   4.055  0.00  0.00     0.018 C 
ENDBRANCH   1   8
TORSDOF 1
ENDMDL
