MODEL 1
REMARK minimizedAffinity 10.2753639
REMARK minimizedRMSD -1
REMARK  1 active torsions:
REMARK  status: ('A' for Active; 'I' for Inactive)
REMARK    1  A    between atoms: C1_2  and  C2_3 
ROOT
ATOM      1  C2  UNL d   1       4.945  -3.719   0.635  0.00  0.00    -0.081 A 
ATOM      2  C3  UNL d   1       5.372  -2.453   1.053  0.00  0.00     0.006 A 
ATOM      3  C4  UNL d   1       4.448  -1.426   1.257  0.00  0.00     0.002 A 
ATOM      4  C5  UNL d   1       3.082  -1.649   1.055  0.00  0.00    -0.080 A 
ATOM      5  C6  UNL d   1       2.076  -0.564   1.300  0.00  0.00     0.076 C 
ATOM      6  C7  UNL d   1       2.657  -2.909   0.620  0.00  0.00     0.002 A 
ATOM      7  C8  UNL d   1       3.580  -3.937   0.415  0.00  0.00     0.006 A 
ENDROOT
BRANCH   1   8
ATOM      8  C1  UNL d   1       5.932  -4.847   0.476  0.00  0.00     0.054 C 
ATOM      9  C   UNL d   1       5.611  -6.000   1.417  0.00  0.00     0.018 C 
ENDBRANCH   1   8
TORSDOF 1
ENDMDL
