MODEL 1
REMARK minimizedAffinity 13.6552668
REMARK minimizedRMSD -1
REMARK  1 active torsions:
REMARK  status: ('A' for Active; 'I' for Inactive)
REMARK    1  A    between atoms: C1_2  and  C2_3 
ROOT
ATOM      1  C2  UNL d   1      -2.038  -0.320   3.333  0.00  0.00    -0.081 A 
ATOM      2  C3  UNL d   1      -0.807  -0.666   2.762  0.00  0.00     0.006 A 
ATOM      3  C4  UNL d   1      -0.187   0.185   1.845  0.00  0.00     0.002 A 
ATOM      4  C5  UNL d   1      -0.783   1.400   1.489  0.00  0.00    -0.080 A 
ATOM      5  C6  UNL d   1      -0.113   2.338   0.529  0.00  0.00     0.076 C 
ATOM      6  C7  UNL d   1      -2.021   1.739   2.046  0.00  0.00     0.002 A 
ATOM      7  C8  UNL d   1      -2.641   0.887   2.963  0.00  0.00     0.006 A 
ENDROOT
BRANCH   1   8
ATOM      8  C1  UNL d   1      -2.678  -1.206   4.371  0.00  0.00     0.054 C 
ATOM      9  C   UNL d   1      -1.779  -2.382   4.724  0.00  0.00     0.018 C 
ENDBRANCH   1   8
TORSDOF 1
ENDMDL
