MODEL 1
REMARK minimizedAffinity 8.56629276
REMARK minimizedRMSD -1
REMARK  1 active torsions:
REMARK  status: ('A' for Active; 'I' for Inactive)
REMARK    1  A    between atoms: C1_2  and  C2_3 
ROOT
ATOM      1  C2  UNL d   1       4.776  -3.715   0.871  0.00  0.00    -0.081 A 
ATOM      2  C3  UNL d   1       5.240  -2.567   1.524  0.00  0.00     0.006 A 
ATOM      3  C4  UNL d   1       4.367  -1.516   1.816  0.00  0.00     0.002 A 
ATOM      4  C5  UNL d   1       3.015  -1.599   1.467  0.00  0.00    -0.080 A 
ATOM      5  C6  UNL d   1       2.061  -0.491   1.802  0.00  0.00     0.076 C 
ATOM      6  C7  UNL d   1       2.555  -2.738   0.799  0.00  0.00     0.002 A 
ATOM      7  C8  UNL d   1       3.427  -3.789   0.506  0.00  0.00     0.006 A 
ENDROOT
BRANCH   1   8
ATOM      8  C1  UNL d   1       5.700  -4.877   0.612  0.00  0.00     0.054 C 
ATOM      9  C   UNL d   1       5.494  -5.986   1.634  0.00  0.00     0.018 C 
ENDBRANCH   1   8
TORSDOF 1
ENDMDL
