MODEL 1
REMARK minimizedAffinity 15.2072477
REMARK minimizedRMSD -1
REMARK  1 active torsions:
REMARK  status: ('A' for Active; 'I' for Inactive)
REMARK    1  A    between atoms: C1_2  and  C2_3 
ROOT
ATOM      1  C2  UNL d   1      -4.377   5.821  -0.701  0.00  0.00    -0.081 A 
ATOM      2  C3  UNL d   1      -3.348   5.837   0.248  0.00  0.00     0.006 A 
ATOM      3  C4  UNL d   1      -3.643   5.884   1.612  0.00  0.00     0.002 A 
ATOM      4  C5  UNL d   1      -4.972   5.907   2.050  0.00  0.00    -0.080 A 
ATOM      5  C6  UNL d   1      -5.303   5.927   3.513  0.00  0.00     0.076 C 
ATOM      6  C7  UNL d   1      -6.000   5.908   1.102  0.00  0.00     0.002 A 
ATOM      7  C8  UNL d   1      -5.705   5.862  -0.263  0.00  0.00     0.006 A 
ENDROOT
BRANCH   1   8
ATOM      8  C1  UNL d   1      -4.063   5.705  -2.171  0.00  0.00     0.054 C 
ATOM      9  C   UNL d   1      -5.325   5.800  -3.016  0.00  0.00     0.018 C 
ENDBRANCH   1   8
TORSDOF 1
ENDMDL
