MODEL 1
REMARK minimizedAffinity 4.53985929
REMARK minimizedRMSD -1
REMARK  1 active torsions:
REMARK  status: ('A' for Active; 'I' for Inactive)
REMARK    1  A    between atoms: C1_2  and  C2_3 
ROOT
ATOM      1  C2  UNL d   1      -0.790  -4.782   5.839  0.00  0.00    -0.081 A 
ATOM      2  C3  UNL d   1      -2.177  -4.889   6.000  0.00  0.00     0.006 A 
ATOM      3  C4  UNL d   1      -3.001  -3.781   5.793  0.00  0.00     0.002 A 
ATOM      4  C5  UNL d   1      -2.454  -2.550   5.413  0.00  0.00    -0.080 A 
ATOM      5  C6  UNL d   1      -3.331  -1.360   5.158  0.00  0.00     0.076 C 
ATOM      6  C7  UNL d   1      -1.067  -2.439   5.270  0.00  0.00     0.002 A 
ATOM      7  C8  UNL d   1      -0.242  -3.546   5.478  0.00  0.00     0.006 A 
ENDROOT
BRANCH   1   8
ATOM      8  C1  UNL d   1       0.096  -5.991   5.999  0.00  0.00     0.054 C 
ATOM      9  C   UNL d   1       1.213  -5.999   4.965  0.00  0.00     0.018 C 
ENDBRANCH   1   8
TORSDOF 1
ENDMDL
