MODEL 1
REMARK minimizedAffinity 6.35116196
REMARK minimizedRMSD -1
REMARK  1 active torsions:
REMARK  status: ('A' for Active; 'I' for Inactive)
REMARK    1  A    between atoms: C1_2  and  C2_3 
ROOT
ATOM      1  C2  UNL d   1      -1.917   5.228  -0.027  0.00  0.00    -0.081 A 
ATOM      2  C3  UNL d   1      -1.829   5.219  -1.424  0.00  0.00     0.006 A 
ATOM      3  C4  UNL d   1      -0.844   4.465  -2.066  0.00  0.00     0.002 A 
ATOM      4  C5  UNL d   1       0.063   3.702  -1.323  0.00  0.00    -0.080 A 
ATOM      5  C6  UNL d   1       1.107   2.865  -2.001  0.00  0.00     0.076 C 
ATOM      6  C7  UNL d   1      -0.014   3.725   0.074  0.00  0.00     0.002 A 
ATOM      7  C8  UNL d   1      -0.998   4.479   0.716  0.00  0.00     0.006 A 
ENDROOT
BRANCH   1   8
ATOM      8  C1  UNL d   1      -3.019   5.989   0.667  0.00  0.00     0.054 C 
ATOM      9  C   UNL d   1      -4.295   5.994  -0.163  0.00  0.00     0.018 C 
ENDBRANCH   1   8
TORSDOF 1
ENDMDL
