MODEL 1
REMARK minimizedAffinity 17.9840164
REMARK minimizedRMSD -1
REMARK  1 active torsions:
REMARK  status: ('A' for Active; 'I' for Inactive)
REMARK    1  A    between atoms: C1_2  and  C2_3 
ROOT
ATOM      1  C2  UNL d   1      -2.338   3.173   0.934  0.00  0.00    -0.081 A 
ATOM      2  C3  UNL d   1      -2.592   2.278   1.981  0.00  0.00     0.006 A 
ATOM      3  C4  UNL d   1      -1.563   1.491   2.504  0.00  0.00     0.002 A 
ATOM      4  C5  UNL d   1      -0.264   1.591   1.996  0.00  0.00    -0.080 A 
ATOM      5  C6  UNL d   1       0.856   0.774   2.569  0.00  0.00     0.076 C 
ATOM      6  C7  UNL d   1      -0.014   2.473   0.939  0.00  0.00     0.002 A 
ATOM      7  C8  UNL d   1      -1.042   3.260   0.415  0.00  0.00     0.006 A 
ENDROOT
BRANCH   1   8
ATOM      8  C1  UNL d   1      -3.431   4.070   0.411  0.00  0.00     0.054 C 
ATOM      9  C   UNL d   1      -4.001   4.949   1.515  0.00  0.00     0.018 C 
ENDBRANCH   1   8
TORSDOF 1
ENDMDL
