MODEL 1
REMARK minimizedAffinity 20.0962658
REMARK minimizedRMSD -1
REMARK  1 active torsions:
REMARK  status: ('A' for Active; 'I' for Inactive)
REMARK    1  A    between atoms: C1_2  and  C2_3 
ROOT
ATOM      1  C2  UNL d   1       2.076  -0.863  -5.673  0.00  0.00    -0.081 A 
ATOM      2  C3  UNL d   1       0.806  -1.409  -5.899  0.00  0.00     0.006 A 
ATOM      3  C4  UNL d   1       0.638  -2.792  -5.997  0.00  0.00     0.002 A 
ATOM      4  C5  UNL d   1       1.733  -3.653  -5.864  0.00  0.00    -0.080 A 
ATOM      5  C6  UNL d   1       1.560  -5.141  -5.937  0.00  0.00     0.076 C 
ATOM      6  C7  UNL d   1       3.004  -3.106  -5.655  0.00  0.00     0.002 A 
ATOM      7  C8  UNL d   1       3.173  -1.724  -5.558  0.00  0.00     0.006 A 
ENDROOT
BRANCH   1   8
ATOM      8  C1  UNL d   1       2.251   0.624  -5.502  0.00  0.00     0.054 C 
ATOM      9  C   UNL d   1       0.915   1.349  -5.562  0.00  0.00     0.018 C 
ENDBRANCH   1   8
TORSDOF 1
ENDMDL
