MODEL 1
REMARK minimizedAffinity 25.5590992
REMARK minimizedRMSD -1
REMARK  1 active torsions:
REMARK  status: ('A' for Active; 'I' for Inactive)
REMARK    1  A    between atoms: C1_2  and  C2_3 
ROOT
ATOM      1  C2  UNL d   1       0.051   1.893   2.419  0.00  0.00    -0.081 A 
ATOM      2  C3  UNL d   1      -1.248   1.644   1.960  0.00  0.00     0.006 A 
ATOM      3  C4  UNL d   1      -1.702   2.221   0.772  0.00  0.00     0.002 A 
ATOM      4  C5  UNL d   1      -0.863   3.050   0.019  0.00  0.00    -0.080 A 
ATOM      5  C6  UNL d   1      -1.327   3.651  -1.274  0.00  0.00     0.076 C 
ATOM      6  C7  UNL d   1       0.429   3.313   0.487  0.00  0.00     0.002 A 
ATOM      7  C8  UNL d   1       0.884   2.737   1.675  0.00  0.00     0.006 A 
ENDROOT
BRANCH   1   8
ATOM      8  C1  UNL d   1       0.565   1.221   3.667  0.00  0.00     0.054 C 
ATOM      9  C   UNL d   1       0.762   2.224   4.795  0.00  0.00     0.018 C 
ENDBRANCH   1   8
TORSDOF 1
ENDMDL
