MODEL 1
REMARK minimizedAffinity -2.28461695
REMARK minimizedRMSD -1
REMARK  0 active torsions:
REMARK  status: ('A' for Active; 'I' for Inactive)
ROOT
ATOM      1  O1  BZF d   1       2.312  -1.876  -1.017  0.00  0.00    -0.204 OA
ATOM      2  C2  BZF d   1       3.373  -1.808  -0.134  0.00  0.00     0.174 A 
ATOM      3  C3  BZF d   1       3.032  -1.112   0.970  0.00  0.00    -0.012 A 
ATOM      4  C3A BZF d   1       1.646  -0.799   0.805  0.00  0.00    -0.107 A 
ATOM      5  C4  BZF d   1       0.735  -0.135   1.576  0.00  0.00     0.055 A 
ATOM      6  C5  BZF d   1      -0.520   0.062   1.094  0.00  0.00    -0.016 A 
ATOM      7  C6  BZF d   1      -0.897  -0.388  -0.155  0.00  0.00     0.022 A 
ATOM      8  C7  BZF d   1      -0.030  -1.056  -0.954  0.00  0.00     0.029 A 
ATOM      9  C7A BZF d   1       1.230  -1.285  -0.456  0.00  0.00     0.058 A 
ENDROOT
TORSDOF 0
ENDMDL
