MODEL 1
REMARK minimizedAffinity 1.76081288
REMARK minimizedRMSD -1
REMARK  0 active torsions:
REMARK  status: ('A' for Active; 'I' for Inactive)
ROOT
ATOM      1  O1  BZF d   1      -2.071  -0.662   2.717  0.00  0.00    -0.204 OA
ATOM      2  C2  BZF d   1      -2.974  -0.032   1.882  0.00  0.00     0.174 A 
ATOM      3  C3  BZF d   1      -2.425   0.204   0.673  0.00  0.00    -0.012 A 
ATOM      4  C3A BZF d   1      -1.126  -0.395   0.728  0.00  0.00    -0.107 A 
ATOM      5  C4  BZF d   1      -0.106  -0.508  -0.174  0.00  0.00     0.055 A 
ATOM      6  C5  BZF d   1       1.059  -1.088   0.217  0.00  0.00    -0.016 A 
ATOM      7  C6  BZF d   1       1.240  -1.560   1.500  0.00  0.00     0.022 A 
ATOM      8  C7  BZF d   1       0.256  -1.475   2.428  0.00  0.00     0.029 A 
ATOM      9  C7A BZF d   1      -0.935  -0.919   2.027  0.00  0.00     0.058 A 
ENDROOT
TORSDOF 0
ENDMDL
