MODEL 1
REMARK minimizedAffinity 3.29394245
REMARK minimizedRMSD -1
REMARK  0 active torsions:
REMARK  status: ('A' for Active; 'I' for Inactive)
ROOT
ATOM      1  O1  BZF d   1      -2.229  -0.624  -0.562  0.00  0.00    -0.204 OA
ATOM      2  C2  BZF d   1      -3.156  -0.483   0.452  0.00  0.00     0.174 A 
ATOM      3  C3  BZF d   1      -2.555  -0.525   1.659  0.00  0.00    -0.012 A 
ATOM      4  C3A BZF d   1      -1.154  -0.611   1.379  0.00  0.00    -0.107 A 
ATOM      5  C4  BZF d   1      -0.041  -0.668   2.168  0.00  0.00     0.055 A 
ATOM      6  C5  BZF d   1       1.176  -0.821   1.582  0.00  0.00    -0.016 A 
ATOM      7  C6  BZF d   1       1.316  -0.926   0.214  0.00  0.00     0.022 A 
ATOM      8  C7  BZF d   1       0.241  -0.869  -0.610  0.00  0.00     0.029 A 
ATOM      9  C7A BZF d   1      -0.987  -0.681  -0.023  0.00  0.00     0.058 A 
ENDROOT
TORSDOF 0
ENDMDL
