MODEL 1
REMARK minimizedAffinity 9.85796261
REMARK minimizedRMSD -1
REMARK  0 active torsions:
REMARK  status: ('A' for Active; 'I' for Inactive)
ROOT
ATOM      1  O1  BZF d   1      -2.006  -0.629   1.791  0.00  0.00    -0.204 OA
ATOM      2  C2  BZF d   1      -1.998  -1.308   2.995  0.00  0.00     0.174 A 
ATOM      3  C3  BZF d   1      -0.799  -1.886   3.210  0.00  0.00    -0.012 A 
ATOM      4  C3A BZF d   1       0.021  -1.471   2.114  0.00  0.00    -0.107 A 
ATOM      5  C4  BZF d   1       1.323  -1.707   1.773  0.00  0.00     0.055 A 
ATOM      6  C5  BZF d   1       1.798  -1.214   0.599  0.00  0.00    -0.016 A 
ATOM      7  C6  BZF d   1       0.999  -0.488  -0.260  0.00  0.00     0.022 A 
ATOM      8  C7  BZF d   1      -0.297  -0.225   0.037  0.00  0.00     0.029 A 
ATOM      9  C7A BZF d   1      -0.771  -0.693   1.238  0.00  0.00     0.058 A 
ENDROOT
TORSDOF 0
ENDMDL
