MODEL 1
REMARK minimizedAffinity -2.35560107
REMARK minimizedRMSD -1
REMARK  0 active torsions:
REMARK  status: ('A' for Active; 'I' for Inactive)
ROOT
ATOM      1  O1  BZF d   1       5.101   5.963   3.632  0.00  0.00    -0.204 OA
ATOM      2  C2  BZF d   1       4.894   5.950   2.266  0.00  0.00     0.174 A 
ATOM      3  C3  BZF d   1       3.577   5.899   1.982  0.00  0.00    -0.012 A 
ATOM      4  C3A BZF d   1       2.916   5.971   3.249  0.00  0.00    -0.107 A 
ATOM      5  C4  BZF d   1       1.603   5.980   3.623  0.00  0.00     0.055 A 
ATOM      6  C5  BZF d   1       1.293   5.985   4.947  0.00  0.00    -0.016 A 
ATOM      7  C6  BZF d   1       2.270   5.976   5.921  0.00  0.00     0.022 A 
ATOM      8  C7  BZF d   1       3.587   5.972   5.598  0.00  0.00     0.029 A 
ATOM      9  C7A BZF d   1       3.902   6.000   4.261  0.00  0.00     0.058 A 
ENDROOT
TORSDOF 0
ENDMDL
