MODEL 1
REMARK minimizedAffinity 3.88327312
REMARK minimizedRMSD -1
REMARK  0 active torsions:
REMARK  status: ('A' for Active; 'I' for Inactive)
ROOT
ATOM      1  O1  BZF d   1       0.118  -0.838  -1.431  0.00  0.00    -0.204 OA
ATOM      2  C2  BZF d   1       1.388  -1.104  -0.954  0.00  0.00     0.174 A 
ATOM      3  C3  BZF d   1       1.439  -0.943   0.385  0.00  0.00    -0.012 A 
ATOM      4  C3A BZF d   1       0.097  -0.643   0.779  0.00  0.00    -0.107 A 
ATOM      5  C4  BZF d   1      -0.494  -0.396   1.985  0.00  0.00     0.055 A 
ATOM      6  C5  BZF d   1      -1.812  -0.064   2.020  0.00  0.00    -0.016 A 
ATOM      7  C6  BZF d   1      -2.566   0.033   0.869  0.00  0.00     0.022 A 
ATOM      8  C7  BZF d   1      -2.025  -0.208  -0.350  0.00  0.00     0.029 A 
ATOM      9  C7A BZF d   1      -0.702  -0.576  -0.386  0.00  0.00     0.058 A 
ENDROOT
TORSDOF 0
ENDMDL
