MODEL 1
REMARK minimizedAffinity 2.0851953
REMARK minimizedRMSD -1
REMARK  0 active torsions:
REMARK  status: ('A' for Active; 'I' for Inactive)
ROOT
ATOM      1  O1  BZF d   1       0.675   6.000   4.502  0.00  0.00    -0.204 OA
ATOM      2  C2  BZF d   1       1.024   5.941   5.838  0.00  0.00     0.174 A 
ATOM      3  C3  BZF d   1       2.360   5.821   5.978  0.00  0.00    -0.012 A 
ATOM      4  C3A BZF d   1       2.886   5.898   4.650  0.00  0.00    -0.107 A 
ATOM      5  C4  BZF d   1       4.152   5.857   4.137  0.00  0.00     0.055 A 
ATOM      6  C5  BZF d   1       4.319   5.884   2.789  0.00  0.00    -0.016 A 
ATOM      7  C6  BZF d   1       3.246   5.946   1.925  0.00  0.00     0.022 A 
ATOM      8  C7  BZF d   1       1.972   5.993   2.386  0.00  0.00     0.029 A 
ATOM      9  C7A BZF d   1       1.801   5.999   3.749  0.00  0.00     0.058 A 
ENDROOT
TORSDOF 0
ENDMDL
