MODEL 1
REMARK minimizedAffinity -3.42593718
REMARK minimizedRMSD -1
REMARK  0 active torsions:
REMARK  status: ('A' for Active; 'I' for Inactive)
ROOT
ATOM      1  O1  BZF d   1       3.014   5.971   2.080  0.00  0.00    -0.204 OA
ATOM      2  C2  BZF d   1       4.393   5.956   2.150  0.00  0.00     0.174 A 
ATOM      3  C3  BZF d   1       4.808   5.999   3.433  0.00  0.00    -0.012 A 
ATOM      4  C3A BZF d   1       3.612   5.951   4.216  0.00  0.00    -0.107 A 
ATOM      5  C4  BZF d   1       3.369   5.947   5.560  0.00  0.00     0.055 A 
ATOM      6  C5  BZF d   1       2.084   5.969   6.000  0.00  0.00    -0.016 A 
ATOM      7  C6  BZF d   1       1.018   6.000   5.125  0.00  0.00     0.022 A 
ATOM      8  C7  BZF d   1       1.208   5.999   3.783  0.00  0.00     0.029 A 
ATOM      9  C7A BZF d   1       2.505   5.945   3.336  0.00  0.00     0.058 A 
ENDROOT
TORSDOF 0
ENDMDL
