MODEL 1
REMARK minimizedAffinity -0.143068224
REMARK minimizedRMSD -1
REMARK  0 active torsions:
REMARK  status: ('A' for Active; 'I' for Inactive)
ROOT
ATOM      1  C   UNL d   1      -0.317  -2.555  -0.927  0.00  0.00     0.124 A 
ATOM      2  C1  UNL d   1       0.727  -1.891  -0.298  0.00  0.00     0.062 A 
ATOM      3  C2  UNL d   1       0.592  -0.552   0.057  0.00  0.00     0.162 A 
ATOM      4  C3  UNL d   1      -0.593   0.132  -0.215  0.00  0.00    -0.034 A 
ATOM      5  C4  UNL d   1      -1.638  -0.542  -0.848  0.00  0.00     0.162 A 
ATOM      6  C5  UNL d   1      -1.498  -1.880  -1.201  0.00  0.00     0.062 A 
ATOM      7  F   UNL d   1      -2.508  -2.520  -1.808  0.00  0.00    -0.097 F 
ATOM      8  F1  UNL d   1      -2.791   0.085  -1.124  0.00  0.00    -0.096 F 
ATOM      9  I   UNL d   1      -0.799   2.135   0.315  0.00  0.00    -0.060 I 
ATOM     10  F2  UNL d   1       1.617   0.065   0.663  0.00  0.00    -0.096 F 
ATOM     11  F3  UNL d   1       1.870  -2.540  -0.033  0.00  0.00    -0.097 F 
ATOM     12  F4  UNL d   1      -0.184  -3.843  -1.268  0.00  0.00    -0.092 F 
ENDROOT
TORSDOF 0
ENDMDL
