MODEL 1
REMARK minimizedAffinity -1.03294122
REMARK minimizedRMSD -1
REMARK  0 active torsions:
REMARK  status: ('A' for Active; 'I' for Inactive)
ROOT
ATOM      1  C   UNL d   1      -0.057   1.720   0.505  0.00  0.00     0.124 A 
ATOM      2  C1  UNL d   1      -1.383   1.517   0.148  0.00  0.00     0.062 A 
ATOM      3  C2  UNL d   1      -1.757   0.359  -0.528  0.00  0.00     0.162 A 
ATOM      4  C3  UNL d   1      -0.803  -0.607  -0.850  0.00  0.00    -0.034 A 
ATOM      5  C4  UNL d   1       0.529  -0.396  -0.488  0.00  0.00     0.162 A 
ATOM      6  C5  UNL d   1       0.897   0.763   0.188  0.00  0.00     0.062 A 
ATOM      7  F   UNL d   1       2.179   0.957   0.532  0.00  0.00    -0.097 F 
ATOM      8  F1  UNL d   1       1.471  -1.304  -0.782  0.00  0.00    -0.096 F 
ATOM      9  I   UNL d   1      -1.358  -2.339  -1.860  0.00  0.00    -0.060 I 
ATOM     10  F2  UNL d   1      -3.045   0.190  -0.861  0.00  0.00    -0.096 F 
ATOM     11  F3  UNL d   1      -2.306   2.440   0.453  0.00  0.00    -0.097 F 
ATOM     12  F4  UNL d   1       0.300   2.835   1.155  0.00  0.00    -0.092 F 
ENDROOT
TORSDOF 0
ENDMDL
