MODEL 1
REMARK minimizedAffinity -2.99382949
REMARK minimizedRMSD -1
REMARK  0 active torsions:
REMARK  status: ('A' for Active; 'I' for Inactive)
ROOT
ATOM      1  C   UNL d   1       1.220   2.523   0.959  0.00  0.00     0.124 A 
ATOM      2  C1  UNL d   1       2.137   1.483   0.897  0.00  0.00     0.062 A 
ATOM      3  C2  UNL d   1       1.718   0.198   0.568  0.00  0.00     0.162 A 
ATOM      4  C3  UNL d   1       0.373  -0.056   0.296  0.00  0.00    -0.034 A 
ATOM      5  C4  UNL d   1      -0.544   0.994   0.361  0.00  0.00     0.162 A 
ATOM      6  C5  UNL d   1      -0.120   2.278   0.691  0.00  0.00     0.062 A 
ATOM      7  F   UNL d   1      -1.008   3.281   0.750  0.00  0.00    -0.097 F 
ATOM      8  F1  UNL d   1      -1.844   0.786   0.106  0.00  0.00    -0.096 F 
ATOM      9  I   UNL d   1      -0.258  -1.977  -0.197  0.00  0.00    -0.060 I 
ATOM     10  F2  UNL d   1       2.626  -0.788   0.516  0.00  0.00    -0.096 F 
ATOM     11  F3  UNL d   1       3.432   1.717   1.157  0.00  0.00    -0.097 F 
ATOM     12  F4  UNL d   1       1.626   3.759   1.277  0.00  0.00    -0.092 F 
ENDROOT
TORSDOF 0
ENDMDL
