MODEL 1
REMARK minimizedAffinity 1.48730969
REMARK minimizedRMSD -1
REMARK  0 active torsions:
REMARK  status: ('A' for Active; 'I' for Inactive)
ROOT
ATOM      1  C   UNL d   1      -1.011   1.911   0.478  0.00  0.00     0.124 A 
ATOM      2  C1  UNL d   1      -1.228   0.599   0.875  0.00  0.00     0.062 A 
ATOM      3  C2  UNL d   1      -0.225  -0.354   0.723  0.00  0.00     0.162 A 
ATOM      4  C3  UNL d   1       1.006   0.002   0.172  0.00  0.00    -0.034 A 
ATOM      5  C4  UNL d   1       1.217   1.324  -0.226  0.00  0.00     0.162 A 
ATOM      6  C5  UNL d   1       0.211   2.272  -0.072  0.00  0.00     0.062 A 
ATOM      7  F   UNL d   1       0.423   3.539  -0.457  0.00  0.00    -0.097 F 
ATOM      8  F1  UNL d   1       2.388   1.700  -0.760  0.00  0.00    -0.096 F 
ATOM      9  I   UNL d   1       2.509  -1.419  -0.057  0.00  0.00    -0.060 I 
ATOM     10  F2  UNL d   1      -0.463  -1.614   1.116  0.00  0.00    -0.096 F 
ATOM     11  F3  UNL d   1      -2.408   0.248   1.406  0.00  0.00    -0.097 F 
ATOM     12  F4  UNL d   1      -1.978   2.825   0.624  0.00  0.00    -0.092 F 
ENDROOT
TORSDOF 0
ENDMDL
