MODEL 1
REMARK minimizedAffinity -0.520371735
REMARK minimizedRMSD -1
REMARK  0 active torsions:
REMARK  status: ('A' for Active; 'I' for Inactive)
ROOT
ATOM      1  C   UNL d   1       0.359   2.922   0.686  0.00  0.00     0.124 A 
ATOM      2  C1  UNL d   1      -0.833   2.238   0.883  0.00  0.00     0.062 A 
ATOM      3  C2  UNL d   1      -0.900   0.868   0.651  0.00  0.00     0.162 A 
ATOM      4  C3  UNL d   1       0.229   0.170   0.222  0.00  0.00    -0.034 A 
ATOM      5  C4  UNL d   1       1.424   0.865   0.026  0.00  0.00     0.162 A 
ATOM      6  C5  UNL d   1       1.486   2.235   0.259  0.00  0.00     0.062 A 
ATOM      7  F   UNL d   1       2.639   2.894   0.068  0.00  0.00    -0.097 F 
ATOM      8  F1  UNL d   1       2.529   0.226  -0.386  0.00  0.00    -0.096 F 
ATOM      9  I   UNL d   1       0.133  -1.879  -0.125  0.00  0.00    -0.060 I 
ATOM     10  F2  UNL d   1      -2.065   0.233   0.849  0.00  0.00    -0.096 F 
ATOM     11  F3  UNL d   1      -1.924   2.900   1.295  0.00  0.00    -0.097 F 
ATOM     12  F4  UNL d   1       0.420   4.241   0.909  0.00  0.00    -0.092 F 
ENDROOT
TORSDOF 0
ENDMDL
