MODEL 1
REMARK minimizedAffinity 3.32289457
REMARK minimizedRMSD -1
REMARK  0 active torsions:
REMARK  status: ('A' for Active; 'I' for Inactive)
ROOT
ATOM      1  C   UNL d   1       1.511   0.566   0.425  0.00  0.00     0.124 A 
ATOM      2  C1  UNL d   1       2.088  -0.621  -0.006  0.00  0.00     0.062 A 
ATOM      3  C2  UNL d   1       1.307  -1.597  -0.618  0.00  0.00     0.162 A 
ATOM      4  C3  UNL d   1      -0.060  -1.390  -0.805  0.00  0.00    -0.034 A 
ATOM      5  C4  UNL d   1      -0.633  -0.194  -0.369  0.00  0.00     0.162 A 
ATOM      6  C5  UNL d   1       0.152   0.779   0.243  0.00  0.00     0.062 A 
ATOM      7  F   UNL d   1      -0.407   1.925   0.658  0.00  0.00    -0.097 F 
ATOM      8  F1  UNL d   1      -1.944   0.038  -0.533  0.00  0.00    -0.096 F 
ATOM      9  I   UNL d   1      -1.231  -2.846  -1.720  0.00  0.00    -0.060 I 
ATOM     10  F2  UNL d   1       1.891  -2.734  -1.024  0.00  0.00    -0.096 F 
ATOM     11  F3  UNL d   1       3.400  -0.829   0.170  0.00  0.00    -0.097 F 
ATOM     12  F4  UNL d   1       2.264   1.503   1.014  0.00  0.00    -0.092 F 
ENDROOT
TORSDOF 0
ENDMDL
