MODEL 1
REMARK minimizedAffinity -5.14419174
REMARK minimizedRMSD -1
REMARK  0 active torsions:
REMARK  status: ('A' for Active; 'I' for Inactive)
ROOT
ATOM      1  C   UNL d   1       0.536  -2.227   0.786  0.00  0.00     0.124 A 
ATOM      2  C1  UNL d   1      -0.725  -1.733   1.090  0.00  0.00     0.062 A 
ATOM      3  C2  UNL d   1      -0.929  -0.361   1.208  0.00  0.00     0.162 A 
ATOM      4  C3  UNL d   1       0.130   0.527   1.021  0.00  0.00    -0.034 A 
ATOM      5  C4  UNL d   1       1.396   0.022   0.716  0.00  0.00     0.162 A 
ATOM      6  C5  UNL d   1       1.594  -1.350   0.599  0.00  0.00     0.062 A 
ATOM      7  F   UNL d   1       2.813  -1.826   0.305  0.00  0.00    -0.097 F 
ATOM      8  F1  UNL d   1       2.436   0.848   0.530  0.00  0.00    -0.096 F 
ATOM      9  I   UNL d   1      -0.171   2.579   1.197  0.00  0.00    -0.060 I 
ATOM     10  F2  UNL d   1      -2.158   0.089   1.502  0.00  0.00    -0.096 F 
ATOM     11  F3  UNL d   1      -1.750  -2.578   1.271  0.00  0.00    -0.097 F 
ATOM     12  F4  UNL d   1       0.729  -3.548   0.673  0.00  0.00    -0.092 F 
ENDROOT
TORSDOF 0
ENDMDL
