MODEL 1
REMARK minimizedAffinity -2.56818771
REMARK minimizedRMSD -1
REMARK  0 active torsions:
REMARK  status: ('A' for Active; 'I' for Inactive)
ROOT
ATOM      1  C   UNL d   1      -1.530   1.679   0.520  0.00  0.00     0.124 A 
ATOM      2  C1  UNL d   1      -1.916   0.369   0.771  0.00  0.00     0.062 A 
ATOM      3  C2  UNL d   1      -1.013  -0.674   0.591  0.00  0.00     0.162 A 
ATOM      4  C3  UNL d   1       0.287  -0.411   0.158  0.00  0.00    -0.034 A 
ATOM      5  C4  UNL d   1       0.668   0.908  -0.093  0.00  0.00     0.162 A 
ATOM      6  C5  UNL d   1      -0.239   1.947   0.089  0.00  0.00     0.062 A 
ATOM      7  F   UNL d   1       0.136   3.211  -0.154  0.00  0.00    -0.097 F 
ATOM      8  F1  UNL d   1       1.910   1.195  -0.510  0.00  0.00    -0.096 F 
ATOM      9  I   UNL d   1       1.642  -1.968  -0.113  0.00  0.00    -0.060 I 
ATOM     10  F2  UNL d   1      -1.413  -1.929   0.840  0.00  0.00    -0.096 F 
ATOM     11  F3  UNL d   1      -3.164   0.108   1.187  0.00  0.00    -0.097 F 
ATOM     12  F4  UNL d   1      -2.402   2.680   0.694  0.00  0.00    -0.092 F 
ENDROOT
TORSDOF 0
ENDMDL
