MODEL 1
REMARK minimizedAffinity 1.44684732
REMARK minimizedRMSD -1
REMARK  0 active torsions:
REMARK  status: ('A' for Active; 'I' for Inactive)
ROOT
ATOM      1  C   UNL d   1      -0.131   0.680   0.465  0.00  0.00     0.124 A 
ATOM      2  C1  UNL d   1       0.726  -0.372   0.175  0.00  0.00     0.062 A 
ATOM      3  C2  UNL d   1       0.344  -1.358  -0.730  0.00  0.00     0.162 A 
ATOM      4  C3  UNL d   1      -0.902  -1.296  -1.354  0.00  0.00    -0.034 A 
ATOM      5  C4  UNL d   1      -1.759  -0.235  -1.057  0.00  0.00     0.162 A 
ATOM      6  C5  UNL d   1      -1.373   0.748  -0.152  0.00  0.00     0.062 A 
ATOM      7  F   UNL d   1      -2.203   1.764   0.126  0.00  0.00    -0.097 F 
ATOM      8  F1  UNL d   1      -2.965  -0.144  -1.639  0.00  0.00    -0.096 F 
ATOM      9  I   UNL d   1      -1.477  -2.768  -2.708  0.00  0.00    -0.060 I 
ATOM     10  F2  UNL d   1       1.193  -2.363  -0.990  0.00  0.00    -0.096 F 
ATOM     11  F3  UNL d   1       1.926  -0.440   0.770  0.00  0.00    -0.097 F 
ATOM     12  F4  UNL d   1       0.238   1.627   1.337  0.00  0.00    -0.092 F 
ENDROOT
TORSDOF 0
ENDMDL
