MODEL 1
REMARK minimizedAffinity -3.72718692
REMARK minimizedRMSD -1
REMARK  0 active torsions:
REMARK  status: ('A' for Active; 'I' for Inactive)
ROOT
ATOM      1  C   UNL d   1       1.533   2.198   0.685  0.00  0.00     0.124 A 
ATOM      2  C1  UNL d   1       2.391   1.112   0.795  0.00  0.00     0.062 A 
ATOM      3  C2  UNL d   1       1.920  -0.177   0.563  0.00  0.00     0.162 A 
ATOM      4  C3  UNL d   1       0.585  -0.388   0.218  0.00  0.00    -0.034 A 
ATOM      5  C4  UNL d   1      -0.271   0.710   0.109  0.00  0.00     0.162 A 
ATOM      6  C5  UNL d   1       0.204   1.996   0.342  0.00  0.00     0.062 A 
ATOM      7  F   UNL d   1      -0.626   3.045   0.235  0.00  0.00    -0.097 F 
ATOM      8  F1  UNL d   1      -1.560   0.543  -0.221  0.00  0.00    -0.096 F 
ATOM      9  I   UNL d   1      -0.122  -2.314  -0.130  0.00  0.00    -0.060 I 
ATOM     10  F2  UNL d   1       2.771  -1.208   0.677  0.00  0.00    -0.096 F 
ATOM     11  F3  UNL d   1       3.675   1.305   1.127  0.00  0.00    -0.097 F 
ATOM     12  F4  UNL d   1       1.989   3.438   0.910  0.00  0.00    -0.092 F 
ENDROOT
TORSDOF 0
ENDMDL
