MODEL 1
REMARK minimizedAffinity 0.658014536
REMARK minimizedRMSD -1
REMARK  0 active torsions:
REMARK  status: ('A' for Active; 'I' for Inactive)
ROOT
ATOM      1  C   UNL d   1      -1.657  -3.991  -1.523  0.00  0.00     0.124 A 
ATOM      2  C1  UNL d   1      -0.727  -3.548  -2.453  0.00  0.00     0.062 A 
ATOM      3  C2  UNL d   1       0.060  -2.433  -2.179  0.00  0.00     0.162 A 
ATOM      4  C3  UNL d   1      -0.079  -1.753  -0.970  0.00  0.00    -0.034 A 
ATOM      5  C4  UNL d   1      -1.018  -2.203  -0.040  0.00  0.00     0.162 A 
ATOM      6  C5  UNL d   1      -1.802  -3.318  -0.317  0.00  0.00     0.062 A 
ATOM      7  F   UNL d   1      -2.700  -3.744   0.582  0.00  0.00    -0.097 F 
ATOM      8  F1  UNL d   1      -1.178  -1.572   1.133  0.00  0.00    -0.096 F 
ATOM      9  I   UNL d   1       1.096  -0.085  -0.558  0.00  0.00    -0.060 I 
ATOM     10  F2  UNL d   1       0.951  -2.028  -3.096  0.00  0.00    -0.096 F 
ATOM     11  F3  UNL d   1      -0.586  -4.196  -3.618  0.00  0.00    -0.097 F 
ATOM     12  F4  UNL d   1      -2.414  -5.063  -1.788  0.00  0.00    -0.092 F 
ENDROOT
TORSDOF 0
ENDMDL
