MODEL 1
REMARK minimizedAffinity 3.50308156
REMARK minimizedRMSD -1
REMARK  0 active torsions:
REMARK  status: ('A' for Active; 'I' for Inactive)
ROOT
ATOM      1  C   UNL d   1       0.371   2.058   0.739  0.00  0.00     0.124 A 
ATOM      2  C1  UNL d   1      -0.989   1.915   0.499  0.00  0.00     0.062 A 
ATOM      3  C2  UNL d   1      -1.505   0.681   0.114  0.00  0.00     0.162 A 
ATOM      4  C3  UNL d   1      -0.661  -0.421  -0.032  0.00  0.00    -0.034 A 
ATOM      5  C4  UNL d   1       0.705  -0.268   0.211  0.00  0.00     0.162 A 
ATOM      6  C5  UNL d   1       1.216   0.967   0.595  0.00  0.00     0.062 A 
ATOM      7  F   UNL d   1       2.530   1.104   0.827  0.00  0.00    -0.097 F 
ATOM      8  F1  UNL d   1       1.544  -1.306   0.080  0.00  0.00    -0.096 F 
ATOM      9  I   UNL d   1      -1.430  -2.268  -0.607  0.00  0.00    -0.060 I 
ATOM     10  F2  UNL d   1      -2.823   0.571  -0.112  0.00  0.00    -0.096 F 
ATOM     11  F3  UNL d   1      -1.807   2.968   0.636  0.00  0.00    -0.097 F 
ATOM     12  F4  UNL d   1       0.865   3.247   1.108  0.00  0.00    -0.092 F 
ENDROOT
TORSDOF 0
ENDMDL
