MODEL 1
REMARK minimizedAffinity 1.32440352
REMARK minimizedRMSD -1
REMARK  0 active torsions:
REMARK  status: ('A' for Active; 'I' for Inactive)
ROOT
ATOM      1  C   UNL d   1       0.369   0.223   0.104  0.00  0.00     0.124 A 
ATOM      2  C1  UNL d   1       1.074  -0.269  -0.986  0.00  0.00     0.062 A 
ATOM      3  C2  UNL d   1       0.635  -1.413  -1.645  0.00  0.00     0.162 A 
ATOM      4  C3  UNL d   1      -0.516  -2.074  -1.216  0.00  0.00    -0.034 A 
ATOM      5  C4  UNL d   1      -1.219  -1.574  -0.119  0.00  0.00     0.162 A 
ATOM      6  C5  UNL d   1      -0.776  -0.429   0.536  0.00  0.00     0.062 A 
ATOM      7  F   UNL d   1      -1.459   0.045   1.589  0.00  0.00    -0.097 F 
ATOM      8  F1  UNL d   1      -2.330  -2.184   0.319  0.00  0.00    -0.096 F 
ATOM      9  I   UNL d   1      -1.176  -3.786  -2.199  0.00  0.00    -0.060 I 
ATOM     10  F2  UNL d   1       1.336  -1.866  -2.695  0.00  0.00    -0.096 F 
ATOM     11  F3  UNL d   1       2.182   0.360  -1.405  0.00  0.00    -0.097 F 
ATOM     12  F4  UNL d   1       0.795   1.325   0.736  0.00  0.00    -0.092 F 
ENDROOT
TORSDOF 0
ENDMDL
