MODEL 1
REMARK minimizedAffinity -2.41189647
REMARK minimizedRMSD -1
REMARK  0 active torsions:
REMARK  status: ('A' for Active; 'I' for Inactive)
ROOT
ATOM      1  C   UNL d   1      -0.654  -0.695   0.152  0.00  0.00     0.124 A 
ATOM      2  C1  UNL d   1       0.683  -0.395  -0.069  0.00  0.00     0.062 A 
ATOM      3  C2  UNL d   1       1.113   0.928  -0.065  0.00  0.00     0.162 A 
ATOM      4  C3  UNL d   1       0.205   1.963   0.160  0.00  0.00    -0.034 A 
ATOM      5  C4  UNL d   1      -1.138   1.654   0.380  0.00  0.00     0.162 A 
ATOM      6  C5  UNL d   1      -1.563   0.329   0.376  0.00  0.00     0.062 A 
ATOM      7  F   UNL d   1      -2.856   0.041   0.589  0.00  0.00    -0.097 F 
ATOM      8  F1  UNL d   1      -2.038   2.624   0.600  0.00  0.00    -0.096 F 
ATOM      9  I   UNL d   1       0.844   3.944   0.166  0.00  0.00    -0.060 I 
ATOM     10  F2  UNL d   1       2.411   1.189  -0.281  0.00  0.00    -0.096 F 
ATOM     11  F3  UNL d   1       1.563  -1.383  -0.286  0.00  0.00    -0.097 F 
ATOM     12  F4  UNL d   1      -1.066  -1.970   0.147  0.00  0.00    -0.092 F 
ENDROOT
TORSDOF 0
ENDMDL
