MODEL 1
REMARK minimizedAffinity 3.09921575
REMARK minimizedRMSD -1
REMARK  0 active torsions:
REMARK  status: ('A' for Active; 'I' for Inactive)
ROOT
ATOM      1  C   UNL d   1      -0.672   2.750   0.955  0.00  0.00    -0.002 A 
ATOM      2  C1  UNL d   1       0.491   2.814   0.201  0.00  0.00     0.010 A 
ATOM      3  C2  UNL d   1       1.272   1.673   0.003  0.00  0.00     0.041 A 
ATOM      4  C3  UNL d   1       0.860   0.456   0.579  0.00  0.00    -0.075 A 
ATOM      5  S   UNL d   1       1.657  -1.069   0.469  0.00  0.00     0.015 SA
ATOM      6  C4  UNL d   1       0.472  -1.841   1.421  0.00  0.00     0.022 A 
ATOM      7  C5  UNL d   1      -0.515  -0.971   1.821  0.00  0.00     0.026 A 
ATOM      8  C6  UNL d   1      -0.308   0.367   1.342  0.00  0.00    -0.082 A 
ATOM      9  C7  UNL d   1      -1.078   1.541   1.526  0.00  0.00     0.045 A 
ENDROOT
TORSDOF 0
ENDMDL
