MODEL 1
REMARK minimizedAffinity 7.61378574
REMARK minimizedRMSD -1
REMARK  0 active torsions:
REMARK  status: ('A' for Active; 'I' for Inactive)
ROOT
ATOM      1  C   UNL d   1       3.246  -2.393  -1.764  0.00  0.00    -0.002 A 
ATOM      2  C1  UNL d   1       2.320  -2.169  -2.773  0.00  0.00     0.010 A 
ATOM      3  C2  UNL d   1       1.549  -1.005  -2.784  0.00  0.00     0.041 A 
ATOM      4  C3  UNL d   1       1.728  -0.059  -1.755  0.00  0.00    -0.075 A 
ATOM      5  S   UNL d   1       0.897   1.439  -1.565  0.00  0.00     0.015 SA
ATOM      6  C4  UNL d   1       1.752   1.818  -0.140  0.00  0.00     0.022 A 
ATOM      7  C5  UNL d   1       2.654   0.837   0.196  0.00  0.00     0.026 A 
ATOM      8  C6  UNL d   1       2.656  -0.261  -0.730  0.00  0.00    -0.082 A 
ATOM      9  C7  UNL d   1       3.421  -1.452  -0.746  0.00  0.00     0.045 A 
ENDROOT
TORSDOF 0
ENDMDL
