MODEL 1
REMARK minimizedAffinity 2.77843928
REMARK minimizedRMSD -1
REMARK  0 active torsions:
REMARK  status: ('A' for Active; 'I' for Inactive)
ROOT
ATOM      1  C   UNL d   1       0.691   4.929   0.082  0.00  0.00    -0.002 A 
ATOM      2  C1  UNL d   1      -0.443   4.159  -0.134  0.00  0.00     0.010 A 
ATOM      3  C2  UNL d   1      -0.371   2.765  -0.108  0.00  0.00     0.041 A 
ATOM      4  C3  UNL d   1       0.873   2.152   0.142  0.00  0.00    -0.075 A 
ATOM      5  S   UNL d   1       1.201   0.461   0.221  0.00  0.00     0.015 SA
ATOM      6  C4  UNL d   1       2.854   0.721   0.544  0.00  0.00     0.022 A 
ATOM      7  C5  UNL d   1       3.165   2.060   0.593  0.00  0.00     0.026 A 
ATOM      8  C6  UNL d   1       2.029   2.906   0.363  0.00  0.00    -0.082 A 
ATOM      9  C7  UNL d   1       1.922   4.318   0.330  0.00  0.00     0.045 A 
ENDROOT
TORSDOF 0
ENDMDL
