MODEL 1
REMARK minimizedAffinity 8.7674675
REMARK minimizedRMSD -1
REMARK  0 active torsions:
REMARK  status: ('A' for Active; 'I' for Inactive)
ROOT
ATOM      1  C   UNL d   1      -0.318   1.629   0.942  0.00  0.00    -0.002 A 
ATOM      2  C1  UNL d   1      -0.615   2.924   0.543  0.00  0.00     0.010 A 
ATOM      3  C2  UNL d   1      -1.910   3.266   0.146  0.00  0.00     0.041 A 
ATOM      4  C3  UNL d   1      -2.911   2.274   0.159  0.00  0.00    -0.075 A 
ATOM      5  S   UNL d   1      -4.566   2.463  -0.284  0.00  0.00     0.015 SA
ATOM      6  C4  UNL d   1      -4.918   0.828   0.047  0.00  0.00     0.022 A 
ATOM      7  C5  UNL d   1      -3.811   0.141   0.486  0.00  0.00     0.026 A 
ATOM      8  C6  UNL d   1      -2.636   0.963   0.558  0.00  0.00    -0.082 A 
ATOM      9  C7  UNL d   1      -1.314   0.648   0.954  0.00  0.00     0.045 A 
ENDROOT
TORSDOF 0
ENDMDL
