MODEL 1
REMARK minimizedAffinity 4.98662472
REMARK minimizedRMSD -1
REMARK  0 active torsions:
REMARK  status: ('A' for Active; 'I' for Inactive)
ROOT
ATOM      1  C   UNL d   1      -0.590   3.578   1.856  0.00  0.00    -0.002 A 
ATOM      2  C1  UNL d   1       0.217   3.357   0.749  0.00  0.00     0.010 A 
ATOM      3  C2  UNL d   1       0.599   2.061   0.396  0.00  0.00     0.041 A 
ATOM      4  C3  UNL d   1       0.150   0.981   1.181  0.00  0.00    -0.075 A 
ATOM      5  S   UNL d   1       0.490  -0.692   0.938  0.00  0.00     0.015 SA
ATOM      6  C4  UNL d   1      -0.429  -1.153   2.298  0.00  0.00     0.022 A 
ATOM      7  C5  UNL d   1      -0.988  -0.069   2.933  0.00  0.00     0.026 A 
ATOM      8  C6  UNL d   1      -0.664   1.178   2.300  0.00  0.00    -0.082 A 
ATOM      9  C7  UNL d   1      -1.033   2.504   2.632  0.00  0.00     0.045 A 
ENDROOT
TORSDOF 0
ENDMDL
