MODEL 1
REMARK minimizedAffinity 7.34998465
REMARK minimizedRMSD -1
REMARK  0 active torsions:
REMARK  status: ('A' for Active; 'I' for Inactive)
ROOT
ATOM      1  C   UNL d   1      -4.644   0.812   2.029  0.00  0.00    -0.002 A 
ATOM      2  C1  UNL d   1      -5.530   1.697   1.429  0.00  0.00     0.010 A 
ATOM      3  C2  UNL d   1      -5.071   2.658   0.527  0.00  0.00     0.041 A 
ATOM      4  C3  UNL d   1      -3.694   2.715   0.232  0.00  0.00    -0.075 A 
ATOM      5  S   UNL d   1      -2.905   3.808  -0.842  0.00  0.00     0.015 SA
ATOM      6  C4  UNL d   1      -1.375   3.126  -0.532  0.00  0.00     0.022 A 
ATOM      7  C5  UNL d   1      -1.445   2.089   0.368  0.00  0.00     0.026 A 
ATOM      8  C6  UNL d   1      -2.783   1.835   0.823  0.00  0.00    -0.082 A 
ATOM      9  C7  UNL d   1      -3.280   0.872   1.734  0.00  0.00     0.045 A 
ENDROOT
TORSDOF 0
ENDMDL
