MODEL 1
REMARK minimizedAffinity 6.98796654
REMARK minimizedRMSD -1
REMARK  0 active torsions:
REMARK  status: ('A' for Active; 'I' for Inactive)
ROOT
ATOM      1  C   UNL d   1       0.412  -3.377   1.884  0.00  0.00    -0.002 A 
ATOM      2  C1  UNL d   1       1.094  -2.254   1.438  0.00  0.00     0.010 A 
ATOM      3  C2  UNL d   1       2.331  -2.380   0.804  0.00  0.00     0.041 A 
ATOM      4  C3  UNL d   1       2.876  -3.667   0.621  0.00  0.00    -0.075 A 
ATOM      5  S   UNL d   1       4.376  -4.064  -0.131  0.00  0.00     0.015 SA
ATOM      6  C4  UNL d   1       4.145  -5.734   0.121  0.00  0.00     0.022 A 
ATOM      7  C5  UNL d   1       2.958  -6.000   0.762  0.00  0.00     0.026 A 
ATOM      8  C6  UNL d   1       2.207  -4.813   1.060  0.00  0.00    -0.082 A 
ATOM      9  C7  UNL d   1       0.954  -4.652   1.700  0.00  0.00     0.045 A 
ENDROOT
TORSDOF 0
ENDMDL
