MODEL 1
REMARK minimizedAffinity 8.22327805
REMARK minimizedRMSD -1
REMARK  0 active torsions:
REMARK  status: ('A' for Active; 'I' for Inactive)
ROOT
ATOM      1  C   UNL d   1       3.684   0.417  -2.593  0.00  0.00    -0.002 A 
ATOM      2  C1  UNL d   1       2.342   0.429  -2.946  0.00  0.00     0.010 A 
ATOM      3  C2  UNL d   1       1.378   0.912  -2.058  0.00  0.00     0.041 A 
ATOM      4  C3  UNL d   1       1.791   1.388  -0.798  0.00  0.00    -0.075 A 
ATOM      5  S   UNL d   1       0.788   2.027   0.451  0.00  0.00     0.015 SA
ATOM      6  C4  UNL d   1       2.117   2.300   1.482  0.00  0.00     0.022 A 
ATOM      7  C5  UNL d   1       3.305   1.918   0.904  0.00  0.00     0.026 A 
ATOM      8  C6  UNL d   1       3.136   1.387  -0.420  0.00  0.00    -0.082 A 
ATOM      9  C7  UNL d   1       4.089   0.890  -1.342  0.00  0.00     0.045 A 
ENDROOT
TORSDOF 0
ENDMDL
