MODEL 1
REMARK minimizedAffinity 2.60026026
REMARK minimizedRMSD -1
REMARK  0 active torsions:
REMARK  status: ('A' for Active; 'I' for Inactive)
ROOT
ATOM      1  C   UNL d   1       3.141   1.879   1.278  0.00  0.00    -0.002 A 
ATOM      2  C1  UNL d   1       3.451   2.556   0.107  0.00  0.00     0.010 A 
ATOM      3  C2  UNL d   1       2.445   3.146  -0.660  0.00  0.00     0.041 A 
ATOM      4  C3  UNL d   1       1.109   3.044  -0.226  0.00  0.00    -0.075 A 
ATOM      5  S   UNL d   1      -0.289   3.689  -1.003  0.00  0.00     0.015 SA
ATOM      6  C4  UNL d   1      -1.331   3.081   0.201  0.00  0.00     0.022 A 
ATOM      7  C5  UNL d   1      -0.646   2.400   1.179  0.00  0.00     0.026 A 
ATOM      8  C6  UNL d   1       0.771   2.368   0.950  0.00  0.00    -0.082 A 
ATOM      9  C7  UNL d   1       1.814   1.780   1.705  0.00  0.00     0.045 A 
ENDROOT
TORSDOF 0
ENDMDL
