MODEL 1
REMARK minimizedAffinity 6.26020241
REMARK minimizedRMSD -1
REMARK  0 active torsions:
REMARK  status: ('A' for Active; 'I' for Inactive)
ROOT
ATOM      1  C   UNL d   1      -1.390   2.704   0.023  0.00  0.00    -0.002 A 
ATOM      2  C1  UNL d   1      -1.265   1.614   0.873  0.00  0.00     0.010 A 
ATOM      3  C2  UNL d   1      -0.010   1.213   1.334  0.00  0.00     0.041 A 
ATOM      4  C3  UNL d   1       1.129   1.935   0.925  0.00  0.00    -0.075 A 
ATOM      5  S   UNL d   1       2.767   1.627   1.364  0.00  0.00     0.015 SA
ATOM      6  C4  UNL d   1       3.340   2.936   0.435  0.00  0.00     0.022 A 
ATOM      7  C5  UNL d   1       2.320   3.602  -0.201  0.00  0.00     0.026 A 
ATOM      8  C6  UNL d   1       1.028   3.036   0.071  0.00  0.00    -0.082 A 
ATOM      9  C7  UNL d   1      -0.258   3.417  -0.381  0.00  0.00     0.045 A 
ENDROOT
TORSDOF 0
ENDMDL
