MODEL 1
REMARK minimizedAffinity 3.32619882
REMARK minimizedRMSD -1
REMARK  0 active torsions:
REMARK  status: ('A' for Active; 'I' for Inactive)
ROOT
ATOM      1  C   UNL d   1       3.482   3.535   1.382  0.00  0.00    -0.002 A 
ATOM      2  C1  UNL d   1       4.493   2.647   1.721  0.00  0.00     0.010 A 
ATOM      3  C2  UNL d   1       4.395   1.296   1.380  0.00  0.00     0.041 A 
ATOM      4  C3  UNL d   1       3.254   0.850   0.685  0.00  0.00    -0.075 A 
ATOM      5  S   UNL d   1       2.919  -0.759   0.162  0.00  0.00     0.015 SA
ATOM      6  C4  UNL d   1       1.426  -0.304  -0.524  0.00  0.00     0.022 A 
ATOM      7  C5  UNL d   1       1.174   1.038  -0.367  0.00  0.00     0.026 A 
ATOM      8  C6  UNL d   1       2.223   1.725   0.332  0.00  0.00    -0.082 A 
ATOM      9  C7  UNL d   1       2.352   3.088   0.692  0.00  0.00     0.045 A 
ENDROOT
TORSDOF 0
ENDMDL
