MODEL 1
REMARK minimizedAffinity 12.4829311
REMARK minimizedRMSD -1
REMARK  0 active torsions:
REMARK  status: ('A' for Active; 'I' for Inactive)
ROOT
ATOM      1  C   UNL d   1      -1.663   1.619   1.359  0.00  0.00    -0.002 A 
ATOM      2  C1  UNL d   1      -1.505   2.687   0.487  0.00  0.00     0.010 A 
ATOM      3  C2  UNL d   1      -0.235   3.053   0.036  0.00  0.00     0.041 A 
ATOM      4  C3  UNL d   1       0.883   2.319   0.478  0.00  0.00    -0.075 A 
ATOM      5  S   UNL d   1       2.534   2.585   0.056  0.00  0.00     0.015 SA
ATOM      6  C4  UNL d   1       3.067   1.286   1.022  0.00  0.00     0.022 A 
ATOM      7  C5  UNL d   1       2.025   0.654   1.658  0.00  0.00     0.026 A 
ATOM      8  C6  UNL d   1       0.749   1.239   1.354  0.00  0.00    -0.082 A 
ATOM      9  C7  UNL d   1      -0.552   0.893   1.794  0.00  0.00     0.045 A 
ENDROOT
TORSDOF 0
ENDMDL
