MODEL 1
REMARK minimizedAffinity 6.10746765
REMARK minimizedRMSD -1
REMARK  0 active torsions:
REMARK  status: ('A' for Active; 'I' for Inactive)
ROOT
ATOM      1  C   UNL d   1      -3.383  -4.388  -1.163  0.00  0.00    -0.002 A 
ATOM      2  C1  UNL d   1      -2.640  -5.512  -1.494  0.00  0.00     0.010 A 
ATOM      3  C2  UNL d   1      -1.665  -6.000  -0.621  0.00  0.00     0.041 A 
ATOM      4  C3  UNL d   1      -1.449  -5.334   0.601  0.00  0.00    -0.075 A 
ATOM      5  S   UNL d   1      -0.310  -5.752   1.826  0.00  0.00     0.015 SA
ATOM      6  C4  UNL d   1      -0.784  -4.449   2.817  0.00  0.00     0.022 A 
ATOM      7  C5  UNL d   1      -1.786  -3.703   2.243  0.00  0.00     0.026 A 
ATOM      8  C6  UNL d   1      -2.186  -4.201   0.957  0.00  0.00    -0.082 A 
ATOM      9  C7  UNL d   1      -3.167  -3.730   0.050  0.00  0.00     0.045 A 
ENDROOT
TORSDOF 0
ENDMDL
