MODEL 1
REMARK minimizedAffinity 4.97123003
REMARK minimizedRMSD -1
REMARK  0 active torsions:
REMARK  status: ('A' for Active; 'I' for Inactive)
ROOT
ATOM      1  C   UNL d   1       3.003   2.158   0.309  0.00  0.00    -0.002 A 
ATOM      2  C1  UNL d   1       3.302   1.999   1.654  0.00  0.00     0.010 A 
ATOM      3  C2  UNL d   1       2.340   2.264   2.632  0.00  0.00     0.041 A 
ATOM      4  C3  UNL d   1       1.060   2.694   2.230  0.00  0.00    -0.075 A 
ATOM      5  S   UNL d   1      -0.275   3.077   3.250  0.00  0.00     0.015 SA
ATOM      6  C4  UNL d   1      -1.275   3.460   1.924  0.00  0.00     0.022 A 
ATOM      7  C5  UNL d   1      -0.621   3.305   0.724  0.00  0.00     0.026 A 
ATOM      8  C6  UNL d   1       0.735   2.861   0.881  0.00  0.00    -0.082 A 
ATOM      9  C7  UNL d   1       1.732   2.585  -0.086  0.00  0.00     0.045 A 
ENDROOT
TORSDOF 0
ENDMDL
