MODEL 1
REMARK minimizedAffinity 0.102078252
REMARK minimizedRMSD -1
REMARK  0 active torsions:
REMARK  status: ('A' for Active; 'I' for Inactive)
ROOT
ATOM      1  O1  BZF d   1      -0.499  -5.924  -1.951  0.00  0.00    -0.204 OA
ATOM      2  C2  BZF d   1      -1.876  -5.877  -1.846  0.00  0.00     0.174 A 
ATOM      3  C3  BZF d   1      -2.446  -5.818  -3.067  0.00  0.00    -0.012 A 
ATOM      4  C3A BZF d   1      -1.362  -5.923  -3.994  0.00  0.00    -0.107 A 
ATOM      5  C4  BZF d   1      -1.292  -5.943  -5.358  0.00  0.00     0.055 A 
ATOM      6  C5  BZF d   1      -0.072  -5.982  -5.956  0.00  0.00    -0.016 A 
ATOM      7  C6  BZF d   1       1.096  -5.997  -5.222  0.00  0.00     0.022 A 
ATOM      8  C7  BZF d   1       1.077  -5.984  -3.867  0.00  0.00     0.029 A 
ATOM      9  C7A BZF d   1      -0.155  -5.978  -3.260  0.00  0.00     0.058 A 
ENDROOT
TORSDOF 0
ENDMDL
